MODEL 1
REMARK VINA RESULT:     -11.4      0.000      0.000
REMARK SMILES COc1ccc(C(=O)c2ccccc2)cc1[C@@H](C)C(=O)NCCCCCCNC(=O)c1ccc(-c2c3nc(c(-c4c(F)c(F)c(F)c(F)c4F)c4ccc([nH]4)c(-c4c(F)c(F)c(F)c(F)c4F)c4nc(c(-c5c(F)c(F)c(F)c(F)c5F)c5ccc2[nH]5)C=C4)C=C3)cc1
REMARK SMILES IDX 24 1 23 4 22 7 21 10 19 11 20 12 17 14 16 16 3 17 4 18 5 19
REMARK SMILES IDX 15 21 6 22 2 25 1 26 7 30 8 31 9 32 10 33 14 34 11 35 13 37
REMARK SMILES IDX 12 39 18 43 25 47 26 50 27 53 28 56 29 57 30 59 31 60 32 61
REMARK SMILES IDX 93 62 33 63 92 65 34 67 35 70 36 71 86 72 37 73 91 74 85 75
REMARK SMILES IDX 87 76 38 77 90 78 84 80 83 82 39 84 71 87 51 88 70 89 52 90
REMARK SMILES IDX 55 91 69 92 88 93 53 94 54 96 68 98 89 99 56 102 40 104
REMARK SMILES IDX 41 105 49 106 42 107 43 108 47 109 50 110 44 111 45 112
REMARK SMILES IDX 48 113 46 114 72 115 73 116 81 117 74 118 75 119 79 120
REMARK SMILES IDX 82 121 76 122 77 123 80 124 78 125 57 126 58 127 66 128
REMARK SMILES IDX 59 129 60 130 64 131 67 132 61 133 62 134 65 135 63 136
REMARK H PARENT 24 2 24 3 23 5 23 6 22 8 22 9 21 13 17 15 4 20 5 23 15 24 1 27
REMARK H PARENT 1 28 1 29 10 36 14 38 11 40 13 41 12 42 18 44 18 45 18 46
REMARK H PARENT 25 48 25 49 26 51 26 52 27 54 27 55 28 58 32 64 93 66 33 68
REMARK H PARENT 92 69 91 79 85 81 87 83 90 85 84 86 52 95 55 97 88 100 53 101
REMARK H PARENT 89 103
REMARK Flexibility Score: inf
ROOT
ATOM      1  C   UNL A   1      33.720  24.570  23.426  1.00  0.00    -0.052 C 
ATOM      2  H   UNL A   1      34.218  23.933  22.724  1.00  0.00     0.027 H 
ATOM      3  H   UNL A   1      32.767  24.207  23.749  1.00  0.00     0.027 H 
ENDROOT
BRANCH   1   4
ATOM      4  C   UNL A   1      33.437  25.904  22.728  1.00  0.00    -0.036 C 
ATOM      5  H   UNL A   1      33.255  26.638  23.485  1.00  0.00     0.028 H 
ATOM      6  H   UNL A   1      34.299  26.107  22.126  1.00  0.00     0.028 H 
BRANCH   4   7
ATOM      7  C   UNL A   1      32.244  25.912  21.768  1.00  0.00     0.017 C 
ATOM      8  H   UNL A   1      32.570  25.573  20.806  1.00  0.00     0.049 H 
ATOM      9  H   UNL A   1      31.491  25.266  22.169  1.00  0.00     0.049 H 
BRANCH   7  10
ATOM     10  N   UNL A   1      31.668  27.238  21.627  1.00  0.00    -0.356 N 
ATOM     11  C   UNL A   1      30.591  27.857  22.181  1.00  0.00     0.227 C 
ATOM     12  O   UNL A   1      30.357  28.998  21.757  1.00  0.00    -0.274 OA
ATOM     13  H   UNL A   1      32.160  27.808  20.994  1.00  0.00     0.163 HD
BRANCH  11  14
ATOM     14  C   UNL A   1      29.663  27.246  23.248  1.00  0.00     0.064 C 
ATOM     15  H   UNL A   1      29.332  26.341  22.784  1.00  0.00     0.045 H 
BRANCH  14  16
ATOM     16  C   UNL A   1      30.397  26.833  24.517  1.00  0.00     0.007 A 
ATOM     17  C   UNL A   1      31.197  27.719  25.258  1.00  0.00     0.122 A 
ATOM     18  C   UNL A   1      31.836  27.299  26.430  1.00  0.00    -0.019 A 
ATOM     19  C   UNL A   1      31.705  25.982  26.876  1.00  0.00    -0.047 A 
ATOM     20  H   UNL A   1      32.410  27.967  26.968  1.00  0.00     0.066 H 
ATOM     21  C   UNL A   1      30.304  25.507  24.977  1.00  0.00    -0.043 A 
ATOM     22  C   UNL A   1      30.963  25.065  26.131  1.00  0.00     0.023 A 
ATOM     23  H   UNL A   1      32.157  25.688  27.756  1.00  0.00     0.063 H 
ATOM     24  H   UNL A   1      29.729  24.834  24.445  1.00  0.00     0.064 H 
BRANCH  17  25
ATOM     25  O   UNL A   1      31.542  28.962  24.800  1.00  0.00    -0.496 OA
BRANCH  25  26
ATOM     26  C   UNL A   1      32.950  29.167  24.699  1.00  0.00     0.078 C 
ATOM     27  H   UNL A   1      33.171  30.204  24.848  1.00  0.00     0.067 H 
ATOM     28  H   UNL A   1      33.286  28.867  23.729  1.00  0.00     0.067 H 
ATOM     29  H   UNL A   1      33.450  28.586  25.445  1.00  0.00     0.067 H 
ENDBRANCH  25  26
ENDBRANCH  17  25
BRANCH  22  30
ATOM     30  C   UNL A   1      30.868  23.659  26.618  1.00  0.00     0.193 C 
ATOM     31  O   UNL A   1      29.905  23.328  27.307  1.00  0.00    -0.289 OA
BRANCH  30  32
ATOM     32  C   UNL A   1      31.869  22.615  26.279  1.00  0.00     0.022 A 
ATOM     33  C   UNL A   1      32.891  22.380  27.204  1.00  0.00    -0.051 A 
ATOM     34  C   UNL A   1      31.858  21.910  25.068  1.00  0.00    -0.051 A 
ATOM     35  C   UNL A   1      33.876  21.432  26.930  1.00  0.00    -0.062 A 
ATOM     36  H   UNL A   1      32.917  22.908  28.089  1.00  0.00     0.063 H 
ATOM     37  C   UNL A   1      32.832  20.939  24.814  1.00  0.00    -0.062 A 
ATOM     38  H   UNL A   1      31.130  22.108  24.363  1.00  0.00     0.063 H 
ATOM     39  C   UNL A   1      33.842  20.701  25.746  1.00  0.00    -0.062 A 
ATOM     40  H   UNL A   1      34.636  21.273  27.609  1.00  0.00     0.062 H 
ATOM     41  H   UNL A   1      32.804  20.399  23.935  1.00  0.00     0.062 H 
ATOM     42  H   UNL A   1      34.560  19.984  25.558  1.00  0.00     0.062 H 
ENDBRANCH  30  32
ENDBRANCH  22  30
ENDBRANCH  14  16
BRANCH  14  43
ATOM     43  C   UNL A   1      28.344  27.970  23.501  1.00  0.00    -0.049 C 
ATOM     44  H   UNL A   1      28.452  29.005  23.252  1.00  0.00     0.024 H 
ATOM     45  H   UNL A   1      28.079  27.876  24.533  1.00  0.00     0.024 H 
ATOM     46  H   UNL A   1      27.577  27.535  22.895  1.00  0.00     0.024 H 
ENDBRANCH  14  43
ENDBRANCH  11  14
ENDBRANCH   7  10
ENDBRANCH   4   7
ENDBRANCH   1   4
BRANCH   1  47
ATOM     47  C   UNL A   1      34.586  24.637  24.692  1.00  0.00    -0.052 C 
ATOM     48  H   UNL A   1      33.960  24.400  25.527  1.00  0.00     0.027 H 
ATOM     49  H   UNL A   1      34.989  25.628  24.706  1.00  0.00     0.027 H 
BRANCH  47  50
ATOM     50  C   UNL A   1      35.802  23.703  24.742  1.00  0.00    -0.036 C 
ATOM     51  H   UNL A   1      36.534  24.082  24.060  1.00  0.00     0.028 H 
ATOM     52  H   UNL A   1      35.432  22.732  24.491  1.00  0.00     0.028 H 
BRANCH  50  53
ATOM     53  C   UNL A   1      36.472  23.549  26.110  1.00  0.00     0.018 C 
ATOM     54  H   UNL A   1      35.749  23.175  26.804  1.00  0.00     0.049 H 
ATOM     55  H   UNL A   1      36.838  24.512  26.399  1.00  0.00     0.049 H 
BRANCH  53  56
ATOM     56  N   UNL A   1      37.604  22.640  26.084  1.00  0.00    -0.352 N 
ATOM     57  C   UNL A   1      38.934  22.873  26.353  1.00  0.00     0.251 C 
ATOM     58  H   UNL A   1      37.387  21.712  25.835  1.00  0.00     0.163 HD
ATOM     59  O   UNL A   1      39.759  21.992  26.127  1.00  0.00    -0.269 OA
BRANCH  57  60
ATOM     60  C   UNL A   1      39.400  24.175  26.895  1.00  0.00     0.039 A 
ATOM     61  C   UNL A   1      39.193  24.453  28.249  1.00  0.00    -0.049 A 
ATOM     62  C   UNL A   1      39.962  25.157  26.078  1.00  0.00    -0.049 A 
ATOM     63  C   UNL A   1      39.591  25.685  28.785  1.00  0.00    -0.053 A 
ATOM     64  H   UNL A   1      38.746  23.749  28.856  1.00  0.00     0.063 H 
ATOM     65  C   UNL A   1      40.423  26.364  26.628  1.00  0.00    -0.053 A 
ATOM     66  H   UNL A   1      40.041  24.995  25.063  1.00  0.00     0.063 H 
ATOM     67  C   UNL A   1      40.234  26.649  27.989  1.00  0.00    -0.014 A 
ATOM     68  H   UNL A   1      39.408  25.888  29.781  1.00  0.00     0.063 H 
ATOM     69  H   UNL A   1      40.904  27.048  26.024  1.00  0.00     0.063 H 
BRANCH  67  70
ATOM     70  C   UNL A   1      40.697  27.935  28.597  1.00  0.00     0.031 A 
ATOM     71  C   UNL A   1      42.155  28.200  28.877  1.00  0.00     0.074 A 
ATOM     72  C   UNL A   1      39.797  28.893  28.903  1.00  0.00     0.049 A 
ATOM     73  N   UNL A   1      42.728  29.298  29.312  1.00  0.00    -0.248 NA
ATOM     74  C   UNL A   1      43.090  27.086  28.663  1.00  0.00    -0.034 C 
ATOM     75  C   UNL A   1      38.347  28.764  28.759  1.00  0.00    -0.036 A 
ATOM     76  N   UNL A   1      39.970  30.168  29.388  1.00  0.00    -0.354 N 
ATOM     77  C   UNL A   1      44.081  29.005  29.428  1.00  0.00     0.074 A 
ATOM     78  C   UNL A   1      44.238  27.611  29.069  1.00  0.00    -0.034 C 
ATOM     79  H   UNL A   1      42.902  26.141  28.293  1.00  0.00     0.065 H 
ATOM     80  C   UNL A   1      37.766  29.924  29.109  1.00  0.00    -0.036 A 
ATOM     81  H   UNL A   1      37.850  27.918  28.442  1.00  0.00     0.065 H 
ATOM     82  C   UNL A   1      38.799  30.874  29.519  1.00  0.00     0.049 A 
ATOM     83  H   UNL A   1      40.852  30.540  29.620  1.00  0.00     0.167 HD
ATOM     84  C   UNL A   1      45.106  29.824  29.774  1.00  0.00     0.037 A 
ATOM     85  H   UNL A   1      45.128  27.093  29.123  1.00  0.00     0.065 H 
ATOM     86  H   UNL A   1      36.752  30.114  29.091  1.00  0.00     0.065 H 
ATOM     87  C   UNL A   1      38.573  32.144  29.907  1.00  0.00     0.037 A 
ATOM     88  C   UNL A   1      44.974  31.220  30.104  1.00  0.00     0.049 A 
ATOM     89  C   UNL A   1      39.730  33.043  30.252  1.00  0.00     0.074 A 
ATOM     90  C   UNL A   1      45.973  32.140  30.379  1.00  0.00    -0.036 A 
ATOM     91  N   UNL A   1      43.771  31.898  30.210  1.00  0.00    -0.354 N 
ATOM     92  N   UNL A   1      41.012  32.780  30.250  1.00  0.00    -0.248 NA
ATOM     93  C   UNL A   1      39.402  34.425  30.639  1.00  0.00    -0.034 C 
ATOM     94  C   UNL A   1      45.372  33.364  30.695  1.00  0.00    -0.036 A 
ATOM     95  H   UNL A   1      46.988  31.954  30.355  1.00  0.00     0.065 H 
ATOM     96  C   UNL A   1      44.001  33.219  30.571  1.00  0.00     0.049 A 
ATOM     97  H   UNL A   1      42.883  31.503  30.054  1.00  0.00     0.167 HD
ATOM     98  C   UNL A   1      41.645  33.964  30.610  1.00  0.00     0.074 A 
ATOM     99  C   UNL A   1      40.607  34.953  30.803  1.00  0.00    -0.034 C 
ATOM    100  H   UNL A   1      38.477  34.867  30.751  1.00  0.00     0.065 H 
ATOM    101  H   UNL A   1      45.866  34.226  30.973  1.00  0.00     0.065 H 
ATOM    102  C   UNL A   1      42.969  34.204  30.765  1.00  0.00     0.037 A 
ATOM    103  H   UNL A   1      40.781  35.942  31.040  1.00  0.00     0.065 H 
BRANCH  84 104
ATOM    104  C   UNL A   1      46.487  29.232  29.800  1.00  0.00     0.064 A 
ATOM    105  C   UNL A   1      47.297  29.210  28.654  1.00  0.00     0.173 A 
ATOM    106  C   UNL A   1      47.029  28.739  30.997  1.00  0.00     0.173 A 
ATOM    107  F   UNL A   1      46.824  29.667  27.486  1.00  0.00    -0.203 F 
ATOM    108  C   UNL A   1      48.587  28.689  28.699  1.00  0.00     0.198 A 
ATOM    109  C   UNL A   1      48.330  28.244  31.044  1.00  0.00     0.198 A 
ATOM    110  F   UNL A   1      46.302  28.749  32.125  1.00  0.00    -0.203 F 
ATOM    111  F   UNL A   1      49.327  28.640  27.583  1.00  0.00    -0.200 F 
ATOM    112  C   UNL A   1      49.105  28.213  29.894  1.00  0.00     0.200 A 
ATOM    113  F   UNL A   1      48.836  27.798  32.202  1.00  0.00    -0.200 F 
ATOM    114  F   UNL A   1      50.351  27.722  29.937  1.00  0.00    -0.200 F 
ENDBRANCH  84 104
BRANCH  87 115
ATOM    115  C   UNL A   1      37.183  32.666  29.950  1.00  0.00     0.064 A 
ATOM    116  C   UNL A   1      36.625  33.320  28.843  1.00  0.00     0.173 A 
ATOM    117  C   UNL A   1      36.390  32.529  31.098  1.00  0.00     0.173 A 
ATOM    118  F   UNL A   1      37.354  33.495  27.731  1.00  0.00    -0.203 F 
ATOM    119  C   UNL A   1      35.332  33.838  28.890  1.00  0.00     0.198 A 
ATOM    120  C   UNL A   1      35.088  33.022  31.134  1.00  0.00     0.198 A 
ATOM    121  F   UNL A   1      36.878  31.906  32.180  1.00  0.00    -0.203 F 
ATOM    122  F   UNL A   1      34.838  34.499  27.834  1.00  0.00    -0.200 F 
ATOM    123  C   UNL A   1      34.563  33.683  30.034  1.00  0.00     0.200 A 
ATOM    124  F   UNL A   1      34.344  32.861  32.237  1.00  0.00    -0.200 F 
ATOM    125  F   UNL A   1      33.319  34.177  30.077  1.00  0.00    -0.200 F 
ENDBRANCH  87 115
BRANCH 102 126
ATOM    126  C   UNL A   1      43.379  35.600  31.143  1.00  0.00     0.064 A 
ATOM    127  C   UNL A   1      43.708  36.559  30.173  1.00  0.00     0.173 A 
ATOM    128  C   UNL A   1      43.423  35.988  32.490  1.00  0.00     0.173 A 
ATOM    129  F   UNL A   1      43.696  36.234  28.872  1.00  0.00    -0.203 F 
ATOM    130  C   UNL A   1      44.095  37.846  30.540  1.00  0.00     0.198 A 
ATOM    131  C   UNL A   1      43.784  37.285  32.853  1.00  0.00     0.198 A 
ATOM    132  F   UNL A   1      43.113  35.113  33.459  1.00  0.00    -0.203 F 
ATOM    133  F   UNL A   1      44.455  38.729  29.598  1.00  0.00    -0.200 F 
ATOM    134  C   UNL A   1      44.129  38.209  31.878  1.00  0.00     0.200 A 
ATOM    135  F   UNL A   1      43.805  37.636  34.146  1.00  0.00    -0.200 F 
ATOM    136  F   UNL A   1      44.501  39.448  32.229  1.00  0.00    -0.200 F 
ENDBRANCH 102 126
ENDBRANCH  67  70
ENDBRANCH  57  60
ENDBRANCH  53  56
ENDBRANCH  50  53
ENDBRANCH  47  50
ENDBRANCH   1  47
TORSDOF 19
ENDMDL
MODEL 2
REMARK VINA RESULT:     -11.3      4.077      9.017
REMARK SMILES COc1ccc(C(=O)c2ccccc2)cc1[C@@H](C)C(=O)NCCCCCCNC(=O)c1ccc(-c2c3nc(c(-c4c(F)c(F)c(F)c(F)c4F)c4ccc([nH]4)c(-c4c(F)c(F)c(F)c(F)c4F)c4nc(c(-c5c(F)c(F)c(F)c(F)c5F)c5ccc2[nH]5)C=C4)C=C3)cc1
REMARK SMILES IDX 24 1 23 4 22 7 21 10 19 11 20 12 17 14 16 16 3 17 4 18 5 19
REMARK SMILES IDX 15 21 6 22 2 25 1 26 7 30 8 31 9 32 10 33 14 34 11 35 13 37
REMARK SMILES IDX 12 39 18 43 25 47 26 50 27 53 28 56 29 57 30 59 31 60 32 61
REMARK SMILES IDX 93 62 33 63 92 65 34 67 35 70 36 71 86 72 37 73 91 74 85 75
REMARK SMILES IDX 87 76 38 77 90 78 84 80 83 82 39 84 71 87 51 88 70 89 52 90
REMARK SMILES IDX 55 91 69 92 88 93 53 94 54 96 68 98 89 99 56 102 40 104
REMARK SMILES IDX 41 105 49 106 42 107 43 108 47 109 50 110 44 111 45 112
REMARK SMILES IDX 48 113 46 114 72 115 73 116 81 117 74 118 75 119 79 120
REMARK SMILES IDX 82 121 76 122 77 123 80 124 78 125 57 126 58 127 66 128
REMARK SMILES IDX 59 129 60 130 64 131 67 132 61 133 62 134 65 135 63 136
REMARK H PARENT 24 2 24 3 23 5 23 6 22 8 22 9 21 13 17 15 4 20 5 23 15 24 1 27
REMARK H PARENT 1 28 1 29 10 36 14 38 11 40 13 41 12 42 18 44 18 45 18 46
REMARK H PARENT 25 48 25 49 26 51 26 52 27 54 27 55 28 58 32 64 93 66 33 68
REMARK H PARENT 92 69 91 79 85 81 87 83 90 85 84 86 52 95 55 97 88 100 53 101
REMARK H PARENT 89 103
REMARK Flexibility Score: inf
ROOT
ATOM      1  C   UNL A   1      33.958  26.661  24.809  1.00  0.00    -0.052 C 
ATOM      2  H   UNL A   1      32.936  26.528  24.520  1.00  0.00     0.027 H 
ATOM      3  H   UNL A   1      34.633  26.790  23.989  1.00  0.00     0.027 H 
ENDROOT
BRANCH   1   4
ATOM      4  C   UNL A   1      34.414  25.383  25.520  1.00  0.00    -0.036 C 
ATOM      5  H   UNL A   1      35.341  25.593  26.012  1.00  0.00     0.028 H 
ATOM      6  H   UNL A   1      33.619  25.120  26.187  1.00  0.00     0.028 H 
BRANCH   4   7
ATOM      7  C   UNL A   1      34.625  24.161  24.619  1.00  0.00     0.017 C 
ATOM      8  H   UNL A   1      34.070  24.297  23.714  1.00  0.00     0.049 H 
ATOM      9  H   UNL A   1      35.673  24.074  24.420  1.00  0.00     0.049 H 
BRANCH   7  10
ATOM     10  N   UNL A   1      34.187  22.933  25.258  1.00  0.00    -0.356 N 
ATOM     11  C   UNL A   1      33.014  22.245  25.265  1.00  0.00     0.227 C 
ATOM     12  O   UNL A   1      32.985  21.249  26.001  1.00  0.00    -0.274 OA
ATOM     13  H   UNL A   1      34.888  22.508  25.802  1.00  0.00     0.163 HD
BRANCH  11  14
ATOM     14  C   UNL A   1      31.754  22.625  24.463  1.00  0.00     0.064 C 
ATOM     15  H   UNL A   1      31.028  21.922  24.815  1.00  0.00     0.045 H 
BRANCH  14  16
ATOM     16  C   UNL A   1      31.216  24.007  24.809  1.00  0.00     0.007 A 
ATOM     17  C   UNL A   1      30.865  24.383  26.116  1.00  0.00     0.122 A 
ATOM     18  C   UNL A   1      30.393  25.672  26.389  1.00  0.00    -0.019 A 
ATOM     19  C   UNL A   1      30.244  26.605  25.360  1.00  0.00    -0.047 A 
ATOM     20  H   UNL A   1      30.152  25.935  27.357  1.00  0.00     0.066 H 
ATOM     21  C   UNL A   1      31.031  24.959  23.790  1.00  0.00    -0.043 A 
ATOM     22  C   UNL A   1      30.531  26.243  24.044  1.00  0.00     0.023 A 
ATOM     23  H   UNL A   1      29.921  27.562  25.574  1.00  0.00     0.063 H 
ATOM     24  H   UNL A   1      31.274  24.703  22.819  1.00  0.00     0.064 H 
BRANCH  17  25
ATOM     25  O   UNL A   1      30.791  23.487  27.148  1.00  0.00    -0.496 OA
BRANCH  25  26
ATOM     26  C   UNL A   1      29.527  22.832  27.251  1.00  0.00     0.078 C 
ATOM     27  H   UNL A   1      28.768  23.555  27.470  1.00  0.00     0.067 H 
ATOM     28  H   UNL A   1      29.564  22.105  28.034  1.00  0.00     0.067 H 
ATOM     29  H   UNL A   1      29.299  22.348  26.325  1.00  0.00     0.067 H 
ENDBRANCH  25  26
ENDBRANCH  17  25
BRANCH  22  30
ATOM     30  C   UNL A   1      30.331  27.251  22.965  1.00  0.00     0.193 C 
ATOM     31  O   UNL A   1      30.861  27.070  21.870  1.00  0.00    -0.289 OA
BRANCH  30  32
ATOM     32  C   UNL A   1      29.484  28.460  23.132  1.00  0.00     0.022 A 
ATOM     33  C   UNL A   1      28.101  28.298  23.007  1.00  0.00    -0.051 A 
ATOM     34  C   UNL A   1      30.012  29.739  23.353  1.00  0.00    -0.051 A 
ATOM     35  C   UNL A   1      27.255  29.399  23.125  1.00  0.00    -0.062 A 
ATOM     36  H   UNL A   1      27.706  27.362  22.826  1.00  0.00     0.063 H 
ATOM     37  C   UNL A   1      29.155  30.835  23.501  1.00  0.00    -0.062 A 
ATOM     38  H   UNL A   1      31.035  29.873  23.406  1.00  0.00     0.063 H 
ATOM     39  C   UNL A   1      27.777  30.664  23.387  1.00  0.00    -0.062 A 
ATOM     40  H   UNL A   1      26.236  29.277  23.017  1.00  0.00     0.062 H 
ATOM     41  H   UNL A   1      29.544  31.771  23.694  1.00  0.00     0.062 H 
ATOM     42  H   UNL A   1      27.145  31.472  23.497  1.00  0.00     0.062 H 
ENDBRANCH  30  32
ENDBRANCH  22  30
ENDBRANCH  14  16
BRANCH  14  43
ATOM     43  C   UNL A   1      31.782  22.325  22.967  1.00  0.00    -0.049 C 
ATOM     44  H   UNL A   1      31.331  21.372  22.785  1.00  0.00     0.024 H 
ATOM     45  H   UNL A   1      32.796  22.311  22.625  1.00  0.00     0.024 H 
ATOM     46  H   UNL A   1      31.239  23.083  22.442  1.00  0.00     0.024 H 
ENDBRANCH  14  43
ENDBRANCH  11  14
ENDBRANCH   7  10
ENDBRANCH   4   7
ENDBRANCH   1   4
BRANCH   1  47
ATOM     47  C   UNL A   1      34.049  27.959  25.624  1.00  0.00    -0.052 C 
ATOM     48  H   UNL A   1      35.007  28.397  25.433  1.00  0.00     0.027 H 
ATOM     49  H   UNL A   1      33.888  27.665  26.640  1.00  0.00     0.027 H 
BRANCH  47  50
ATOM     50  C   UNL A   1      32.984  29.025  25.336  1.00  0.00    -0.036 C 
ATOM     51  H   UNL A   1      32.254  28.592  24.685  1.00  0.00     0.028 H 
ATOM     52  H   UNL A   1      33.511  29.854  24.913  1.00  0.00     0.028 H 
BRANCH  50  53
ATOM     53  C   UNL A   1      32.248  29.583  26.558  1.00  0.00     0.018 C 
ATOM     54  H   UNL A   1      32.738  29.231  27.442  1.00  0.00     0.049 H 
ATOM     55  H   UNL A   1      31.234  29.246  26.505  1.00  0.00     0.049 H 
BRANCH  53  56
ATOM     56  N   UNL A   1      32.225  31.035  26.587  1.00  0.00    -0.352 N 
ATOM     57  C   UNL A   1      33.053  31.921  27.238  1.00  0.00     0.251 C 
ATOM     58  H   UNL A   1      31.506  31.451  26.058  1.00  0.00     0.163 HD
ATOM     59  O   UNL A   1      32.769  33.115  27.251  1.00  0.00    -0.269 OA
BRANCH  57  60
ATOM     60  C   UNL A   1      34.277  31.465  27.945  1.00  0.00     0.039 A 
ATOM     61  C   UNL A   1      35.340  32.360  28.096  1.00  0.00    -0.049 A 
ATOM     62  C   UNL A   1      34.429  30.150  28.388  1.00  0.00    -0.049 A 
ATOM     63  C   UNL A   1      36.522  31.952  28.728  1.00  0.00    -0.053 A 
ATOM     64  H   UNL A   1      35.254  33.325  27.740  1.00  0.00     0.063 H 
ATOM     65  C   UNL A   1      35.586  29.761  29.082  1.00  0.00    -0.053 A 
ATOM     66  H   UNL A   1      33.685  29.459  28.206  1.00  0.00     0.063 H 
ATOM     67  C   UNL A   1      36.654  30.654  29.254  1.00  0.00    -0.014 A 
ATOM     68  H   UNL A   1      37.310  32.615  28.809  1.00  0.00     0.063 H 
ATOM     69  H   UNL A   1      35.651  28.807  29.470  1.00  0.00     0.063 H 
BRANCH  67  70
ATOM     70  C   UNL A   1      37.906  30.260  29.970  1.00  0.00     0.031 A 
ATOM     71  C   UNL A   1      38.189  30.717  31.379  1.00  0.00     0.074 A 
ATOM     72  C   UNL A   1      38.810  29.471  29.354  1.00  0.00     0.049 A 
ATOM     73  N   UNL A   1      39.181  30.387  32.173  1.00  0.00    -0.248 NA
ATOM     74  C   UNL A   1      37.254  31.686  31.969  1.00  0.00    -0.034 C 
ATOM     75  C   UNL A   1      38.718  29.003  27.971  1.00  0.00    -0.036 A 
ATOM     76  N   UNL A   1      39.981  28.915  29.815  1.00  0.00    -0.354 N 
ATOM     77  C   UNL A   1      38.992  31.107  33.346  1.00  0.00     0.074 A 
ATOM     78  C   UNL A   1      37.821  31.934  33.142  1.00  0.00    -0.034 C 
ATOM     79  H   UNL A   1      36.383  32.072  31.574  1.00  0.00     0.065 H 
ATOM     80  C   UNL A   1      39.762  28.201  27.708  1.00  0.00    -0.036 A 
ATOM     81  H   UNL A   1      37.971  29.251  27.304  1.00  0.00     0.065 H 
ATOM     82  C   UNL A   1      40.609  28.110  28.896  1.00  0.00     0.049 A 
ATOM     83  H   UNL A   1      40.335  29.078  30.719  1.00  0.00     0.167 HD
ATOM     84  C   UNL A   1      39.707  31.068  34.498  1.00  0.00     0.037 A 
ATOM     85  H   UNL A   1      37.472  32.627  33.821  1.00  0.00     0.065 H 
ATOM     86  H   UNL A   1      39.939  27.724  26.810  1.00  0.00     0.065 H 
ATOM     87  C   UNL A   1      41.729  27.367  28.994  1.00  0.00     0.037 A 
ATOM     88  C   UNL A   1      40.856  30.229  34.730  1.00  0.00     0.049 A 
ATOM     89  C   UNL A   1      42.485  27.313  30.293  1.00  0.00     0.074 A 
ATOM     90  C   UNL A   1      41.582  30.066  35.898  1.00  0.00    -0.036 A 
ATOM     91  N   UNL A   1      41.450  29.419  33.777  1.00  0.00    -0.354 N 
ATOM     92  N   UNL A   1      42.229  27.917  31.427  1.00  0.00    -0.248 NA
ATOM     93  C   UNL A   1      43.682  26.457  30.328  1.00  0.00    -0.034 C 
ATOM     94  C   UNL A   1      42.643  29.189  35.640  1.00  0.00    -0.036 A 
ATOM     95  H   UNL A   1      41.376  30.514  36.806  1.00  0.00     0.065 H 
ATOM     96  C   UNL A   1      42.550  28.772  34.324  1.00  0.00     0.049 A 
ATOM     97  H   UNL A   1      41.140  29.317  32.849  1.00  0.00     0.167 HD
ATOM     98  C   UNL A   1      43.214  27.497  32.313  1.00  0.00     0.074 A 
ATOM     99  C   UNL A   1      44.061  26.572  31.594  1.00  0.00    -0.034 C 
ATOM    100  H   UNL A   1      44.112  25.909  29.568  1.00  0.00     0.065 H 
ATOM    101  H   UNL A   1      43.369  28.905  36.315  1.00  0.00     0.065 H 
ATOM    102  C   UNL A   1      43.394  27.851  33.609  1.00  0.00     0.037 A 
ATOM    103  H   UNL A   1      44.858  26.067  32.010  1.00  0.00     0.065 H 
BRANCH  84 104
ATOM    104  C   UNL A   1      39.257  31.956  35.624  1.00  0.00     0.064 A 
ATOM    105  C   UNL A   1      38.350  31.506  36.595  1.00  0.00     0.173 A 
ATOM    106  C   UNL A   1      39.786  33.249  35.766  1.00  0.00     0.173 A 
ATOM    107  F   UNL A   1      37.816  30.280  36.501  1.00  0.00    -0.203 F 
ATOM    108  C   UNL A   1      37.967  32.327  37.652  1.00  0.00     0.198 A 
ATOM    109  C   UNL A   1      39.420  34.057  36.840  1.00  0.00     0.198 A 
ATOM    110  F   UNL A   1      40.666  33.723  34.872  1.00  0.00    -0.203 F 
ATOM    111  F   UNL A   1      37.068  31.890  38.544  1.00  0.00    -0.200 F 
ATOM    112  C   UNL A   1      38.506  33.598  37.777  1.00  0.00     0.200 A 
ATOM    113  F   UNL A   1      39.953  35.279  36.970  1.00  0.00    -0.200 F 
ATOM    114  F   UNL A   1      38.143  34.383  38.802  1.00  0.00    -0.200 F 
ENDBRANCH  84 104
BRANCH  87 115
ATOM    115  C   UNL A   1      42.188  26.569  27.828  1.00  0.00     0.064 A 
ATOM    116  C   UNL A   1      43.151  27.074  26.944  1.00  0.00     0.173 A 
ATOM    117  C   UNL A   1      41.668  25.293  27.571  1.00  0.00     0.173 A 
ATOM    118  F   UNL A   1      43.660  28.300  27.137  1.00  0.00    -0.203 F 
ATOM    119  C   UNL A   1      43.561  26.341  25.833  1.00  0.00     0.198 A 
ATOM    120  C   UNL A   1      42.099  24.549  26.475  1.00  0.00     0.198 A 
ATOM    121  F   UNL A   1      40.748  24.765  28.392  1.00  0.00    -0.203 F 
ATOM    122  F   UNL A   1      44.450  26.865  24.978  1.00  0.00    -0.200 F 
ATOM    123  C   UNL A   1      43.040  25.077  25.603  1.00  0.00     0.200 A 
ATOM    124  F   UNL A   1      41.602  23.324  26.263  1.00  0.00    -0.200 F 
ATOM    125  F   UNL A   1      43.437  24.370  24.537  1.00  0.00    -0.200 F 
ENDBRANCH  87 115
BRANCH 102 126
ATOM    126  C   UNL A   1      44.542  27.219  34.344  1.00  0.00     0.064 A 
ATOM    127  C   UNL A   1      44.401  25.998  35.021  1.00  0.00     0.173 A 
ATOM    128  C   UNL A   1      45.805  27.831  34.355  1.00  0.00     0.173 A 
ATOM    129  F   UNL A   1      43.211  25.379  35.053  1.00  0.00    -0.203 F 
ATOM    130  C   UNL A   1      45.472  25.429  35.706  1.00  0.00     0.198 A 
ATOM    131  C   UNL A   1      46.881  27.246  35.018  1.00  0.00     0.198 A 
ATOM    132  F   UNL A   1      45.997  28.998  33.720  1.00  0.00    -0.203 F 
ATOM    133  F   UNL A   1      45.299  24.289  36.389  1.00  0.00    -0.200 F 
ATOM    134  C   UNL A   1      46.712  26.051  35.701  1.00  0.00     0.200 A 
ATOM    135  F   UNL A   1      48.081  27.843  35.003  1.00  0.00    -0.200 F 
ATOM    136  F   UNL A   1      47.741  25.502  36.361  1.00  0.00    -0.200 F 
ENDBRANCH 102 126
ENDBRANCH  67  70
ENDBRANCH  57  60
ENDBRANCH  53  56
ENDBRANCH  50  53
ENDBRANCH  47  50
ENDBRANCH   1  47
TORSDOF 19
ENDMDL
MODEL 3
REMARK VINA RESULT:     -11.2      3.999      8.988
REMARK SMILES COc1ccc(C(=O)c2ccccc2)cc1[C@@H](C)C(=O)NCCCCCCNC(=O)c1ccc(-c2c3nc(c(-c4c(F)c(F)c(F)c(F)c4F)c4ccc([nH]4)c(-c4c(F)c(F)c(F)c(F)c4F)c4nc(c(-c5c(F)c(F)c(F)c(F)c5F)c5ccc2[nH]5)C=C4)C=C3)cc1
REMARK SMILES IDX 24 1 23 4 22 7 21 10 19 11 20 12 17 14 16 16 3 17 4 18 5 19
REMARK SMILES IDX 15 21 6 22 2 25 1 26 7 30 8 31 9 32 10 33 14 34 11 35 13 37
REMARK SMILES IDX 12 39 18 43 25 47 26 50 27 53 28 56 29 57 30 59 31 60 32 61
REMARK SMILES IDX 93 62 33 63 92 65 34 67 35 70 36 71 86 72 37 73 91 74 85 75
REMARK SMILES IDX 87 76 38 77 90 78 84 80 83 82 39 84 71 87 51 88 70 89 52 90
REMARK SMILES IDX 55 91 69 92 88 93 53 94 54 96 68 98 89 99 56 102 40 104
REMARK SMILES IDX 41 105 49 106 42 107 43 108 47 109 50 110 44 111 45 112
REMARK SMILES IDX 48 113 46 114 72 115 73 116 81 117 74 118 75 119 79 120
REMARK SMILES IDX 82 121 76 122 77 123 80 124 78 125 57 126 58 127 66 128
REMARK SMILES IDX 59 129 60 130 64 131 67 132 61 133 62 134 65 135 63 136
REMARK H PARENT 24 2 24 3 23 5 23 6 22 8 22 9 21 13 17 15 4 20 5 23 15 24 1 27
REMARK H PARENT 1 28 1 29 10 36 14 38 11 40 13 41 12 42 18 44 18 45 18 46
REMARK H PARENT 25 48 25 49 26 51 26 52 27 54 27 55 28 58 32 64 93 66 33 68
REMARK H PARENT 92 69 91 79 85 81 87 83 90 85 84 86 52 95 55 97 88 100 53 101
REMARK H PARENT 89 103
REMARK Flexibility Score: inf
ROOT
ATOM      1  C   UNL A   1      33.203  25.512  25.847  1.00  0.00    -0.052 C 
ATOM      2  H   UNL A   1      32.822  25.550  24.847  1.00  0.00     0.027 H 
ATOM      3  H   UNL A   1      34.257  25.344  25.909  1.00  0.00     0.027 H 
ENDROOT
BRANCH   1   4
ATOM      4  C   UNL A   1      32.553  24.316  26.550  1.00  0.00    -0.036 C 
ATOM      5  H   UNL A   1      31.982  24.690  27.374  1.00  0.00     0.028 H 
ATOM      6  H   UNL A   1      31.965  23.822  25.804  1.00  0.00     0.028 H 
BRANCH   4   7
ATOM      7  C   UNL A   1      33.521  23.257  27.089  1.00  0.00     0.017 C 
ATOM      8  H   UNL A   1      33.382  23.167  28.147  1.00  0.00     0.049 H 
ATOM      9  H   UNL A   1      33.310  22.333  26.593  1.00  0.00     0.049 H 
BRANCH   7  10
ATOM     10  N   UNL A   1      34.906  23.602  26.825  1.00  0.00    -0.356 N 
ATOM     11  C   UNL A   1      35.897  23.018  26.099  1.00  0.00     0.227 C 
ATOM     12  O   UNL A   1      37.003  23.574  26.164  1.00  0.00    -0.274 OA
ATOM     13  H   UNL A   1      35.189  24.434  27.268  1.00  0.00     0.163 HD
BRANCH  11  14
ATOM     14  C   UNL A   1      35.745  21.744  25.248  1.00  0.00     0.064 C 
ATOM     15  H   UNL A   1      35.609  20.981  25.985  1.00  0.00     0.045 H 
BRANCH  14  16
ATOM     16  C   UNL A   1      34.485  21.740  24.392  1.00  0.00     0.007 A 
ATOM     17  C   UNL A   1      33.610  20.643  24.328  1.00  0.00     0.122 A 
ATOM     18  C   UNL A   1      32.453  20.693  23.542  1.00  0.00    -0.019 A 
ATOM     19  C   UNL A   1      32.157  21.832  22.789  1.00  0.00    -0.047 A 
ATOM     20  H   UNL A   1      31.815  19.883  23.516  1.00  0.00     0.066 H 
ATOM     21  C   UNL A   1      34.173  22.863  23.603  1.00  0.00    -0.043 A 
ATOM     22  C   UNL A   1      33.035  22.915  22.788  1.00  0.00     0.023 A 
ATOM     23  H   UNL A   1      31.287  21.871  22.234  1.00  0.00     0.063 H 
ATOM     24  H   UNL A   1      34.806  23.679  23.626  1.00  0.00     0.064 H 
BRANCH  17  25
ATOM     25  O   UNL A   1      33.914  19.423  24.869  1.00  0.00    -0.496 OA
BRANCH  25  26
ATOM     26  C   UNL A   1      32.817  18.509  24.878  1.00  0.00     0.078 C 
ATOM     27  H   UNL A   1      32.825  17.934  23.975  1.00  0.00     0.067 H 
ATOM     28  H   UNL A   1      31.899  19.054  24.945  1.00  0.00     0.067 H 
ATOM     29  H   UNL A   1      32.905  17.854  25.719  1.00  0.00     0.067 H 
ENDBRANCH  25  26
ENDBRANCH  17  25
BRANCH  22  30
ATOM     30  C   UNL A   1      32.706  24.103  21.950  1.00  0.00     0.193 C 
ATOM     31  O   UNL A   1      33.202  24.201  20.829  1.00  0.00    -0.289 OA
BRANCH  30  32
ATOM     32  C   UNL A   1      31.768  25.168  22.388  1.00  0.00     0.022 A 
ATOM     33  C   UNL A   1      30.765  24.810  23.294  1.00  0.00    -0.051 A 
ATOM     34  C   UNL A   1      31.816  26.479  21.895  1.00  0.00    -0.051 A 
ATOM     35  C   UNL A   1      29.837  25.759  23.720  1.00  0.00    -0.062 A 
ATOM     36  H   UNL A   1      30.712  23.842  23.647  1.00  0.00     0.063 H 
ATOM     37  C   UNL A   1      30.900  27.433  22.350  1.00  0.00    -0.062 A 
ATOM     38  H   UNL A   1      32.528  26.740  21.194  1.00  0.00     0.063 H 
ATOM     39  C   UNL A   1      29.911  27.072  23.263  1.00  0.00    -0.062 A 
ATOM     40  H   UNL A   1      29.091  25.485  24.378  1.00  0.00     0.062 H 
ATOM     41  H   UNL A   1      30.957  28.406  22.009  1.00  0.00     0.062 H 
ATOM     42  H   UNL A   1      29.236  27.776  23.600  1.00  0.00     0.062 H 
ENDBRANCH  30  32
ENDBRANCH  22  30
ENDBRANCH  14  16
BRANCH  14  43
ATOM     43  C   UNL A   1      36.993  21.257  24.518  1.00  0.00    -0.049 C 
ATOM     44  H   UNL A   1      36.739  20.428  23.890  1.00  0.00     0.024 H 
ATOM     45  H   UNL A   1      37.727  20.951  25.234  1.00  0.00     0.024 H 
ATOM     46  H   UNL A   1      37.388  22.050  23.919  1.00  0.00     0.024 H 
ENDBRANCH  14  43
ENDBRANCH  11  14
ENDBRANCH   7  10
ENDBRANCH   4   7
ENDBRANCH   1   4
BRANCH   1  47
ATOM     47  C   UNL A   1      32.966  26.886  26.489  1.00  0.00    -0.052 C 
ATOM     48  H   UNL A   1      33.908  27.240  26.855  1.00  0.00     0.027 H 
ATOM     49  H   UNL A   1      32.229  26.721  27.246  1.00  0.00     0.027 H 
BRANCH  47  50
ATOM     50  C   UNL A   1      32.380  27.976  25.582  1.00  0.00    -0.036 C 
ATOM     51  H   UNL A   1      31.488  28.343  26.045  1.00  0.00     0.028 H 
ATOM     52  H   UNL A   1      32.220  27.508  24.634  1.00  0.00     0.028 H 
BRANCH  50  53
ATOM     53  C   UNL A   1      33.290  29.175  25.303  1.00  0.00     0.018 C 
ATOM     54  H   UNL A   1      33.442  29.249  24.246  1.00  0.00     0.049 H 
ATOM     55  H   UNL A   1      34.209  29.010  25.826  1.00  0.00     0.049 H 
BRANCH  53  56
ATOM     56  N   UNL A   1      32.733  30.428  25.780  1.00  0.00    -0.352 N 
ATOM     57  C   UNL A   1      33.139  31.241  26.814  1.00  0.00     0.251 C 
ATOM     58  H   UNL A   1      31.942  30.747  25.288  1.00  0.00     0.163 HD
ATOM     59  O   UNL A   1      32.435  32.190  27.149  1.00  0.00    -0.269 OA
BRANCH  57  60
ATOM     60  C   UNL A   1      34.403  30.988  27.552  1.00  0.00     0.039 A 
ATOM     61  C   UNL A   1      34.617  29.720  28.102  1.00  0.00    -0.049 A 
ATOM     62  C   UNL A   1      35.341  31.995  27.782  1.00  0.00    -0.049 A 
ATOM     63  C   UNL A   1      35.784  29.457  28.833  1.00  0.00    -0.053 A 
ATOM     64  H   UNL A   1      33.915  28.977  27.970  1.00  0.00     0.063 H 
ATOM     65  C   UNL A   1      36.540  31.713  28.455  1.00  0.00    -0.053 A 
ATOM     66  H   UNL A   1      35.152  32.955  27.454  1.00  0.00     0.063 H 
ATOM     67  C   UNL A   1      36.774  30.441  28.999  1.00  0.00    -0.014 A 
ATOM     68  H   UNL A   1      35.917  28.525  29.257  1.00  0.00     0.063 H 
ATOM     69  H   UNL A   1      37.256  32.449  28.551  1.00  0.00     0.063 H 
BRANCH  67  70
ATOM     70  C   UNL A   1      38.034  30.119  29.739  1.00  0.00     0.031 A 
ATOM     71  C   UNL A   1      38.279  30.618  31.141  1.00  0.00     0.074 A 
ATOM     72  C   UNL A   1      38.981  29.360  29.149  1.00  0.00     0.049 A 
ATOM     73  N   UNL A   1      39.275  30.351  31.953  1.00  0.00    -0.248 NA
ATOM     74  C   UNL A   1      37.293  31.555  31.699  1.00  0.00    -0.034 C 
ATOM     75  C   UNL A   1      38.927  28.860  27.776  1.00  0.00    -0.036 A 
ATOM     76  N   UNL A   1      40.170  28.867  29.635  1.00  0.00    -0.354 N 
ATOM     77  C   UNL A   1      39.039  31.085  33.107  1.00  0.00     0.074 A 
ATOM     78  C   UNL A   1      37.834  31.853  32.873  1.00  0.00    -0.034 C 
ATOM     79  H   UNL A   1      36.410  31.893  31.285  1.00  0.00     0.065 H 
ATOM     80  C   UNL A   1      40.010  28.100  27.542  1.00  0.00    -0.036 A 
ATOM     81  H   UNL A   1      38.178  29.059  27.096  1.00  0.00     0.065 H 
ATOM     82  C   UNL A   1      40.846  28.074  28.741  1.00  0.00     0.049 A 
ATOM     83  H   UNL A   1      40.505  29.066  30.539  1.00  0.00     0.167 HD
ATOM     84  C   UNL A   1      39.741  31.103  34.268  1.00  0.00     0.037 A 
ATOM     85  H   UNL A   1      37.446  32.544  33.533  1.00  0.00     0.065 H 
ATOM     86  H   UNL A   1      40.219  27.614  26.656  1.00  0.00     0.065 H 
ATOM     87  C   UNL A   1      41.997  27.385  28.867  1.00  0.00     0.037 A 
ATOM     88  C   UNL A   1      40.924  30.323  34.531  1.00  0.00     0.049 A 
ATOM     89  C   UNL A   1      42.739  27.393  30.176  1.00  0.00     0.074 A 
ATOM     90  C   UNL A   1      41.643  30.218  35.710  1.00  0.00    -0.036 A 
ATOM     91  N   UNL A   1      41.566  29.522  33.602  1.00  0.00    -0.354 N 
ATOM     92  N   UNL A   1      42.441  28.008  31.294  1.00  0.00    -0.248 NA
ATOM     93  C   UNL A   1      43.973  26.593  30.243  1.00  0.00    -0.034 C 
ATOM     94  C   UNL A   1      42.745  29.386  35.483  1.00  0.00    -0.036 A 
ATOM     95  H   UNL A   1      41.405  30.675  36.605  1.00  0.00     0.065 H 
ATOM     96  C   UNL A   1      42.687  28.937  34.175  1.00  0.00     0.049 A 
ATOM     97  H   UNL A   1      41.272  29.386  32.673  1.00  0.00     0.167 HD
ATOM     98  C   UNL A   1      43.433  27.653  32.200  1.00  0.00     0.074 A 
ATOM     99  C   UNL A   1      44.331  26.752  31.510  1.00  0.00    -0.034 C 
ATOM    100  H   UNL A   1      44.437  26.051  29.499  1.00  0.00     0.065 H 
ATOM    101  H   UNL A   1      43.476  29.149  36.172  1.00  0.00     0.065 H 
ATOM    102  C   UNL A   1      43.582  28.041  33.489  1.00  0.00     0.037 A 
ATOM    103  H   UNL A   1      45.145  26.293  31.946  1.00  0.00     0.065 H 
BRANCH  84 104
ATOM    104  C   UNL A   1      39.237  31.993  35.369  1.00  0.00     0.064 A 
ATOM    105  C   UNL A   1      38.413  31.499  36.391  1.00  0.00     0.173 A 
ATOM    106  C   UNL A   1      39.633  33.338  35.436  1.00  0.00     0.173 A 
ATOM    107  F   UNL A   1      38.005  30.222  36.370  1.00  0.00    -0.203 F 
ATOM    108  C   UNL A   1      37.980  32.326  37.424  1.00  0.00     0.198 A 
ATOM    109  C   UNL A   1      39.220  34.155  36.486  1.00  0.00     0.198 A 
ATOM    110  F   UNL A   1      40.431  33.857  34.491  1.00  0.00    -0.203 F 
ATOM    111  F   UNL A   1      37.159  31.843  38.367  1.00  0.00    -0.200 F 
ATOM    112  C   UNL A   1      38.388  33.650  37.475  1.00  0.00     0.200 A 
ATOM    113  F   UNL A   1      39.628  35.430  36.543  1.00  0.00    -0.200 F 
ATOM    114  F   UNL A   1      37.978  34.441  38.476  1.00  0.00    -0.200 F 
ENDBRANCH  84 104
BRANCH  87 115
ATOM    115  C   UNL A   1      42.506  26.584  27.724  1.00  0.00     0.064 A 
ATOM    116  C   UNL A   1      43.404  27.138  26.801  1.00  0.00     0.173 A 
ATOM    117  C   UNL A   1      42.100  25.258  27.528  1.00  0.00     0.173 A 
ATOM    118  F   UNL A   1      43.802  28.412  26.935  1.00  0.00    -0.203 F 
ATOM    119  C   UNL A   1      43.859  26.400  25.711  1.00  0.00     0.198 A 
ATOM    120  C   UNL A   1      42.577  24.512  26.453  1.00  0.00     0.198 A 
ATOM    121  F   UNL A   1      41.246  24.683  28.388  1.00  0.00    -0.203 F 
ATOM    122  F   UNL A   1      44.682  26.966  24.817  1.00  0.00    -0.200 F 
ATOM    123  C   UNL A   1      43.451  25.086  25.541  1.00  0.00     0.200 A 
ATOM    124  F   UNL A   1      42.189  23.239  26.300  1.00  0.00    -0.200 F 
ATOM    125  F   UNL A   1      43.892  24.375  24.495  1.00  0.00    -0.200 F 
ENDBRANCH  87 115
BRANCH 102 126
ATOM    126  C   UNL A   1      44.748  27.478  34.251  1.00  0.00     0.064 A 
ATOM    127  C   UNL A   1      45.983  28.143  34.305  1.00  0.00     0.173 A 
ATOM    128  C   UNL A   1      44.624  26.269  34.953  1.00  0.00     0.173 A 
ATOM    129  F   UNL A   1      46.159  29.294  33.639  1.00  0.00    -0.203 F 
ATOM    130  C   UNL A   1      47.058  27.603  35.007  1.00  0.00     0.198 A 
ATOM    131  C   UNL A   1      45.693  25.746  35.677  1.00  0.00     0.198 A 
ATOM    132  F   UNL A   1      43.464  25.595  34.940  1.00  0.00    -0.203 F 
ATOM    133  F   UNL A   1      48.243  28.230  35.000  1.00  0.00    -0.200 F 
ATOM    134  C   UNL A   1      46.912  26.408  35.696  1.00  0.00     0.200 A 
ATOM    135  F   UNL A   1      45.546  24.597  36.350  1.00  0.00    -0.200 F 
ATOM    136  F   UNL A   1      47.947  25.890  36.370  1.00  0.00    -0.200 F 
ENDBRANCH 102 126
ENDBRANCH  67  70
ENDBRANCH  57  60
ENDBRANCH  53  56
ENDBRANCH  50  53
ENDBRANCH  47  50
ENDBRANCH   1  47
TORSDOF 19
ENDMDL
MODEL 4
REMARK VINA RESULT:     -11.2      0.771      7.373
REMARK SMILES COc1ccc(C(=O)c2ccccc2)cc1[C@@H](C)C(=O)NCCCCCCNC(=O)c1ccc(-c2c3nc(c(-c4c(F)c(F)c(F)c(F)c4F)c4ccc([nH]4)c(-c4c(F)c(F)c(F)c(F)c4F)c4nc(c(-c5c(F)c(F)c(F)c(F)c5F)c5ccc2[nH]5)C=C4)C=C3)cc1
REMARK SMILES IDX 24 1 23 4 22 7 21 10 19 11 20 12 17 14 16 16 3 17 4 18 5 19
REMARK SMILES IDX 15 21 6 22 2 25 1 26 7 30 8 31 9 32 10 33 14 34 11 35 13 37
REMARK SMILES IDX 12 39 18 43 25 47 26 50 27 53 28 56 29 57 30 59 31 60 32 61
REMARK SMILES IDX 93 62 33 63 92 65 34 67 35 70 36 71 86 72 37 73 91 74 85 75
REMARK SMILES IDX 87 76 38 77 90 78 84 80 83 82 39 84 71 87 51 88 70 89 52 90
REMARK SMILES IDX 55 91 69 92 88 93 53 94 54 96 68 98 89 99 56 102 40 104
REMARK SMILES IDX 41 105 49 106 42 107 43 108 47 109 50 110 44 111 45 112
REMARK SMILES IDX 48 113 46 114 72 115 73 116 81 117 74 118 75 119 79 120
REMARK SMILES IDX 82 121 76 122 77 123 80 124 78 125 57 126 58 127 66 128
REMARK SMILES IDX 59 129 60 130 64 131 67 132 61 133 62 134 65 135 63 136
REMARK H PARENT 24 2 24 3 23 5 23 6 22 8 22 9 21 13 17 15 4 20 5 23 15 24 1 27
REMARK H PARENT 1 28 1 29 10 36 14 38 11 40 13 41 12 42 18 44 18 45 18 46
REMARK H PARENT 25 48 25 49 26 51 26 52 27 54 27 55 28 58 32 64 93 66 33 68
REMARK H PARENT 92 69 91 79 85 81 87 83 90 85 84 86 52 95 55 97 88 100 53 101
REMARK H PARENT 89 103
REMARK Flexibility Score: inf
ROOT
ATOM      1  C   UNL A   1      33.604  24.644  23.475  1.00  0.00    -0.052 C 
ATOM      2  H   UNL A   1      34.041  23.923  22.817  1.00  0.00     0.027 H 
ATOM      3  H   UNL A   1      32.643  24.368  23.854  1.00  0.00     0.027 H 
ENDROOT
BRANCH   1   4
ATOM      4  C   UNL A   1      33.378  25.931  22.676  1.00  0.00    -0.036 C 
ATOM      5  H   UNL A   1      33.249  26.733  23.373  1.00  0.00     0.028 H 
ATOM      6  H   UNL A   1      34.237  26.039  22.046  1.00  0.00     0.028 H 
BRANCH   4   7
ATOM      7  C   UNL A   1      32.168  25.925  21.736  1.00  0.00     0.017 C 
ATOM      8  H   UNL A   1      32.484  25.600  20.766  1.00  0.00     0.049 H 
ATOM      9  H   UNL A   1      31.434  25.263  22.145  1.00  0.00     0.049 H 
BRANCH   7  10
ATOM     10  N   UNL A   1      31.566  27.241  21.615  1.00  0.00    -0.356 N 
ATOM     11  C   UNL A   1      30.492  27.839  22.196  1.00  0.00     0.227 C 
ATOM     12  O   UNL A   1      30.229  28.978  21.784  1.00  0.00    -0.274 OA
ATOM     13  H   UNL A   1      32.036  27.824  20.976  1.00  0.00     0.163 HD
BRANCH  11  14
ATOM     14  C   UNL A   1      29.597  27.205  23.278  1.00  0.00     0.064 C 
ATOM     15  H   UNL A   1      29.291  26.286  22.824  1.00  0.00     0.045 H 
BRANCH  14  16
ATOM     16  C   UNL A   1      30.358  26.827  24.541  1.00  0.00     0.007 A 
ATOM     17  C   UNL A   1      31.160  27.737  25.250  1.00  0.00     0.122 A 
ATOM     18  C   UNL A   1      31.825  27.348  26.419  1.00  0.00    -0.019 A 
ATOM     19  C   UNL A   1      31.719  26.039  26.892  1.00  0.00    -0.047 A 
ATOM     20  H   UNL A   1      32.399  28.034  26.933  1.00  0.00     0.066 H 
ATOM     21  C   UNL A   1      30.291  25.509  25.029  1.00  0.00    -0.043 A 
ATOM     22  C   UNL A   1      30.976  25.098  26.179  1.00  0.00     0.023 A 
ATOM     23  H   UNL A   1      32.190  25.768  27.770  1.00  0.00     0.063 H 
ATOM     24  H   UNL A   1      29.715  24.818  24.520  1.00  0.00     0.064 H 
BRANCH  17  25
ATOM     25  O   UNL A   1      31.480  28.975  24.762  1.00  0.00    -0.496 OA
BRANCH  25  26
ATOM     26  C   UNL A   1      32.884  29.215  24.681  1.00  0.00     0.078 C 
ATOM     27  H   UNL A   1      33.336  29.011  25.630  1.00  0.00     0.067 H 
ATOM     28  H   UNL A   1      33.057  30.237  24.417  1.00  0.00     0.067 H 
ATOM     29  H   UNL A   1      33.314  28.577  23.938  1.00  0.00     0.067 H 
ENDBRANCH  25  26
ENDBRANCH  17  25
BRANCH  22  30
ATOM     30  C   UNL A   1      30.908  23.701  26.695  1.00  0.00     0.193 C 
ATOM     31  O   UNL A   1      29.935  23.356  27.363  1.00  0.00    -0.289 OA
BRANCH  30  32
ATOM     32  C   UNL A   1      31.948  22.680  26.408  1.00  0.00     0.022 A 
ATOM     33  C   UNL A   1      31.816  21.940  25.230  1.00  0.00    -0.051 A 
ATOM     34  C   UNL A   1      33.006  22.400  27.284  1.00  0.00    -0.051 A 
ATOM     35  C   UNL A   1      32.744  20.948  24.920  1.00  0.00    -0.062 A 
ATOM     36  H   UNL A   1      31.029  22.128  24.589  1.00  0.00     0.063 H 
ATOM     37  C   UNL A   1      33.951  21.424  26.951  1.00  0.00    -0.062 A 
ATOM     38  H   UNL A   1      33.087  22.914  28.176  1.00  0.00     0.063 H 
ATOM     39  C   UNL A   1      33.820  20.698  25.769  1.00  0.00    -0.062 A 
ATOM     40  H   UNL A   1      32.634  20.395  24.056  1.00  0.00     0.062 H 
ATOM     41  H   UNL A   1      34.747  21.241  27.583  1.00  0.00     0.062 H 
ATOM     42  H   UNL A   1      34.517  19.979  25.523  1.00  0.00     0.062 H 
ENDBRANCH  30  32
ENDBRANCH  22  30
ENDBRANCH  14  16
BRANCH  14  43
ATOM     43  C   UNL A   1      28.257  27.887  23.541  1.00  0.00    -0.049 C 
ATOM     44  H   UNL A   1      27.559  27.169  23.920  1.00  0.00     0.024 H 
ATOM     45  H   UNL A   1      27.883  28.301  22.628  1.00  0.00     0.024 H 
ATOM     46  H   UNL A   1      28.390  28.669  24.259  1.00  0.00     0.024 H 
ENDBRANCH  14  43
ENDBRANCH  11  14
ENDBRANCH   7  10
ENDBRANCH   4   7
ENDBRANCH   1   4
BRANCH   1  47
ATOM     47  C   UNL A   1      34.513  24.763  24.708  1.00  0.00    -0.052 C 
ATOM     48  H   UNL A   1      33.936  24.482  25.565  1.00  0.00     0.027 H 
ATOM     49  H   UNL A   1      34.851  25.778  24.713  1.00  0.00     0.027 H 
BRANCH  47  50
ATOM     50  C   UNL A   1      35.788  23.910  24.705  1.00  0.00    -0.036 C 
ATOM     51  H   UNL A   1      36.483  24.362  24.028  1.00  0.00     0.028 H 
ATOM     52  H   UNL A   1      35.478  22.927  24.421  1.00  0.00     0.028 H 
BRANCH  50  53
ATOM     53  C   UNL A   1      36.489  23.749  26.056  1.00  0.00     0.018 C 
ATOM     54  H   UNL A   1      35.776  23.388  26.769  1.00  0.00     0.049 H 
ATOM     55  H   UNL A   1      36.877  24.706  26.334  1.00  0.00     0.049 H 
BRANCH  53  56
ATOM     56  N   UNL A   1      37.605  22.821  26.005  1.00  0.00    -0.352 N 
ATOM     57  C   UNL A   1      38.930  23.011  26.328  1.00  0.00     0.251 C 
ATOM     58  H   UNL A   1      37.380  21.915  25.692  1.00  0.00     0.163 HD
ATOM     59  O   UNL A   1      39.746  22.131  26.070  1.00  0.00    -0.269 OA
BRANCH  57  60
ATOM     60  C   UNL A   1      39.402  24.267  26.964  1.00  0.00     0.039 A 
ATOM     61  C   UNL A   1      40.055  25.217  26.174  1.00  0.00    -0.049 A 
ATOM     62  C   UNL A   1      39.288  24.490  28.337  1.00  0.00    -0.049 A 
ATOM     63  C   UNL A   1      40.544  26.398  26.749  1.00  0.00    -0.053 A 
ATOM     64  H   UNL A   1      40.178  25.048  25.163  1.00  0.00     0.063 H 
ATOM     65  C   UNL A   1      39.716  25.702  28.901  1.00  0.00    -0.053 A 
ATOM     66  H   UNL A   1      38.885  23.758  28.943  1.00  0.00     0.063 H 
ATOM     67  C   UNL A   1      40.359  26.670  28.116  1.00  0.00    -0.014 A 
ATOM     68  H   UNL A   1      41.048  27.079  26.159  1.00  0.00     0.063 H 
ATOM     69  H   UNL A   1      39.556  25.882  29.905  1.00  0.00     0.063 H 
BRANCH  67  70
ATOM     70  C   UNL A   1      40.843  27.961  28.695  1.00  0.00     0.031 A 
ATOM     71  C   UNL A   1      39.893  29.082  29.035  1.00  0.00     0.074 A 
ATOM     72  C   UNL A   1      42.160  28.139  28.927  1.00  0.00     0.049 A 
ATOM     73  N   UNL A   1      40.141  30.226  29.629  1.00  0.00    -0.248 NA
ATOM     74  C   UNL A   1      38.488  28.911  28.641  1.00  0.00    -0.034 C 
ATOM     75  C   UNL A   1      43.213  27.182  28.589  1.00  0.00    -0.036 A 
ATOM     76  N   UNL A   1      42.837  29.183  29.513  1.00  0.00    -0.354 N 
ATOM     77  C   UNL A   1      38.932  30.907  29.674  1.00  0.00     0.074 A 
ATOM     78  C   UNL A   1      37.959  30.073  28.999  1.00  0.00    -0.034 C 
ATOM     79  H   UNL A   1      38.031  28.098  28.199  1.00  0.00     0.065 H 
ATOM     80  C   UNL A   1      44.395  27.663  29.007  1.00  0.00    -0.036 A 
ATOM     81  H   UNL A   1      43.071  26.282  28.105  1.00  0.00     0.065 H 
ATOM     82  C   UNL A   1      44.190  28.970  29.627  1.00  0.00     0.049 A 
ATOM     83  H   UNL A   1      42.394  30.007  29.822  1.00  0.00     0.167 HD
ATOM     84  C   UNL A   1      38.644  32.103  30.246  1.00  0.00     0.037 A 
ATOM     85  H   UNL A   1      36.981  30.347  28.820  1.00  0.00     0.065 H 
ATOM     86  H   UNL A   1      45.305  27.186  28.906  1.00  0.00     0.065 H 
ATOM     87  C   UNL A   1      45.158  29.726  30.181  1.00  0.00     0.037 A 
ATOM     88  C   UNL A   1      39.591  32.932  30.949  1.00  0.00     0.049 A 
ATOM     89  C   UNL A   1      44.809  31.033  30.840  1.00  0.00     0.074 A 
ATOM     90  C   UNL A   1      39.361  34.115  31.633  1.00  0.00    -0.036 A 
ATOM     91  N   UNL A   1      40.947  32.672  31.053  1.00  0.00    -0.354 N 
ATOM     92  N   UNL A   1      43.640  31.610  30.969  1.00  0.00    -0.248 NA
ATOM     93  C   UNL A   1      45.918  31.786  31.446  1.00  0.00    -0.034 C 
ATOM     94  C   UNL A   1      40.585  34.593  32.114  1.00  0.00    -0.036 A 
ATOM     95  H   UNL A   1      38.442  34.567  31.766  1.00  0.00     0.065 H 
ATOM     96  C   UNL A   1      41.571  33.684  31.769  1.00  0.00     0.049 A 
ATOM     97  H   UNL A   1      41.402  31.886  30.675  1.00  0.00     0.167 HD
ATOM     98  C   UNL A   1      43.868  32.777  31.688  1.00  0.00     0.074 A 
ATOM     99  C   UNL A   1      45.283  32.817  31.986  1.00  0.00    -0.034 C 
ATOM    100  H   UNL A   1      46.926  31.569  31.451  1.00  0.00     0.065 H 
ATOM    101  H   UNL A   1      40.728  35.472  32.635  1.00  0.00     0.065 H 
ATOM    102  C   UNL A   1      42.979  33.727  32.066  1.00  0.00     0.037 A 
ATOM    103  H   UNL A   1      45.740  33.554  32.546  1.00  0.00     0.065 H 
BRANCH  84 104
ATOM    104  C   UNL A   1      37.227  32.594  30.154  1.00  0.00     0.064 A 
ATOM    105  C   UNL A   1      36.296  32.340  31.172  1.00  0.00     0.173 A 
ATOM    106  C   UNL A   1      36.813  33.376  29.065  1.00  0.00     0.173 A 
ATOM    107  F   UNL A   1      36.642  31.595  32.232  1.00  0.00    -0.203 F 
ATOM    108  C   UNL A   1      34.995  32.828  31.090  1.00  0.00     0.198 A 
ATOM    109  C   UNL A   1      35.518  33.886  29.000  1.00  0.00     0.198 A 
ATOM    110  F   UNL A   1      37.668  33.659  28.070  1.00  0.00    -0.203 F 
ATOM    111  F   UNL A   1      34.111  32.538  32.055  1.00  0.00    -0.200 F 
ATOM    112  C   UNL A   1      34.609  33.605  30.009  1.00  0.00     0.200 A 
ATOM    113  F   UNL A   1      35.150  34.650  27.962  1.00  0.00    -0.200 F 
ATOM    114  F   UNL A   1      33.358  34.082  29.938  1.00  0.00    -0.200 F 
ENDBRANCH  84 104
BRANCH  87 115
ATOM    115  C   UNL A   1      46.563  29.244  30.176  1.00  0.00     0.064 A 
ATOM    116  C   UNL A   1      47.071  28.495  31.246  1.00  0.00     0.173 A 
ATOM    117  C   UNL A   1      47.426  29.530  29.109  1.00  0.00     0.173 A 
ATOM    118  F   UNL A   1      46.288  28.217  32.299  1.00  0.00    -0.203 F 
ATOM    119  C   UNL A   1      48.396  28.067  31.259  1.00  0.00     0.198 A 
ATOM    120  C   UNL A   1      48.743  29.078  29.110  1.00  0.00     0.198 A 
ATOM    121  F   UNL A   1      46.985  30.240  28.060  1.00  0.00    -0.203 F 
ATOM    122  F   UNL A   1      48.870  27.390  32.314  1.00  0.00    -0.200 F 
ATOM    123  C   UNL A   1      49.230  28.354  30.188  1.00  0.00     0.200 A 
ATOM    124  F   UNL A   1      49.542  29.348  28.069  1.00  0.00    -0.200 F 
ATOM    125  F   UNL A   1      50.503  27.939  30.199  1.00  0.00    -0.200 F 
ENDBRANCH  87 115
BRANCH 102 126
ATOM    126  C   UNL A   1      43.504  34.886  32.865  1.00  0.00     0.064 A 
ATOM    127  C   UNL A   1      43.636  34.820  34.260  1.00  0.00     0.173 A 
ATOM    128  C   UNL A   1      43.900  36.071  32.225  1.00  0.00     0.173 A 
ATOM    129  F   UNL A   1      43.258  33.716  34.921  1.00  0.00    -0.203 F 
ATOM    130  C   UNL A   1      44.115  35.906  34.988  1.00  0.00     0.198 A 
ATOM    131  C   UNL A   1      44.405  37.146  32.953  1.00  0.00     0.198 A 
ATOM    132  F   UNL A   1      43.800  36.187  30.892  1.00  0.00    -0.203 F 
ATOM    133  F   UNL A   1      44.183  35.838  36.325  1.00  0.00    -0.200 F 
ATOM    134  C   UNL A   1      44.503  37.067  34.334  1.00  0.00     0.200 A 
ATOM    135  F   UNL A   1      44.789  38.262  32.318  1.00  0.00    -0.200 F 
ATOM    136  F   UNL A   1      44.964  38.111  35.036  1.00  0.00    -0.200 F 
ENDBRANCH 102 126
ENDBRANCH  67  70
ENDBRANCH  57  60
ENDBRANCH  53  56
ENDBRANCH  50  53
ENDBRANCH  47  50
ENDBRANCH   1  47
TORSDOF 19
ENDMDL
MODEL 5
REMARK VINA RESULT:     -11.1      0.911      1.663
REMARK SMILES COc1ccc(C(=O)c2ccccc2)cc1[C@@H](C)C(=O)NCCCCCCNC(=O)c1ccc(-c2c3nc(c(-c4c(F)c(F)c(F)c(F)c4F)c4ccc([nH]4)c(-c4c(F)c(F)c(F)c(F)c4F)c4nc(c(-c5c(F)c(F)c(F)c(F)c5F)c5ccc2[nH]5)C=C4)C=C3)cc1
REMARK SMILES IDX 24 1 23 4 22 7 21 10 19 11 20 12 17 14 16 16 3 17 4 18 5 19
REMARK SMILES IDX 15 21 6 22 2 25 1 26 7 30 8 31 9 32 10 33 14 34 11 35 13 37
REMARK SMILES IDX 12 39 18 43 25 47 26 50 27 53 28 56 29 57 30 59 31 60 32 61
REMARK SMILES IDX 93 62 33 63 92 65 34 67 35 70 36 71 86 72 37 73 91 74 85 75
REMARK SMILES IDX 87 76 38 77 90 78 84 80 83 82 39 84 71 87 51 88 70 89 52 90
REMARK SMILES IDX 55 91 69 92 88 93 53 94 54 96 68 98 89 99 56 102 40 104
REMARK SMILES IDX 41 105 49 106 42 107 43 108 47 109 50 110 44 111 45 112
REMARK SMILES IDX 48 113 46 114 72 115 73 116 81 117 74 118 75 119 79 120
REMARK SMILES IDX 82 121 76 122 77 123 80 124 78 125 57 126 58 127 66 128
REMARK SMILES IDX 59 129 60 130 64 131 67 132 61 133 62 134 65 135 63 136
REMARK H PARENT 24 2 24 3 23 5 23 6 22 8 22 9 21 13 17 15 4 20 5 23 15 24 1 27
REMARK H PARENT 1 28 1 29 10 36 14 38 11 40 13 41 12 42 18 44 18 45 18 46
REMARK H PARENT 25 48 25 49 26 51 26 52 27 54 27 55 28 58 32 64 93 66 33 68
REMARK H PARENT 92 69 91 79 85 81 87 83 90 85 84 86 52 95 55 97 88 100 53 101
REMARK H PARENT 89 103
REMARK Flexibility Score: inf
ROOT
ATOM      1  C   UNL A   1      34.059  25.560  23.850  1.00  0.00    -0.052 C 
ATOM      2  H   UNL A   1      33.213  25.312  24.456  1.00  0.00     0.027 H 
ATOM      3  H   UNL A   1      34.807  26.136  24.353  1.00  0.00     0.027 H 
ENDROOT
BRANCH   1   4
ATOM      4  C   UNL A   1      33.566  26.443  22.698  1.00  0.00    -0.036 C 
ATOM      5  H   UNL A   1      34.022  26.090  21.796  1.00  0.00     0.028 H 
ATOM      6  H   UNL A   1      32.499  26.363  22.704  1.00  0.00     0.028 H 
BRANCH   4   7
ATOM      7  C   UNL A   1      33.875  27.938  22.827  1.00  0.00     0.017 C 
ATOM      8  H   UNL A   1      34.680  28.184  22.167  1.00  0.00     0.049 H 
ATOM      9  H   UNL A   1      32.989  28.482  22.576  1.00  0.00     0.049 H 
BRANCH   7  10
ATOM     10  N   UNL A   1      34.253  28.299  24.182  1.00  0.00    -0.356 N 
ATOM     11  C   UNL A   1      33.625  28.969  25.185  1.00  0.00     0.227 C 
ATOM     12  O   UNL A   1      34.302  29.156  26.206  1.00  0.00    -0.274 OA
ATOM     13  H   UNL A   1      35.158  27.997  24.425  1.00  0.00     0.163 HD
BRANCH  11  14
ATOM     14  C   UNL A   1      32.184  29.510  25.129  1.00  0.00     0.064 C 
ATOM     15  H   UNL A   1      32.226  30.215  24.326  1.00  0.00     0.045 H 
BRANCH  14  16
ATOM     16  C   UNL A   1      31.162  28.457  24.720  1.00  0.00     0.007 A 
ATOM     17  C   UNL A   1      30.160  28.696  23.766  1.00  0.00     0.122 A 
ATOM     18  C   UNL A   1      29.254  27.690  23.408  1.00  0.00    -0.019 A 
ATOM     19  C   UNL A   1      29.321  26.432  24.009  1.00  0.00    -0.047 A 
ATOM     20  H   UNL A   1      28.532  27.881  22.696  1.00  0.00     0.066 H 
ATOM     21  C   UNL A   1      31.188  27.187  25.326  1.00  0.00    -0.043 A 
ATOM     22  C   UNL A   1      30.269  26.181  25.001  1.00  0.00     0.023 A 
ATOM     23  H   UNL A   1      28.667  25.687  23.719  1.00  0.00     0.063 H 
ATOM     24  H   UNL A   1      31.910  26.989  26.038  1.00  0.00     0.064 H 
BRANCH  17  25
ATOM     25  O   UNL A   1      29.894  29.945  23.271  1.00  0.00    -0.496 OA
BRANCH  25  26
ATOM     26  C   UNL A   1      29.528  29.950  21.892  1.00  0.00     0.078 C 
ATOM     27  H   UNL A   1      28.848  29.146  21.700  1.00  0.00     0.067 H 
ATOM     28  H   UNL A   1      30.404  29.827  21.290  1.00  0.00     0.067 H 
ATOM     29  H   UNL A   1      29.057  30.880  21.651  1.00  0.00     0.067 H 
ENDBRANCH  25  26
ENDBRANCH  17  25
BRANCH  22  30
ATOM     30  C   UNL A   1      30.293  24.837  25.644  1.00  0.00     0.193 C 
ATOM     31  O   UNL A   1      29.727  24.681  26.724  1.00  0.00    -0.289 OA
BRANCH  30  32
ATOM     32  C   UNL A   1      30.939  23.652  25.023  1.00  0.00     0.022 A 
ATOM     33  C   UNL A   1      31.449  22.674  25.882  1.00  0.00    -0.051 A 
ATOM     34  C   UNL A   1      31.101  23.508  23.639  1.00  0.00    -0.051 A 
ATOM     35  C   UNL A   1      32.092  21.553  25.361  1.00  0.00    -0.062 A 
ATOM     36  H   UNL A   1      31.350  22.783  26.903  1.00  0.00     0.063 H 
ATOM     37  C   UNL A   1      31.721  22.365  23.121  1.00  0.00    -0.062 A 
ATOM     38  H   UNL A   1      30.764  24.246  23.001  1.00  0.00     0.063 H 
ATOM     39  C   UNL A   1      32.216  21.388  23.983  1.00  0.00    -0.062 A 
ATOM     40  H   UNL A   1      32.480  20.841  25.999  1.00  0.00     0.062 H 
ATOM     41  H   UNL A   1      31.812  22.246  22.101  1.00  0.00     0.062 H 
ATOM     42  H   UNL A   1      32.672  20.545  23.602  1.00  0.00     0.062 H 
ENDBRANCH  30  32
ENDBRANCH  22  30
ENDBRANCH  14  16
BRANCH  14  43
ATOM     43  C   UNL A   1      31.738  30.388  26.294  1.00  0.00    -0.049 C 
ATOM     44  H   UNL A   1      30.713  30.665  26.161  1.00  0.00     0.024 H 
ATOM     45  H   UNL A   1      32.344  31.270  26.327  1.00  0.00     0.024 H 
ATOM     46  H   UNL A   1      31.846  29.847  27.211  1.00  0.00     0.024 H 
ENDBRANCH  14  43
ENDBRANCH  11  14
ENDBRANCH   7  10
ENDBRANCH   4   7
ENDBRANCH   1   4
BRANCH   1  47
ATOM     47  C   UNL A   1      34.749  24.249  23.450  1.00  0.00    -0.052 C 
ATOM     48  H   UNL A   1      35.576  24.496  22.817  1.00  0.00     0.027 H 
ATOM     49  H   UNL A   1      33.990  23.661  22.981  1.00  0.00     0.027 H 
BRANCH  47  50
ATOM     50  C   UNL A   1      35.285  23.380  24.596  1.00  0.00    -0.036 C 
ATOM     51  H   UNL A   1      35.526  22.418  24.193  1.00  0.00     0.028 H 
ATOM     52  H   UNL A   1      34.511  23.363  25.334  1.00  0.00     0.028 H 
BRANCH  50  53
ATOM     53  C   UNL A   1      36.529  23.911  25.314  1.00  0.00     0.018 C 
ATOM     54  H   UNL A   1      36.235  24.295  26.268  1.00  0.00     0.049 H 
ATOM     55  H   UNL A   1      36.958  24.671  24.695  1.00  0.00     0.049 H 
BRANCH  53  56
ATOM     56  N   UNL A   1      37.542  22.889  25.517  1.00  0.00    -0.352 N 
ATOM     57  C   UNL A   1      38.783  22.977  26.104  1.00  0.00     0.251 C 
ATOM     58  H   UNL A   1      37.303  21.994  25.184  1.00  0.00     0.163 HD
ATOM     59  O   UNL A   1      39.550  22.020  26.042  1.00  0.00    -0.269 OA
BRANCH  57  60
ATOM     60  C   UNL A   1      39.229  24.213  26.797  1.00  0.00     0.039 A 
ATOM     61  C   UNL A   1      39.985  25.149  26.084  1.00  0.00    -0.049 A 
ATOM     62  C   UNL A   1      38.988  24.429  28.155  1.00  0.00    -0.049 A 
ATOM     63  C   UNL A   1      40.450  26.310  26.717  1.00  0.00    -0.053 A 
ATOM     64  H   UNL A   1      40.200  24.984  25.089  1.00  0.00     0.063 H 
ATOM     65  C   UNL A   1      39.395  25.623  28.771  1.00  0.00    -0.053 A 
ATOM     66  H   UNL A   1      38.506  23.706  28.710  1.00  0.00     0.063 H 
ATOM     67  C   UNL A   1      40.141  26.577  28.062  1.00  0.00    -0.014 A 
ATOM     68  H   UNL A   1      41.030  26.979  26.186  1.00  0.00     0.063 H 
ATOM     69  H   UNL A   1      39.143  25.800  29.755  1.00  0.00     0.063 H 
BRANCH  67  70
ATOM     70  C   UNL A   1      40.605  27.848  28.699  1.00  0.00     0.031 A 
ATOM     71  C   UNL A   1      42.057  28.081  29.035  1.00  0.00     0.074 A 
ATOM     72  C   UNL A   1      39.713  28.819  28.982  1.00  0.00     0.049 A 
ATOM     73  N   UNL A   1      42.635  29.164  29.502  1.00  0.00    -0.248 NA
ATOM     74  C   UNL A   1      42.978  26.952  28.843  1.00  0.00    -0.034 C 
ATOM     75  C   UNL A   1      38.267  28.720  28.785  1.00  0.00    -0.036 A 
ATOM     76  N   UNL A   1      39.893  30.086  29.486  1.00  0.00    -0.354 N 
ATOM     77  C   UNL A   1      43.977  28.844  29.663  1.00  0.00     0.074 A 
ATOM     78  C   UNL A   1      44.120  27.451  29.296  1.00  0.00    -0.034 C 
ATOM     79  H   UNL A   1      42.786  26.015  28.457  1.00  0.00     0.065 H 
ATOM     80  C   UNL A   1      37.696  29.888  29.125  1.00  0.00    -0.036 A 
ATOM     81  H   UNL A   1      37.766  27.887  28.441  1.00  0.00     0.065 H 
ATOM     82  C   UNL A   1      38.731  30.813  29.582  1.00  0.00     0.049 A 
ATOM     83  H   UNL A   1      40.772  30.439  29.754  1.00  0.00     0.167 HD
ATOM     84  C   UNL A   1      45.004  29.639  30.055  1.00  0.00     0.037 A 
ATOM     85  H   UNL A   1      44.998  26.915  29.376  1.00  0.00     0.065 H 
ATOM     86  H   UNL A   1      36.687  30.098  29.073  1.00  0.00     0.065 H 
ATOM     87  C   UNL A   1      38.515  32.084  29.975  1.00  0.00     0.037 A 
ATOM     88  C   UNL A   1      44.886  31.035  30.394  1.00  0.00     0.049 A 
ATOM     89  C   UNL A   1      39.675  32.956  30.371  1.00  0.00     0.074 A 
ATOM     90  C   UNL A   1      45.891  31.933  30.715  1.00  0.00    -0.036 A 
ATOM     91  N   UNL A   1      43.693  31.735  30.464  1.00  0.00    -0.354 N 
ATOM     92  N   UNL A   1      40.952  32.669  30.413  1.00  0.00    -0.248 NA
ATOM     93  C   UNL A   1      39.360  34.341  30.760  1.00  0.00    -0.034 C 
ATOM     94  C   UNL A   1      45.302  33.165  31.021  1.00  0.00    -0.036 A 
ATOM     95  H   UNL A   1      46.903  31.727  30.725  1.00  0.00     0.065 H 
ATOM     96  C   UNL A   1      43.934  33.047  30.847  1.00  0.00     0.049 A 
ATOM     97  H   UNL A   1      42.804  31.358  30.271  1.00  0.00     0.167 HD
ATOM     98  C   UNL A   1      41.593  33.837  30.808  1.00  0.00     0.074 A 
ATOM     99  C   UNL A   1      40.568  34.844  30.974  1.00  0.00    -0.034 C 
ATOM    100  H   UNL A   1      38.440  34.799  30.844  1.00  0.00     0.065 H 
ATOM    101  H   UNL A   1      45.803  34.014  31.326  1.00  0.00     0.065 H 
ATOM    102  C   UNL A   1      42.915  34.050  31.013  1.00  0.00     0.037 A 
ATOM    103  H   UNL A   1      40.752  35.827  31.227  1.00  0.00     0.065 H 
BRANCH  84 104
ATOM    104  C   UNL A   1      46.372  29.021  30.125  1.00  0.00     0.064 A 
ATOM    105  C   UNL A   1      47.224  28.999  29.010  1.00  0.00     0.173 A 
ATOM    106  C   UNL A   1      46.858  28.502  31.334  1.00  0.00     0.173 A 
ATOM    107  F   UNL A   1      46.804  29.481  27.831  1.00  0.00    -0.203 F 
ATOM    108  C   UNL A   1      48.501  28.453  29.096  1.00  0.00     0.198 A 
ATOM    109  C   UNL A   1      48.147  27.981  31.423  1.00  0.00     0.198 A 
ATOM    110  F   UNL A   1      46.089  28.510  32.433  1.00  0.00    -0.203 F 
ATOM    111  F   UNL A   1      49.282  28.405  28.008  1.00  0.00    -0.200 F 
ATOM    112  C   UNL A   1      48.964  27.951  30.303  1.00  0.00     0.200 A 
ATOM    113  F   UNL A   1      48.600  27.510  32.593  1.00  0.00    -0.200 F 
ATOM    114  F   UNL A   1      50.199  27.435  30.386  1.00  0.00    -0.200 F 
ENDBRANCH  84 104
BRANCH  87 115
ATOM    115  C   UNL A   1      37.134  32.632  29.973  1.00  0.00     0.064 A 
ATOM    116  C   UNL A   1      36.644  33.343  28.869  1.00  0.00     0.173 A 
ATOM    117  C   UNL A   1      36.284  32.464  31.075  1.00  0.00     0.173 A 
ATOM    118  F   UNL A   1      37.430  33.549  27.802  1.00  0.00    -0.203 F 
ATOM    119  C   UNL A   1      35.360  33.885  28.876  1.00  0.00     0.198 A 
ATOM    120  C   UNL A   1      34.991  32.982  31.069  1.00  0.00     0.198 A 
ATOM    121  F   UNL A   1      36.707  31.786  32.152  1.00  0.00    -0.203 F 
ATOM    122  F   UNL A   1      34.931  34.599  27.827  1.00  0.00    -0.200 F 
ATOM    123  C   UNL A   1      34.533  33.698  29.974  1.00  0.00     0.200 A 
ATOM    124  F   UNL A   1      34.191  32.790  32.126  1.00  0.00    -0.200 F 
ATOM    125  F   UNL A   1      33.298  34.216  29.978  1.00  0.00    -0.200 F 
ENDBRANCH  87 115
BRANCH 102 126
ATOM    126  C   UNL A   1      43.337  35.434  31.420  1.00  0.00     0.064 A 
ATOM    127  C   UNL A   1      43.682  36.408  30.471  1.00  0.00     0.173 A 
ATOM    128  C   UNL A   1      43.377  35.796  32.775  1.00  0.00     0.173 A 
ATOM    129  F   UNL A   1      43.675  36.108  29.164  1.00  0.00    -0.203 F 
ATOM    130  C   UNL A   1      44.080  37.683  30.865  1.00  0.00     0.198 A 
ATOM    131  C   UNL A   1      43.749  37.082  33.164  1.00  0.00     0.198 A 
ATOM    132  F   UNL A   1      43.052  34.906  33.725  1.00  0.00    -0.203 F 
ATOM    133  F   UNL A   1      44.456  38.581  29.942  1.00  0.00    -0.200 F 
ATOM    134  C   UNL A   1      44.110  38.021  32.210  1.00  0.00     0.200 A 
ATOM    135  F   UNL A   1      43.767  37.409  34.464  1.00  0.00    -0.200 F 
ATOM    136  F   UNL A   1      44.493  39.248  32.586  1.00  0.00    -0.200 F 
ENDBRANCH 102 126
ENDBRANCH  67  70
ENDBRANCH  57  60
ENDBRANCH  53  56
ENDBRANCH  50  53
ENDBRANCH  47  50
ENDBRANCH   1  47
TORSDOF 19
ENDMDL
MODEL 6
REMARK VINA RESULT:     -11.1      2.465      3.810
REMARK SMILES COc1ccc(C(=O)c2ccccc2)cc1[C@@H](C)C(=O)NCCCCCCNC(=O)c1ccc(-c2c3nc(c(-c4c(F)c(F)c(F)c(F)c4F)c4ccc([nH]4)c(-c4c(F)c(F)c(F)c(F)c4F)c4nc(c(-c5c(F)c(F)c(F)c(F)c5F)c5ccc2[nH]5)C=C4)C=C3)cc1
REMARK SMILES IDX 24 1 23 4 22 7 21 10 19 11 20 12 17 14 16 16 3 17 4 18 5 19
REMARK SMILES IDX 15 21 6 22 2 25 1 26 7 30 8 31 9 32 10 33 14 34 11 35 13 37
REMARK SMILES IDX 12 39 18 43 25 47 26 50 27 53 28 56 29 57 30 59 31 60 32 61
REMARK SMILES IDX 93 62 33 63 92 65 34 67 35 70 36 71 86 72 37 73 91 74 85 75
REMARK SMILES IDX 87 76 38 77 90 78 84 80 83 82 39 84 71 87 51 88 70 89 52 90
REMARK SMILES IDX 55 91 69 92 88 93 53 94 54 96 68 98 89 99 56 102 40 104
REMARK SMILES IDX 41 105 49 106 42 107 43 108 47 109 50 110 44 111 45 112
REMARK SMILES IDX 48 113 46 114 72 115 73 116 81 117 74 118 75 119 79 120
REMARK SMILES IDX 82 121 76 122 77 123 80 124 78 125 57 126 58 127 66 128
REMARK SMILES IDX 59 129 60 130 64 131 67 132 61 133 62 134 65 135 63 136
REMARK H PARENT 24 2 24 3 23 5 23 6 22 8 22 9 21 13 17 15 4 20 5 23 15 24 1 27
REMARK H PARENT 1 28 1 29 10 36 14 38 11 40 13 41 12 42 18 44 18 45 18 46
REMARK H PARENT 25 48 25 49 26 51 26 52 27 54 27 55 28 58 32 64 93 66 33 68
REMARK H PARENT 92 69 91 79 85 81 87 83 90 85 84 86 52 95 55 97 88 100 53 101
REMARK H PARENT 89 103
REMARK Flexibility Score: inf
ROOT
ATOM      1  C   UNL A   1      34.216  24.080  26.443  1.00  0.00    -0.052 C 
ATOM      2  H   UNL A   1      33.260  23.653  26.223  1.00  0.00     0.027 H 
ATOM      3  H   UNL A   1      34.278  24.548  27.403  1.00  0.00     0.027 H 
ENDROOT
BRANCH   1   4
ATOM      4  C   UNL A   1      34.479  25.193  25.424  1.00  0.00    -0.036 C 
ATOM      5  H   UNL A   1      35.528  25.408  25.435  1.00  0.00     0.028 H 
ATOM      6  H   UNL A   1      34.123  24.820  24.486  1.00  0.00     0.028 H 
BRANCH   4   7
ATOM      7  C   UNL A   1      33.727  26.506  25.666  1.00  0.00     0.017 C 
ATOM      8  H   UNL A   1      34.303  27.119  26.328  1.00  0.00     0.049 H 
ATOM      9  H   UNL A   1      33.586  26.986  24.720  1.00  0.00     0.049 H 
BRANCH   7  10
ATOM     10  N   UNL A   1      32.418  26.282  26.254  1.00  0.00    -0.356 N 
ATOM     11  C   UNL A   1      31.194  25.993  25.737  1.00  0.00     0.227 C 
ATOM     12  O   UNL A   1      30.267  25.943  26.558  1.00  0.00    -0.274 OA
ATOM     13  H   UNL A   1      32.416  26.358  27.235  1.00  0.00     0.163 HD
BRANCH  11  14
ATOM     14  C   UNL A   1      30.890  25.754  24.246  1.00  0.00     0.064 C 
ATOM     15  H   UNL A   1      31.338  26.603  23.773  1.00  0.00     0.045 H 
BRANCH  14  16
ATOM     16  C   UNL A   1      31.594  24.528  23.678  1.00  0.00     0.007 A 
ATOM     17  C   UNL A   1      32.295  24.546  22.461  1.00  0.00     0.122 A 
ATOM     18  C   UNL A   1      32.943  23.398  21.989  1.00  0.00    -0.019 A 
ATOM     19  C   UNL A   1      32.888  22.206  22.714  1.00  0.00    -0.047 A 
ATOM     20  H   UNL A   1      33.463  23.434  21.099  1.00  0.00     0.066 H 
ATOM     21  C   UNL A   1      31.535  23.306  24.373  1.00  0.00    -0.043 A 
ATOM     22  C   UNL A   1      32.153  22.142  23.898  1.00  0.00     0.023 A 
ATOM     23  H   UNL A   1      33.392  21.372  22.373  1.00  0.00     0.063 H 
ATOM     24  H   UNL A   1      31.018  23.265  25.266  1.00  0.00     0.064 H 
BRANCH  17  25
ATOM     25  O   UNL A   1      32.240  25.603  21.593  1.00  0.00    -0.496 OA
BRANCH  25  26
ATOM     26  C   UNL A   1      33.289  26.552  21.777  1.00  0.00     0.078 C 
ATOM     27  H   UNL A   1      33.477  26.679  22.823  1.00  0.00     0.067 H 
ATOM     28  H   UNL A   1      33.001  27.490  21.351  1.00  0.00     0.067 H 
ATOM     29  H   UNL A   1      34.178  26.200  21.297  1.00  0.00     0.067 H 
ENDBRANCH  25  26
ENDBRANCH  17  25
BRANCH  22  30
ATOM     30  C   UNL A   1      32.089  20.846  24.631  1.00  0.00     0.193 C 
ATOM     31  O   UNL A   1      31.490  20.793  25.703  1.00  0.00    -0.289 OA
BRANCH  30  32
ATOM     32  C   UNL A   1      32.685  19.589  24.109  1.00  0.00     0.022 A 
ATOM     33  C   UNL A   1      33.859  19.134  24.715  1.00  0.00    -0.051 A 
ATOM     34  C   UNL A   1      32.154  18.887  23.018  1.00  0.00    -0.051 A 
ATOM     35  C   UNL A   1      34.482  17.977  24.251  1.00  0.00    -0.062 A 
ATOM     36  H   UNL A   1      34.266  19.656  25.506  1.00  0.00     0.063 H 
ATOM     37  C   UNL A   1      32.768  17.709  22.578  1.00  0.00    -0.062 A 
ATOM     38  H   UNL A   1      31.310  19.239  22.539  1.00  0.00     0.063 H 
ATOM     39  C   UNL A   1      33.932  17.255  23.195  1.00  0.00    -0.062 A 
ATOM     40  H   UNL A   1      35.357  17.654  24.693  1.00  0.00     0.062 H 
ATOM     41  H   UNL A   1      32.358  17.177  21.795  1.00  0.00     0.062 H 
ATOM     42  H   UNL A   1      34.384  16.386  22.871  1.00  0.00     0.062 H 
ENDBRANCH  30  32
ENDBRANCH  22  30
ENDBRANCH  14  16
BRANCH  14  43
ATOM     43  C   UNL A   1      29.432  25.888  23.816  1.00  0.00    -0.049 C 
ATOM     44  H   UNL A   1      29.236  25.217  23.005  1.00  0.00     0.024 H 
ATOM     45  H   UNL A   1      29.246  26.893  23.499  1.00  0.00     0.024 H 
ATOM     46  H   UNL A   1      28.794  25.649  24.640  1.00  0.00     0.024 H 
ENDBRANCH  14  43
ENDBRANCH  11  14
ENDBRANCH   7  10
ENDBRANCH   4   7
ENDBRANCH   1   4
BRANCH   1  47
ATOM     47  C   UNL A   1      35.241  22.937  26.477  1.00  0.00    -0.052 C 
ATOM     48  H   UNL A   1      34.876  22.192  27.153  1.00  0.00     0.027 H 
ATOM     49  H   UNL A   1      36.163  23.393  26.773  1.00  0.00     0.027 H 
BRANCH  47  50
ATOM     50  C   UNL A   1      35.541  22.245  25.141  1.00  0.00    -0.036 C 
ATOM     51  H   UNL A   1      34.999  22.760  24.376  1.00  0.00     0.028 H 
ATOM     52  H   UNL A   1      35.248  21.224  25.271  1.00  0.00     0.028 H 
BRANCH  50  53
ATOM     53  C   UNL A   1      37.013  22.203  24.724  1.00  0.00     0.018 C 
ATOM     54  H   UNL A   1      37.464  23.142  24.968  1.00  0.00     0.049 H 
ATOM     55  H   UNL A   1      37.045  22.008  23.672  1.00  0.00     0.049 H 
BRANCH  53  56
ATOM     56  N   UNL A   1      37.757  21.145  25.387  1.00  0.00    -0.352 N 
ATOM     57  C   UNL A   1      38.914  21.208  26.128  1.00  0.00     0.251 C 
ATOM     58  H   UNL A   1      37.372  20.244  25.291  1.00  0.00     0.163 HD
ATOM     59  O   UNL A   1      39.463  20.167  26.480  1.00  0.00    -0.269 OA
BRANCH  57  60
ATOM     60  C   UNL A   1      39.531  22.507  26.499  1.00  0.00     0.039 A 
ATOM     61  C   UNL A   1      40.682  22.503  27.293  1.00  0.00    -0.049 A 
ATOM     62  C   UNL A   1      38.952  23.728  26.149  1.00  0.00    -0.049 A 
ATOM     63  C   UNL A   1      41.270  23.712  27.689  1.00  0.00    -0.053 A 
ATOM     64  H   UNL A   1      41.099  21.607  27.588  1.00  0.00     0.063 H 
ATOM     65  C   UNL A   1      39.579  24.937  26.487  1.00  0.00    -0.053 A 
ATOM     66  H   UNL A   1      38.057  23.742  25.636  1.00  0.00     0.063 H 
ATOM     67  C   UNL A   1      40.743  24.947  27.271  1.00  0.00    -0.014 A 
ATOM     68  H   UNL A   1      42.104  23.695  28.297  1.00  0.00     0.063 H 
ATOM     69  H   UNL A   1      39.179  25.829  26.156  1.00  0.00     0.063 H 
BRANCH  67  70
ATOM     70  C   UNL A   1      41.419  26.222  27.663  1.00  0.00     0.031 A 
ATOM     71  C   UNL A   1      42.829  26.537  27.227  1.00  0.00     0.074 A 
ATOM     72  C   UNL A   1      40.762  27.122  28.423  1.00  0.00     0.049 A 
ATOM     73  N   UNL A   1      43.523  27.637  27.404  1.00  0.00    -0.248 NA
ATOM     74  C   UNL A   1      43.564  25.478  26.522  1.00  0.00    -0.034 C 
ATOM     75  C   UNL A   1      39.424  26.937  28.983  1.00  0.00    -0.036 A 
ATOM     76  N   UNL A   1      41.127  28.380  28.845  1.00  0.00    -0.354 N 
ATOM     77  C   UNL A   1      44.769  27.400  26.839  1.00  0.00     0.074 A 
ATOM     78  C   UNL A   1      44.757  26.033  26.361  1.00  0.00    -0.034 C 
ATOM     79  H   UNL A   1      43.236  24.544  26.228  1.00  0.00     0.065 H 
ATOM     80  C   UNL A   1      39.064  28.052  29.640  1.00  0.00    -0.036 A 
ATOM     81  H   UNL A   1      38.849  26.086  28.889  1.00  0.00     0.065 H 
ATOM     82  C   UNL A   1      40.151  29.026  29.565  1.00  0.00     0.049 A 
ATOM     83  H   UNL A   1      42.006  28.779  28.650  1.00  0.00     0.167 HD
ATOM     84  C   UNL A   1      45.821  28.245  26.703  1.00  0.00     0.037 A 
ATOM     85  H   UNL A   1      45.571  25.552  25.950  1.00  0.00     0.065 H 
ATOM     86  H   UNL A   1      38.163  28.198  30.122  1.00  0.00     0.065 H 
ATOM     87  C   UNL A   1      40.120  30.265  30.093  1.00  0.00     0.037 A 
ATOM     88  C   UNL A   1      45.841  29.617  27.143  1.00  0.00     0.049 A 
ATOM     89  C   UNL A   1      41.285  31.196  29.899  1.00  0.00     0.074 A 
ATOM     90  C   UNL A   1      46.835  30.566  26.965  1.00  0.00    -0.036 A 
ATOM     91  N   UNL A   1      44.827  30.235  27.855  1.00  0.00    -0.354 N 
ATOM     92  N   UNL A   1      42.413  30.991  29.266  1.00  0.00    -0.248 NA
ATOM     93  C   UNL A   1      41.161  32.542  30.481  1.00  0.00    -0.034 C 
ATOM     94  C   UNL A   1      46.440  31.746  27.606  1.00  0.00    -0.036 A 
ATOM     95  H   UNL A   1      47.717  30.427  26.445  1.00  0.00     0.065 H 
ATOM     96  C   UNL A   1      45.181  31.546  28.145  1.00  0.00     0.049 A 
ATOM     97  H   UNL A   1      43.980  29.809  28.118  1.00  0.00     0.167 HD
ATOM     98  C   UNL A   1      43.122  32.183  29.354  1.00  0.00     0.074 A 
ATOM     99  C   UNL A   1      42.289  33.115  30.082  1.00  0.00    -0.034 C 
ATOM    100  H   UNL A   1      40.398  32.937  31.050  1.00  0.00     0.065 H 
ATOM    101  H   UNL A   1      46.994  32.615  27.667  1.00  0.00     0.065 H 
ATOM    102  C   UNL A   1      44.354  32.474  28.870  1.00  0.00     0.037 A 
ATOM    103  H   UNL A   1      42.540  34.098  30.268  1.00  0.00     0.065 H 
BRANCH  84 104
ATOM    104  C   UNL A   1      47.055  27.715  26.027  1.00  0.00     0.064 A 
ATOM    105  C   UNL A   1      47.196  27.746  24.632  1.00  0.00     0.173 A 
ATOM    106  C   UNL A   1      48.130  27.229  26.787  1.00  0.00     0.173 A 
ATOM    107  F   UNL A   1      46.196  28.198  23.862  1.00  0.00    -0.203 F 
ATOM    108  C   UNL A   1      48.357  27.282  24.019  1.00  0.00     0.198 A 
ATOM    109  C   UNL A   1      49.301  26.791  26.172  1.00  0.00     0.198 A 
ATOM    110  F   UNL A   1      48.052  27.190  28.125  1.00  0.00    -0.203 F 
ATOM    111  F   UNL A   1      48.453  27.282  22.683  1.00  0.00    -0.200 F 
ATOM    112  C   UNL A   1      49.410  26.812  24.789  1.00  0.00     0.200 A 
ATOM    113  F   UNL A   1      50.324  26.352  26.916  1.00  0.00    -0.200 F 
ATOM    114  F   UNL A   1      50.531  26.375  24.197  1.00  0.00    -0.200 F 
ENDBRANCH  84 104
BRANCH  87 115
ATOM    115  C   UNL A   1      38.913  30.721  30.829  1.00  0.00     0.064 A 
ATOM    116  C   UNL A   1      38.827  30.592  32.222  1.00  0.00     0.173 A 
ATOM    117  C   UNL A   1      37.821  31.286  30.155  1.00  0.00     0.173 A 
ATOM    118  F   UNL A   1      39.838  30.035  32.906  1.00  0.00    -0.203 F 
ATOM    119  C   UNL A   1      37.684  30.990  32.912  1.00  0.00     0.198 A 
ATOM    120  C   UNL A   1      36.690  31.710  30.849  1.00  0.00     0.198 A 
ATOM    121  F   UNL A   1      37.858  31.435  28.823  1.00  0.00    -0.203 F 
ATOM    122  F   UNL A   1      37.609  30.815  34.238  1.00  0.00    -0.200 F 
ATOM    123  C   UNL A   1      36.619  31.555  32.225  1.00  0.00     0.200 A 
ATOM    124  F   UNL A   1      35.669  32.266  30.184  1.00  0.00    -0.200 F 
ATOM    125  F   UNL A   1      35.522  31.942  32.889  1.00  0.00    -0.200 F 
ENDBRANCH  87 115
BRANCH 102 126
ATOM    126  C   UNL A   1      44.872  33.867  29.094  1.00  0.00     0.064 A 
ATOM    127  C   UNL A   1      45.635  34.196  30.224  1.00  0.00     0.173 A 
ATOM    128  C   UNL A   1      44.620  34.880  28.156  1.00  0.00     0.173 A 
ATOM    129  F   UNL A   1      45.892  33.269  31.158  1.00  0.00    -0.203 F 
ATOM    130  C   UNL A   1      46.100  35.494  30.422  1.00  0.00     0.198 A 
ATOM    131  C   UNL A   1      45.111  36.171  28.343  1.00  0.00     0.198 A 
ATOM    132  F   UNL A   1      43.900  34.619  27.054  1.00  0.00    -0.203 F 
ATOM    133  F   UNL A   1      46.783  35.797  31.535  1.00  0.00    -0.200 F 
ATOM    134  C   UNL A   1      45.842  36.479  29.480  1.00  0.00     0.200 A 
ATOM    135  F   UNL A   1      44.868  37.118  27.426  1.00  0.00    -0.200 F 
ATOM    136  F   UNL A   1      46.290  37.727  29.673  1.00  0.00    -0.200 F 
ENDBRANCH 102 126
ENDBRANCH  67  70
ENDBRANCH  57  60
ENDBRANCH  53  56
ENDBRANCH  50  53
ENDBRANCH  47  50
ENDBRANCH   1  47
TORSDOF 19
ENDMDL
MODEL 7
REMARK VINA RESULT:     -11.1      2.441      3.671
REMARK SMILES COc1ccc(C(=O)c2ccccc2)cc1[C@@H](C)C(=O)NCCCCCCNC(=O)c1ccc(-c2c3nc(c(-c4c(F)c(F)c(F)c(F)c4F)c4ccc([nH]4)c(-c4c(F)c(F)c(F)c(F)c4F)c4nc(c(-c5c(F)c(F)c(F)c(F)c5F)c5ccc2[nH]5)C=C4)C=C3)cc1
REMARK SMILES IDX 24 1 23 4 22 7 21 10 19 11 20 12 17 14 16 16 3 17 4 18 5 19
REMARK SMILES IDX 15 21 6 22 2 25 1 26 7 30 8 31 9 32 10 33 14 34 11 35 13 37
REMARK SMILES IDX 12 39 18 43 25 47 26 50 27 53 28 56 29 57 30 59 31 60 32 61
REMARK SMILES IDX 93 62 33 63 92 65 34 67 35 70 36 71 86 72 37 73 91 74 85 75
REMARK SMILES IDX 87 76 38 77 90 78 84 80 83 82 39 84 71 87 51 88 70 89 52 90
REMARK SMILES IDX 55 91 69 92 88 93 53 94 54 96 68 98 89 99 56 102 40 104
REMARK SMILES IDX 41 105 49 106 42 107 43 108 47 109 50 110 44 111 45 112
REMARK SMILES IDX 48 113 46 114 72 115 73 116 81 117 74 118 75 119 79 120
REMARK SMILES IDX 82 121 76 122 77 123 80 124 78 125 57 126 58 127 66 128
REMARK SMILES IDX 59 129 60 130 64 131 67 132 61 133 62 134 65 135 63 136
REMARK H PARENT 24 2 24 3 23 5 23 6 22 8 22 9 21 13 17 15 4 20 5 23 15 24 1 27
REMARK H PARENT 1 28 1 29 10 36 14 38 11 40 13 41 12 42 18 44 18 45 18 46
REMARK H PARENT 25 48 25 49 26 51 26 52 27 54 27 55 28 58 32 64 93 66 33 68
REMARK H PARENT 92 69 91 79 85 81 87 83 90 85 84 86 52 95 55 97 88 100 53 101
REMARK H PARENT 89 103
REMARK Flexibility Score: inf
ROOT
ATOM      1  C   UNL A   1      34.424  24.066  26.387  1.00  0.00    -0.052 C 
ATOM      2  H   UNL A   1      33.422  23.709  26.266  1.00  0.00     0.027 H 
ATOM      3  H   UNL A   1      34.617  24.519  27.337  1.00  0.00     0.027 H 
ENDROOT
BRANCH   1   4
ATOM      4  C   UNL A   1      34.657  25.169  25.350  1.00  0.00    -0.036 C 
ATOM      5  H   UNL A   1      35.707  25.373  25.318  1.00  0.00     0.028 H 
ATOM      6  H   UNL A   1      34.261  24.792  24.429  1.00  0.00     0.028 H 
BRANCH   4   7
ATOM      7  C   UNL A   1      33.928  26.491  25.610  1.00  0.00     0.017 C 
ATOM      8  H   UNL A   1      34.532  27.100  26.248  1.00  0.00     0.049 H 
ATOM      9  H   UNL A   1      33.759  26.967  24.667  1.00  0.00     0.049 H 
BRANCH   7  10
ATOM     10  N   UNL A   1      32.637  26.284  26.244  1.00  0.00    -0.356 N 
ATOM     11  C   UNL A   1      31.392  26.013  25.772  1.00  0.00     0.227 C 
ATOM     12  O   UNL A   1      30.495  25.974  26.626  1.00  0.00    -0.274 OA
ATOM     13  H   UNL A   1      32.672  26.358  27.225  1.00  0.00     0.163 HD
BRANCH  11  14
ATOM     14  C   UNL A   1      31.031  25.782  24.292  1.00  0.00     0.064 C 
ATOM     15  H   UNL A   1      31.479  26.621  23.804  1.00  0.00     0.045 H 
BRANCH  14  16
ATOM     16  C   UNL A   1      31.689  24.542  23.700  1.00  0.00     0.007 A 
ATOM     17  C   UNL A   1      32.362  24.551  22.467  1.00  0.00     0.122 A 
ATOM     18  C   UNL A   1      32.969  23.390  21.972  1.00  0.00    -0.019 A 
ATOM     19  C   UNL A   1      32.900  22.194  22.690  1.00  0.00    -0.047 A 
ATOM     20  H   UNL A   1      33.469  23.419  21.071  1.00  0.00     0.066 H 
ATOM     21  C   UNL A   1      31.615  23.317  24.388  1.00  0.00    -0.043 A 
ATOM     22  C   UNL A   1      32.191  22.141  23.890  1.00  0.00     0.023 A 
ATOM     23  H   UNL A   1      33.374  21.350  22.331  1.00  0.00     0.063 H 
ATOM     24  H   UNL A   1      31.118  23.283  25.292  1.00  0.00     0.064 H 
BRANCH  17  25
ATOM     25  O   UNL A   1      32.314  25.615  21.607  1.00  0.00    -0.496 OA
BRANCH  25  26
ATOM     26  C   UNL A   1      33.338  26.583  21.835  1.00  0.00     0.078 C 
ATOM     27  H   UNL A   1      33.000  27.296  22.558  1.00  0.00     0.067 H 
ATOM     28  H   UNL A   1      33.564  27.086  20.918  1.00  0.00     0.067 H 
ATOM     29  H   UNL A   1      34.217  26.095  22.199  1.00  0.00     0.067 H 
ENDBRANCH  25  26
ENDBRANCH  17  25
BRANCH  22  30
ATOM     30  C   UNL A   1      32.111  20.841  24.616  1.00  0.00     0.193 C 
ATOM     31  O   UNL A   1      31.403  20.758  25.618  1.00  0.00    -0.289 OA
BRANCH  30  32
ATOM     32  C   UNL A   1      32.818  19.616  24.164  1.00  0.00     0.022 A 
ATOM     33  C   UNL A   1      32.204  18.847  23.171  1.00  0.00    -0.051 A 
ATOM     34  C   UNL A   1      34.028  19.182  24.724  1.00  0.00    -0.051 A 
ATOM     35  C   UNL A   1      32.805  17.672  22.725  1.00  0.00    -0.062 A 
ATOM     36  H   UNL A   1      31.305  19.151  22.767  1.00  0.00     0.063 H 
ATOM     37  C   UNL A   1      34.640  18.017  24.250  1.00  0.00    -0.062 A 
ATOM     38  H   UNL A   1      34.466  19.722  25.486  1.00  0.00     0.063 H 
ATOM     39  C   UNL A   1      34.028  17.262  23.251  1.00  0.00    -0.062 A 
ATOM     40  H   UNL A   1      32.340  17.101  22.003  1.00  0.00     0.062 H 
ATOM     41  H   UNL A   1      35.546  17.715  24.642  1.00  0.00     0.062 H 
ATOM     42  H   UNL A   1      34.480  16.403  22.901  1.00  0.00     0.062 H 
ENDBRANCH  30  32
ENDBRANCH  22  30
ENDBRANCH  14  16
BRANCH  14  43
ATOM     43  C   UNL A   1      29.562  25.946  23.913  1.00  0.00    -0.049 C 
ATOM     44  H   UNL A   1      29.051  26.480  24.687  1.00  0.00     0.024 H 
ATOM     45  H   UNL A   1      29.116  24.981  23.792  1.00  0.00     0.024 H 
ATOM     46  H   UNL A   1      29.489  26.491  22.995  1.00  0.00     0.024 H 
ENDBRANCH  14  43
ENDBRANCH  11  14
ENDBRANCH   7  10
ENDBRANCH   4   7
ENDBRANCH   1   4
BRANCH   1  47
ATOM     47  C   UNL A   1      35.364  22.855  26.311  1.00  0.00    -0.052 C 
ATOM     48  H   UNL A   1      34.911  22.055  26.860  1.00  0.00     0.027 H 
ATOM     49  H   UNL A   1      36.296  23.195  26.710  1.00  0.00     0.027 H 
BRANCH  47  50
ATOM     50  C   UNL A   1      35.692  22.328  24.908  1.00  0.00    -0.036 C 
ATOM     51  H   UNL A   1      35.236  22.984  24.196  1.00  0.00     0.028 H 
ATOM     52  H   UNL A   1      35.318  21.326  24.880  1.00  0.00     0.028 H 
BRANCH  50  53
ATOM     53  C   UNL A   1      37.180  22.224  24.562  1.00  0.00     0.018 C 
ATOM     54  H   UNL A   1      37.648  23.159  24.786  1.00  0.00     0.049 H 
ATOM     55  H   UNL A   1      37.252  21.982  23.522  1.00  0.00     0.049 H 
BRANCH  53  56
ATOM     56  N   UNL A   1      37.859  21.176  25.304  1.00  0.00    -0.352 N 
ATOM     57  C   UNL A   1      38.959  21.244  26.127  1.00  0.00     0.251 C 
ATOM     58  H   UNL A   1      37.471  20.276  25.202  1.00  0.00     0.163 HD
ATOM     59  O   UNL A   1      39.467  20.207  26.544  1.00  0.00    -0.269 OA
BRANCH  57  60
ATOM     60  C   UNL A   1      39.563  22.546  26.510  1.00  0.00     0.039 A 
ATOM     61  C   UNL A   1      40.698  22.546  27.327  1.00  0.00    -0.049 A 
ATOM     62  C   UNL A   1      38.987  23.765  26.149  1.00  0.00    -0.049 A 
ATOM     63  C   UNL A   1      41.274  23.758  27.735  1.00  0.00    -0.053 A 
ATOM     64  H   UNL A   1      41.114  21.652  27.630  1.00  0.00     0.063 H 
ATOM     65  C   UNL A   1      39.602  24.977  26.501  1.00  0.00    -0.053 A 
ATOM     66  H   UNL A   1      38.102  23.775  25.619  1.00  0.00     0.063 H 
ATOM     67  C   UNL A   1      40.750  24.990  27.307  1.00  0.00    -0.014 A 
ATOM     68  H   UNL A   1      42.095  23.744  28.360  1.00  0.00     0.063 H 
ATOM     69  H   UNL A   1      39.204  25.867  26.162  1.00  0.00     0.063 H 
BRANCH  67  70
ATOM     70  C   UNL A   1      41.413  26.268  27.713  1.00  0.00     0.031 A 
ATOM     71  C   UNL A   1      42.816  26.606  27.274  1.00  0.00     0.074 A 
ATOM     72  C   UNL A   1      40.750  27.150  28.489  1.00  0.00     0.049 A 
ATOM     73  N   UNL A   1      43.498  27.712  27.462  1.00  0.00    -0.248 NA
ATOM     74  C   UNL A   1      43.560  25.566  26.550  1.00  0.00    -0.034 C 
ATOM     75  C   UNL A   1      39.417  26.940  29.055  1.00  0.00    -0.036 A 
ATOM     76  N   UNL A   1      41.102  28.405  28.927  1.00  0.00    -0.354 N 
ATOM     77  C   UNL A   1      44.744  27.498  26.886  1.00  0.00     0.074 A 
ATOM     78  C   UNL A   1      44.745  26.138  26.390  1.00  0.00    -0.034 C 
ATOM     79  H   UNL A   1      43.242  24.632  26.245  1.00  0.00     0.065 H 
ATOM     80  C   UNL A   1      39.048  28.041  29.729  1.00  0.00    -0.036 A 
ATOM     81  H   UNL A   1      38.852  26.084  28.952  1.00  0.00     0.065 H 
ATOM     82  C   UNL A   1      40.123  29.029  29.662  1.00  0.00     0.049 A 
ATOM     83  H   UNL A   1      41.974  28.818  28.732  1.00  0.00     0.167 HD
ATOM     84  C   UNL A   1      45.785  28.358  26.756  1.00  0.00     0.037 A 
ATOM     85  H   UNL A   1      45.563  25.673  25.967  1.00  0.00     0.065 H 
ATOM     86  H   UNL A   1      38.148  28.169  30.218  1.00  0.00     0.065 H 
ATOM     87  C   UNL A   1      40.079  30.260  30.207  1.00  0.00     0.037 A 
ATOM     88  C   UNL A   1      45.791  29.724  27.216  1.00  0.00     0.049 A 
ATOM     89  C   UNL A   1      41.232  31.208  30.019  1.00  0.00     0.074 A 
ATOM     90  C   UNL A   1      46.772  30.687  27.044  1.00  0.00    -0.036 A 
ATOM     91  N   UNL A   1      44.773  30.319  27.942  1.00  0.00    -0.354 N 
ATOM     92  N   UNL A   1      42.359  31.026  29.377  1.00  0.00    -0.248 NA
ATOM     93  C   UNL A   1      41.096  32.545  30.621  1.00  0.00    -0.034 C 
ATOM     94  C   UNL A   1      46.366  31.853  27.704  1.00  0.00    -0.036 A 
ATOM     95  H   UNL A   1      47.652  30.566  26.518  1.00  0.00     0.065 H 
ATOM     96  C   UNL A   1      45.113  31.630  28.248  1.00  0.00     0.049 A 
ATOM     97  H   UNL A   1      43.933  29.879  28.204  1.00  0.00     0.167 HD
ATOM     98  C   UNL A   1      43.054  32.225  29.477  1.00  0.00     0.074 A 
ATOM     99  C   UNL A   1      42.214  33.136  30.224  1.00  0.00    -0.034 C 
ATOM    100  H   UNL A   1      40.331  32.922  31.200  1.00  0.00     0.065 H 
ATOM    101  H   UNL A   1      46.910  32.727  27.775  1.00  0.00     0.065 H 
ATOM    102  C   UNL A   1      44.279  32.538  28.991  1.00  0.00     0.037 A 
ATOM    103  H   UNL A   1      42.454  34.120  30.422  1.00  0.00     0.065 H 
BRANCH  84 104
ATOM    104  C   UNL A   1      47.020  27.852  26.066  1.00  0.00     0.064 A 
ATOM    105  C   UNL A   1      48.120  27.371  26.793  1.00  0.00     0.173 A 
ATOM    106  C   UNL A   1      47.080  27.792  24.665  1.00  0.00     0.173 A 
ATOM    107  F   UNL A   1      48.112  27.410  28.133  1.00  0.00    -0.203 F 
ATOM    108  C   UNL A   1      49.246  26.874  26.142  1.00  0.00     0.198 A 
ATOM    109  C   UNL A   1      48.198  27.269  24.018  1.00  0.00     0.198 A 
ATOM    110  F   UNL A   1      46.051  28.228  23.923  1.00  0.00    -0.203 F 
ATOM    111  F   UNL A   1      50.301  26.458  26.856  1.00  0.00    -0.200 F 
ATOM    112  C   UNL A   1      49.281  26.818  24.757  1.00  0.00     0.200 A 
ATOM    113  F   UNL A   1      48.226  27.200  22.680  1.00  0.00    -0.200 F 
ATOM    114  F   UNL A   1      50.363  26.329  24.133  1.00  0.00    -0.200 F 
ENDBRANCH  84 104
BRANCH  87 115
ATOM    115  C   UNL A   1      38.871  30.692  30.956  1.00  0.00     0.064 A 
ATOM    116  C   UNL A   1      37.765  31.234  30.288  1.00  0.00     0.173 A 
ATOM    117  C   UNL A   1      38.803  30.581  32.352  1.00  0.00     0.173 A 
ATOM    118  F   UNL A   1      37.794  31.382  28.955  1.00  0.00    -0.203 F 
ATOM    119  C   UNL A   1      36.643  31.669  30.990  1.00  0.00     0.198 A 
ATOM    120  C   UNL A   1      37.670  30.990  33.051  1.00  0.00     0.198 A 
ATOM    121  F   UNL A   1      39.835  30.064  33.036  1.00  0.00    -0.203 F 
ATOM    122  F   UNL A   1      35.617  32.224  30.332  1.00  0.00    -0.200 F 
ATOM    123  C   UNL A   1      36.594  31.540  32.370  1.00  0.00     0.200 A 
ATOM    124  F   UNL A   1      37.622  30.854  34.382  1.00  0.00    -0.200 F 
ATOM    125  F   UNL A   1      35.513  31.954  33.045  1.00  0.00    -0.200 F 
ENDBRANCH  87 115
BRANCH 102 126
ATOM    126  C   UNL A   1      44.782  33.934  29.231  1.00  0.00     0.064 A 
ATOM    127  C   UNL A   1      44.501  34.981  28.341  1.00  0.00     0.173 A 
ATOM    128  C   UNL A   1      45.537  34.232  30.376  1.00  0.00     0.173 A 
ATOM    129  F   UNL A   1      43.796  34.746  27.224  1.00  0.00    -0.203 F 
ATOM    130  C   UNL A   1      44.982  36.267  28.572  1.00  0.00     0.198 A 
ATOM    131  C   UNL A   1      45.993  35.526  30.618  1.00  0.00     0.198 A 
ATOM    132  F   UNL A   1      45.831  33.269  31.263  1.00  0.00    -0.203 F 
ATOM    133  F   UNL A   1      44.745  37.240  27.680  1.00  0.00    -0.200 F 
ATOM    134  C   UNL A   1      45.724  36.540  29.711  1.00  0.00     0.200 A 
ATOM    135  F   UNL A   1      46.701  35.789  31.725  1.00  0.00    -0.200 F 
ATOM    136  F   UNL A   1      46.187  37.778  29.932  1.00  0.00    -0.200 F 
ENDBRANCH 102 126
ENDBRANCH  67  70
ENDBRANCH  57  60
ENDBRANCH  53  56
ENDBRANCH  50  53
ENDBRANCH  47  50
ENDBRANCH   1  47
TORSDOF 19
ENDMDL
MODEL 8
REMARK VINA RESULT:     -11.1      4.107      9.140
REMARK SMILES COc1ccc(C(=O)c2ccccc2)cc1[C@@H](C)C(=O)NCCCCCCNC(=O)c1ccc(-c2c3nc(c(-c4c(F)c(F)c(F)c(F)c4F)c4ccc([nH]4)c(-c4c(F)c(F)c(F)c(F)c4F)c4nc(c(-c5c(F)c(F)c(F)c(F)c5F)c5ccc2[nH]5)C=C4)C=C3)cc1
REMARK SMILES IDX 24 1 23 4 22 7 21 10 19 11 20 12 17 14 16 16 3 17 4 18 5 19
REMARK SMILES IDX 15 21 6 22 2 25 1 26 7 30 8 31 9 32 10 33 14 34 11 35 13 37
REMARK SMILES IDX 12 39 18 43 25 47 26 50 27 53 28 56 29 57 30 59 31 60 32 61
REMARK SMILES IDX 93 62 33 63 92 65 34 67 35 70 36 71 86 72 37 73 91 74 85 75
REMARK SMILES IDX 87 76 38 77 90 78 84 80 83 82 39 84 71 87 51 88 70 89 52 90
REMARK SMILES IDX 55 91 69 92 88 93 53 94 54 96 68 98 89 99 56 102 40 104
REMARK SMILES IDX 41 105 49 106 42 107 43 108 47 109 50 110 44 111 45 112
REMARK SMILES IDX 48 113 46 114 72 115 73 116 81 117 74 118 75 119 79 120
REMARK SMILES IDX 82 121 76 122 77 123 80 124 78 125 57 126 58 127 66 128
REMARK SMILES IDX 59 129 60 130 64 131 67 132 61 133 62 134 65 135 63 136
REMARK H PARENT 24 2 24 3 23 5 23 6 22 8 22 9 21 13 17 15 4 20 5 23 15 24 1 27
REMARK H PARENT 1 28 1 29 10 36 14 38 11 40 13 41 12 42 18 44 18 45 18 46
REMARK H PARENT 25 48 25 49 26 51 26 52 27 54 27 55 28 58 32 64 93 66 33 68
REMARK H PARENT 92 69 91 79 85 81 87 83 90 85 84 86 52 95 55 97 88 100 53 101
REMARK H PARENT 89 103
REMARK Flexibility Score: inf
ROOT
ATOM      1  C   UNL A   1      31.768  29.249  26.674  1.00  0.00    -0.052 C 
ATOM      2  H   UNL A   1      31.228  29.257  27.598  1.00  0.00     0.027 H 
ATOM      3  H   UNL A   1      31.485  28.462  26.007  1.00  0.00     0.027 H 
ENDROOT
BRANCH   1   4
ATOM      4  C   UNL A   1      33.245  29.005  26.998  1.00  0.00    -0.036 C 
ATOM      5  H   UNL A   1      33.707  29.956  27.164  1.00  0.00     0.028 H 
ATOM      6  H   UNL A   1      33.254  28.363  27.854  1.00  0.00     0.028 H 
BRANCH   4   7
ATOM      7  C   UNL A   1      34.049  28.273  25.918  1.00  0.00     0.017 C 
ATOM      8  H   UNL A   1      35.077  28.238  26.215  1.00  0.00     0.049 H 
ATOM      9  H   UNL A   1      33.645  27.289  25.813  1.00  0.00     0.049 H 
BRANCH   7  10
ATOM     10  N   UNL A   1      33.957  28.936  24.629  1.00  0.00    -0.356 N 
ATOM     11  C   UNL A   1      33.554  28.534  23.394  1.00  0.00     0.227 C 
ATOM     12  O   UNL A   1      33.684  29.374  22.492  1.00  0.00    -0.274 OA
ATOM     13  H   UNL A   1      34.249  29.875  24.655  1.00  0.00     0.163 HD
BRANCH  11  14
ATOM     14  C   UNL A   1      32.988  27.143  23.050  1.00  0.00     0.064 C 
ATOM     15  H   UNL A   1      33.615  26.486  23.615  1.00  0.00     0.045 H 
BRANCH  14  16
ATOM     16  C   UNL A   1      31.570  26.928  23.562  1.00  0.00     0.007 A 
ATOM     17  C   UNL A   1      31.226  25.890  24.443  1.00  0.00     0.122 A 
ATOM     18  C   UNL A   1      29.912  25.744  24.903  1.00  0.00    -0.019 A 
ATOM     19  C   UNL A   1      28.912  26.621  24.477  1.00  0.00    -0.047 A 
ATOM     20  H   UNL A   1      29.681  24.982  25.559  1.00  0.00     0.066 H 
ATOM     21  C   UNL A   1      30.536  27.780  23.132  1.00  0.00    -0.043 A 
ATOM     22  C   UNL A   1      29.211  27.628  23.559  1.00  0.00     0.023 A 
ATOM     23  H   UNL A   1      27.951  26.523  24.843  1.00  0.00     0.063 H 
ATOM     24  H   UNL A   1      30.762  28.546  22.477  1.00  0.00     0.064 H 
BRANCH  17  25
ATOM     25  O   UNL A   1      32.087  24.873  24.758  1.00  0.00    -0.496 OA
BRANCH  25  26
ATOM     26  C   UNL A   1      32.468  24.848  26.133  1.00  0.00     0.078 C 
ATOM     27  H   UNL A   1      32.313  23.865  26.528  1.00  0.00     0.067 H 
ATOM     28  H   UNL A   1      31.874  25.549  26.681  1.00  0.00     0.067 H 
ATOM     29  H   UNL A   1      33.501  25.109  26.223  1.00  0.00     0.067 H 
ENDBRANCH  25  26
ENDBRANCH  17  25
BRANCH  22  30
ATOM     30  C   UNL A   1      28.114  28.527  23.102  1.00  0.00     0.193 C 
ATOM     31  O   UNL A   1      26.959  28.106  23.095  1.00  0.00    -0.289 OA
BRANCH  30  32
ATOM     32  C   UNL A   1      28.341  29.935  22.685  1.00  0.00     0.022 A 
ATOM     33  C   UNL A   1      28.647  30.861  23.687  1.00  0.00    -0.051 A 
ATOM     34  C   UNL A   1      28.209  30.370  21.360  1.00  0.00    -0.051 A 
ATOM     35  C   UNL A   1      28.842  32.202  23.363  1.00  0.00    -0.062 A 
ATOM     36  H   UNL A   1      28.727  30.550  24.668  1.00  0.00     0.063 H 
ATOM     37  C   UNL A   1      28.436  31.712  21.038  1.00  0.00    -0.062 A 
ATOM     38  H   UNL A   1      27.943  29.700  20.621  1.00  0.00     0.063 H 
ATOM     39  C   UNL A   1      28.753  32.628  22.040  1.00  0.00    -0.062 A 
ATOM     40  H   UNL A   1      29.054  32.883  24.108  1.00  0.00     0.062 H 
ATOM     41  H   UNL A   1      28.369  32.025  20.057  1.00  0.00     0.062 H 
ATOM     42  H   UNL A   1      28.922  33.617  21.802  1.00  0.00     0.062 H 
ENDBRANCH  30  32
ENDBRANCH  22  30
ENDBRANCH  14  16
BRANCH  14  43
ATOM     43  C   UNL A   1      33.216  26.646  21.625  1.00  0.00    -0.049 C 
ATOM     44  H   UNL A   1      33.414  25.594  21.641  1.00  0.00     0.024 H 
ATOM     45  H   UNL A   1      34.052  27.160  21.199  1.00  0.00     0.024 H 
ATOM     46  H   UNL A   1      32.343  26.836  21.037  1.00  0.00     0.024 H 
ENDBRANCH  14  43
ENDBRANCH  11  14
ENDBRANCH   7  10
ENDBRANCH   4   7
ENDBRANCH   1   4
BRANCH   1  47
ATOM     47  C   UNL A   1      31.443  30.553  25.932  1.00  0.00    -0.052 C 
ATOM     48  H   UNL A   1      30.491  30.430  25.459  1.00  0.00     0.027 H 
ATOM     49  H   UNL A   1      32.259  30.704  25.257  1.00  0.00     0.027 H 
BRANCH  47  50
ATOM     50  C   UNL A   1      31.378  31.828  26.783  1.00  0.00    -0.036 C 
ATOM     51  H   UNL A   1      31.094  31.546  27.775  1.00  0.00     0.028 H 
ATOM     52  H   UNL A   1      30.675  32.468  26.292  1.00  0.00     0.028 H 
BRANCH  50  53
ATOM     53  C   UNL A   1      32.675  32.636  26.879  1.00  0.00     0.018 C 
ATOM     54  H   UNL A   1      33.052  32.795  25.890  1.00  0.00     0.049 H 
ATOM     55  H   UNL A   1      33.360  32.075  27.480  1.00  0.00     0.049 H 
BRANCH  53  56
ATOM     56  N   UNL A   1      32.489  33.927  27.518  1.00  0.00    -0.352 N 
ATOM     57  C   UNL A   1      33.139  34.485  28.595  1.00  0.00     0.251 C 
ATOM     58  H   UNL A   1      31.789  34.493  27.118  1.00  0.00     0.163 HD
ATOM     59  O   UNL A   1      32.725  35.537  29.072  1.00  0.00    -0.269 OA
BRANCH  57  60
ATOM     60  C   UNL A   1      34.323  33.832  29.211  1.00  0.00     0.039 A 
ATOM     61  C   UNL A   1      35.599  34.273  28.846  1.00  0.00    -0.049 A 
ATOM     62  C   UNL A   1      34.202  32.743  30.075  1.00  0.00    -0.049 A 
ATOM     63  C   UNL A   1      36.738  33.657  29.382  1.00  0.00    -0.053 A 
ATOM     64  H   UNL A   1      35.702  35.054  28.180  1.00  0.00     0.063 H 
ATOM     65  C   UNL A   1      35.341  32.171  30.664  1.00  0.00    -0.053 A 
ATOM     66  H   UNL A   1      33.269  32.356  30.284  1.00  0.00     0.063 H 
ATOM     67  C   UNL A   1      36.626  32.614  30.318  1.00  0.00    -0.014 A 
ATOM     68  H   UNL A   1      37.674  33.974  29.084  1.00  0.00     0.063 H 
ATOM     69  H   UNL A   1      35.230  31.416  31.359  1.00  0.00     0.063 H 
BRANCH  67  70
ATOM     70  C   UNL A   1      37.856  32.008  30.916  1.00  0.00     0.031 A 
ATOM     71  C   UNL A   1      38.330  32.379  32.299  1.00  0.00     0.074 A 
ATOM     72  C   UNL A   1      38.567  31.103  30.212  1.00  0.00     0.049 A 
ATOM     73  N   UNL A   1      39.322  31.877  32.997  1.00  0.00    -0.248 NA
ATOM     74  C   UNL A   1      37.617  33.468  32.981  1.00  0.00    -0.034 C 
ATOM     75  C   UNL A   1      38.282  30.691  28.837  1.00  0.00    -0.036 A 
ATOM     76  N   UNL A   1      39.669  30.357  30.559  1.00  0.00    -0.354 N 
ATOM     77  C   UNL A   1      39.353  32.587  34.189  1.00  0.00     0.074 A 
ATOM     78  C   UNL A   1      38.315  33.594  34.101  1.00  0.00    -0.034 C 
ATOM     79  H   UNL A   1      36.787  33.997  32.669  1.00  0.00     0.065 H 
ATOM     80  C   UNL A   1      39.158  29.741  28.473  1.00  0.00    -0.036 A 
ATOM     81  H   UNL A   1      37.529  31.071  28.243  1.00  0.00     0.065 H 
ATOM     82  C   UNL A   1      40.080  29.487  29.578  1.00  0.00     0.049 A 
ATOM     83  H   UNL A   1      40.122  30.440  31.430  1.00  0.00     0.167 HD
ATOM     84  C   UNL A   1      40.149  32.407  35.272  1.00  0.00     0.037 A 
ATOM     85  H   UNL A   1      38.142  34.316  34.817  1.00  0.00     0.065 H 
ATOM     86  H   UNL A   1      39.178  29.265  27.557  1.00  0.00     0.065 H 
ATOM     87  C   UNL A   1      41.071  28.575  29.567  1.00  0.00     0.037 A 
ATOM     88  C   UNL A   1      41.165  31.391  35.391  1.00  0.00     0.049 A 
ATOM     89  C   UNL A   1      41.919  28.369  30.793  1.00  0.00     0.074 A 
ATOM     90  C   UNL A   1      41.955  31.086  36.487  1.00  0.00    -0.036 A 
ATOM     91  N   UNL A   1      41.538  30.522  34.380  1.00  0.00    -0.354 N 
ATOM     92  N   UNL A   1      41.861  28.976  31.952  1.00  0.00    -0.248 NA
ATOM     93  C   UNL A   1      42.962  27.334  30.711  1.00  0.00    -0.034 C 
ATOM     94  C   UNL A   1      42.836  30.060  36.125  1.00  0.00    -0.036 A 
ATOM     95  H   UNL A   1      41.902  31.537  37.415  1.00  0.00     0.065 H 
ATOM     96  C   UNL A   1      42.564  29.696  34.818  1.00  0.00     0.049 A 
ATOM     97  H   UNL A   1      41.136  30.494  33.481  1.00  0.00     0.167 HD
ATOM     98  C   UNL A   1      42.839  28.384  32.742  1.00  0.00     0.074 A 
ATOM     99  C   UNL A   1      43.463  27.356  31.938  1.00  0.00    -0.034 C 
ATOM    100  H   UNL A   1      43.232  26.745  29.908  1.00  0.00     0.065 H 
ATOM    101  H   UNL A   1      43.564  29.647  36.729  1.00  0.00     0.065 H 
ATOM    102  C   UNL A   1      43.186  28.672  34.020  1.00  0.00     0.037 A 
ATOM    103  H   UNL A   1      44.202  26.720  32.276  1.00  0.00     0.065 H 
BRANCH  84 104
ATOM    104  C   UNL A   1      39.946  33.326  36.444  1.00  0.00     0.064 A 
ATOM    105  C   UNL A   1      40.682  34.512  36.580  1.00  0.00     0.173 A 
ATOM    106  C   UNL A   1      38.964  33.047  37.407  1.00  0.00     0.173 A 
ATOM    107  F   UNL A   1      41.634  34.821  35.688  1.00  0.00    -0.203 F 
ATOM    108  C   UNL A   1      40.463  35.372  37.652  1.00  0.00     0.198 A 
ATOM    109  C   UNL A   1      38.728  33.924  38.463  1.00  0.00     0.198 A 
ATOM    110  F   UNL A   1      38.223  31.932  37.316  1.00  0.00    -0.203 F 
ATOM    111  F   UNL A   1      41.206  36.479  37.785  1.00  0.00    -0.200 F 
ATOM    112  C   UNL A   1      39.482  35.081  38.589  1.00  0.00     0.200 A 
ATOM    113  F   UNL A   1      37.770  33.650  39.359  1.00  0.00    -0.200 F 
ATOM    114  F   UNL A   1      39.265  35.916  39.615  1.00  0.00    -0.200 F 
ENDBRANCH  84 104
BRANCH  87 115
ATOM    115  C   UNL A   1      41.294  27.744  28.356  1.00  0.00     0.064 A 
ATOM    116  C   UNL A   1      40.634  26.518  28.192  1.00  0.00     0.173 A 
ATOM    117  C   UNL A   1      42.177  28.153  27.347  1.00  0.00     0.173 A 
ATOM    118  F   UNL A   1      39.798  26.076  29.143  1.00  0.00    -0.203 F 
ATOM    119  C   UNL A   1      40.864  25.722  27.072  1.00  0.00     0.198 A 
ATOM    120  C   UNL A   1      42.385  27.369  26.215  1.00  0.00     0.198 A 
ATOM    121  F   UNL A   1      42.828  29.320  27.456  1.00  0.00    -0.203 F 
ATOM    122  F   UNL A   1      40.254  24.535  26.961  1.00  0.00    -0.200 F 
ATOM    123  C   UNL A   1      41.735  26.151  26.082  1.00  0.00     0.200 A 
ATOM    124  F   UNL A   1      43.218  27.792  25.254  1.00  0.00    -0.200 F 
ATOM    125  F   UNL A   1      41.953  25.387  25.003  1.00  0.00    -0.200 F 
ENDBRANCH  87 115
BRANCH 102 126
ATOM    126  C   UNL A   1      44.278  27.848  34.642  1.00  0.00     0.064 A 
ATOM    127  C   UNL A   1      45.621  28.251  34.596  1.00  0.00     0.173 A 
ATOM    128  C   UNL A   1      43.974  26.652  35.310  1.00  0.00     0.173 A 
ATOM    129  F   UNL A   1      45.966  29.378  33.956  1.00  0.00    -0.203 F 
ATOM    130  C   UNL A   1      46.623  27.471  35.169  1.00  0.00     0.198 A 
ATOM    131  C   UNL A   1      44.976  25.889  35.906  1.00  0.00     0.198 A 
ATOM    132  F   UNL A   1      42.706  26.223  35.389  1.00  0.00    -0.203 F 
ATOM    133  F   UNL A   1      47.905  27.849  35.066  1.00  0.00    -0.200 F 
ATOM    134  C   UNL A   1      46.300  26.293  35.827  1.00  0.00     0.200 A 
ATOM    135  F   UNL A   1      44.660  24.757  36.551  1.00  0.00    -0.200 F 
ATOM    136  F   UNL A   1      47.266  25.545  36.377  1.00  0.00    -0.200 F 
ENDBRANCH 102 126
ENDBRANCH  67  70
ENDBRANCH  57  60
ENDBRANCH  53  56
ENDBRANCH  50  53
ENDBRANCH  47  50
ENDBRANCH   1  47
TORSDOF 19
ENDMDL
MODEL 9
REMARK VINA RESULT:     -11.1      4.079      8.806
REMARK SMILES COc1ccc(C(=O)c2ccccc2)cc1[C@@H](C)C(=O)NCCCCCCNC(=O)c1ccc(-c2c3nc(c(-c4c(F)c(F)c(F)c(F)c4F)c4ccc([nH]4)c(-c4c(F)c(F)c(F)c(F)c4F)c4nc(c(-c5c(F)c(F)c(F)c(F)c5F)c5ccc2[nH]5)C=C4)C=C3)cc1
REMARK SMILES IDX 24 1 23 4 22 7 21 10 19 11 20 12 17 14 16 16 3 17 4 18 5 19
REMARK SMILES IDX 15 21 6 22 2 25 1 26 7 30 8 31 9 32 10 33 14 34 11 35 13 37
REMARK SMILES IDX 12 39 18 43 25 47 26 50 27 53 28 56 29 57 30 59 31 60 32 61
REMARK SMILES IDX 93 62 33 63 92 65 34 67 35 70 36 71 86 72 37 73 91 74 85 75
REMARK SMILES IDX 87 76 38 77 90 78 84 80 83 82 39 84 71 87 51 88 70 89 52 90
REMARK SMILES IDX 55 91 69 92 88 93 53 94 54 96 68 98 89 99 56 102 40 104
REMARK SMILES IDX 41 105 49 106 42 107 43 108 47 109 50 110 44 111 45 112
REMARK SMILES IDX 48 113 46 114 72 115 73 116 81 117 74 118 75 119 79 120
REMARK SMILES IDX 82 121 76 122 77 123 80 124 78 125 57 126 58 127 66 128
REMARK SMILES IDX 59 129 60 130 64 131 67 132 61 133 62 134 65 135 63 136
REMARK H PARENT 24 2 24 3 23 5 23 6 22 8 22 9 21 13 17 15 4 20 5 23 15 24 1 27
REMARK H PARENT 1 28 1 29 10 36 14 38 11 40 13 41 12 42 18 44 18 45 18 46
REMARK H PARENT 25 48 25 49 26 51 26 52 27 54 27 55 28 58 32 64 93 66 33 68
REMARK H PARENT 92 69 91 79 85 81 87 83 90 85 84 86 52 95 55 97 88 100 53 101
REMARK H PARENT 89 103
REMARK Flexibility Score: inf
ROOT
ATOM      1  C   UNL A   1      32.360  29.728  25.862  1.00  0.00    -0.052 C 
ATOM      2  H   UNL A   1      32.635  29.226  24.958  1.00  0.00     0.027 H 
ATOM      3  H   UNL A   1      33.135  30.336  26.280  1.00  0.00     0.027 H 
ENDROOT
BRANCH   1   4
ATOM      4  C   UNL A   1      32.060  28.659  26.919  1.00  0.00    -0.036 C 
ATOM      5  H   UNL A   1      32.604  28.912  27.805  1.00  0.00     0.028 H 
ATOM      6  H   UNL A   1      30.998  28.664  27.045  1.00  0.00     0.028 H 
BRANCH   4   7
ATOM      7  C   UNL A   1      32.430  27.223  26.534  1.00  0.00     0.017 C 
ATOM      8  H   UNL A   1      32.719  27.203  25.504  1.00  0.00     0.049 H 
ATOM      9  H   UNL A   1      33.232  26.906  27.166  1.00  0.00     0.049 H 
BRANCH   7  10
ATOM     10  N   UNL A   1      31.320  26.306  26.726  1.00  0.00    -0.356 N 
ATOM     11  C   UNL A   1      30.251  25.953  25.962  1.00  0.00     0.227 C 
ATOM     12  O   UNL A   1      29.450  25.173  26.497  1.00  0.00    -0.274 OA
ATOM     13  H   UNL A   1      31.346  25.844  27.594  1.00  0.00     0.163 HD
BRANCH  11  14
ATOM     14  C   UNL A   1      29.971  26.459  24.535  1.00  0.00     0.064 C 
ATOM     15  H   UNL A   1      30.170  27.507  24.611  1.00  0.00     0.045 H 
BRANCH  14  16
ATOM     16  C   UNL A   1      30.946  25.911  23.501  1.00  0.00     0.007 A 
ATOM     17  C   UNL A   1      31.318  26.626  22.350  1.00  0.00     0.122 A 
ATOM     18  C   UNL A   1      32.234  26.091  21.437  1.00  0.00    -0.019 A 
ATOM     19  C   UNL A   1      32.782  24.823  21.645  1.00  0.00    -0.047 A 
ATOM     20  H   UNL A   1      32.505  26.635  20.604  1.00  0.00     0.066 H 
ATOM     21  C   UNL A   1      31.495  24.627  23.670  1.00  0.00    -0.043 A 
ATOM     22  C   UNL A   1      32.389  24.066  22.749  1.00  0.00     0.023 A 
ATOM     23  H   UNL A   1      33.478  24.447  20.982  1.00  0.00     0.063 H 
ATOM     24  H   UNL A   1      31.230  24.078  24.504  1.00  0.00     0.064 H 
BRANCH  17  25
ATOM     25  O   UNL A   1      30.692  27.781  21.963  1.00  0.00    -0.496 OA
BRANCH  25  26
ATOM     26  C   UNL A   1      31.385  28.967  22.348  1.00  0.00     0.078 C 
ATOM     27  H   UNL A   1      32.397  28.916  22.004  1.00  0.00     0.067 H 
ATOM     28  H   UNL A   1      31.375  29.057  23.414  1.00  0.00     0.067 H 
ATOM     29  H   UNL A   1      30.904  29.819  21.914  1.00  0.00     0.067 H 
ENDBRANCH  25  26
ENDBRANCH  17  25
BRANCH  22  30
ATOM     30  C   UNL A   1      32.969  22.705  22.925  1.00  0.00     0.193 C 
ATOM     31  O   UNL A   1      32.366  21.734  22.471  1.00  0.00    -0.289 OA
BRANCH  30  32
ATOM     32  C   UNL A   1      34.272  22.459  23.595  1.00  0.00     0.022 A 
ATOM     33  C   UNL A   1      35.379  23.175  23.129  1.00  0.00    -0.051 A 
ATOM     34  C   UNL A   1      34.440  21.517  24.618  1.00  0.00    -0.051 A 
ATOM     35  C   UNL A   1      36.635  22.968  23.697  1.00  0.00    -0.062 A 
ATOM     36  H   UNL A   1      35.267  23.857  22.363  1.00  0.00     0.063 H 
ATOM     37  C   UNL A   1      35.698  21.336  25.205  1.00  0.00    -0.062 A 
ATOM     38  H   UNL A   1      33.636  20.955  24.939  1.00  0.00     0.063 H 
ATOM     39  C   UNL A   1      36.795  22.062  24.743  1.00  0.00    -0.062 A 
ATOM     40  H   UNL A   1      37.451  23.488  23.340  1.00  0.00     0.062 H 
ATOM     41  H   UNL A   1      35.813  20.665  25.980  1.00  0.00     0.062 H 
ATOM     42  H   UNL A   1      37.721  21.930  25.176  1.00  0.00     0.062 H 
ENDBRANCH  30  32
ENDBRANCH  22  30
ENDBRANCH  14  16
BRANCH  14  43
ATOM     43  C   UNL A   1      28.514  26.448  24.081  1.00  0.00    -0.049 C 
ATOM     44  H   UNL A   1      27.972  27.210  24.602  1.00  0.00     0.024 H 
ATOM     45  H   UNL A   1      28.081  25.493  24.296  1.00  0.00     0.024 H 
ATOM     46  H   UNL A   1      28.466  26.633  23.028  1.00  0.00     0.024 H 
ENDBRANCH  14  43
ENDBRANCH  11  14
ENDBRANCH   7  10
ENDBRANCH   4   7
ENDBRANCH   1   4
BRANCH   1  47
ATOM     47  C   UNL A   1      31.213  30.694  25.532  1.00  0.00    -0.052 C 
ATOM     48  H   UNL A   1      30.296  30.147  25.607  1.00  0.00     0.027 H 
ATOM     49  H   UNL A   1      31.431  31.066  24.553  1.00  0.00     0.027 H 
BRANCH  47  50
ATOM     50  C   UNL A   1      31.087  31.938  26.421  1.00  0.00    -0.036 C 
ATOM     51  H   UNL A   1      30.465  31.684  27.253  1.00  0.00     0.028 H 
ATOM     52  H   UNL A   1      30.685  32.704  25.792  1.00  0.00     0.028 H 
BRANCH  50  53
ATOM     53  C   UNL A   1      32.399  32.503  26.972  1.00  0.00     0.018 C 
ATOM     54  H   UNL A   1      33.132  32.487  26.192  1.00  0.00     0.049 H 
ATOM     55  H   UNL A   1      32.689  31.893  27.801  1.00  0.00     0.049 H 
BRANCH  53  56
ATOM     56  N   UNL A   1      32.266  33.866  27.456  1.00  0.00    -0.352 N 
ATOM     57  C   UNL A   1      33.000  34.545  28.402  1.00  0.00     0.251 C 
ATOM     58  H   UNL A   1      31.539  34.385  27.044  1.00  0.00     0.163 HD
ATOM     59  O   UNL A   1      32.627  35.654  28.774  1.00  0.00    -0.269 OA
BRANCH  57  60
ATOM     60  C   UNL A   1      34.227  33.960  29.001  1.00  0.00     0.039 A 
ATOM     61  C   UNL A   1      34.094  32.902  29.906  1.00  0.00    -0.049 A 
ATOM     62  C   UNL A   1      35.496  34.486  28.753  1.00  0.00    -0.049 A 
ATOM     63  C   UNL A   1      35.228  32.348  30.515  1.00  0.00    -0.053 A 
ATOM     64  H   UNL A   1      33.159  32.527  30.125  1.00  0.00     0.063 H 
ATOM     65  C   UNL A   1      36.637  33.888  29.311  1.00  0.00    -0.053 A 
ATOM     66  H   UNL A   1      35.596  35.320  28.155  1.00  0.00     0.063 H 
ATOM     67  C   UNL A   1      36.518  32.815  30.208  1.00  0.00    -0.014 A 
ATOM     68  H   UNL A   1      35.114  31.586  31.202  1.00  0.00     0.063 H 
ATOM     69  H   UNL A   1      37.572  34.241  29.058  1.00  0.00     0.063 H 
BRANCH  67  70
ATOM     70  C   UNL A   1      37.716  32.173  30.832  1.00  0.00     0.031 A 
ATOM     71  C   UNL A   1      38.168  32.527  32.227  1.00  0.00     0.074 A 
ATOM     72  C   UNL A   1      38.417  31.250  30.142  1.00  0.00     0.049 A 
ATOM     73  N   UNL A   1      39.128  31.994  32.946  1.00  0.00    -0.248 NA
ATOM     74  C   UNL A   1      37.470  33.634  32.896  1.00  0.00    -0.034 C 
ATOM     75  C   UNL A   1      38.152  30.849  28.760  1.00  0.00    -0.036 A 
ATOM     76  N   UNL A   1      39.489  30.472  30.513  1.00  0.00    -0.354 N 
ATOM     77  C   UNL A   1      39.151  32.701  34.142  1.00  0.00     0.074 A 
ATOM     78  C   UNL A   1      38.145  33.737  34.032  1.00  0.00    -0.034 C 
ATOM     79  H   UNL A   1      36.664  34.188  32.567  1.00  0.00     0.065 H 
ATOM     80  C   UNL A   1      39.009  29.875  28.413  1.00  0.00    -0.036 A 
ATOM     81  H   UNL A   1      37.425  31.252  28.150  1.00  0.00     0.065 H 
ATOM     82  C   UNL A   1      39.897  29.592  29.539  1.00  0.00     0.049 A 
ATOM     83  H   UNL A   1      39.923  30.539  31.394  1.00  0.00     0.167 HD
ATOM     84  C   UNL A   1      39.917  32.495  35.242  1.00  0.00     0.037 A 
ATOM     85  H   UNL A   1      37.976  34.462  34.746  1.00  0.00     0.065 H 
ATOM     86  H   UNL A   1      39.037  29.402  27.497  1.00  0.00     0.065 H 
ATOM     87  C   UNL A   1      40.861  28.652  29.548  1.00  0.00     0.037 A 
ATOM     88  C   UNL A   1      40.900  31.451  35.381  1.00  0.00     0.049 A 
ATOM     89  C   UNL A   1      41.674  28.419  30.793  1.00  0.00     0.074 A 
ATOM     90  C   UNL A   1      41.655  31.119  36.495  1.00  0.00    -0.036 A 
ATOM     91  N   UNL A   1      41.271  30.574  34.376  1.00  0.00    -0.354 N 
ATOM     92  N   UNL A   1      41.607  29.025  31.952  1.00  0.00    -0.248 NA
ATOM     93  C   UNL A   1      42.688  27.354  30.732  1.00  0.00    -0.034 C 
ATOM     94  C   UNL A   1      42.514  30.070  36.150  1.00  0.00    -0.036 A 
ATOM     95  H   UNL A   1      41.594  31.570  37.422  1.00  0.00     0.065 H 
ATOM     96  C   UNL A   1      42.262  29.717  34.836  1.00  0.00     0.049 A 
ATOM     97  H   UNL A   1      40.890  30.559  33.469  1.00  0.00     0.167 HD
ATOM     98  C   UNL A   1      42.549  28.403  32.763  1.00  0.00     0.074 A 
ATOM     99  C   UNL A   1      43.161  27.359  31.971  1.00  0.00    -0.034 C 
ATOM    100  H   UNL A   1      42.960  26.760  29.934  1.00  0.00     0.065 H 
ATOM    101  H   UNL A   1      43.216  29.635  36.770  1.00  0.00     0.065 H 
ATOM    102  C   UNL A   1      42.873  28.677  34.049  1.00  0.00     0.037 A 
ATOM    103  H   UNL A   1      43.874  26.701  32.324  1.00  0.00     0.065 H 
BRANCH  84 104
ATOM    104  C   UNL A   1      39.713  33.417  36.412  1.00  0.00     0.064 A 
ATOM    105  C   UNL A   1      38.839  33.088  37.460  1.00  0.00     0.173 A 
ATOM    106  C   UNL A   1      40.445  34.610  36.515  1.00  0.00     0.173 A 
ATOM    107  F   UNL A   1      38.116  31.961  37.406  1.00  0.00    -0.203 F 
ATOM    108  C   UNL A   1      38.684  33.935  38.553  1.00  0.00     0.198 A 
ATOM    109  C   UNL A   1      40.306  35.441  37.624  1.00  0.00     0.198 A 
ATOM    110  F   UNL A   1      41.303  34.964  35.547  1.00  0.00    -0.203 F 
ATOM    111  F   UNL A   1      37.813  33.621  39.522  1.00  0.00    -0.200 F 
ATOM    112  C   UNL A   1      39.422  35.106  38.638  1.00  0.00     0.200 A 
ATOM    113  F   UNL A   1      41.031  36.565  37.713  1.00  0.00    -0.200 F 
ATOM    114  F   UNL A   1      39.278  35.914  39.698  1.00  0.00    -0.200 F 
ENDBRANCH  84 104
BRANCH  87 115
ATOM    115  C   UNL A   1      41.089  27.818  28.340  1.00  0.00     0.064 A 
ATOM    116  C   UNL A   1      40.437  26.587  28.182  1.00  0.00     0.173 A 
ATOM    117  C   UNL A   1      41.967  28.229  27.328  1.00  0.00     0.173 A 
ATOM    118  F   UNL A   1      39.607  26.142  29.136  1.00  0.00    -0.203 F 
ATOM    119  C   UNL A   1      40.672  25.788  27.065  1.00  0.00     0.198 A 
ATOM    120  C   UNL A   1      42.179  27.442  26.198  1.00  0.00     0.198 A 
ATOM    121  F   UNL A   1      42.610  29.402  27.432  1.00  0.00    -0.203 F 
ATOM    122  F   UNL A   1      40.071  24.595  26.959  1.00  0.00    -0.200 F 
ATOM    123  C   UNL A   1      41.538  26.219  26.072  1.00  0.00     0.200 A 
ATOM    124  F   UNL A   1      43.008  27.868  25.235  1.00  0.00    -0.200 F 
ATOM    125  F   UNL A   1      41.760  25.453  24.996  1.00  0.00    -0.200 F 
ENDBRANCH  87 115
BRANCH 102 126
ATOM    126  C   UNL A   1      43.926  27.821  34.694  1.00  0.00     0.064 A 
ATOM    127  C   UNL A   1      43.612  26.587  35.283  1.00  0.00     0.173 A 
ATOM    128  C   UNL A   1      45.269  28.230  34.704  1.00  0.00     0.173 A 
ATOM    129  F   UNL A   1      42.342  26.157  35.313  1.00  0.00    -0.203 F 
ATOM    130  C   UNL A   1      44.598  25.809  35.886  1.00  0.00     0.198 A 
ATOM    131  C   UNL A   1      46.257  27.436  35.284  1.00  0.00     0.198 A 
ATOM    132  F   UNL A   1      45.625  29.398  34.150  1.00  0.00    -0.203 F 
ATOM    133  F   UNL A   1      44.266  24.658  36.489  1.00  0.00    -0.200 F 
ATOM    134  C   UNL A   1      45.919  26.231  35.882  1.00  0.00     0.200 A 
ATOM    135  F   UNL A   1      47.534  27.841  35.269  1.00  0.00    -0.200 F 
ATOM    136  F   UNL A   1      46.866  25.481  36.463  1.00  0.00    -0.200 F 
ENDBRANCH 102 126
ENDBRANCH  67  70
ENDBRANCH  57  60
ENDBRANCH  53  56
ENDBRANCH  50  53
ENDBRANCH  47  50
ENDBRANCH   1  47
TORSDOF 19
ENDMDL
MODEL 10
REMARK VINA RESULT:     -11.1      4.220      9.142
REMARK SMILES COc1ccc(C(=O)c2ccccc2)cc1[C@@H](C)C(=O)NCCCCCCNC(=O)c1ccc(-c2c3nc(c(-c4c(F)c(F)c(F)c(F)c4F)c4ccc([nH]4)c(-c4c(F)c(F)c(F)c(F)c4F)c4nc(c(-c5c(F)c(F)c(F)c(F)c5F)c5ccc2[nH]5)C=C4)C=C3)cc1
REMARK SMILES IDX 24 1 23 4 22 7 21 10 19 11 20 12 17 14 16 16 3 17 4 18 5 19
REMARK SMILES IDX 15 21 6 22 2 25 1 26 7 30 8 31 9 32 10 33 14 34 11 35 13 37
REMARK SMILES IDX 12 39 18 43 25 47 26 50 27 53 28 56 29 57 30 59 31 60 32 61
REMARK SMILES IDX 93 62 33 63 92 65 34 67 35 70 36 71 86 72 37 73 91 74 85 75
REMARK SMILES IDX 87 76 38 77 90 78 84 80 83 82 39 84 71 87 51 88 70 89 52 90
REMARK SMILES IDX 55 91 69 92 88 93 53 94 54 96 68 98 89 99 56 102 40 104
REMARK SMILES IDX 41 105 49 106 42 107 43 108 47 109 50 110 44 111 45 112
REMARK SMILES IDX 48 113 46 114 72 115 73 116 81 117 74 118 75 119 79 120
REMARK SMILES IDX 82 121 76 122 77 123 80 124 78 125 57 126 58 127 66 128
REMARK SMILES IDX 59 129 60 130 64 131 67 132 61 133 62 134 65 135 63 136
REMARK H PARENT 24 2 24 3 23 5 23 6 22 8 22 9 21 13 17 15 4 20 5 23 15 24 1 27
REMARK H PARENT 1 28 1 29 10 36 14 38 11 40 13 41 12 42 18 44 18 45 18 46
REMARK H PARENT 25 48 25 49 26 51 26 52 27 54 27 55 28 58 32 64 93 66 33 68
REMARK H PARENT 92 69 91 79 85 81 87 83 90 85 84 86 52 95 55 97 88 100 53 101
REMARK H PARENT 89 103
REMARK Flexibility Score: inf
ROOT
ATOM      1  C   UNL A   1      33.660  27.873  25.356  1.00  0.00    -0.052 C 
ATOM      2  H   UNL A   1      33.570  27.250  24.490  1.00  0.00     0.027 H 
ATOM      3  H   UNL A   1      34.657  27.963  25.731  1.00  0.00     0.027 H 
ENDROOT
BRANCH   1   4
ATOM      4  C   UNL A   1      32.852  27.225  26.485  1.00  0.00    -0.036 C 
ATOM      5  H   UNL A   1      33.303  27.506  27.414  1.00  0.00     0.028 H 
ATOM      6  H   UNL A   1      31.849  27.578  26.366  1.00  0.00     0.028 H 
BRANCH   4   7
ATOM      7  C   UNL A   1      32.765  25.696  26.447  1.00  0.00     0.017 C 
ATOM      8  H   UNL A   1      32.948  25.363  25.446  1.00  0.00     0.049 H 
ATOM      9  H   UNL A   1      33.496  25.305  27.123  1.00  0.00     0.049 H 
BRANCH   7  10
ATOM     10  N   UNL A   1      31.461  25.215  26.869  1.00  0.00    -0.356 N 
ATOM     11  C   UNL A   1      30.395  24.691  26.208  1.00  0.00     0.227 C 
ATOM     12  O   UNL A   1      29.399  24.455  26.907  1.00  0.00    -0.274 OA
ATOM     13  H   UNL A   1      31.320  25.284  27.840  1.00  0.00     0.163 HD
BRANCH  11  14
ATOM     14  C   UNL A   1      30.337  24.404  24.696  1.00  0.00     0.064 C 
ATOM     15  H   UNL A   1      29.355  24.001  24.568  1.00  0.00     0.045 H 
BRANCH  14  16
ATOM     16  C   UNL A   1      30.398  25.665  23.843  1.00  0.00     0.007 A 
ATOM     17  C   UNL A   1      31.514  26.003  23.060  1.00  0.00     0.122 A 
ATOM     18  C   UNL A   1      31.516  27.162  22.275  1.00  0.00    -0.019 A 
ATOM     19  C   UNL A   1      30.411  28.016  22.272  1.00  0.00    -0.047 A 
ATOM     20  H   UNL A   1      32.340  27.388  21.697  1.00  0.00     0.066 H 
ATOM     21  C   UNL A   1      29.310  26.557  23.837  1.00  0.00    -0.043 A 
ATOM     22  C   UNL A   1      29.310  27.736  23.082  1.00  0.00     0.023 A 
ATOM     23  H   UNL A   1      30.409  28.855  21.669  1.00  0.00     0.063 H 
ATOM     24  H   UNL A   1      28.481  26.335  24.412  1.00  0.00     0.064 H 
BRANCH  17  25
ATOM     25  O   UNL A   1      32.707  25.338  23.149  1.00  0.00    -0.496 OA
BRANCH  25  26
ATOM     26  C   UNL A   1      33.703  25.822  22.249  1.00  0.00     0.078 C 
ATOM     27  H   UNL A   1      34.675  25.611  22.645  1.00  0.00     0.067 H 
ATOM     28  H   UNL A   1      33.590  26.879  22.126  1.00  0.00     0.067 H 
ATOM     29  H   UNL A   1      33.593  25.339  21.301  1.00  0.00     0.067 H 
ENDBRANCH  25  26
ENDBRANCH  17  25
BRANCH  22  30
ATOM     30  C   UNL A   1      28.160  28.684  23.078  1.00  0.00     0.193 C 
ATOM     31  O   UNL A   1      27.060  28.292  23.461  1.00  0.00    -0.289 OA
BRANCH  30  32
ATOM     32  C   UNL A   1      28.284  30.107  22.666  1.00  0.00     0.022 A 
ATOM     33  C   UNL A   1      28.650  31.031  23.649  1.00  0.00    -0.051 A 
ATOM     34  C   UNL A   1      28.000  30.554  21.369  1.00  0.00    -0.051 A 
ATOM     35  C   UNL A   1      28.755  32.384  23.332  1.00  0.00    -0.062 A 
ATOM     36  H   UNL A   1      28.843  30.711  24.611  1.00  0.00     0.063 H 
ATOM     37  C   UNL A   1      28.137  31.910  21.050  1.00  0.00    -0.062 A 
ATOM     38  H   UNL A   1      27.689  29.883  20.649  1.00  0.00     0.063 H 
ATOM     39  C   UNL A   1      28.514  32.824  22.032  1.00  0.00    -0.062 A 
ATOM     40  H   UNL A   1      29.012  33.063  24.064  1.00  0.00     0.062 H 
ATOM     41  H   UNL A   1      27.957  32.233  20.087  1.00  0.00     0.062 H 
ATOM     42  H   UNL A   1      28.616  33.823  21.797  1.00  0.00     0.062 H 
ENDBRANCH  30  32
ENDBRANCH  22  30
ENDBRANCH  14  16
BRANCH  14  43
ATOM     43  C   UNL A   1      31.214  23.265  24.183  1.00  0.00    -0.049 C 
ATOM     44  H   UNL A   1      31.194  22.456  24.884  1.00  0.00     0.024 H 
ATOM     45  H   UNL A   1      32.219  23.613  24.069  1.00  0.00     0.024 H 
ATOM     46  H   UNL A   1      30.843  22.928  23.238  1.00  0.00     0.024 H 
ENDBRANCH  14  43
ENDBRANCH  11  14
ENDBRANCH   7  10
ENDBRANCH   4   7
ENDBRANCH   1   4
BRANCH   1  47
ATOM     47  C   UNL A   1      33.242  29.295  24.954  1.00  0.00    -0.052 C 
ATOM     48  H   UNL A   1      33.244  29.344  23.884  1.00  0.00     0.027 H 
ATOM     49  H   UNL A   1      33.948  29.942  25.430  1.00  0.00     0.027 H 
BRANCH  47  50
ATOM     50  C   UNL A   1      31.866  29.768  25.439  1.00  0.00    -0.036 C 
ATOM     51  H   UNL A   1      31.207  28.925  25.430  1.00  0.00     0.028 H 
ATOM     52  H   UNL A   1      31.578  30.554  24.772  1.00  0.00     0.028 H 
BRANCH  50  53
ATOM     53  C   UNL A   1      31.824  30.380  26.842  1.00  0.00     0.018 C 
ATOM     54  H   UNL A   1      32.652  30.002  27.404  1.00  0.00     0.049 H 
ATOM     55  H   UNL A   1      30.888  30.109  27.283  1.00  0.00     0.049 H 
BRANCH  53  56
ATOM     56  N   UNL A   1      31.897  31.830  26.826  1.00  0.00    -0.352 N 
ATOM     57  C   UNL A   1      32.810  32.677  27.412  1.00  0.00     0.251 C 
ATOM     58  H   UNL A   1      31.183  32.278  26.317  1.00  0.00     0.163 HD
ATOM     59  O   UNL A   1      32.605  33.888  27.400  1.00  0.00    -0.269 OA
BRANCH  57  60
ATOM     60  C   UNL A   1      34.032  32.161  28.079  1.00  0.00     0.039 A 
ATOM     61  C   UNL A   1      35.002  33.074  28.505  1.00  0.00    -0.049 A 
ATOM     62  C   UNL A   1      34.279  30.794  28.217  1.00  0.00    -0.049 A 
ATOM     63  C   UNL A   1      36.183  32.618  29.108  1.00  0.00    -0.053 A 
ATOM     64  H   UNL A   1      34.848  34.085  28.376  1.00  0.00     0.063 H 
ATOM     65  C   UNL A   1      35.430  30.341  28.882  1.00  0.00    -0.053 A 
ATOM     66  H   UNL A   1      33.610  30.112  27.830  1.00  0.00     0.063 H 
ATOM     67  C   UNL A   1      36.403  31.247  29.329  1.00  0.00    -0.014 A 
ATOM     68  H   UNL A   1      36.902  33.301  29.394  1.00  0.00     0.063 H 
ATOM     69  H   UNL A   1      35.560  29.330  29.043  1.00  0.00     0.063 H 
BRANCH  67  70
ATOM     70  C   UNL A   1      37.648  30.791  30.021  1.00  0.00     0.031 A 
ATOM     71  C   UNL A   1      37.951  31.184  31.445  1.00  0.00     0.074 A 
ATOM     72  C   UNL A   1      38.527  30.003  29.368  1.00  0.00     0.049 A 
ATOM     73  N   UNL A   1      38.938  30.795  32.219  1.00  0.00    -0.248 NA
ATOM     74  C   UNL A   1      37.046  32.153  32.079  1.00  0.00    -0.034 C 
ATOM     75  C   UNL A   1      38.415  29.594  27.968  1.00  0.00    -0.036 A 
ATOM     76  N   UNL A   1      39.684  29.397  29.798  1.00  0.00    -0.354 N 
ATOM     77  C   UNL A   1      38.775  31.473  33.420  1.00  0.00     0.074 A 
ATOM     78  C   UNL A   1      37.626  32.339  33.257  1.00  0.00    -0.034 C 
ATOM     79  H   UNL A   1      36.184  32.578  31.705  1.00  0.00     0.065 H 
ATOM     80  C   UNL A   1      39.435  28.774  27.667  1.00  0.00    -0.036 A 
ATOM     81  H   UNL A   1      37.671  29.888  27.317  1.00  0.00     0.065 H 
ATOM     82  C   UNL A   1      40.286  28.613  28.844  1.00  0.00     0.049 A 
ATOM     83  H   UNL A   1      40.048  29.515  30.706  1.00  0.00     0.167 HD
ATOM     84  C   UNL A   1      39.495  31.369  34.565  1.00  0.00     0.037 A 
ATOM     85  H   UNL A   1      37.300  33.013  33.966  1.00  0.00     0.065 H 
ATOM     86  H   UNL A   1      39.594  28.329  26.749  1.00  0.00     0.065 H 
ATOM     87  C   UNL A   1      41.386  27.837  28.905  1.00  0.00     0.037 A 
ATOM     88  C   UNL A   1      40.622  30.490  34.756  1.00  0.00     0.049 A 
ATOM     89  C   UNL A   1      42.147  27.711  30.197  1.00  0.00     0.074 A 
ATOM     90  C   UNL A   1      41.350  30.261  35.912  1.00  0.00    -0.036 A 
ATOM     91  N   UNL A   1      41.188  29.703  33.768  1.00  0.00    -0.354 N 
ATOM     92  N   UNL A   1      41.913  28.275  31.355  1.00  0.00    -0.248 NA
ATOM     93  C   UNL A   1      43.320  26.821  30.189  1.00  0.00    -0.034 C 
ATOM     94  C   UNL A   1      42.385  29.367  35.612  1.00  0.00    -0.036 A 
ATOM     95  H   UNL A   1      41.161  30.677  36.838  1.00  0.00     0.065 H 
ATOM     96  C   UNL A   1      42.273  29.005  34.281  1.00  0.00     0.049 A 
ATOM     97  H   UNL A   1      40.871  29.647  32.838  1.00  0.00     0.167 HD
ATOM     98  C   UNL A   1      42.891  27.794  32.217  1.00  0.00     0.074 A 
ATOM     99  C   UNL A   1      43.709  26.876  31.456  1.00  0.00    -0.034 C 
ATOM    100  H   UNL A   1      43.731  26.294  29.405  1.00  0.00     0.065 H 
ATOM    101  H   UNL A   1      43.107  29.037  36.271  1.00  0.00     0.065 H 
ATOM    102  C   UNL A   1      43.088  28.091  33.525  1.00  0.00     0.037 A 
ATOM    103  H   UNL A   1      44.495  26.333  31.847  1.00  0.00     0.065 H 
BRANCH  84 104
ATOM    104  C   UNL A   1      39.076  32.223  35.728  1.00  0.00     0.064 A 
ATOM    105  C   UNL A   1      38.258  31.719  36.751  1.00  0.00     0.173 A 
ATOM    106  C   UNL A   1      39.547  33.539  35.852  1.00  0.00     0.173 A 
ATOM    107  F   UNL A   1      37.780  30.468  36.677  1.00  0.00    -0.203 F 
ATOM    108  C   UNL A   1      37.904  32.510  37.840  1.00  0.00     0.198 A 
ATOM    109  C   UNL A   1      39.212  34.319  36.957  1.00  0.00     0.198 A 
ATOM    110  F   UNL A   1      40.342  34.066  34.909  1.00  0.00    -0.203 F 
ATOM    111  F   UNL A   1      37.088  32.020  38.784  1.00  0.00    -0.200 F 
ATOM    112  C   UNL A   1      38.386  33.806  37.946  1.00  0.00     0.200 A 
ATOM    113  F   UNL A   1      39.691  35.565  37.067  1.00  0.00    -0.200 F 
ATOM    114  F   UNL A   1      38.051  34.562  39.001  1.00  0.00    -0.200 F 
ENDBRANCH  84 104
BRANCH  87 115
ATOM    115  C   UNL A   1      41.816  27.074  27.706  1.00  0.00     0.064 A 
ATOM    116  C   UNL A   1      41.398  25.751  27.506  1.00  0.00     0.173 A 
ATOM    117  C   UNL A   1      42.660  27.647  26.744  1.00  0.00     0.173 A 
ATOM    118  F   UNL A   1      40.610  25.154  28.412  1.00  0.00    -0.203 F 
ATOM    119  C   UNL A   1      41.825  25.022  26.398  1.00  0.00     0.198 A 
ATOM    120  C   UNL A   1      43.064  26.926  25.623  1.00  0.00     0.198 A 
ATOM    121  F   UNL A   1      43.082  28.911  26.889  1.00  0.00    -0.203 F 
ATOM    122  F   UNL A   1      41.447  23.745  26.253  1.00  0.00    -0.200 F 
ATOM    123  C   UNL A   1      42.652  25.612  25.454  1.00  0.00     0.200 A 
ATOM    124  F   UNL A   1      43.853  27.503  24.707  1.00  0.00    -0.200 F 
ATOM    125  F   UNL A   1      43.059  24.912  24.387  1.00  0.00    -0.200 F 
ENDBRANCH  87 115
BRANCH 102 126
ATOM    126  C   UNL A   1      44.223  27.399  34.227  1.00  0.00     0.064 A 
ATOM    127  C   UNL A   1      45.502  27.971  34.300  1.00  0.00     0.173 A 
ATOM    128  C   UNL A   1      44.023  26.159  34.852  1.00  0.00     0.173 A 
ATOM    129  F   UNL A   1      45.749  29.149  33.707  1.00  0.00    -0.203 F 
ATOM    130  C   UNL A   1      46.546  27.313  34.946  1.00  0.00     0.198 A 
ATOM    131  C   UNL A   1      45.062  25.516  35.521  1.00  0.00     0.198 A 
ATOM    132  F   UNL A   1      42.818  25.569  34.816  1.00  0.00    -0.203 F 
ATOM    133  F   UNL A   1      47.772  27.855  34.958  1.00  0.00    -0.200 F 
ATOM    134  C   UNL A   1      46.325  26.089  35.559  1.00  0.00     0.200 A 
ATOM    135  F   UNL A   1      44.844  24.338  36.121  1.00  0.00    -0.200 F 
ATOM    136  F   UNL A   1      47.330  25.457  36.180  1.00  0.00    -0.200 F 
ENDBRANCH 102 126
ENDBRANCH  67  70
ENDBRANCH  57  60
ENDBRANCH  53  56
ENDBRANCH  50  53
ENDBRANCH  47  50
ENDBRANCH   1  47
TORSDOF 19
ENDMDL
