MODEL 1
REMARK VINA RESULT:     -12.2      0.000      0.000
REMARK SMILES O=C(NCCCCCCNC(=O)c1ccc(-c2c3nc(c(-c4c(F)c(F)c(F)c(F)c4F)c4ccc([nH]4)c(-c4c(F)c(F)c(F)c(F)c4F)c4nc(c(-c5c(F)c(F)c(F)c(F)c5F)c5ccc2[nH]5)C=C4)C=C3)cc1)C1=Cc2c(ccc(Cl)c2-c2ccccc2)O[C@H]1C(F)(F)F
REMARK SMILES IDX 7 1 6 4 5 7 4 10 3 13 1 14 2 15 76 17 77 18 92 19 78 20
REMARK SMILES IDX 91 22 79 24 84 25 80 26 82 27 81 28 83 30 93 32 94 33 95 34
REMARK SMILES IDX 96 35 85 36 86 37 90 38 87 39 89 41 88 43 8 47 9 50 10 53
REMARK SMILES IDX 11 54 12 56 13 57 14 58 75 59 15 60 74 62 16 64 17 67 18 68
REMARK SMILES IDX 68 69 19 70 73 71 67 72 69 73 20 74 72 75 66 77 65 79 21 81
REMARK SMILES IDX 53 84 33 85 52 86 34 87 37 88 51 89 70 90 35 91 36 93 50 95
REMARK SMILES IDX 71 96 38 99 22 101 23 102 31 103 24 104 25 105 29 106 32 107
REMARK SMILES IDX 26 108 27 109 30 110 28 111 54 112 55 113 63 114 56 115
REMARK SMILES IDX 57 116 61 117 64 118 58 119 59 120 62 121 60 122 39 123
REMARK SMILES IDX 40 124 48 125 41 126 42 127 46 128 49 129 43 130 44 131
REMARK SMILES IDX 47 132 45 133
REMARK H PARENT 7 2 7 3 6 5 6 6 5 8 5 9 4 11 4 12 3 16 77 21 92 23 80 29 81 31
REMARK H PARENT 86 40 90 42 87 44 89 45 88 46 8 48 8 49 9 51 9 52 10 55 14 61
REMARK H PARENT 75 63 15 65 74 66 73 76 67 78 69 80 72 82 66 83 34 92 37 94
REMARK H PARENT 70 97 35 98 71 100
REMARK Flexibility Score: inf
ROOT
ATOM      1  C   UNL A   1      34.459  23.838  24.386  1.00  0.00    -0.052 C 
ATOM      2  H   UNL A   1      34.594  22.987  23.753  1.00  0.00     0.027 H 
ATOM      3  H   UNL A   1      33.623  23.778  25.053  1.00  0.00     0.027 H 
ENDROOT
BRANCH   1   4
ATOM      4  C   UNL A   1      34.160  25.041  23.485  1.00  0.00    -0.052 C 
ATOM      5  H   UNL A   1      33.753  25.815  24.103  1.00  0.00     0.027 H 
ATOM      6  H   UNL A   1      35.096  25.276  23.020  1.00  0.00     0.027 H 
BRANCH   4   7
ATOM      7  C   UNL A   1      33.187  24.825  22.321  1.00  0.00    -0.036 C 
ATOM      8  H   UNL A   1      33.668  24.191  21.607  1.00  0.00     0.028 H 
ATOM      9  H   UNL A   1      32.306  24.407  22.763  1.00  0.00     0.028 H 
BRANCH   7  10
ATOM     10  C   UNL A   1      32.715  26.077  21.587  1.00  0.00     0.018 C 
ATOM     11  H   UNL A   1      32.791  25.892  20.536  1.00  0.00     0.049 H 
ATOM     12  H   UNL A   1      31.714  26.255  21.922  1.00  0.00     0.049 H 
BRANCH  10  13
ATOM     13  N   UNL A   1      33.453  27.290  21.880  1.00  0.00    -0.352 N 
ATOM     14  O   UNL A   1      33.805  29.375  22.642  1.00  0.00    -0.270 OA
ATOM     15  C   UNL A   1      33.035  28.425  22.521  1.00  0.00     0.251 C 
ATOM     16  H   UNL A   1      34.389  27.299  21.574  1.00  0.00     0.163 HD
BRANCH  15  17
ATOM     17  C   UNL A   1      31.677  28.528  23.100  1.00  0.00     0.067 C 
ATOM     18  C   UNL A   1      31.560  28.452  24.431  1.00  0.00    -0.038 C 
ATOM     19  C   UNL A   1      30.445  28.275  22.291  1.00  0.00     0.224 C 
ATOM     20  C   UNL A   1      31.077  27.085  24.777  1.00  0.00     0.027 A 
ATOM     21  H   UNL A   1      31.767  29.208  25.100  1.00  0.00     0.064 H 
ATOM     22  O   UNL A   1      29.752  27.049  22.727  1.00  0.00    -0.475 OA
ATOM     23  H   UNL A   1      30.761  28.131  21.279  1.00  0.00     0.090 H 
ATOM     24  C   UNL A   1      30.201  26.449  23.885  1.00  0.00     0.128 A 
ATOM     25  C   UNL A   1      31.662  26.414  25.884  1.00  0.00     0.011 A 
ATOM     26  C   UNL A   1      29.891  25.110  24.082  1.00  0.00    -0.018 A 
ATOM     27  C   UNL A   1      31.364  25.057  26.039  1.00  0.00     0.049 A 
ATOM     28  C   UNL A   1      30.485  24.414  25.145  1.00  0.00    -0.039 A 
ATOM     29  H   UNL A   1      29.227  24.631  23.454  1.00  0.00     0.066 H 
ATOM     30  Cl  UNL A   1      32.117  24.098  27.260  1.00  0.00    -0.084 Cl
ATOM     31  H   UNL A   1      30.274  23.412  25.274  1.00  0.00     0.064 H 
BRANCH  19  32
ATOM     32  C   UNL A   1      29.485  29.492  22.313  1.00  0.00     0.429 C 
ATOM     33  F   UNL A   1      29.354  30.049  23.541  1.00  0.00    -0.167 F 
ATOM     34  F   UNL A   1      29.920  30.469  21.482  1.00  0.00    -0.167 F 
ATOM     35  F   UNL A   1      28.235  29.157  21.913  1.00  0.00    -0.167 F 
ENDBRANCH  19  32
BRANCH  25  36
ATOM     36  C   UNL A   1      32.639  27.198  26.672  1.00  0.00    -0.016 A 
ATOM     37  C   UNL A   1      33.972  27.268  26.229  1.00  0.00    -0.054 A 
ATOM     38  C   UNL A   1      32.157  28.213  27.521  1.00  0.00    -0.054 A 
ATOM     39  C   UNL A   1      34.738  28.409  26.478  1.00  0.00    -0.062 A 
ATOM     40  H   UNL A   1      34.386  26.474  25.718  1.00  0.00     0.063 H 
ATOM     41  C   UNL A   1      32.923  29.357  27.755  1.00  0.00    -0.062 A 
ATOM     42  H   UNL A   1      31.235  28.110  27.971  1.00  0.00     0.063 H 
ATOM     43  C   UNL A   1      34.197  29.469  27.202  1.00  0.00    -0.062 A 
ATOM     44  H   UNL A   1      35.706  28.466  26.125  1.00  0.00     0.062 H 
ATOM     45  H   UNL A   1      32.544  30.119  28.337  1.00  0.00     0.062 H 
ATOM     46  H   UNL A   1      34.739  30.337  27.329  1.00  0.00     0.062 H 
ENDBRANCH  25  36
ENDBRANCH  15  17
ENDBRANCH  10  13
ENDBRANCH   7  10
ENDBRANCH   4   7
ENDBRANCH   1   4
BRANCH   1  47
ATOM     47  C   UNL A   1      35.684  23.933  25.297  1.00  0.00    -0.036 C 
ATOM     48  H   UNL A   1      35.578  23.194  26.064  1.00  0.00     0.028 H 
ATOM     49  H   UNL A   1      35.696  24.942  25.653  1.00  0.00     0.028 H 
BRANCH  47  50
ATOM     50  C   UNL A   1      37.040  23.722  24.634  1.00  0.00     0.018 C 
ATOM     51  H   UNL A   1      37.581  24.645  24.662  1.00  0.00     0.049 H 
ATOM     52  H   UNL A   1      36.855  23.394  23.632  1.00  0.00     0.049 H 
BRANCH  50  53
ATOM     53  N   UNL A   1      37.844  22.697  25.280  1.00  0.00    -0.352 N 
ATOM     54  C   UNL A   1      38.873  22.808  26.179  1.00  0.00     0.251 C 
ATOM     55  H   UNL A   1      37.612  21.774  25.029  1.00  0.00     0.163 HD
ATOM     56  O   UNL A   1      39.502  21.797  26.505  1.00  0.00    -0.269 OA
BRANCH  54  57
ATOM     57  C   UNL A   1      39.266  24.116  26.754  1.00  0.00     0.039 A 
ATOM     58  C   UNL A   1      38.878  24.415  28.064  1.00  0.00    -0.049 A 
ATOM     59  C   UNL A   1      39.971  25.068  26.013  1.00  0.00    -0.049 A 
ATOM     60  C   UNL A   1      39.243  25.633  28.646  1.00  0.00    -0.053 A 
ATOM     61  H   UNL A   1      38.319  23.736  28.603  1.00  0.00     0.063 H 
ATOM     62  C   UNL A   1      40.408  26.246  26.621  1.00  0.00    -0.053 A 
ATOM     63  H   UNL A   1      40.170  24.900  25.015  1.00  0.00     0.063 H 
ATOM     64  C   UNL A   1      40.043  26.547  27.942  1.00  0.00    -0.014 A 
ATOM     65  H   UNL A   1      38.923  25.861  29.601  1.00  0.00     0.063 H 
ATOM     66  H   UNL A   1      41.005  26.903  26.094  1.00  0.00     0.063 H 
BRANCH  64  67
ATOM     67  C   UNL A   1      40.490  27.822  28.568  1.00  0.00     0.031 A 
ATOM     68  C   UNL A   1      41.923  27.998  28.995  1.00  0.00     0.074 A 
ATOM     69  C   UNL A   1      39.597  28.806  28.794  1.00  0.00     0.049 A 
ATOM     70  N   UNL A   1      42.488  29.008  29.609  1.00  0.00    -0.248 NA
ATOM     71  C   UNL A   1      42.839  26.880  28.719  1.00  0.00    -0.034 C 
ATOM     72  C   UNL A   1      38.172  28.747  28.466  1.00  0.00    -0.036 A 
ATOM     73  N   UNL A   1      39.753  30.046  29.363  1.00  0.00    -0.354 N 
ATOM     74  C   UNL A   1      43.814  28.644  29.798  1.00  0.00     0.074 A 
ATOM     75  C   UNL A   1      43.960  27.298  29.290  1.00  0.00    -0.034 C 
ATOM     76  H   UNL A   1      42.657  26.001  28.211  1.00  0.00     0.065 H 
ATOM     77  C   UNL A   1      37.590  29.904  28.815  1.00  0.00    -0.036 A 
ATOM     78  H   UNL A   1      37.692  27.942  28.033  1.00  0.00     0.065 H 
ATOM     79  C   UNL A   1      38.589  30.773  29.433  1.00  0.00     0.049 A 
ATOM     80  H   UNL A   1      40.618  30.384  29.691  1.00  0.00     0.167 HD
ATOM     81  C   UNL A   1      44.828  29.375  30.323  1.00  0.00     0.037 A 
ATOM     82  H   UNL A   1      44.822  26.736  29.363  1.00  0.00     0.065 H 
ATOM     83  H   UNL A   1      36.597  30.142  28.670  1.00  0.00     0.065 H 
ATOM     84  C   UNL A   1      38.348  31.994  29.947  1.00  0.00     0.037 A 
ATOM     85  C   UNL A   1      44.687  30.723  30.811  1.00  0.00     0.049 A 
ATOM     86  C   UNL A   1      39.488  32.777  30.545  1.00  0.00     0.074 A 
ATOM     87  C   UNL A   1      45.664  31.563  31.316  1.00  0.00    -0.036 A 
ATOM     88  N   UNL A   1      43.493  31.427  30.853  1.00  0.00    -0.354 N 
ATOM     89  N   UNL A   1      40.751  32.445  30.659  1.00  0.00    -0.248 NA
ATOM     90  C   UNL A   1      39.170  34.108  31.079  1.00  0.00    -0.034 C 
ATOM     91  C   UNL A   1      45.052  32.755  31.717  1.00  0.00    -0.036 A 
ATOM     92  H   UNL A   1      46.671  31.348  31.385  1.00  0.00     0.065 H 
ATOM     93  C   UNL A   1      43.704  32.683  31.402  1.00  0.00     0.049 A 
ATOM     94  H   UNL A   1      42.624  31.085  30.542  1.00  0.00     0.167 HD
ATOM     95  C   UNL A   1      41.381  33.534  31.246  1.00  0.00     0.074 A 
ATOM     96  C   UNL A   1      40.366  34.545  31.448  1.00  0.00    -0.034 C 
ATOM     97  H   UNL A   1      38.254  34.580  31.150  1.00  0.00     0.065 H 
ATOM     98  H   UNL A   1      45.523  33.553  32.170  1.00  0.00     0.065 H 
ATOM     99  C   UNL A   1      42.685  33.684  31.586  1.00  0.00     0.037 A 
ATOM    100  H   UNL A   1      40.548  35.486  31.830  1.00  0.00     0.065 H 
BRANCH  81 101
ATOM    101  C   UNL A   1      46.186  28.735  30.397  1.00  0.00     0.064 A 
ATOM    102  C   UNL A   1      46.593  28.000  31.522  1.00  0.00     0.173 A 
ATOM    103  C   UNL A   1      47.072  28.813  29.311  1.00  0.00     0.173 A 
ATOM    104  F   UNL A   1      45.789  27.901  32.591  1.00  0.00    -0.203 F 
ATOM    105  C   UNL A   1      47.845  27.392  31.567  1.00  0.00     0.198 A 
ATOM    106  C   UNL A   1      48.309  28.176  29.347  1.00  0.00     0.198 A 
ATOM    107  F   UNL A   1      46.732  29.497  28.209  1.00  0.00    -0.203 F 
ATOM    108  F   UNL A   1      48.230  26.737  32.671  1.00  0.00    -0.200 F 
ATOM    109  C   UNL A   1      48.699  27.472  30.477  1.00  0.00     0.200 A 
ATOM    110  F   UNL A   1      49.126  28.241  28.286  1.00  0.00    -0.200 F 
ATOM    111  F   UNL A   1      49.898  26.877  30.518  1.00  0.00    -0.200 F 
ENDBRANCH  81 101
BRANCH  84 112
ATOM    112  C   UNL A   1      36.974  32.564  29.913  1.00  0.00     0.064 A 
ATOM    113  C   UNL A   1      36.518  33.289  28.804  1.00  0.00     0.173 A 
ATOM    114  C   UNL A   1      36.097  32.416  30.998  1.00  0.00     0.173 A 
ATOM    115  F   UNL A   1      37.324  33.477  27.749  1.00  0.00    -0.203 F 
ATOM    116  C   UNL A   1      35.250  33.871  28.793  1.00  0.00     0.198 A 
ATOM    117  C   UNL A   1      34.818  32.969  30.973  1.00  0.00     0.198 A 
ATOM    118  F   UNL A   1      36.480  31.727  32.084  1.00  0.00    -0.203 F 
ATOM    119  F   UNL A   1      34.864  34.610  27.745  1.00  0.00    -0.200 F 
ATOM    120  C   UNL A   1      34.400  33.705  29.876  1.00  0.00     0.200 A 
ATOM    121  F   UNL A   1      33.994  32.792  32.015  1.00  0.00    -0.200 F 
ATOM    122  F   UNL A   1      33.183  34.265  29.866  1.00  0.00    -0.200 F 
ENDBRANCH  84 112
BRANCH  99 123
ATOM    123  C   UNL A   1      43.100  35.004  32.174  1.00  0.00     0.064 A 
ATOM    124  C   UNL A   1      43.585  36.049  31.375  1.00  0.00     0.173 A 
ATOM    125  C   UNL A   1      42.973  35.236  33.553  1.00  0.00     0.173 A 
ATOM    126  F   UNL A   1      43.739  35.875  30.054  1.00  0.00    -0.203 F 
ATOM    127  C   UNL A   1      43.954  37.268  31.938  1.00  0.00     0.198 A 
ATOM    128  C   UNL A   1      43.309  36.467  34.107  1.00  0.00     0.198 A 
ATOM    129  F   UNL A   1      42.506  34.273  34.361  1.00  0.00    -0.203 F 
ATOM    130  F   UNL A   1      44.466  38.234  31.163  1.00  0.00    -0.200 F 
ATOM    131  C   UNL A   1      43.808  37.479  33.301  1.00  0.00     0.200 A 
ATOM    132  F   UNL A   1      43.151  36.674  35.422  1.00  0.00    -0.200 F 
ATOM    133  F   UNL A   1      44.156  38.656  33.840  1.00  0.00    -0.200 F 
ENDBRANCH  99 123
ENDBRANCH  64  67
ENDBRANCH  54  57
ENDBRANCH  50  53
ENDBRANCH  47  50
ENDBRANCH   1  47
TORSDOF 15
ENDMDL
MODEL 2
REMARK VINA RESULT:     -12.0      3.523      8.617
REMARK SMILES O=C(NCCCCCCNC(=O)c1ccc(-c2c3nc(c(-c4c(F)c(F)c(F)c(F)c4F)c4ccc([nH]4)c(-c4c(F)c(F)c(F)c(F)c4F)c4nc(c(-c5c(F)c(F)c(F)c(F)c5F)c5ccc2[nH]5)C=C4)C=C3)cc1)C1=Cc2c(ccc(Cl)c2-c2ccccc2)O[C@H]1C(F)(F)F
REMARK SMILES IDX 7 1 6 4 5 7 4 10 3 13 1 14 2 15 76 17 77 18 92 19 78 20
REMARK SMILES IDX 91 22 79 24 84 25 80 26 82 27 81 28 83 30 93 32 94 33 95 34
REMARK SMILES IDX 96 35 85 36 86 37 90 38 87 39 89 41 88 43 8 47 9 50 10 53
REMARK SMILES IDX 11 54 12 56 13 57 14 58 75 59 15 60 74 62 16 64 17 67 18 68
REMARK SMILES IDX 68 69 19 70 73 71 67 72 69 73 20 74 72 75 66 77 65 79 21 81
REMARK SMILES IDX 53 84 33 85 52 86 34 87 37 88 51 89 70 90 35 91 36 93 50 95
REMARK SMILES IDX 71 96 38 99 22 101 23 102 31 103 24 104 25 105 29 106 32 107
REMARK SMILES IDX 26 108 27 109 30 110 28 111 54 112 55 113 63 114 56 115
REMARK SMILES IDX 57 116 61 117 64 118 58 119 59 120 62 121 60 122 39 123
REMARK SMILES IDX 40 124 48 125 41 126 42 127 46 128 49 129 43 130 44 131
REMARK SMILES IDX 47 132 45 133
REMARK H PARENT 7 2 7 3 6 5 6 6 5 8 5 9 4 11 4 12 3 16 77 21 92 23 80 29 81 31
REMARK H PARENT 86 40 90 42 87 44 89 45 88 46 8 48 8 49 9 51 9 52 10 55 14 61
REMARK H PARENT 75 63 15 65 74 66 73 76 67 78 69 80 72 82 66 83 34 92 37 94
REMARK H PARENT 70 97 35 98 71 100
REMARK Flexibility Score: inf
ROOT
ATOM      1  C   UNL A   1      36.554  20.008  25.066  1.00  0.00    -0.052 C 
ATOM      2  H   UNL A   1      36.474  20.143  26.124  1.00  0.00     0.027 H 
ATOM      3  H   UNL A   1      36.403  20.893  24.484  1.00  0.00     0.027 H 
ENDROOT
BRANCH   1   4
ATOM      4  C   UNL A   1      35.431  19.056  24.637  1.00  0.00    -0.052 C 
ATOM      5  H   UNL A   1      35.498  18.936  23.575  1.00  0.00     0.027 H 
ATOM      6  H   UNL A   1      35.595  18.164  25.206  1.00  0.00     0.027 H 
BRANCH   4   7
ATOM      7  C   UNL A   1      33.993  19.471  24.962  1.00  0.00    -0.036 C 
ATOM      8  H   UNL A   1      33.336  18.785  24.468  1.00  0.00     0.028 H 
ATOM      9  H   UNL A   1      33.929  19.454  26.031  1.00  0.00     0.028 H 
BRANCH   7  10
ATOM     10  C   UNL A   1      33.583  20.883  24.555  1.00  0.00     0.018 C 
ATOM     11  H   UNL A   1      34.385  21.310  23.991  1.00  0.00     0.049 H 
ATOM     12  H   UNL A   1      32.674  20.776  24.000  1.00  0.00     0.049 H 
BRANCH  10  13
ATOM     13  N   UNL A   1      33.276  21.785  25.648  1.00  0.00    -0.352 N 
ATOM     14  O   UNL A   1      33.363  23.665  26.878  1.00  0.00    -0.270 OA
ATOM     15  C   UNL A   1      33.706  23.068  25.859  1.00  0.00     0.251 C 
ATOM     16  H   UNL A   1      32.672  21.423  26.337  1.00  0.00     0.163 HD
BRANCH  15  17
ATOM     17  C   UNL A   1      34.558  23.768  24.873  1.00  0.00     0.067 C 
ATOM     18  C   UNL A   1      34.596  25.105  24.922  1.00  0.00    -0.038 C 
ATOM     19  C   UNL A   1      35.005  23.118  23.603  1.00  0.00     0.224 C 
ATOM     20  C   UNL A   1      33.733  25.634  23.828  1.00  0.00     0.027 A 
ATOM     21  H   UNL A   1      35.130  25.670  25.598  1.00  0.00     0.064 H 
ATOM     22  O   UNL A   1      34.378  23.744  22.424  1.00  0.00    -0.475 OA
ATOM     23  H   UNL A   1      34.682  22.099  23.643  1.00  0.00     0.090 H 
ATOM     24  C   UNL A   1      33.662  24.904  22.631  1.00  0.00     0.128 A 
ATOM     25  C   UNL A   1      32.881  26.737  24.102  1.00  0.00     0.011 A 
ATOM     26  C   UNL A   1      32.724  25.266  21.674  1.00  0.00    -0.018 A 
ATOM     27  C   UNL A   1      31.920  27.057  23.139  1.00  0.00     0.049 A 
ATOM     28  C   UNL A   1      31.845  26.327  21.937  1.00  0.00    -0.039 A 
ATOM     29  H   UNL A   1      32.674  24.760  20.776  1.00  0.00     0.066 H 
ATOM     30  Cl  UNL A   1      30.739  28.286  23.412  1.00  0.00    -0.084 Cl
ATOM     31  H   UNL A   1      31.130  26.577  21.235  1.00  0.00     0.064 H 
BRANCH  19  32
ATOM     32  C   UNL A   1      36.549  23.116  23.473  1.00  0.00     0.429 C 
ATOM     33  F   UNL A   1      37.035  24.202  22.823  1.00  0.00    -0.167 F 
ATOM     34  F   UNL A   1      37.139  23.091  24.691  1.00  0.00    -0.167 F 
ATOM     35  F   UNL A   1      36.998  22.034  22.792  1.00  0.00    -0.167 F 
ENDBRANCH  19  32
BRANCH  25  36
ATOM     36  C   UNL A   1      33.017  27.339  25.448  1.00  0.00    -0.016 A 
ATOM     37  C   UNL A   1      33.775  28.515  25.595  1.00  0.00    -0.054 A 
ATOM     38  C   UNL A   1      32.043  27.040  26.419  1.00  0.00    -0.054 A 
ATOM     39  C   UNL A   1      33.442  29.449  26.577  1.00  0.00    -0.062 A 
ATOM     40  H   UNL A   1      34.579  28.688  24.974  1.00  0.00     0.063 H 
ATOM     41  C   UNL A   1      31.705  27.983  27.391  1.00  0.00    -0.062 A 
ATOM     42  H   UNL A   1      31.577  26.120  26.412  1.00  0.00     0.063 H 
ATOM     43  C   UNL A   1      32.380  29.202  27.444  1.00  0.00    -0.062 A 
ATOM     44  H   UNL A   1      33.983  30.324  26.661  1.00  0.00     0.062 H 
ATOM     45  H   UNL A   1      30.956  27.778  28.069  1.00  0.00     0.062 H 
ATOM     46  H   UNL A   1      32.092  29.920  28.127  1.00  0.00     0.062 H 
ENDBRANCH  25  36
ENDBRANCH  15  17
ENDBRANCH  10  13
ENDBRANCH   7  10
ENDBRANCH   4   7
ENDBRANCH   1   4
BRANCH   1  47
ATOM     47  C   UNL A   1      37.991  19.577  24.764  1.00  0.00    -0.036 C 
ATOM     48  H   UNL A   1      38.279  20.033  23.840  1.00  0.00     0.028 H 
ATOM     49  H   UNL A   1      37.967  18.507  24.744  1.00  0.00     0.028 H 
BRANCH  47  50
ATOM     50  C   UNL A   1      39.041  19.939  25.808  1.00  0.00     0.018 C 
ATOM     51  H   UNL A   1      38.572  19.957  26.770  1.00  0.00     0.049 H 
ATOM     52  H   UNL A   1      39.440  20.894  25.537  1.00  0.00     0.049 H 
BRANCH  50  53
ATOM     53  N   UNL A   1      40.153  19.005  25.855  1.00  0.00    -0.352 N 
ATOM     54  C   UNL A   1      41.483  19.215  26.115  1.00  0.00     0.251 C 
ATOM     55  H   UNL A   1      39.912  18.069  25.668  1.00  0.00     0.163 HD
ATOM     56  O   UNL A   1      42.280  18.282  25.978  1.00  0.00    -0.269 OA
BRANCH  54  57
ATOM     57  C   UNL A   1      41.992  20.541  26.536  1.00  0.00     0.039 A 
ATOM     58  C   UNL A   1      42.417  21.439  25.549  1.00  0.00    -0.049 A 
ATOM     59  C   UNL A   1      42.099  20.901  27.882  1.00  0.00    -0.049 A 
ATOM     60  C   UNL A   1      42.888  22.706  25.906  1.00  0.00    -0.053 A 
ATOM     61  H   UNL A   1      42.382  21.165  24.555  1.00  0.00     0.063 H 
ATOM     62  C   UNL A   1      42.489  22.194  28.233  1.00  0.00    -0.053 A 
ATOM     63  H   UNL A   1      41.888  20.209  28.617  1.00  0.00     0.063 H 
ATOM     64  C   UNL A   1      42.897  23.110  27.251  1.00  0.00    -0.014 A 
ATOM     65  H   UNL A   1      43.233  23.349  25.176  1.00  0.00     0.063 H 
ATOM     66  H   UNL A   1      42.480  22.480  29.225  1.00  0.00     0.063 H 
BRANCH  64  67
ATOM     67  C   UNL A   1      43.340  24.476  27.642  1.00  0.00     0.031 A 
ATOM     68  C   UNL A   1      42.327  25.539  27.974  1.00  0.00     0.074 A 
ATOM     69  C   UNL A   1      44.654  24.775  27.656  1.00  0.00     0.049 A 
ATOM     70  N   UNL A   1      42.515  26.800  28.278  1.00  0.00    -0.248 NA
ATOM     71  C   UNL A   1      40.911  25.140  27.935  1.00  0.00    -0.034 C 
ATOM     72  C   UNL A   1      45.736  23.849  27.317  1.00  0.00    -0.036 A 
ATOM     73  N   UNL A   1      45.306  25.945  27.959  1.00  0.00    -0.354 N 
ATOM     74  C   UNL A   1      41.249  27.341  28.455  1.00  0.00     0.074 A 
ATOM     75  C   UNL A   1      40.296  26.291  28.168  1.00  0.00    -0.034 C 
ATOM     76  H   UNL A   1      40.503  24.207  27.771  1.00  0.00     0.065 H 
ATOM     77  C   UNL A   1      46.914  24.477  27.453  1.00  0.00    -0.036 A 
ATOM     78  H   UNL A   1      45.611  22.868  27.021  1.00  0.00     0.065 H 
ATOM     79  C   UNL A   1      46.673  25.863  27.845  1.00  0.00     0.049 A 
ATOM     80  H   UNL A   1      44.838  26.768  28.232  1.00  0.00     0.167 HD
ATOM     81  C   UNL A   1      40.910  28.592  28.849  1.00  0.00     0.037 A 
ATOM     82  H   UNL A   1      39.273  26.421  28.145  1.00  0.00     0.065 H 
ATOM     83  H   UNL A   1      47.841  24.049  27.303  1.00  0.00     0.065 H 
ATOM     84  C   UNL A   1      47.625  26.799  28.025  1.00  0.00     0.037 A 
ATOM     85  C   UNL A   1      41.859  29.631  29.156  1.00  0.00     0.049 A 
ATOM     86  C   UNL A   1      47.218  28.189  28.442  1.00  0.00     0.074 A 
ATOM     87  C   UNL A   1      41.614  30.916  29.610  1.00  0.00    -0.036 A 
ATOM     88  N   UNL A   1      43.235  29.503  29.039  1.00  0.00    -0.354 N 
ATOM     89  N   UNL A   1      46.020  28.669  28.668  1.00  0.00    -0.248 NA
ATOM     90  C   UNL A   1      48.300  29.165  28.635  1.00  0.00    -0.034 C 
ATOM     91  C   UNL A   1      42.839  31.584  29.713  1.00  0.00    -0.036 A 
ATOM     92  H   UNL A   1      40.689  31.313  29.833  1.00  0.00     0.065 H 
ATOM     93  C   UNL A   1      43.851  30.696  29.387  1.00  0.00     0.049 A 
ATOM     94  H   UNL A   1      43.704  28.688  28.751  1.00  0.00     0.167 HD
ATOM     95  C   UNL A   1      46.205  29.988  29.060  1.00  0.00     0.074 A 
ATOM     96  C   UNL A   1      47.631  30.228  29.059  1.00  0.00    -0.034 C 
ATOM     97  H   UNL A   1      49.314  29.053  28.480  1.00  0.00     0.065 H 
ATOM     98  H   UNL A   1      42.967  32.570  29.987  1.00  0.00     0.065 H 
ATOM     99  C   UNL A   1      45.274  30.917  29.392  1.00  0.00     0.037 A 
ATOM    100  H   UNL A   1      48.073  31.114  29.350  1.00  0.00     0.065 H 
BRANCH  81 101
ATOM    101  C   UNL A   1      39.446  28.912  28.977  1.00  0.00     0.064 A 
ATOM    102  C   UNL A   1      38.777  28.822  30.208  1.00  0.00     0.173 A 
ATOM    103  C   UNL A   1      38.716  29.365  27.868  1.00  0.00     0.173 A 
ATOM    104  F   UNL A   1      39.426  28.385  31.298  1.00  0.00    -0.203 F 
ATOM    105  C   UNL A   1      37.427  29.144  30.317  1.00  0.00     0.198 A 
ATOM    106  C   UNL A   1      37.375  29.720  27.988  1.00  0.00     0.198 A 
ATOM    107  F   UNL A   1      39.306  29.478  26.669  1.00  0.00    -0.203 F 
ATOM    108  F   UNL A   1      36.799  29.003  31.493  1.00  0.00    -0.200 F 
ATOM    109  C   UNL A   1      36.729  29.602  29.210  1.00  0.00     0.200 A 
ATOM    110  F   UNL A   1      36.705  30.177  26.920  1.00  0.00    -0.200 F 
ATOM    111  F   UNL A   1      35.433  29.924  29.319  1.00  0.00    -0.200 F 
ENDBRANCH  81 101
BRANCH  84 112
ATOM    112  C   UNL A   1      49.059  26.457  27.823  1.00  0.00     0.064 A 
ATOM    113  C   UNL A   1      49.909  26.231  28.914  1.00  0.00     0.173 A 
ATOM    114  C   UNL A   1      49.614  26.374  26.538  1.00  0.00     0.173 A 
ATOM    115  F   UNL A   1      49.433  26.318  30.164  1.00  0.00    -0.203 F 
ATOM    116  C   UNL A   1      51.266  25.965  28.729  1.00  0.00     0.198 A 
ATOM    117  C   UNL A   1      50.962  26.075  26.352  1.00  0.00     0.198 A 
ATOM    118  F   UNL A   1      48.845  26.577  25.458  1.00  0.00    -0.203 F 
ATOM    119  F   UNL A   1      52.067  25.813  29.792  1.00  0.00    -0.200 F 
ATOM    120  C   UNL A   1      51.789  25.882  27.448  1.00  0.00     0.200 A 
ATOM    121  F   UNL A   1      51.461  25.981  25.112  1.00  0.00    -0.200 F 
ATOM    122  F   UNL A   1      53.093  25.628  27.269  1.00  0.00    -0.200 F 
ENDBRANCH  84 112
BRANCH  99 123
ATOM    123  C   UNL A   1      45.770  32.269  29.824  1.00  0.00     0.064 A 
ATOM    124  C   UNL A   1      46.092  32.546  31.160  1.00  0.00     0.173 A 
ATOM    125  C   UNL A   1      45.962  33.288  28.878  1.00  0.00     0.173 A 
ATOM    126  F   UNL A   1      45.913  31.613  32.107  1.00  0.00    -0.203 F 
ATOM    127  C   UNL A   1      46.559  33.803  31.538  1.00  0.00     0.198 A 
ATOM    128  C   UNL A   1      46.464  34.531  29.253  1.00  0.00     0.198 A 
ATOM    129  F   UNL A   1      45.679  33.072  27.585  1.00  0.00    -0.203 F 
ATOM    130  F   UNL A   1      46.808  34.062  32.829  1.00  0.00    -0.200 F 
ATOM    131  C   UNL A   1      46.752  34.790  30.584  1.00  0.00     0.200 A 
ATOM    132  F   UNL A   1      46.666  35.478  28.327  1.00  0.00    -0.200 F 
ATOM    133  F   UNL A   1      47.211  35.996  30.948  1.00  0.00    -0.200 F 
ENDBRANCH  99 123
ENDBRANCH  64  67
ENDBRANCH  54  57
ENDBRANCH  50  53
ENDBRANCH  47  50
ENDBRANCH   1  47
TORSDOF 15
ENDMDL
MODEL 3
REMARK VINA RESULT:     -12.0      3.692      8.544
REMARK SMILES O=C(NCCCCCCNC(=O)c1ccc(-c2c3nc(c(-c4c(F)c(F)c(F)c(F)c4F)c4ccc([nH]4)c(-c4c(F)c(F)c(F)c(F)c4F)c4nc(c(-c5c(F)c(F)c(F)c(F)c5F)c5ccc2[nH]5)C=C4)C=C3)cc1)C1=Cc2c(ccc(Cl)c2-c2ccccc2)O[C@H]1C(F)(F)F
REMARK SMILES IDX 7 1 6 4 5 7 4 10 3 13 1 14 2 15 76 17 77 18 92 19 78 20
REMARK SMILES IDX 91 22 79 24 84 25 80 26 82 27 81 28 83 30 93 32 94 33 95 34
REMARK SMILES IDX 96 35 85 36 86 37 90 38 87 39 89 41 88 43 8 47 9 50 10 53
REMARK SMILES IDX 11 54 12 56 13 57 14 58 75 59 15 60 74 62 16 64 17 67 18 68
REMARK SMILES IDX 68 69 19 70 73 71 67 72 69 73 20 74 72 75 66 77 65 79 21 81
REMARK SMILES IDX 53 84 33 85 52 86 34 87 37 88 51 89 70 90 35 91 36 93 50 95
REMARK SMILES IDX 71 96 38 99 22 101 23 102 31 103 24 104 25 105 29 106 32 107
REMARK SMILES IDX 26 108 27 109 30 110 28 111 54 112 55 113 63 114 56 115
REMARK SMILES IDX 57 116 61 117 64 118 58 119 59 120 62 121 60 122 39 123
REMARK SMILES IDX 40 124 48 125 41 126 42 127 46 128 49 129 43 130 44 131
REMARK SMILES IDX 47 132 45 133
REMARK H PARENT 7 2 7 3 6 5 6 6 5 8 5 9 4 11 4 12 3 16 77 21 92 23 80 29 81 31
REMARK H PARENT 86 40 90 42 87 44 89 45 88 46 8 48 8 49 9 51 9 52 10 55 14 61
REMARK H PARENT 75 63 15 65 74 66 73 76 67 78 69 80 72 82 66 83 34 92 37 94
REMARK H PARENT 70 97 35 98 71 100
REMARK Flexibility Score: inf
ROOT
ATOM      1  C   UNL A   1      31.001  30.946  25.267  1.00  0.00    -0.052 C 
ATOM      2  H   UNL A   1      31.926  30.926  24.731  1.00  0.00     0.027 H 
ATOM      3  H   UNL A   1      30.854  30.135  25.951  1.00  0.00     0.027 H 
ENDROOT
BRANCH   1   4
ATOM      4  C   UNL A   1      29.870  30.809  24.241  1.00  0.00    -0.052 C 
ATOM      5  H   UNL A   1      28.952  30.717  24.784  1.00  0.00     0.027 H 
ATOM      6  H   UNL A   1      29.949  31.681  23.626  1.00  0.00     0.027 H 
BRANCH   4   7
ATOM      7  C   UNL A   1      29.945  29.631  23.264  1.00  0.00    -0.036 C 
ATOM      8  H   UNL A   1      28.957  29.451  22.894  1.00  0.00     0.028 H 
ATOM      9  H   UNL A   1      30.651  29.930  22.516  1.00  0.00     0.028 H 
BRANCH   7  10
ATOM     10  C   UNL A   1      30.480  28.316  23.822  1.00  0.00     0.018 C 
ATOM     11  H   UNL A   1      30.573  28.420  24.883  1.00  0.00     0.049 H 
ATOM     12  H   UNL A   1      29.781  27.563  23.522  1.00  0.00     0.049 H 
BRANCH  10  13
ATOM     13  N   UNL A   1      31.765  27.892  23.302  1.00  0.00    -0.352 N 
ATOM     14  O   UNL A   1      33.862  27.083  23.349  1.00  0.00    -0.270 OA
ATOM     15  C   UNL A   1      32.830  27.344  23.964  1.00  0.00     0.251 C 
ATOM     16  H   UNL A   1      31.890  28.017  22.332  1.00  0.00     0.163 HD
BRANCH  15  17
ATOM     17  C   UNL A   1      32.762  27.031  25.409  1.00  0.00     0.067 C 
ATOM     18  C   UNL A   1      33.585  26.087  25.880  1.00  0.00    -0.038 C 
ATOM     19  C   UNL A   1      31.571  27.378  26.243  1.00  0.00     0.224 C 
ATOM     20  C   UNL A   1      32.797  24.836  26.067  1.00  0.00     0.027 A 
ATOM     21  H   UNL A   1      34.590  26.205  26.081  1.00  0.00     0.064 H 
ATOM     22  O   UNL A   1      30.850  26.171  26.687  1.00  0.00    -0.475 OA
ATOM     23  H   UNL A   1      30.910  27.945  25.623  1.00  0.00     0.090 H 
ATOM     24  C   UNL A   1      31.452  24.953  26.450  1.00  0.00     0.128 A 
ATOM     25  C   UNL A   1      33.375  23.599  25.672  1.00  0.00     0.011 A 
ATOM     26  C   UNL A   1      30.647  23.823  26.443  1.00  0.00    -0.018 A 
ATOM     27  C   UNL A   1      32.533  22.484  25.637  1.00  0.00     0.049 A 
ATOM     28  C   UNL A   1      31.182  22.597  26.020  1.00  0.00    -0.039 A 
ATOM     29  H   UNL A   1      29.663  23.882  26.748  1.00  0.00     0.066 H 
ATOM     30  Cl  UNL A   1      33.078  20.957  25.044  1.00  0.00    -0.084 Cl
ATOM     31  H   UNL A   1      30.575  21.763  25.989  1.00  0.00     0.064 H 
BRANCH  19  32
ATOM     32  C   UNL A   1      31.958  28.267  27.452  1.00  0.00     0.429 C 
ATOM     33  F   UNL A   1      31.022  29.201  27.753  1.00  0.00    -0.167 F 
ATOM     34  F   UNL A   1      32.141  27.520  28.566  1.00  0.00    -0.167 F 
ATOM     35  F   UNL A   1      33.112  28.944  27.233  1.00  0.00    -0.167 F 
ENDBRANCH  19  32
BRANCH  25  36
ATOM     36  C   UNL A   1      34.778  23.662  25.205  1.00  0.00    -0.016 A 
ATOM     37  C   UNL A   1      35.806  23.277  26.084  1.00  0.00    -0.054 A 
ATOM     38  C   UNL A   1      35.027  23.625  23.820  1.00  0.00    -0.054 A 
ATOM     39  C   UNL A   1      36.977  22.701  25.588  1.00  0.00    -0.062 A 
ATOM     40  H   UNL A   1      35.694  23.420  27.099  1.00  0.00     0.063 H 
ATOM     41  C   UNL A   1      36.194  23.036  23.330  1.00  0.00    -0.062 A 
ATOM     42  H   UNL A   1      34.345  24.036  23.165  1.00  0.00     0.063 H 
ATOM     43  C   UNL A   1      37.150  22.541  24.215  1.00  0.00    -0.062 A 
ATOM     44  H   UNL A   1      37.716  22.393  26.240  1.00  0.00     0.062 H 
ATOM     45  H   UNL A   1      36.349  22.968  22.313  1.00  0.00     0.062 H 
ATOM     46  H   UNL A   1      37.986  22.056  23.853  1.00  0.00     0.062 H 
ENDBRANCH  25  36
ENDBRANCH  15  17
ENDBRANCH  10  13
ENDBRANCH   7  10
ENDBRANCH   4   7
ENDBRANCH   1   4
BRANCH   1  47
ATOM     47  C   UNL A   1      31.004  32.202  26.141  1.00  0.00    -0.036 C 
ATOM     48  H   UNL A   1      30.216  32.101  26.859  1.00  0.00     0.028 H 
ATOM     49  H   UNL A   1      30.883  33.020  25.462  1.00  0.00     0.028 H 
BRANCH  47  50
ATOM     50  C   UNL A   1      32.291  32.495  26.903  1.00  0.00     0.018 C 
ATOM     51  H   UNL A   1      33.121  32.317  26.251  1.00  0.00     0.049 H 
ATOM     52  H   UNL A   1      32.306  31.853  27.759  1.00  0.00     0.049 H 
BRANCH  50  53
ATOM     53  N   UNL A   1      32.374  33.862  27.391  1.00  0.00    -0.352 N 
ATOM     54  C   UNL A   1      33.227  34.434  28.299  1.00  0.00     0.251 C 
ATOM     55  H   UNL A   1      31.708  34.477  27.006  1.00  0.00     0.163 HD
ATOM     56  O   UNL A   1      33.034  35.599  28.659  1.00  0.00    -0.269 OA
BRANCH  54  57
ATOM     57  C   UNL A   1      34.364  33.680  28.879  1.00  0.00     0.039 A 
ATOM     58  C   UNL A   1      35.653  34.208  28.747  1.00  0.00    -0.049 A 
ATOM     59  C   UNL A   1      34.189  32.447  29.512  1.00  0.00    -0.049 A 
ATOM     60  C   UNL A   1      36.749  33.534  29.295  1.00  0.00    -0.053 A 
ATOM     61  H   UNL A   1      35.796  35.097  28.243  1.00  0.00     0.063 H 
ATOM     62  C   UNL A   1      35.269  31.818  30.131  1.00  0.00    -0.053 A 
ATOM     63  H   UNL A   1      33.259  32.001  29.522  1.00  0.00     0.063 H 
ATOM     64  C   UNL A   1      36.564  32.349  30.024  1.00  0.00    -0.014 A 
ATOM     65  H   UNL A   1      37.701  33.911  29.163  1.00  0.00     0.063 H 
ATOM     66  H   UNL A   1      35.115  30.953  30.673  1.00  0.00     0.063 H 
BRANCH  64  67
ATOM     67  C   UNL A   1      37.712  31.650  30.663  1.00  0.00     0.031 A 
ATOM     68  C   UNL A   1      38.133  32.004  32.066  1.00  0.00     0.074 A 
ATOM     69  C   UNL A   1      38.407  30.728  29.968  1.00  0.00     0.049 A 
ATOM     70  N   UNL A   1      39.141  31.550  32.769  1.00  0.00    -0.248 NA
ATOM     71  C   UNL A   1      37.329  33.020  32.762  1.00  0.00    -0.034 C 
ATOM     72  C   UNL A   1      38.129  30.323  28.589  1.00  0.00    -0.036 A 
ATOM     73  N   UNL A   1      39.497  29.970  30.320  1.00  0.00    -0.354 N 
ATOM     74  C   UNL A   1      39.096  32.230  33.979  1.00  0.00     0.074 A 
ATOM     75  C   UNL A   1      38.000  33.170  33.895  1.00  0.00    -0.034 C 
ATOM     76  H   UNL A   1      36.467  33.493  32.449  1.00  0.00     0.065 H 
ATOM     77  C   UNL A   1      39.007  29.377  28.221  1.00  0.00    -0.036 A 
ATOM     78  H   UNL A   1      37.376  30.705  27.994  1.00  0.00     0.065 H 
ATOM     79  C   UNL A   1      39.939  29.138  29.320  1.00  0.00     0.049 A 
ATOM     80  H   UNL A   1      39.923  30.019  31.207  1.00  0.00     0.167 HD
ATOM     81  C   UNL A   1      39.880  32.067  35.072  1.00  0.00     0.037 A 
ATOM     82  H   UNL A   1      37.771  33.866  34.620  1.00  0.00     0.065 H 
ATOM     83  H   UNL A   1      39.021  28.896  27.308  1.00  0.00     0.065 H 
ATOM     84  C   UNL A   1      40.982  28.287  29.286  1.00  0.00     0.037 A 
ATOM     85  C   UNL A   1      40.958  31.116  35.163  1.00  0.00     0.049 A 
ATOM     86  C   UNL A   1      41.851  28.141  30.508  1.00  0.00     0.074 A 
ATOM     87  C   UNL A   1      41.778  30.844  36.244  1.00  0.00    -0.036 A 
ATOM     88  N   UNL A   1      41.366  30.284  34.131  1.00  0.00    -0.354 N 
ATOM     89  N   UNL A   1      41.758  28.745  31.668  1.00  0.00    -0.248 NA
ATOM     90  C   UNL A   1      42.968  27.190  30.418  1.00  0.00    -0.034 C 
ATOM     91  C   UNL A   1      42.718  29.886  35.849  1.00  0.00    -0.036 A 
ATOM     92  H   UNL A   1      41.708  31.272  37.180  1.00  0.00     0.065 H 
ATOM     93  C   UNL A   1      42.444  29.515  34.543  1.00  0.00     0.049 A 
ATOM     94  H   UNL A   1      40.952  30.245  33.239  1.00  0.00     0.167 HD
ATOM     95  C   UNL A   1      42.778  28.224  32.453  1.00  0.00     0.074 A 
ATOM     96  C   UNL A   1      43.468  27.243  31.644  1.00  0.00    -0.034 C 
ATOM     97  H   UNL A   1      43.281  26.628  29.611  1.00  0.00     0.065 H 
ATOM     98  H   UNL A   1      43.486  29.518  36.432  1.00  0.00     0.065 H 
ATOM     99  C   UNL A   1      43.113  28.533  33.730  1.00  0.00     0.037 A 
ATOM    100  H   UNL A   1      44.250  26.658  31.979  1.00  0.00     0.065 H 
BRANCH  81 101
ATOM    101  C   UNL A   1      39.601  32.935  36.268  1.00  0.00     0.064 A 
ATOM    102  C   UNL A   1      40.275  34.150  36.469  1.00  0.00     0.173 A 
ATOM    103  C   UNL A   1      38.611  32.575  37.195  1.00  0.00     0.173 A 
ATOM    104  F   UNL A   1      41.237  34.537  35.617  1.00  0.00    -0.203 F 
ATOM    105  C   UNL A   1      39.990  34.956  37.568  1.00  0.00     0.198 A 
ATOM    106  C   UNL A   1      38.305  33.400  38.275  1.00  0.00     0.198 A 
ATOM    107  F   UNL A   1      37.931  31.429  37.048  1.00  0.00    -0.203 F 
ATOM    108  F   UNL A   1      40.682  36.087  37.765  1.00  0.00    -0.200 F 
ATOM    109  C   UNL A   1      39.000  34.586  38.465  1.00  0.00     0.200 A 
ATOM    110  F   UNL A   1      37.336  33.048  39.131  1.00  0.00    -0.200 F 
ATOM    111  F   UNL A   1      38.717  35.368  39.515  1.00  0.00    -0.200 F 
ENDBRANCH  81 101
BRANCH  84 112
ATOM    112  C   UNL A   1      41.263  27.495  28.058  1.00  0.00     0.064 A 
ATOM    113  C   UNL A   1      40.733  26.209  27.889  1.00  0.00     0.173 A 
ATOM    114  C   UNL A   1      42.087  27.997  27.040  1.00  0.00     0.173 A 
ATOM    115  F   UNL A   1      39.956  25.674  28.842  1.00  0.00    -0.203 F 
ATOM    116  C   UNL A   1      41.040  25.443  26.764  1.00  0.00     0.198 A 
ATOM    117  C   UNL A   1      42.366  27.245  25.901  1.00  0.00     0.198 A 
ATOM    118  F   UNL A   1      42.618  29.224  27.147  1.00  0.00    -0.203 F 
ATOM    119  F   UNL A   1      40.567  24.194  26.658  1.00  0.00    -0.200 F 
ATOM    120  C   UNL A   1      41.851  25.965  25.769  1.00  0.00     0.200 A 
ATOM    121  F   UNL A   1      43.139  27.759  24.933  1.00  0.00    -0.200 F 
ATOM    122  F   UNL A   1      42.148  25.228  24.689  1.00  0.00    -0.200 F 
ENDBRANCH  84 112
BRANCH  99 123
ATOM    123  C   UNL A   1      44.251  27.770  34.350  1.00  0.00     0.064 A 
ATOM    124  C   UNL A   1      45.564  28.263  34.340  1.00  0.00     0.173 A 
ATOM    125  C   UNL A   1      44.014  26.547  34.996  1.00  0.00     0.173 A 
ATOM    126  F   UNL A   1      45.847  29.421  33.724  1.00  0.00    -0.203 F 
ATOM    127  C   UNL A   1      46.602  27.546  34.929  1.00  0.00     0.198 A 
ATOM    128  C   UNL A   1      45.048  25.850  35.615  1.00  0.00     0.198 A 
ATOM    129  F   UNL A   1      42.776  26.034  35.042  1.00  0.00    -0.203 F 
ATOM    130  F   UNL A   1      47.857  28.010  34.860  1.00  0.00    -0.200 F 
ATOM    131  C   UNL A   1      46.342  26.345  35.572  1.00  0.00     0.200 A 
ATOM    132  F   UNL A   1      44.792  24.698  36.250  1.00  0.00    -0.200 F 
ATOM    133  F   UNL A   1      47.342  25.661  36.146  1.00  0.00    -0.200 F 
ENDBRANCH  99 123
ENDBRANCH  64  67
ENDBRANCH  54  57
ENDBRANCH  50  53
ENDBRANCH  47  50
ENDBRANCH   1  47
TORSDOF 15
ENDMDL
MODEL 4
REMARK VINA RESULT:     -12.0      3.638      8.794
REMARK SMILES O=C(NCCCCCCNC(=O)c1ccc(-c2c3nc(c(-c4c(F)c(F)c(F)c(F)c4F)c4ccc([nH]4)c(-c4c(F)c(F)c(F)c(F)c4F)c4nc(c(-c5c(F)c(F)c(F)c(F)c5F)c5ccc2[nH]5)C=C4)C=C3)cc1)C1=Cc2c(ccc(Cl)c2-c2ccccc2)O[C@H]1C(F)(F)F
REMARK SMILES IDX 7 1 6 4 5 7 4 10 3 13 1 14 2 15 76 17 77 18 92 19 78 20
REMARK SMILES IDX 91 22 79 24 84 25 80 26 82 27 81 28 83 30 93 32 94 33 95 34
REMARK SMILES IDX 96 35 85 36 86 37 90 38 87 39 89 41 88 43 8 47 9 50 10 53
REMARK SMILES IDX 11 54 12 56 13 57 14 58 75 59 15 60 74 62 16 64 17 67 18 68
REMARK SMILES IDX 68 69 19 70 73 71 67 72 69 73 20 74 72 75 66 77 65 79 21 81
REMARK SMILES IDX 53 84 33 85 52 86 34 87 37 88 51 89 70 90 35 91 36 93 50 95
REMARK SMILES IDX 71 96 38 99 22 101 23 102 31 103 24 104 25 105 29 106 32 107
REMARK SMILES IDX 26 108 27 109 30 110 28 111 54 112 55 113 63 114 56 115
REMARK SMILES IDX 57 116 61 117 64 118 58 119 59 120 62 121 60 122 39 123
REMARK SMILES IDX 40 124 48 125 41 126 42 127 46 128 49 129 43 130 44 131
REMARK SMILES IDX 47 132 45 133
REMARK H PARENT 7 2 7 3 6 5 6 6 5 8 5 9 4 11 4 12 3 16 77 21 92 23 80 29 81 31
REMARK H PARENT 86 40 90 42 87 44 89 45 88 46 8 48 8 49 9 51 9 52 10 55 14 61
REMARK H PARENT 75 63 15 65 74 66 73 76 67 78 69 80 72 82 66 83 34 92 37 94
REMARK H PARENT 70 97 35 98 71 100
REMARK Flexibility Score: inf
ROOT
ATOM      1  C   UNL A   1      31.778  27.767  26.944  1.00  0.00    -0.052 C 
ATOM      2  H   UNL A   1      31.517  27.269  27.855  1.00  0.00     0.027 H 
ATOM      3  H   UNL A   1      31.477  28.792  26.886  1.00  0.00     0.027 H 
ENDROOT
BRANCH   1   4
ATOM      4  C   UNL A   1      31.025  27.068  25.806  1.00  0.00    -0.052 C 
ATOM      5  H   UNL A   1      30.517  27.824  25.243  1.00  0.00     0.027 H 
ATOM      6  H   UNL A   1      31.778  26.529  25.268  1.00  0.00     0.027 H 
BRANCH   4   7
ATOM      7  C   UNL A   1      29.987  26.010  26.193  1.00  0.00    -0.036 C 
ATOM      8  H   UNL A   1      29.765  26.136  27.232  1.00  0.00     0.028 H 
ATOM      9  H   UNL A   1      29.156  26.177  25.539  1.00  0.00     0.028 H 
BRANCH   7  10
ATOM     10  C   UNL A   1      30.385  24.553  25.976  1.00  0.00     0.018 C 
ATOM     11  H   UNL A   1      29.516  23.947  26.121  1.00  0.00     0.049 H 
ATOM     12  H   UNL A   1      30.786  24.503  24.985  1.00  0.00     0.049 H 
BRANCH  10  13
ATOM     13  N   UNL A   1      31.428  24.053  26.850  1.00  0.00    -0.352 N 
ATOM     14  O   UNL A   1      33.433  23.217  27.427  1.00  0.00    -0.270 OA
ATOM     15  C   UNL A   1      32.700  23.653  26.542  1.00  0.00     0.251 C 
ATOM     16  H   UNL A   1      31.186  23.992  27.804  1.00  0.00     0.163 HD
BRANCH  15  17
ATOM     17  C   UNL A   1      33.228  23.756  25.163  1.00  0.00     0.067 C 
ATOM     18  C   UNL A   1      33.249  22.644  24.421  1.00  0.00    -0.038 C 
ATOM     19  C   UNL A   1      34.110  24.883  24.731  1.00  0.00     0.224 C 
ATOM     20  C   UNL A   1      34.646  22.126  24.399  1.00  0.00     0.027 A 
ATOM     21  H   UNL A   1      32.439  22.218  23.945  1.00  0.00     0.064 H 
ATOM     22  O   UNL A   1      35.481  24.419  24.447  1.00  0.00    -0.475 OA
ATOM     23  H   UNL A   1      34.160  25.572  25.547  1.00  0.00     0.090 H 
ATOM     24  C   UNL A   1      35.696  23.058  24.429  1.00  0.00     0.128 A 
ATOM     25  C   UNL A   1      34.860  20.729  24.538  1.00  0.00     0.011 A 
ATOM     26  C   UNL A   1      36.996  22.604  24.605  1.00  0.00    -0.018 A 
ATOM     27  C   UNL A   1      36.174  20.302  24.752  1.00  0.00     0.049 A 
ATOM     28  C   UNL A   1      37.230  21.233  24.784  1.00  0.00    -0.039 A 
ATOM     29  H   UNL A   1      37.784  23.270  24.601  1.00  0.00     0.066 H 
ATOM     30  Cl  UNL A   1      36.547  18.648  25.073  1.00  0.00    -0.084 Cl
ATOM     31  H   UNL A   1      38.195  20.901  24.941  1.00  0.00     0.064 H 
BRANCH  19  32
ATOM     32  C   UNL A   1      33.518  25.640  23.514  1.00  0.00     0.429 C 
ATOM     33  F   UNL A   1      33.695  26.982  23.580  1.00  0.00    -0.167 F 
ATOM     34  F   UNL A   1      34.089  25.224  22.359  1.00  0.00    -0.167 F 
ATOM     35  F   UNL A   1      32.184  25.438  23.394  1.00  0.00    -0.167 F 
ENDBRANCH  19  32
BRANCH  25  36
ATOM     36  C   UNL A   1      33.641  19.890  24.582  1.00  0.00    -0.016 A 
ATOM     37  C   UNL A   1      33.189  19.284  23.397  1.00  0.00    -0.054 A 
ATOM     38  C   UNL A   1      33.254  19.331  25.814  1.00  0.00    -0.054 A 
ATOM     39  C   UNL A   1      32.527  18.055  23.442  1.00  0.00    -0.062 A 
ATOM     40  H   UNL A   1      33.348  19.748  22.489  1.00  0.00     0.063 H 
ATOM     41  C   UNL A   1      32.604  18.096  25.854  1.00  0.00    -0.062 A 
ATOM     42  H   UNL A   1      33.452  19.835  26.692  1.00  0.00     0.063 H 
ATOM     43  C   UNL A   1      32.276  17.443  24.667  1.00  0.00    -0.062 A 
ATOM     44  H   UNL A   1      32.224  17.601  22.566  1.00  0.00     0.062 H 
ATOM     45  H   UNL A   1      32.368  17.667  26.761  1.00  0.00     0.062 H 
ATOM     46  H   UNL A   1      31.846  16.505  24.697  1.00  0.00     0.062 H 
ENDBRANCH  25  36
ENDBRANCH  15  17
ENDBRANCH  10  13
ENDBRANCH   7  10
ENDBRANCH   4   7
ENDBRANCH   1   4
BRANCH   1  47
ATOM     47  C   UNL A   1      33.305  27.797  26.858  1.00  0.00    -0.036 C 
ATOM     48  H   UNL A   1      33.622  26.893  26.381  1.00  0.00     0.028 H 
ATOM     49  H   UNL A   1      33.644  27.910  27.866  1.00  0.00     0.028 H 
BRANCH  47  50
ATOM     50  C   UNL A   1      33.917  28.964  26.092  1.00  0.00     0.018 C 
ATOM     51  H   UNL A   1      33.470  29.006  25.120  1.00  0.00     0.049 H 
ATOM     52  H   UNL A   1      34.972  28.793  26.043  1.00  0.00     0.049 H 
BRANCH  50  53
ATOM     53  N   UNL A   1      33.720  30.248  26.744  1.00  0.00    -0.352 N 
ATOM     54  C   UNL A   1      34.464  30.882  27.706  1.00  0.00     0.251 C 
ATOM     55  H   UNL A   1      32.922  30.742  26.448  1.00  0.00     0.163 HD
ATOM     56  O   UNL A   1      34.037  31.925  28.211  1.00  0.00    -0.269 OA
BRANCH  54  57
ATOM     57  C   UNL A   1      35.760  30.335  28.173  1.00  0.00     0.039 A 
ATOM     58  C   UNL A   1      36.875  30.448  27.335  1.00  0.00    -0.049 A 
ATOM     59  C   UNL A   1      35.887  29.677  29.399  1.00  0.00    -0.049 A 
ATOM     60  C   UNL A   1      38.118  29.958  27.747  1.00  0.00    -0.053 A 
ATOM     61  H   UNL A   1      36.780  30.893  26.409  1.00  0.00     0.063 H 
ATOM     62  C   UNL A   1      37.143  29.264  29.846  1.00  0.00    -0.053 A 
ATOM     63  H   UNL A   1      35.051  29.497  29.975  1.00  0.00     0.063 H 
ATOM     64  C   UNL A   1      38.272  29.392  29.022  1.00  0.00    -0.014 A 
ATOM     65  H   UNL A   1      38.928  30.013  27.109  1.00  0.00     0.063 H 
ATOM     66  H   UNL A   1      37.243  28.860  30.790  1.00  0.00     0.063 H 
BRANCH  64  67
ATOM     67  C   UNL A   1      39.601  28.918  29.499  1.00  0.00     0.031 A 
ATOM     68  C   UNL A   1      40.393  29.740  30.483  1.00  0.00     0.074 A 
ATOM     69  C   UNL A   1      40.117  27.772  29.015  1.00  0.00     0.049 A 
ATOM     70  N   UNL A   1      41.591  29.525  30.969  1.00  0.00    -0.248 NA
ATOM     71  C   UNL A   1      39.767  30.980  30.965  1.00  0.00    -0.034 C 
ATOM     72  C   UNL A   1      39.471  26.904  28.029  1.00  0.00    -0.036 A 
ATOM     73  N   UNL A   1      41.309  27.141  29.277  1.00  0.00    -0.354 N 
ATOM     74  C   UNL A   1      41.861  30.602  31.801  1.00  0.00     0.074 A 
ATOM     75  C   UNL A   1      40.731  31.501  31.711  1.00  0.00    -0.034 C 
ATOM     76  H   UNL A   1      38.822  31.349  30.774  1.00  0.00     0.065 H 
ATOM     77  C   UNL A   1      40.260  25.846  27.788  1.00  0.00    -0.036 A 
ATOM     78  H   UNL A   1      38.554  27.079  27.589  1.00  0.00     0.065 H 
ATOM     79  C   UNL A   1      41.488  25.979  28.567  1.00  0.00     0.049 A 
ATOM     80  H   UNL A   1      41.974  27.490  29.915  1.00  0.00     0.167 HD
ATOM     81  C   UNL A   1      42.941  30.812  32.592  1.00  0.00     0.037 A 
ATOM     82  H   UNL A   1      40.682  32.426  32.165  1.00  0.00     0.065 H 
ATOM     83  H   UNL A   1      40.035  25.063  27.154  1.00  0.00     0.065 H 
ATOM     84  C   UNL A   1      42.527  25.123  28.537  1.00  0.00     0.037 A 
ATOM     85  C   UNL A   1      44.057  29.907  32.698  1.00  0.00     0.049 A 
ATOM     86  C   UNL A   1      43.726  25.392  29.410  1.00  0.00     0.074 A 
ATOM     87  C   UNL A   1      45.175  30.008  33.507  1.00  0.00    -0.036 A 
ATOM     88  N   UNL A   1      44.194  28.735  31.969  1.00  0.00    -0.354 N 
ATOM     89  N   UNL A   1      43.940  26.382  30.241  1.00  0.00    -0.248 NA
ATOM     90  C   UNL A   1      44.825  24.417  29.344  1.00  0.00    -0.034 C 
ATOM     91  C   UNL A   1      46.016  28.926  33.228  1.00  0.00    -0.036 A 
ATOM     92  H   UNL A   1      45.358  30.753  34.198  1.00  0.00     0.065 H 
ATOM     93  C   UNL A   1      45.393  28.117  32.292  1.00  0.00     0.049 A 
ATOM     94  H   UNL A   1      43.539  28.393  31.320  1.00  0.00     0.167 HD
ATOM     95  C   UNL A   1      45.178  26.134  30.819  1.00  0.00     0.074 A 
ATOM     96  C   UNL A   1      45.660  24.891  30.258  1.00  0.00    -0.034 C 
ATOM     97  H   UNL A   1      44.921  23.583  28.744  1.00  0.00     0.065 H 
ATOM     98  H   UNL A   1      46.944  28.759  33.648  1.00  0.00     0.065 H 
ATOM     99  C   UNL A   1      45.855  26.872  31.734  1.00  0.00     0.037 A 
ATOM    100  H   UNL A   1      46.541  24.430  30.534  1.00  0.00     0.065 H 
BRANCH  81 101
ATOM    101  C   UNL A   1      42.973  32.071  33.414  1.00  0.00     0.064 A 
ATOM    102  C   UNL A   1      43.561  33.251  32.931  1.00  0.00     0.173 A 
ATOM    103  C   UNL A   1      42.362  32.114  34.677  1.00  0.00     0.173 A 
ATOM    104  F   UNL A   1      44.166  33.262  31.733  1.00  0.00    -0.203 F 
ATOM    105  C   UNL A   1      43.561  34.417  33.693  1.00  0.00     0.198 A 
ATOM    106  C   UNL A   1      42.335  33.290  35.421  1.00  0.00     0.198 A 
ATOM    107  F   UNL A   1      41.779  31.018  35.184  1.00  0.00    -0.203 F 
ATOM    108  F   UNL A   1      44.172  35.517  33.230  1.00  0.00    -0.200 F 
ATOM    109  C   UNL A   1      42.941  34.439  34.932  1.00  0.00     0.200 A 
ATOM    110  F   UNL A   1      41.721  33.314  36.612  1.00  0.00    -0.200 F 
ATOM    111  F   UNL A   1      42.932  35.564  35.659  1.00  0.00    -0.200 F 
ENDBRANCH  81 101
BRANCH  84 112
ATOM    112  C   UNL A   1      42.483  23.922  27.658  1.00  0.00     0.064 A 
ATOM    113  C   UNL A   1      42.058  22.681  28.150  1.00  0.00     0.173 A 
ATOM    114  C   UNL A   1      42.889  23.986  26.317  1.00  0.00     0.173 A 
ATOM    115  F   UNL A   1      41.680  22.562  29.431  1.00  0.00    -0.203 F 
ATOM    116  C   UNL A   1      42.069  21.543  27.344  1.00  0.00     0.198 A 
ATOM    117  C   UNL A   1      42.868  22.856  25.502  1.00  0.00     0.198 A 
ATOM    118  F   UNL A   1      43.301  25.150  25.793  1.00  0.00    -0.203 F 
ATOM    119  F   UNL A   1      41.715  20.358  27.858  1.00  0.00    -0.200 F 
ATOM    120  C   UNL A   1      42.468  21.634  26.019  1.00  0.00     0.200 A 
ATOM    121  F   UNL A   1      43.240  22.951  24.218  1.00  0.00    -0.200 F 
ATOM    122  F   UNL A   1      42.481  20.540  25.245  1.00  0.00    -0.200 F 
ENDBRANCH  84 112
BRANCH  99 123
ATOM    123  C   UNL A   1      47.171  26.333  32.220  1.00  0.00     0.064 A 
ATOM    124  C   UNL A   1      48.386  26.701  31.625  1.00  0.00     0.173 A 
ATOM    125  C   UNL A   1      47.217  25.465  33.323  1.00  0.00     0.173 A 
ATOM    126  F   UNL A   1      48.398  27.516  30.559  1.00  0.00    -0.203 F 
ATOM    127  C   UNL A   1      49.596  26.198  32.097  1.00  0.00     0.198 A 
ATOM    128  C   UNL A   1      48.430  24.993  33.814  1.00  0.00     0.198 A 
ATOM    129  F   UNL A   1      46.085  25.088  33.935  1.00  0.00    -0.203 F 
ATOM    130  F   UNL A   1      50.740  26.521  31.479  1.00  0.00    -0.200 F 
ATOM    131  C   UNL A   1      49.618  25.352  33.195  1.00  0.00     0.200 A 
ATOM    132  F   UNL A   1      48.450  24.189  34.886  1.00  0.00    -0.200 F 
ATOM    133  F   UNL A   1      50.784  24.876  33.654  1.00  0.00    -0.200 F 
ENDBRANCH  99 123
ENDBRANCH  64  67
ENDBRANCH  54  57
ENDBRANCH  50  53
ENDBRANCH  47  50
ENDBRANCH   1  47
TORSDOF 15
ENDMDL
MODEL 5
REMARK VINA RESULT:     -12.0      3.744      8.564
REMARK SMILES O=C(NCCCCCCNC(=O)c1ccc(-c2c3nc(c(-c4c(F)c(F)c(F)c(F)c4F)c4ccc([nH]4)c(-c4c(F)c(F)c(F)c(F)c4F)c4nc(c(-c5c(F)c(F)c(F)c(F)c5F)c5ccc2[nH]5)C=C4)C=C3)cc1)C1=Cc2c(ccc(Cl)c2-c2ccccc2)O[C@H]1C(F)(F)F
REMARK SMILES IDX 7 1 6 4 5 7 4 10 3 13 1 14 2 15 76 17 77 18 92 19 78 20
REMARK SMILES IDX 91 22 79 24 84 25 80 26 82 27 81 28 83 30 93 32 94 33 95 34
REMARK SMILES IDX 96 35 85 36 86 37 90 38 87 39 89 41 88 43 8 47 9 50 10 53
REMARK SMILES IDX 11 54 12 56 13 57 14 58 75 59 15 60 74 62 16 64 17 67 18 68
REMARK SMILES IDX 68 69 19 70 73 71 67 72 69 73 20 74 72 75 66 77 65 79 21 81
REMARK SMILES IDX 53 84 33 85 52 86 34 87 37 88 51 89 70 90 35 91 36 93 50 95
REMARK SMILES IDX 71 96 38 99 22 101 23 102 31 103 24 104 25 105 29 106 32 107
REMARK SMILES IDX 26 108 27 109 30 110 28 111 54 112 55 113 63 114 56 115
REMARK SMILES IDX 57 116 61 117 64 118 58 119 59 120 62 121 60 122 39 123
REMARK SMILES IDX 40 124 48 125 41 126 42 127 46 128 49 129 43 130 44 131
REMARK SMILES IDX 47 132 45 133
REMARK H PARENT 7 2 7 3 6 5 6 6 5 8 5 9 4 11 4 12 3 16 77 21 92 23 80 29 81 31
REMARK H PARENT 86 40 90 42 87 44 89 45 88 46 8 48 8 49 9 51 9 52 10 55 14 61
REMARK H PARENT 75 63 15 65 74 66 73 76 67 78 69 80 72 82 66 83 34 92 37 94
REMARK H PARENT 70 97 35 98 71 100
REMARK Flexibility Score: inf
ROOT
ATOM      1  C   UNL A   1      36.434  19.881  25.174  1.00  0.00    -0.052 C 
ATOM      2  H   UNL A   1      36.399  19.859  26.243  1.00  0.00     0.027 H 
ATOM      3  H   UNL A   1      36.197  20.827  24.732  1.00  0.00     0.027 H 
ENDROOT
BRANCH   1   4
ATOM      4  C   UNL A   1      35.357  18.921  24.657  1.00  0.00    -0.052 C 
ATOM      5  H   UNL A   1      35.544  18.757  23.616  1.00  0.00     0.027 H 
ATOM      6  H   UNL A   1      35.442  18.053  25.277  1.00  0.00     0.027 H 
BRANCH   4   7
ATOM      7  C   UNL A   1      33.896  19.361  24.797  1.00  0.00    -0.036 C 
ATOM      8  H   UNL A   1      33.306  18.743  24.152  1.00  0.00     0.028 H 
ATOM      9  H   UNL A   1      33.668  19.260  25.838  1.00  0.00     0.028 H 
BRANCH   7  10
ATOM     10  C   UNL A   1      33.587  20.816  24.455  1.00  0.00     0.018 C 
ATOM     11  H   UNL A   1      34.434  21.222  23.943  1.00  0.00     0.049 H 
ATOM     12  H   UNL A   1      32.694  20.797  23.866  1.00  0.00     0.049 H 
BRANCH  10  13
ATOM     13  N   UNL A   1      33.296  21.676  25.586  1.00  0.00    -0.352 N 
ATOM     14  O   UNL A   1      33.412  23.501  26.893  1.00  0.00    -0.270 OA
ATOM     15  C   UNL A   1      33.743  22.943  25.849  1.00  0.00     0.251 C 
ATOM     16  H   UNL A   1      32.690  21.293  26.262  1.00  0.00     0.163 HD
BRANCH  15  17
ATOM     17  C   UNL A   1      34.601  23.673  24.890  1.00  0.00     0.067 C 
ATOM     18  C   UNL A   1      34.619  25.009  24.964  1.00  0.00    -0.038 C 
ATOM     19  C   UNL A   1      35.077  23.053  23.616  1.00  0.00     0.224 C 
ATOM     20  C   UNL A   1      33.767  25.546  23.866  1.00  0.00     0.027 A 
ATOM     21  H   UNL A   1      35.134  25.569  25.659  1.00  0.00     0.064 H 
ATOM     22  O   UNL A   1      34.460  23.692  22.438  1.00  0.00    -0.475 OA
ATOM     23  H   UNL A   1      34.768  22.029  23.632  1.00  0.00     0.090 H 
ATOM     24  C   UNL A   1      33.725  24.838  22.655  1.00  0.00     0.128 A 
ATOM     25  C   UNL A   1      32.895  26.632  24.146  1.00  0.00     0.011 A 
ATOM     26  C   UNL A   1      32.797  25.204  21.690  1.00  0.00    -0.018 A 
ATOM     27  C   UNL A   1      31.945  26.957  23.174  1.00  0.00     0.049 A 
ATOM     28  C   UNL A   1      31.899  26.248  21.958  1.00  0.00    -0.039 A 
ATOM     29  H   UNL A   1      32.769  24.714  20.782  1.00  0.00     0.066 H 
ATOM     30  Cl  UNL A   1      30.743  28.163  23.450  1.00  0.00    -0.084 Cl
ATOM     31  H   UNL A   1      31.192  26.501  21.249  1.00  0.00     0.064 H 
BRANCH  19  32
ATOM     32  C   UNL A   1      36.623  23.074  23.511  1.00  0.00     0.429 C 
ATOM     33  F   UNL A   1      37.242  23.099  24.717  1.00  0.00    -0.167 F 
ATOM     34  F   UNL A   1      37.081  21.981  22.857  1.00  0.00    -0.167 F 
ATOM     35  F   UNL A   1      37.070  24.159  22.834  1.00  0.00    -0.167 F 
ENDBRANCH  19  32
BRANCH  25  36
ATOM     36  C   UNL A   1      33.001  27.211  25.505  1.00  0.00    -0.016 A 
ATOM     37  C   UNL A   1      33.825  28.332  25.705  1.00  0.00    -0.054 A 
ATOM     38  C   UNL A   1      31.961  26.968  26.421  1.00  0.00    -0.054 A 
ATOM     39  C   UNL A   1      33.504  29.277  26.682  1.00  0.00    -0.062 A 
ATOM     40  H   UNL A   1      34.670  28.458  25.128  1.00  0.00     0.063 H 
ATOM     41  C   UNL A   1      31.636  27.922  27.387  1.00  0.00    -0.062 A 
ATOM     42  H   UNL A   1      31.436  26.081  26.379  1.00  0.00     0.063 H 
ATOM     43  C   UNL A   1      32.385  29.092  27.490  1.00  0.00    -0.062 A 
ATOM     44  H   UNL A   1      34.097  30.114  26.804  1.00  0.00     0.062 H 
ATOM     45  H   UNL A   1      30.841  27.761  28.024  1.00  0.00     0.062 H 
ATOM     46  H   UNL A   1      32.111  29.822  28.167  1.00  0.00     0.062 H 
ENDBRANCH  25  36
ENDBRANCH  15  17
ENDBRANCH  10  13
ENDBRANCH   7  10
ENDBRANCH   4   7
ENDBRANCH   1   4
BRANCH   1  47
ATOM     47  C   UNL A   1      37.879  19.602  24.755  1.00  0.00    -0.036 C 
ATOM     48  H   UNL A   1      38.052  20.105  23.826  1.00  0.00     0.028 H 
ATOM     49  H   UNL A   1      37.959  18.536  24.704  1.00  0.00     0.028 H 
BRANCH  47  50
ATOM     50  C   UNL A   1      38.965  20.044  25.730  1.00  0.00     0.018 C 
ATOM     51  H   UNL A   1      38.522  20.178  26.695  1.00  0.00     0.049 H 
ATOM     52  H   UNL A   1      39.383  20.952  25.349  1.00  0.00     0.049 H 
BRANCH  50  53
ATOM     53  N   UNL A   1      40.053  19.088  25.852  1.00  0.00    -0.352 N 
ATOM     54  C   UNL A   1      41.387  19.282  26.104  1.00  0.00     0.251 C 
ATOM     55  H   UNL A   1      39.789  18.147  25.732  1.00  0.00     0.163 HD
ATOM     56  O   UNL A   1      42.161  18.323  26.040  1.00  0.00    -0.269 OA
BRANCH  54  57
ATOM     57  C   UNL A   1      41.928  20.623  26.430  1.00  0.00     0.039 A 
ATOM     58  C   UNL A   1      42.147  21.529  25.385  1.00  0.00    -0.049 A 
ATOM     59  C   UNL A   1      42.263  20.990  27.736  1.00  0.00    -0.049 A 
ATOM     60  C   UNL A   1      42.641  22.808  25.655  1.00  0.00    -0.053 A 
ATOM     61  H   UNL A   1      41.943  21.251  24.413  1.00  0.00     0.063 H 
ATOM     62  C   UNL A   1      42.675  22.293  28.015  1.00  0.00    -0.053 A 
ATOM     63  H   UNL A   1      42.204  20.295  28.496  1.00  0.00     0.063 H 
ATOM     64  C   UNL A   1      42.877  23.216  26.977  1.00  0.00    -0.014 A 
ATOM     65  H   UNL A   1      42.833  23.458  24.876  1.00  0.00     0.063 H 
ATOM     66  H   UNL A   1      42.834  22.581  28.993  1.00  0.00     0.063 H 
BRANCH  64  67
ATOM     67  C   UNL A   1      43.348  24.595  27.286  1.00  0.00     0.031 A 
ATOM     68  C   UNL A   1      42.388  25.623  27.823  1.00  0.00     0.074 A 
ATOM     69  C   UNL A   1      44.628  24.936  27.042  1.00  0.00     0.049 A 
ATOM     70  N   UNL A   1      42.594  26.889  28.096  1.00  0.00    -0.248 NA
ATOM     71  C   UNL A   1      41.006  25.179  28.063  1.00  0.00    -0.034 C 
ATOM     72  C   UNL A   1      45.648  24.046  26.485  1.00  0.00    -0.036 A 
ATOM     73  N   UNL A   1      45.290  26.126  27.220  1.00  0.00    -0.354 N 
ATOM     74  C   UNL A   1      41.372  27.388  28.527  1.00  0.00     0.074 A 
ATOM     75  C   UNL A   1      40.414  26.309  28.424  1.00  0.00    -0.034 C 
ATOM     76  H   UNL A   1      40.602  24.234  27.974  1.00  0.00     0.065 H 
ATOM     77  C   UNL A   1      46.809  24.712  26.390  1.00  0.00    -0.036 A 
ATOM     78  H   UNL A   1      45.498  23.063  26.210  1.00  0.00     0.065 H 
ATOM     79  C   UNL A   1      46.609  26.088  26.836  1.00  0.00     0.049 A 
ATOM     80  H   UNL A   1      44.860  26.932  27.589  1.00  0.00     0.167 HD
ATOM     81  C   UNL A   1      41.079  28.626  28.993  1.00  0.00     0.037 A 
ATOM     82  H   UNL A   1      39.404  26.405  28.607  1.00  0.00     0.065 H 
ATOM     83  H   UNL A   1      47.702  24.315  26.055  1.00  0.00     0.065 H 
ATOM     84  C   UNL A   1      47.548  27.053  26.832  1.00  0.00     0.037 A 
ATOM     85  C   UNL A   1      42.038  29.694  29.115  1.00  0.00     0.049 A 
ATOM     86  C   UNL A   1      47.190  28.428  27.335  1.00  0.00     0.074 A 
ATOM     87  C   UNL A   1      41.849  30.969  29.621  1.00  0.00    -0.036 A 
ATOM     88  N   UNL A   1      43.366  29.611  28.725  1.00  0.00    -0.354 N 
ATOM     89  N   UNL A   1      46.046  28.868  27.800  1.00  0.00    -0.248 NA
ATOM     90  C   UNL A   1      48.257  29.438  27.319  1.00  0.00    -0.034 C 
ATOM     91  C   UNL A   1      43.048  31.675  29.486  1.00  0.00    -0.036 A 
ATOM     92  H   UNL A   1      40.975  31.335  30.028  1.00  0.00     0.065 H 
ATOM     93  C   UNL A   1      44.002  30.822  28.955  1.00  0.00     0.049 A 
ATOM     94  H   UNL A   1      43.794  28.812  28.342  1.00  0.00     0.167 HD
ATOM     95  C   UNL A   1      46.264  30.192  28.161  1.00  0.00     0.074 A 
ATOM     96  C   UNL A   1      47.654  30.478  27.877  1.00  0.00    -0.034 C 
ATOM     97  H   UNL A   1      49.224  29.359  26.965  1.00  0.00     0.065 H 
ATOM     98  H   UNL A   1      43.198  32.665  29.738  1.00  0.00     0.065 H 
ATOM     99  C   UNL A   1      45.391  31.089  28.680  1.00  0.00     0.037 A 
ATOM    100  H   UNL A   1      48.118  31.377  28.084  1.00  0.00     0.065 H 
BRANCH  81 101
ATOM    101  C   UNL A   1      39.662  28.898  29.412  1.00  0.00     0.064 A 
ATOM    102  C   UNL A   1      38.705  29.381  28.505  1.00  0.00     0.173 A 
ATOM    103  C   UNL A   1      39.240  28.624  30.723  1.00  0.00     0.173 A 
ATOM    104  F   UNL A   1      39.057  29.668  27.243  1.00  0.00    -0.203 F 
ATOM    105  C   UNL A   1      37.389  29.606  28.901  1.00  0.00     0.198 A 
ATOM    106  C   UNL A   1      37.915  28.818  31.106  1.00  0.00     0.198 A 
ATOM    107  F   UNL A   1      40.110  28.155  31.629  1.00  0.00    -0.203 F 
ATOM    108  F   UNL A   1      36.507  30.114  28.029  1.00  0.00    -0.200 F 
ATOM    109  C   UNL A   1      36.993  29.316  30.197  1.00  0.00     0.200 A 
ATOM    110  F   UNL A   1      37.530  28.522  32.355  1.00  0.00    -0.200 F 
ATOM    111  F   UNL A   1      35.724  29.521  30.573  1.00  0.00    -0.200 F 
ENDBRANCH  81 101
BRANCH  84 112
ATOM    112  C   UNL A   1      48.923  26.759  26.346  1.00  0.00     0.064 A 
ATOM    113  C   UNL A   1      49.290  27.009  25.017  1.00  0.00     0.173 A 
ATOM    114  C   UNL A   1      49.891  26.199  27.193  1.00  0.00     0.173 A 
ATOM    115  F   UNL A   1      48.396  27.525  24.161  1.00  0.00    -0.203 F 
ATOM    116  C   UNL A   1      50.561  26.683  24.545  1.00  0.00     0.198 A 
ATOM    117  C   UNL A   1      51.172  25.904  26.729  1.00  0.00     0.198 A 
ATOM    118  F   UNL A   1      49.595  25.943  28.476  1.00  0.00    -0.203 F 
ATOM    119  F   UNL A   1      50.864  26.878  23.254  1.00  0.00    -0.200 F 
ATOM    120  C   UNL A   1      51.502  26.136  25.403  1.00  0.00     0.200 A 
ATOM    121  F   UNL A   1      52.083  25.390  27.567  1.00  0.00    -0.200 F 
ATOM    122  F   UNL A   1      52.723  25.821  24.950  1.00  0.00    -0.200 F 
ENDBRANCH  84 112
BRANCH  99 123
ATOM    123  C   UNL A   1      45.920  32.454  29.018  1.00  0.00     0.064 A 
ATOM    124  C   UNL A   1      45.872  33.514  28.101  1.00  0.00     0.173 A 
ATOM    125  C   UNL A   1      46.449  32.713  30.292  1.00  0.00     0.173 A 
ATOM    126  F   UNL A   1      45.391  33.317  26.864  1.00  0.00    -0.203 F 
ATOM    127  C   UNL A   1      46.360  34.775  28.437  1.00  0.00     0.198 A 
ATOM    128  C   UNL A   1      46.902  33.983  30.637  1.00  0.00     0.198 A 
ATOM    129  F   UNL A   1      46.510  31.737  31.210  1.00  0.00    -0.203 F 
ATOM    130  F   UNL A   1      46.353  35.758  27.526  1.00  0.00    -0.200 F 
ATOM    131  C   UNL A   1      46.866  35.010  29.707  1.00  0.00     0.200 A 
ATOM    132  F   UNL A   1      47.374  34.213  31.870  1.00  0.00    -0.200 F 
ATOM    133  F   UNL A   1      47.326  36.226  30.031  1.00  0.00    -0.200 F 
ENDBRANCH  99 123
ENDBRANCH  64  67
ENDBRANCH  54  57
ENDBRANCH  50  53
ENDBRANCH  47  50
ENDBRANCH   1  47
TORSDOF 15
ENDMDL
MODEL 6
REMARK VINA RESULT:     -11.9      3.828      7.611
REMARK SMILES O=C(NCCCCCCNC(=O)c1ccc(-c2c3nc(c(-c4c(F)c(F)c(F)c(F)c4F)c4ccc([nH]4)c(-c4c(F)c(F)c(F)c(F)c4F)c4nc(c(-c5c(F)c(F)c(F)c(F)c5F)c5ccc2[nH]5)C=C4)C=C3)cc1)C1=Cc2c(ccc(Cl)c2-c2ccccc2)O[C@H]1C(F)(F)F
REMARK SMILES IDX 7 1 6 4 5 7 4 10 3 13 1 14 2 15 76 17 77 18 92 19 78 20
REMARK SMILES IDX 91 22 79 24 84 25 80 26 82 27 81 28 83 30 93 32 94 33 95 34
REMARK SMILES IDX 96 35 85 36 86 37 90 38 87 39 89 41 88 43 8 47 9 50 10 53
REMARK SMILES IDX 11 54 12 56 13 57 14 58 75 59 15 60 74 62 16 64 17 67 18 68
REMARK SMILES IDX 68 69 19 70 73 71 67 72 69 73 20 74 72 75 66 77 65 79 21 81
REMARK SMILES IDX 53 84 33 85 52 86 34 87 37 88 51 89 70 90 35 91 36 93 50 95
REMARK SMILES IDX 71 96 38 99 22 101 23 102 31 103 24 104 25 105 29 106 32 107
REMARK SMILES IDX 26 108 27 109 30 110 28 111 54 112 55 113 63 114 56 115
REMARK SMILES IDX 57 116 61 117 64 118 58 119 59 120 62 121 60 122 39 123
REMARK SMILES IDX 40 124 48 125 41 126 42 127 46 128 49 129 43 130 44 131
REMARK SMILES IDX 47 132 45 133
REMARK H PARENT 7 2 7 3 6 5 6 6 5 8 5 9 4 11 4 12 3 16 77 21 92 23 80 29 81 31
REMARK H PARENT 86 40 90 42 87 44 89 45 88 46 8 48 8 49 9 51 9 52 10 55 14 61
REMARK H PARENT 75 63 15 65 74 66 73 76 67 78 69 80 72 82 66 83 34 92 37 94
REMARK H PARENT 70 97 35 98 71 100
REMARK Flexibility Score: inf
ROOT
ATOM      1  C   UNL A   1      31.031  30.993  25.283  1.00  0.00    -0.052 C 
ATOM      2  H   UNL A   1      31.950  31.080  24.743  1.00  0.00     0.027 H 
ATOM      3  H   UNL A   1      30.940  30.113  25.885  1.00  0.00     0.027 H 
ENDROOT
BRANCH   1   4
ATOM      4  C   UNL A   1      29.899  30.887  24.254  1.00  0.00    -0.052 C 
ATOM      5  H   UNL A   1      28.978  30.809  24.795  1.00  0.00     0.027 H 
ATOM      6  H   UNL A   1      29.996  31.764  23.647  1.00  0.00     0.027 H 
BRANCH   4   7
ATOM      7  C   UNL A   1      29.953  29.718  23.266  1.00  0.00    -0.036 C 
ATOM      8  H   UNL A   1      28.968  29.579  22.872  1.00  0.00     0.028 H 
ATOM      9  H   UNL A   1      30.687  29.996  22.539  1.00  0.00     0.028 H 
BRANCH   7  10
ATOM     10  C   UNL A   1      30.423  28.377  23.823  1.00  0.00     0.018 C 
ATOM     11  H   UNL A   1      30.581  28.493  24.874  1.00  0.00     0.049 H 
ATOM     12  H   UNL A   1      29.657  27.672  23.576  1.00  0.00     0.049 H 
BRANCH  10  13
ATOM     13  N   UNL A   1      31.645  27.854  23.244  1.00  0.00    -0.352 N 
ATOM     14  O   UNL A   1      33.678  26.895  23.196  1.00  0.00    -0.270 OA
ATOM     15  C   UNL A   1      32.702  27.239  23.860  1.00  0.00     0.251 C 
ATOM     16  H   UNL A   1      31.727  27.956  22.267  1.00  0.00     0.163 HD
BRANCH  15  17
ATOM     17  C   UNL A   1      32.688  26.952  25.311  1.00  0.00     0.067 C 
ATOM     18  C   UNL A   1      33.530  26.018  25.769  1.00  0.00    -0.038 C 
ATOM     19  C   UNL A   1      31.528  27.312  26.183  1.00  0.00     0.224 C 
ATOM     20  C   UNL A   1      32.752  24.769  26.007  1.00  0.00     0.027 A 
ATOM     21  H   UNL A   1      34.541  26.141  25.930  1.00  0.00     0.064 H 
ATOM     22  O   UNL A   1      30.826  26.112  26.675  1.00  0.00    -0.475 OA
ATOM     23  H   UNL A   1      30.843  27.867  25.578  1.00  0.00     0.090 H 
ATOM     24  C   UNL A   1      31.422  24.891  26.437  1.00  0.00     0.128 A 
ATOM     25  C   UNL A   1      33.316  23.526  25.613  1.00  0.00     0.011 A 
ATOM     26  C   UNL A   1      30.619  23.760  26.480  1.00  0.00    -0.018 A 
ATOM     27  C   UNL A   1      32.477  22.409  25.629  1.00  0.00     0.049 A 
ATOM     28  C   UNL A   1      31.141  22.527  26.059  1.00  0.00    -0.039 A 
ATOM     29  H   UNL A   1      29.647  23.823  26.821  1.00  0.00     0.066 H 
ATOM     30  Cl  UNL A   1      33.003  20.873  25.044  1.00  0.00    -0.084 Cl
ATOM     31  H   UNL A   1      30.534  21.692  26.067  1.00  0.00     0.064 H 
BRANCH  19  32
ATOM     32  C   UNL A   1      31.958  28.223  27.361  1.00  0.00     0.429 C 
ATOM     33  F   UNL A   1      31.027  29.153  27.688  1.00  0.00    -0.167 F 
ATOM     34  F   UNL A   1      32.195  27.495  28.477  1.00  0.00    -0.167 F 
ATOM     35  F   UNL A   1      33.095  28.907  27.083  1.00  0.00    -0.167 F 
ENDBRANCH  19  32
BRANCH  25  36
ATOM     36  C   UNL A   1      34.701  23.582  25.093  1.00  0.00    -0.016 A 
ATOM     37  C   UNL A   1      35.760  23.190  25.931  1.00  0.00    -0.054 A 
ATOM     38  C   UNL A   1      34.897  23.548  23.699  1.00  0.00    -0.054 A 
ATOM     39  C   UNL A   1      36.908  22.609  25.390  1.00  0.00    -0.062 A 
ATOM     40  H   UNL A   1      35.688  23.331  26.950  1.00  0.00     0.063 H 
ATOM     41  C   UNL A   1      36.042  22.953  23.164  1.00  0.00    -0.062 A 
ATOM     42  H   UNL A   1      34.193  23.963  23.071  1.00  0.00     0.063 H 
ATOM     43  C   UNL A   1      37.028  22.451  24.011  1.00  0.00    -0.062 A 
ATOM     44  H   UNL A   1      37.670  22.296  26.013  1.00  0.00     0.062 H 
ATOM     45  H   UNL A   1      36.157  22.886  22.141  1.00  0.00     0.062 H 
ATOM     46  H   UNL A   1      37.847  21.962  23.616  1.00  0.00     0.062 H 
ENDBRANCH  25  36
ENDBRANCH  15  17
ENDBRANCH  10  13
ENDBRANCH   7  10
ENDBRANCH   4   7
ENDBRANCH   1   4
BRANCH   1  47
ATOM     47  C   UNL A   1      30.968  32.157  26.275  1.00  0.00    -0.036 C 
ATOM     48  H   UNL A   1      30.312  31.871  27.070  1.00  0.00     0.028 H 
ATOM     49  H   UNL A   1      30.635  32.998  25.704  1.00  0.00     0.028 H 
BRANCH  47  50
ATOM     50  C   UNL A   1      32.291  32.589  26.898  1.00  0.00     0.018 C 
ATOM     51  H   UNL A   1      33.060  32.502  26.158  1.00  0.00     0.049 H 
ATOM     52  H   UNL A   1      32.468  31.951  27.739  1.00  0.00     0.049 H 
BRANCH  50  53
ATOM     53  N   UNL A   1      32.277  33.956  27.390  1.00  0.00    -0.352 N 
ATOM     54  C   UNL A   1      33.050  34.569  28.342  1.00  0.00     0.251 C 
ATOM     55  H   UNL A   1      31.600  34.537  26.972  1.00  0.00     0.163 HD
ATOM     56  O   UNL A   1      32.778  35.720  28.693  1.00  0.00    -0.269 OA
BRANCH  54  57
ATOM     57  C   UNL A   1      34.193  33.874  28.980  1.00  0.00     0.039 A 
ATOM     58  C   UNL A   1      35.482  34.382  28.779  1.00  0.00    -0.049 A 
ATOM     59  C   UNL A   1      34.025  32.710  29.734  1.00  0.00    -0.049 A 
ATOM     60  C   UNL A   1      36.583  33.763  29.377  1.00  0.00    -0.053 A 
ATOM     61  H   UNL A   1      35.620  35.215  28.187  1.00  0.00     0.063 H 
ATOM     62  C   UNL A   1      35.112  32.142  30.400  1.00  0.00    -0.053 A 
ATOM     63  H   UNL A   1      33.094  32.270  29.801  1.00  0.00     0.063 H 
ATOM     64  C   UNL A   1      36.406  32.656  30.223  1.00  0.00    -0.014 A 
ATOM     65  H   UNL A   1      37.534  34.122  29.196  1.00  0.00     0.063 H 
ATOM     66  H   UNL A   1      34.965  31.336  31.027  1.00  0.00     0.063 H 
BRANCH  64  67
ATOM     67  C   UNL A   1      37.562  32.021  30.914  1.00  0.00     0.031 A 
ATOM     68  C   UNL A   1      38.357  30.940  30.231  1.00  0.00     0.074 A 
ATOM     69  C   UNL A   1      37.870  32.385  32.175  1.00  0.00     0.049 A 
ATOM     70  N   UNL A   1      39.357  30.229  30.690  1.00  0.00    -0.248 NA
ATOM     71  C   UNL A   1      37.961  30.595  28.857  1.00  0.00    -0.034 C 
ATOM     72  C   UNL A   1      37.155  33.389  32.964  1.00  0.00    -0.036 A 
ATOM     73  N   UNL A   1      38.859  31.944  33.021  1.00  0.00    -0.354 N 
ATOM     74  C   UNL A   1      39.699  29.352  29.670  1.00  0.00     0.074 A 
ATOM     75  C   UNL A   1      38.765  29.576  28.589  1.00  0.00    -0.034 C 
ATOM     76  H   UNL A   1      37.245  31.033  28.257  1.00  0.00     0.065 H 
ATOM     77  C   UNL A   1      37.741  33.505  34.165  1.00  0.00    -0.036 A 
ATOM     78  H   UNL A   1      36.331  33.923  32.646  1.00  0.00     0.065 H 
ATOM     79  C   UNL A   1      38.846  32.554  34.252  1.00  0.00     0.049 A 
ATOM     80  H   UNL A   1      39.516  31.255  32.768  1.00  0.00     0.167 HD
ATOM     81  C   UNL A   1      40.717  28.458  29.627  1.00  0.00     0.037 A 
ATOM     82  H   UNL A   1      38.728  29.015  27.724  1.00  0.00     0.065 H 
ATOM     83  H   UNL A   1      37.456  34.162  34.909  1.00  0.00     0.065 H 
ATOM     84  C   UNL A   1      39.626  32.362  35.333  1.00  0.00     0.037 A 
ATOM     85  C   UNL A   1      41.660  28.250  30.696  1.00  0.00     0.049 A 
ATOM     86  C   UNL A   1      40.737  31.346  35.265  1.00  0.00     0.074 A 
ATOM     87  C   UNL A   1      42.754  27.403  30.727  1.00  0.00    -0.036 A 
ATOM     88  N   UNL A   1      41.618  28.896  31.922  1.00  0.00    -0.354 N 
ATOM     89  N   UNL A   1      41.089  30.569  34.270  1.00  0.00    -0.248 NA
ATOM     90  C   UNL A   1      41.564  31.187  36.469  1.00  0.00    -0.034 C 
ATOM     91  C   UNL A   1      43.342  27.494  31.993  1.00  0.00    -0.036 A 
ATOM     92  H   UNL A   1      43.081  26.806  29.951  1.00  0.00     0.065 H 
ATOM     93  C   UNL A   1      42.653  28.446  32.728  1.00  0.00     0.049 A 
ATOM     94  H   UNL A   1      40.953  29.573  32.182  1.00  0.00     0.167 HD
ATOM     95  C   UNL A   1      42.194  29.855  34.715  1.00  0.00     0.074 A 
ATOM     96  C   UNL A   1      42.465  30.304  36.063  1.00  0.00    -0.034 C 
ATOM     97  H   UNL A   1      41.468  31.643  37.390  1.00  0.00     0.065 H 
ATOM     98  H   UNL A   1      44.151  26.946  32.324  1.00  0.00     0.065 H 
ATOM     99  C   UNL A   1      42.919  28.911  34.065  1.00  0.00     0.037 A 
ATOM    100  H   UNL A   1      43.260  29.979  36.637  1.00  0.00     0.065 H 
BRANCH  81 101
ATOM    101  C   UNL A   1      40.872  27.635  28.378  1.00  0.00     0.064 A 
ATOM    102  C   UNL A   1      41.693  28.051  27.319  1.00  0.00     0.173 A 
ATOM    103  C   UNL A   1      40.233  26.391  28.261  1.00  0.00     0.173 A 
ATOM    104  F   UNL A   1      42.320  29.236  27.376  1.00  0.00    -0.203 F 
ATOM    105  C   UNL A   1      41.846  27.267  26.178  1.00  0.00     0.198 A 
ATOM    106  C   UNL A   1      40.415  25.594  27.133  1.00  0.00     0.198 A 
ATOM    107  F   UNL A   1      39.441  25.941  29.245  1.00  0.00    -0.203 F 
ATOM    108  F   UNL A   1      42.597  27.708  25.160  1.00  0.00    -0.200 F 
ATOM    109  C   UNL A   1      41.215  26.036  26.089  1.00  0.00     0.200 A 
ATOM    110  F   UNL A   1      39.817  24.397  27.057  1.00  0.00    -0.200 F 
ATOM    111  F   UNL A   1      41.373  25.277  24.997  1.00  0.00    -0.200 F 
ENDBRANCH  81 101
BRANCH  84 112
ATOM    112  C   UNL A   1      39.396  33.152  36.573  1.00  0.00     0.064 A 
ATOM    113  C   UNL A   1      38.522  32.698  37.569  1.00  0.00     0.173 A 
ATOM    114  C   UNL A   1      40.027  34.388  36.776  1.00  0.00     0.173 A 
ATOM    115  F   UNL A   1      37.878  31.531  37.414  1.00  0.00    -0.203 F 
ATOM    116  C   UNL A   1      38.263  33.462  38.706  1.00  0.00     0.198 A 
ATOM    117  C   UNL A   1      39.794  35.136  37.928  1.00  0.00     0.198 A 
ATOM    118  F   UNL A   1      40.877  34.869  35.856  1.00  0.00    -0.203 F 
ATOM    119  F   UNL A   1      37.377  33.030  39.613  1.00  0.00    -0.200 F 
ATOM    120  C   UNL A   1      38.904  34.678  38.886  1.00  0.00     0.200 A 
ATOM    121  F   UNL A   1      40.427  36.304  38.105  1.00  0.00    -0.200 F 
ATOM    122  F   UNL A   1      38.654  35.414  39.978  1.00  0.00    -0.200 F 
ENDBRANCH  84 112
BRANCH  99 123
ATOM    123  C   UNL A   1      44.103  28.330  34.785  1.00  0.00     0.064 A 
ATOM    124  C   UNL A   1      44.003  27.157  35.547  1.00  0.00     0.173 A 
ATOM    125  C   UNL A   1      45.364  28.937  34.678  1.00  0.00     0.173 A 
ATOM    126  F   UNL A   1      42.818  26.546  35.695  1.00  0.00    -0.203 F 
ATOM    127  C   UNL A   1      45.115  26.630  36.199  1.00  0.00     0.198 A 
ATOM    128  C   UNL A   1      46.481  28.388  35.301  1.00  0.00     0.198 A 
ATOM    129  F   UNL A   1      45.517  30.056  33.954  1.00  0.00    -0.203 F 
ATOM    130  F   UNL A   1      44.984  25.539  36.966  1.00  0.00    -0.200 F 
ATOM    131  C   UNL A   1      46.353  27.240  36.069  1.00  0.00     0.200 A 
ATOM    132  F   UNL A   1      47.680  28.969  35.159  1.00  0.00    -0.200 F 
ATOM    133  F   UNL A   1      47.424  26.726  36.689  1.00  0.00    -0.200 F 
ENDBRANCH  99 123
ENDBRANCH  64  67
ENDBRANCH  54  57
ENDBRANCH  50  53
ENDBRANCH  47  50
ENDBRANCH   1  47
TORSDOF 15
ENDMDL
MODEL 7
REMARK VINA RESULT:     -11.9      4.023      8.929
REMARK SMILES O=C(NCCCCCCNC(=O)c1ccc(-c2c3nc(c(-c4c(F)c(F)c(F)c(F)c4F)c4ccc([nH]4)c(-c4c(F)c(F)c(F)c(F)c4F)c4nc(c(-c5c(F)c(F)c(F)c(F)c5F)c5ccc2[nH]5)C=C4)C=C3)cc1)C1=Cc2c(ccc(Cl)c2-c2ccccc2)O[C@H]1C(F)(F)F
REMARK SMILES IDX 7 1 6 4 5 7 4 10 3 13 1 14 2 15 76 17 77 18 92 19 78 20
REMARK SMILES IDX 91 22 79 24 84 25 80 26 82 27 81 28 83 30 93 32 94 33 95 34
REMARK SMILES IDX 96 35 85 36 86 37 90 38 87 39 89 41 88 43 8 47 9 50 10 53
REMARK SMILES IDX 11 54 12 56 13 57 14 58 75 59 15 60 74 62 16 64 17 67 18 68
REMARK SMILES IDX 68 69 19 70 73 71 67 72 69 73 20 74 72 75 66 77 65 79 21 81
REMARK SMILES IDX 53 84 33 85 52 86 34 87 37 88 51 89 70 90 35 91 36 93 50 95
REMARK SMILES IDX 71 96 38 99 22 101 23 102 31 103 24 104 25 105 29 106 32 107
REMARK SMILES IDX 26 108 27 109 30 110 28 111 54 112 55 113 63 114 56 115
REMARK SMILES IDX 57 116 61 117 64 118 58 119 59 120 62 121 60 122 39 123
REMARK SMILES IDX 40 124 48 125 41 126 42 127 46 128 49 129 43 130 44 131
REMARK SMILES IDX 47 132 45 133
REMARK H PARENT 7 2 7 3 6 5 6 6 5 8 5 9 4 11 4 12 3 16 77 21 92 23 80 29 81 31
REMARK H PARENT 86 40 90 42 87 44 89 45 88 46 8 48 8 49 9 51 9 52 10 55 14 61
REMARK H PARENT 75 63 15 65 74 66 73 76 67 78 69 80 72 82 66 83 34 92 37 94
REMARK H PARENT 70 97 35 98 71 100
REMARK Flexibility Score: inf
ROOT
ATOM      1  C   UNL A   1      31.482  28.240  27.050  1.00  0.00    -0.052 C 
ATOM      2  H   UNL A   1      32.243  28.531  27.744  1.00  0.00     0.027 H 
ATOM      3  H   UNL A   1      30.478  28.408  27.382  1.00  0.00     0.027 H 
ENDROOT
BRANCH   1   4
ATOM      4  C   UNL A   1      31.587  26.722  26.860  1.00  0.00    -0.052 C 
ATOM      5  H   UNL A   1      32.480  26.528  26.303  1.00  0.00     0.027 H 
ATOM      6  H   UNL A   1      31.573  26.319  27.852  1.00  0.00     0.027 H 
BRANCH   4   7
ATOM      7  C   UNL A   1      30.433  26.021  26.136  1.00  0.00    -0.036 C 
ATOM      8  H   UNL A   1      29.517  26.402  26.537  1.00  0.00     0.028 H 
ATOM      9  H   UNL A   1      30.583  26.230  25.096  1.00  0.00     0.028 H 
BRANCH   7  10
ATOM     10  C   UNL A   1      30.388  24.499  26.239  1.00  0.00     0.018 C 
ATOM     11  H   UNL A   1      29.432  24.223  26.633  1.00  0.00     0.049 H 
ATOM     12  H   UNL A   1      30.569  24.132  25.250  1.00  0.00     0.049 H 
BRANCH  10  13
ATOM     13  N   UNL A   1      31.406  23.899  27.078  1.00  0.00    -0.352 N 
ATOM     14  O   UNL A   1      33.377  22.953  27.599  1.00  0.00    -0.270 OA
ATOM     15  C   UNL A   1      32.666  23.479  26.746  1.00  0.00     0.251 C 
ATOM     16  H   UNL A   1      31.156  23.776  28.023  1.00  0.00     0.163 HD
BRANCH  15  17
ATOM     17  C   UNL A   1      33.206  23.665  25.381  1.00  0.00     0.067 C 
ATOM     18  C   UNL A   1      33.229  22.601  24.571  1.00  0.00    -0.038 C 
ATOM     19  C   UNL A   1      34.096  24.813  25.027  1.00  0.00     0.224 C 
ATOM     20  C   UNL A   1      34.625  22.080  24.528  1.00  0.00     0.027 A 
ATOM     21  H   UNL A   1      32.422  22.209  24.063  1.00  0.00     0.064 H 
ATOM     22  O   UNL A   1      35.468  24.362  24.726  1.00  0.00    -0.475 OA
ATOM     23  H   UNL A   1      34.141  25.450  25.885  1.00  0.00     0.090 H 
ATOM     24  C   UNL A   1      35.678  23.003  24.626  1.00  0.00     0.128 A 
ATOM     25  C   UNL A   1      34.833  20.676  24.583  1.00  0.00     0.011 A 
ATOM     26  C   UNL A   1      36.975  22.535  24.784  1.00  0.00    -0.018 A 
ATOM     27  C   UNL A   1      36.143  20.231  24.781  1.00  0.00     0.049 A 
ATOM     28  C   UNL A   1      37.202  21.154  24.879  1.00  0.00    -0.039 A 
ATOM     29  H   UNL A   1      37.765  23.196  24.829  1.00  0.00     0.066 H 
ATOM     30  Cl  UNL A   1      36.507  18.558  25.001  1.00  0.00    -0.084 Cl
ATOM     31  H   UNL A   1      38.164  20.809  25.024  1.00  0.00     0.064 H 
BRANCH  19  32
ATOM     32  C   UNL A   1      33.518  25.646  23.855  1.00  0.00     0.429 C 
ATOM     33  F   UNL A   1      34.077  25.347  22.657  1.00  0.00    -0.167 F 
ATOM     34  F   UNL A   1      32.185  25.445  23.727  1.00  0.00    -0.167 F 
ATOM     35  F   UNL A   1      33.704  26.976  24.039  1.00  0.00    -0.167 F 
ENDBRANCH  19  32
BRANCH  25  36
ATOM     36  C   UNL A   1      33.610  19.841  24.564  1.00  0.00    -0.016 A 
ATOM     37  C   UNL A   1      33.195  19.270  23.348  1.00  0.00    -0.054 A 
ATOM     38  C   UNL A   1      33.183  19.249  25.767  1.00  0.00    -0.054 A 
ATOM     39  C   UNL A   1      32.528  18.043  23.338  1.00  0.00    -0.062 A 
ATOM     40  H   UNL A   1      33.384  19.759  22.460  1.00  0.00     0.063 H 
ATOM     41  C   UNL A   1      32.528  18.016  25.751  1.00  0.00    -0.062 A 
ATOM     42  H   UNL A   1      33.353  19.728  26.664  1.00  0.00     0.063 H 
ATOM     43  C   UNL A   1      32.235  17.398  24.537  1.00  0.00    -0.062 A 
ATOM     44  H   UNL A   1      32.251  17.615  22.440  1.00  0.00     0.062 H 
ATOM     45  H   UNL A   1      32.261  17.563  26.638  1.00  0.00     0.062 H 
ATOM     46  H   UNL A   1      31.802  16.461  24.527  1.00  0.00     0.062 H 
ENDBRANCH  25  36
ENDBRANCH  15  17
ENDBRANCH  10  13
ENDBRANCH   7  10
ENDBRANCH   4   7
ENDBRANCH   1   4
BRANCH   1  47
ATOM     47  C   UNL A   1      31.637  29.114  25.804  1.00  0.00    -0.036 C 
ATOM     48  H   UNL A   1      30.779  29.751  25.745  1.00  0.00     0.028 H 
ATOM     49  H   UNL A   1      31.738  28.429  24.988  1.00  0.00     0.028 H 
BRANCH  47  50
ATOM     50  C   UNL A   1      32.877  29.998  25.746  1.00  0.00     0.018 C 
ATOM     51  H   UNL A   1      33.194  30.074  24.727  1.00  0.00     0.049 H 
ATOM     52  H   UNL A   1      33.620  29.543  26.367  1.00  0.00     0.049 H 
BRANCH  50  53
ATOM     53  N   UNL A   1      32.652  31.340  26.258  1.00  0.00    -0.352 N 
ATOM     54  C   UNL A   1      33.294  32.034  27.251  1.00  0.00     0.251 C 
ATOM     55  H   UNL A   1      31.917  31.829  25.822  1.00  0.00     0.163 HD
ATOM     56  O   UNL A   1      32.849  33.129  27.608  1.00  0.00    -0.269 OA
BRANCH  54  57
ATOM     57  C   UNL A   1      34.497  31.492  27.925  1.00  0.00     0.039 A 
ATOM     58  C   UNL A   1      35.598  32.336  28.109  1.00  0.00    -0.049 A 
ATOM     59  C   UNL A   1      34.578  30.160  28.339  1.00  0.00    -0.049 A 
ATOM     60  C   UNL A   1      36.746  31.865  28.755  1.00  0.00    -0.053 A 
ATOM     61  H   UNL A   1      35.564  33.309  27.767  1.00  0.00     0.063 H 
ATOM     62  C   UNL A   1      35.688  29.715  29.057  1.00  0.00    -0.053 A 
ATOM     63  H   UNL A   1      33.814  29.504  28.114  1.00  0.00     0.063 H 
ATOM     64  C   UNL A   1      36.789  30.559  29.267  1.00  0.00    -0.014 A 
ATOM     65  H   UNL A   1      37.567  32.483  28.856  1.00  0.00     0.063 H 
ATOM     66  H   UNL A   1      35.701  28.755  29.437  1.00  0.00     0.063 H 
BRANCH  64  67
ATOM     67  C   UNL A   1      37.981  30.061  30.009  1.00  0.00     0.031 A 
ATOM     68  C   UNL A   1      38.246  30.520  31.418  1.00  0.00     0.074 A 
ATOM     69  C   UNL A   1      38.850  29.231  29.399  1.00  0.00     0.049 A 
ATOM     70  N   UNL A   1      39.258  30.246  32.204  1.00  0.00    -0.248 NA
ATOM     71  C   UNL A   1      37.256  31.428  32.017  1.00  0.00    -0.034 C 
ATOM     72  C   UNL A   1      38.731  28.743  28.024  1.00  0.00    -0.036 A 
ATOM     73  N   UNL A   1      40.012  28.656  29.853  1.00  0.00    -0.354 N 
ATOM     74  C   UNL A   1      39.030  30.951  33.377  1.00  0.00     0.074 A 
ATOM     75  C   UNL A   1      37.816  31.714  33.183  1.00  0.00    -0.034 C 
ATOM     76  H   UNL A   1      36.357  31.756  31.630  1.00  0.00     0.065 H 
ATOM     77  C   UNL A   1      39.761  27.927  27.755  1.00  0.00    -0.036 A 
ATOM     78  H   UNL A   1      37.973  28.988  27.367  1.00  0.00     0.065 H 
ATOM     79  C   UNL A   1      40.639  27.867  28.920  1.00  0.00     0.049 A 
ATOM     80  H   UNL A   1      40.364  28.798  30.762  1.00  0.00     0.167 HD
ATOM     81  C   UNL A   1      39.751  30.944  34.525  1.00  0.00     0.037 A 
ATOM     82  H   UNL A   1      37.438  32.392  33.862  1.00  0.00     0.065 H 
ATOM     83  H   UNL A   1      39.909  27.423  26.866  1.00  0.00     0.065 H 
ATOM     84  C   UNL A   1      41.796  27.180  28.989  1.00  0.00     0.037 A 
ATOM     85  C   UNL A   1      40.948  30.168  34.725  1.00  0.00     0.049 A 
ATOM     86  C   UNL A   1      42.590  27.207  30.270  1.00  0.00     0.074 A 
ATOM     87  C   UNL A   1      41.722  30.057  35.867  1.00  0.00    -0.036 A 
ATOM     88  N   UNL A   1      41.544  29.372  33.758  1.00  0.00    -0.354 N 
ATOM     89  N   UNL A   1      42.328  27.828  31.394  1.00  0.00    -0.248 NA
ATOM     90  C   UNL A   1      43.837  26.430  30.292  1.00  0.00    -0.034 C 
ATOM     91  C   UNL A   1      42.818  29.238  35.575  1.00  0.00    -0.036 A 
ATOM     92  H   UNL A   1      41.525  30.501  36.777  1.00  0.00     0.065 H 
ATOM     93  C   UNL A   1      42.692  28.787  34.271  1.00  0.00     0.049 A 
ATOM     94  H   UNL A   1      41.204  29.242  32.844  1.00  0.00     0.167 HD
ATOM     95  C   UNL A   1      43.357  27.492  32.265  1.00  0.00     0.074 A 
ATOM     96  C   UNL A   1      44.238  26.598  31.545  1.00  0.00    -0.034 C 
ATOM     97  H   UNL A   1      44.285  25.894  29.532  1.00  0.00     0.065 H 
ATOM     98  H   UNL A   1      43.589  29.008  36.221  1.00  0.00     0.065 H 
ATOM     99  C   UNL A   1      43.554  27.889  33.546  1.00  0.00     0.037 A 
ATOM    100  H   UNL A   1      45.072  26.147  31.953  1.00  0.00     0.065 H 
BRANCH  81 101
ATOM    101  C   UNL A   1      39.266  31.800  35.661  1.00  0.00     0.064 A 
ATOM    102  C   UNL A   1      38.353  31.314  36.611  1.00  0.00     0.173 A 
ATOM    103  C   UNL A   1      39.758  33.103  35.834  1.00  0.00     0.173 A 
ATOM    104  F   UNL A   1      37.845  30.078  36.489  1.00  0.00    -0.203 F 
ATOM    105  C   UNL A   1      37.930  32.110  37.673  1.00  0.00     0.198 A 
ATOM    106  C   UNL A   1      39.358  33.884  36.916  1.00  0.00     0.198 A 
ATOM    107  F   UNL A   1      40.636  33.616  34.960  1.00  0.00    -0.203 F 
ATOM    108  F   UNL A   1      37.021  31.640  38.539  1.00  0.00    -0.200 F 
ATOM    109  C   UNL A   1      38.439  33.390  37.830  1.00  0.00     0.200 A 
ATOM    110  F   UNL A   1      39.864  35.115  37.075  1.00  0.00    -0.200 F 
ATOM    111  F   UNL A   1      38.041  34.149  38.859  1.00  0.00    -0.200 F 
ENDBRANCH  81 101
BRANCH  84 112
ATOM    112  C   UNL A   1      42.275  26.398  27.817  1.00  0.00     0.064 A 
ATOM    113  C   UNL A   1      41.809  25.099  27.574  1.00  0.00     0.173 A 
ATOM    114  C   UNL A   1      43.226  26.924  26.930  1.00  0.00     0.173 A 
ATOM    115  F   UNL A   1      40.915  24.542  28.405  1.00  0.00    -0.203 F 
ATOM    116  C   UNL A   1      42.298  24.344  26.509  1.00  0.00     0.198 A 
ATOM    117  C   UNL A   1      43.688  26.182  25.846  1.00  0.00     0.198 A 
ATOM    118  F   UNL A   1      43.703  28.165  27.113  1.00  0.00    -0.203 F 
ATOM    119  F   UNL A   1      41.879  23.083  26.336  1.00  0.00    -0.200 F 
ATOM    120  C   UNL A   1      43.232  24.889  25.642  1.00  0.00     0.200 A 
ATOM    121  F   UNL A   1      44.581  26.718  25.002  1.00  0.00    -0.200 F 
ATOM    122  F   UNL A   1      43.704  24.163  24.619  1.00  0.00    -0.200 F 
ENDBRANCH  84 112
BRANCH  99 123
ATOM    123  C   UNL A   1      44.745  27.326  34.270  1.00  0.00     0.064 A 
ATOM    124  C   UNL A   1      44.679  26.114  34.973  1.00  0.00     0.173 A 
ATOM    125  C   UNL A   1      45.980  27.992  34.225  1.00  0.00     0.173 A 
ATOM    126  F   UNL A   1      43.519  25.445  35.059  1.00  0.00    -0.203 F 
ATOM    127  C   UNL A   1      45.797  25.605  35.628  1.00  0.00     0.198 A 
ATOM    128  C   UNL A   1      47.104  27.462  34.851  1.00  0.00     0.198 A 
ATOM    129  F   UNL A   1      46.100  29.150  33.559  1.00  0.00    -0.203 F 
ATOM    130  F   UNL A   1      45.696  24.474  36.339  1.00  0.00    -0.200 F 
ATOM    131  C   UNL A   1      47.010  26.274  35.560  1.00  0.00     0.200 A 
ATOM    132  F   UNL A   1      48.279  28.101  34.769  1.00  0.00    -0.200 F 
ATOM    133  F   UNL A   1      48.087  25.778  36.184  1.00  0.00    -0.200 F 
ENDBRANCH  99 123
ENDBRANCH  64  67
ENDBRANCH  54  57
ENDBRANCH  50  53
ENDBRANCH  47  50
ENDBRANCH   1  47
TORSDOF 15
ENDMDL
MODEL 8
REMARK VINA RESULT:     -11.9      3.838      8.824
REMARK SMILES O=C(NCCCCCCNC(=O)c1ccc(-c2c3nc(c(-c4c(F)c(F)c(F)c(F)c4F)c4ccc([nH]4)c(-c4c(F)c(F)c(F)c(F)c4F)c4nc(c(-c5c(F)c(F)c(F)c(F)c5F)c5ccc2[nH]5)C=C4)C=C3)cc1)C1=Cc2c(ccc(Cl)c2-c2ccccc2)O[C@H]1C(F)(F)F
REMARK SMILES IDX 7 1 6 4 5 7 4 10 3 13 1 14 2 15 76 17 77 18 92 19 78 20
REMARK SMILES IDX 91 22 79 24 84 25 80 26 82 27 81 28 83 30 93 32 94 33 95 34
REMARK SMILES IDX 96 35 85 36 86 37 90 38 87 39 89 41 88 43 8 47 9 50 10 53
REMARK SMILES IDX 11 54 12 56 13 57 14 58 75 59 15 60 74 62 16 64 17 67 18 68
REMARK SMILES IDX 68 69 19 70 73 71 67 72 69 73 20 74 72 75 66 77 65 79 21 81
REMARK SMILES IDX 53 84 33 85 52 86 34 87 37 88 51 89 70 90 35 91 36 93 50 95
REMARK SMILES IDX 71 96 38 99 22 101 23 102 31 103 24 104 25 105 29 106 32 107
REMARK SMILES IDX 26 108 27 109 30 110 28 111 54 112 55 113 63 114 56 115
REMARK SMILES IDX 57 116 61 117 64 118 58 119 59 120 62 121 60 122 39 123
REMARK SMILES IDX 40 124 48 125 41 126 42 127 46 128 49 129 43 130 44 131
REMARK SMILES IDX 47 132 45 133
REMARK H PARENT 7 2 7 3 6 5 6 6 5 8 5 9 4 11 4 12 3 16 77 21 92 23 80 29 81 31
REMARK H PARENT 86 40 90 42 87 44 89 45 88 46 8 48 8 49 9 51 9 52 10 55 14 61
REMARK H PARENT 75 63 15 65 74 66 73 76 67 78 69 80 72 82 66 83 34 92 37 94
REMARK H PARENT 70 97 35 98 71 100
REMARK Flexibility Score: inf
ROOT
ATOM      1  C   UNL A   1      31.900  26.440  26.393  1.00  0.00    -0.052 C 
ATOM      2  H   UNL A   1      32.080  26.540  27.443  1.00  0.00     0.027 H 
ATOM      3  H   UNL A   1      30.929  26.752  26.067  1.00  0.00     0.027 H 
ENDROOT
BRANCH   1   4
ATOM      4  C   UNL A   1      31.972  24.947  26.053  1.00  0.00    -0.052 C 
ATOM      5  H   UNL A   1      32.113  24.863  24.995  1.00  0.00     0.027 H 
ATOM      6  H   UNL A   1      32.775  24.567  26.651  1.00  0.00     0.027 H 
BRANCH   4   7
ATOM      7  C   UNL A   1      30.763  24.081  26.424  1.00  0.00    -0.036 C 
ATOM      8  H   UNL A   1      30.330  24.491  27.313  1.00  0.00     0.028 H 
ATOM      9  H   UNL A   1      30.123  24.107  25.566  1.00  0.00     0.028 H 
BRANCH   7  10
ATOM     10  C   UNL A   1      31.038  22.602  26.679  1.00  0.00     0.018 C 
ATOM     11  H   UNL A   1      30.202  22.198  27.210  1.00  0.00     0.049 H 
ATOM     12  H   UNL A   1      31.191  22.161  25.716  1.00  0.00     0.049 H 
BRANCH  10  13
ATOM     13  N   UNL A   1      32.234  22.311  27.444  1.00  0.00    -0.352 N 
ATOM     14  O   UNL A   1      34.229  21.385  27.909  1.00  0.00    -0.270 OA
ATOM     15  C   UNL A   1      33.318  21.548  27.101  1.00  0.00     0.251 C 
ATOM     16  H   UNL A   1      32.274  22.721  28.339  1.00  0.00     0.163 HD
BRANCH  15  17
ATOM     17  C   UNL A   1      33.432  20.929  25.761  1.00  0.00     0.067 C 
ATOM     18  C   UNL A   1      34.343  21.431  24.920  1.00  0.00    -0.038 C 
ATOM     19  C   UNL A   1      32.333  20.107  25.167  1.00  0.00     0.224 C 
ATOM     20  C   UNL A   1      33.635  22.290  23.929  1.00  0.00     0.027 A 
ATOM     21  H   UNL A   1      35.358  21.253  24.951  1.00  0.00     0.064 H 
ATOM     22  O   UNL A   1      31.719  20.780  24.007  1.00  0.00    -0.475 OA
ATOM     23  H   UNL A   1      31.581  20.001  25.921  1.00  0.00     0.090 H 
ATOM     24  C   UNL A   1      32.340  21.917  23.537  1.00  0.00     0.128 A 
ATOM     25  C   UNL A   1      34.213  23.537  23.569  1.00  0.00     0.011 A 
ATOM     26  C   UNL A   1      31.587  22.796  22.770  1.00  0.00    -0.018 A 
ATOM     27  C   UNL A   1      33.421  24.419  22.828  1.00  0.00     0.049 A 
ATOM     28  C   UNL A   1      32.120  24.049  22.434  1.00  0.00    -0.039 A 
ATOM     29  H   UNL A   1      30.644  22.529  22.447  1.00  0.00     0.066 H 
ATOM     30  Cl  UNL A   1      33.956  26.015  22.447  1.00  0.00    -0.084 Cl
ATOM     31  H   UNL A   1      31.549  24.711  21.886  1.00  0.00     0.064 H 
BRANCH  19  32
ATOM     32  C   UNL A   1      32.821  18.686  24.789  1.00  0.00     0.429 C 
ATOM     33  F   UNL A   1      32.778  17.811  25.823  1.00  0.00    -0.167 F 
ATOM     34  F   UNL A   1      32.064  18.160  23.798  1.00  0.00    -0.167 F 
ATOM     35  F   UNL A   1      34.103  18.691  24.351  1.00  0.00    -0.167 F 
ENDBRANCH  19  32
BRANCH  25  36
ATOM     36  C   UNL A   1      35.549  23.819  24.142  1.00  0.00    -0.016 A 
ATOM     37  C   UNL A   1      35.632  24.448  25.397  1.00  0.00    -0.054 A 
ATOM     38  C   UNL A   1      36.645  23.057  23.697  1.00  0.00    -0.054 A 
ATOM     39  C   UNL A   1      36.700  24.172  26.253  1.00  0.00    -0.062 A 
ATOM     40  H   UNL A   1      34.901  25.115  25.686  1.00  0.00     0.063 H 
ATOM     41  C   UNL A   1      37.704  22.774  24.562  1.00  0.00    -0.062 A 
ATOM     42  H   UNL A   1      36.667  22.706  22.727  1.00  0.00     0.063 H 
ATOM     43  C   UNL A   1      37.710  23.302  25.852  1.00  0.00    -0.062 A 
ATOM     44  H   UNL A   1      36.740  24.615  27.185  1.00  0.00     0.062 H 
ATOM     45  H   UNL A   1      38.481  22.173  24.246  1.00  0.00     0.062 H 
ATOM     46  H   UNL A   1      38.464  23.047  26.509  1.00  0.00     0.062 H 
ENDBRANCH  25  36
ENDBRANCH  15  17
ENDBRANCH  10  13
ENDBRANCH   7  10
ENDBRANCH   4   7
ENDBRANCH   1   4
BRANCH   1  47
ATOM     47  C   UNL A   1      32.876  27.370  25.669  1.00  0.00    -0.036 C 
ATOM     48  H   UNL A   1      32.307  28.169  25.241  1.00  0.00     0.028 H 
ATOM     49  H   UNL A   1      33.380  26.752  24.955  1.00  0.00     0.028 H 
BRANCH  47  50
ATOM     50  C   UNL A   1      33.980  27.990  26.519  1.00  0.00     0.018 C 
ATOM     51  H   UNL A   1      34.877  28.028  25.936  1.00  0.00     0.049 H 
ATOM     52  H   UNL A   1      34.091  27.377  27.389  1.00  0.00     0.049 H 
BRANCH  50  53
ATOM     53  N   UNL A   1      33.669  29.334  26.975  1.00  0.00    -0.352 N 
ATOM     54  C   UNL A   1      34.411  30.218  27.716  1.00  0.00     0.251 C 
ATOM     55  H   UNL A   1      32.779  29.663  26.711  1.00  0.00     0.163 HD
ATOM     56  O   UNL A   1      33.893  31.271  28.097  1.00  0.00    -0.269 OA
BRANCH  54  57
ATOM     57  C   UNL A   1      35.816  29.930  28.090  1.00  0.00     0.039 A 
ATOM     58  C   UNL A   1      36.078  29.423  29.368  1.00  0.00    -0.049 A 
ATOM     59  C   UNL A   1      36.881  30.188  27.223  1.00  0.00    -0.049 A 
ATOM     60  C   UNL A   1      37.388  29.124  29.752  1.00  0.00    -0.053 A 
ATOM     61  H   UNL A   1      35.301  29.271  30.030  1.00  0.00     0.063 H 
ATOM     62  C   UNL A   1      38.178  29.810  27.574  1.00  0.00    -0.053 A 
ATOM     63  H   UNL A   1      36.708  30.658  26.321  1.00  0.00     0.063 H 
ATOM     64  C   UNL A   1      38.449  29.282  28.846  1.00  0.00    -0.014 A 
ATOM     65  H   UNL A   1      37.578  28.784  30.708  1.00  0.00     0.063 H 
ATOM     66  H   UNL A   1      38.945  29.922  26.893  1.00  0.00     0.063 H 
BRANCH  64  67
ATOM     67  C   UNL A   1      39.842  28.912  29.218  1.00  0.00     0.031 A 
ATOM     68  C   UNL A   1      40.677  29.842  30.060  1.00  0.00     0.074 A 
ATOM     69  C   UNL A   1      40.375  27.761  28.762  1.00  0.00     0.049 A 
ATOM     70  N   UNL A   1      41.926  29.724  30.437  1.00  0.00    -0.248 NA
ATOM     71  C   UNL A   1      40.030  31.081  30.519  1.00  0.00    -0.034 C 
ATOM     72  C   UNL A   1      39.688  26.793  27.906  1.00  0.00    -0.036 A 
ATOM     73  N   UNL A   1      41.621  27.213  28.946  1.00  0.00    -0.354 N 
ATOM     74  C   UNL A   1      42.213  30.871  31.164  1.00  0.00     0.074 A 
ATOM     75  C   UNL A   1      41.030  31.702  31.127  1.00  0.00    -0.034 C 
ATOM     76  H   UNL A   1      39.052  31.386  30.399  1.00  0.00     0.065 H 
ATOM     77  C   UNL A   1      40.509  25.761  27.659  1.00  0.00    -0.036 A 
ATOM     78  H   UNL A   1      38.724  26.889  27.550  1.00  0.00     0.065 H 
ATOM     79  C   UNL A   1      41.797  26.013  28.301  1.00  0.00     0.049 A 
ATOM     80  H   UNL A   1      42.323  27.640  29.490  1.00  0.00     0.167 HD
ATOM     81  C   UNL A   1      43.351  31.192  31.827  1.00  0.00     0.037 A 
ATOM     82  H   UNL A   1      40.972  32.653  31.522  1.00  0.00     0.065 H 
ATOM     83  H   UNL A   1      40.270  24.924  27.105  1.00  0.00     0.065 H 
ATOM     84  C   UNL A   1      42.876  25.210  28.224  1.00  0.00     0.037 A 
ATOM     85  C   UNL A   1      44.521  30.355  31.881  1.00  0.00     0.049 A 
ATOM     86  C   UNL A   1      44.136  25.602  28.953  1.00  0.00     0.074 A 
ATOM     87  C   UNL A   1      45.705  30.570  32.566  1.00  0.00    -0.036 A 
ATOM     88  N   UNL A   1      44.655  29.141  31.223  1.00  0.00    -0.354 N 
ATOM     89  N   UNL A   1      44.372  26.660  29.690  1.00  0.00    -0.248 NA
ATOM     90  C   UNL A   1      45.277  24.682  28.843  1.00  0.00    -0.034 C 
ATOM     91  C   UNL A   1      46.576  29.515  32.277  1.00  0.00    -0.036 A 
ATOM     92  H   UNL A   1      45.909  31.371  33.183  1.00  0.00     0.065 H 
ATOM     93  C   UNL A   1      45.913  28.610  31.465  1.00  0.00     0.049 A 
ATOM     94  H   UNL A   1      43.961  28.720  30.667  1.00  0.00     0.167 HD
ATOM     95  C   UNL A   1      45.672  26.517  30.157  1.00  0.00     0.074 A 
ATOM     96  C   UNL A   1      46.168  25.263  29.635  1.00  0.00    -0.034 C 
ATOM     97  H   UNL A   1      45.363  23.813  28.294  1.00  0.00     0.065 H 
ATOM     98  H   UNL A   1      47.548  29.426  32.612  1.00  0.00     0.065 H 
ATOM     99  C   UNL A   1      46.390  27.352  30.948  1.00  0.00     0.037 A 
ATOM    100  H   UNL A   1      47.097  24.868  29.851  1.00  0.00     0.065 H 
BRANCH  81 101
ATOM    101  C   UNL A   1      43.388  32.507  32.555  1.00  0.00     0.064 A 
ATOM    102  C   UNL A   1      43.807  33.687  31.922  1.00  0.00     0.173 A 
ATOM    103  C   UNL A   1      42.952  32.598  33.886  1.00  0.00     0.173 A 
ATOM    104  F   UNL A   1      44.243  33.655  30.653  1.00  0.00    -0.203 F 
ATOM    105  C   UNL A   1      43.814  34.903  32.601  1.00  0.00     0.198 A 
ATOM    106  C   UNL A   1      42.928  33.821  34.551  1.00  0.00     0.198 A 
ATOM    107  F   UNL A   1      42.535  31.503  34.538  1.00  0.00    -0.203 F 
ATOM    108  F   UNL A   1      44.264  36.008  31.989  1.00  0.00    -0.200 F 
ATOM    109  C   UNL A   1      43.366  34.971  33.911  1.00  0.00     0.200 A 
ATOM    110  F   UNL A   1      42.480  33.888  35.813  1.00  0.00    -0.200 F 
ATOM    111  F   UNL A   1      43.362  36.143  34.559  1.00  0.00    -0.200 F 
ENDBRANCH  81 101
BRANCH  84 112
ATOM    112  C   UNL A   1      42.817  23.949  27.437  1.00  0.00     0.064 A 
ATOM    113  C   UNL A   1      42.414  22.744  28.029  1.00  0.00     0.173 A 
ATOM    114  C   UNL A   1      43.186  23.916  26.084  1.00  0.00     0.173 A 
ATOM    115  F   UNL A   1      42.071  22.717  29.325  1.00  0.00    -0.203 F 
ATOM    116  C   UNL A   1      42.411  21.550  27.308  1.00  0.00     0.198 A 
ATOM    117  C   UNL A   1      43.151  22.730  25.355  1.00  0.00     0.198 A 
ATOM    118  F   UNL A   1      43.576  25.041  25.466  1.00  0.00    -0.203 F 
ATOM    119  F   UNL A   1      42.079  20.404  27.916  1.00  0.00    -0.200 F 
ATOM    120  C   UNL A   1      42.774  21.546  25.970  1.00  0.00     0.200 A 
ATOM    121  F   UNL A   1      43.488  22.733  24.057  1.00  0.00    -0.200 F 
ATOM    122  F   UNL A   1      42.773  20.399  25.277  1.00  0.00    -0.200 F 
ENDBRANCH  84 112
BRANCH  99 123
ATOM    123  C   UNL A   1      47.775  26.918  31.335  1.00  0.00     0.064 A 
ATOM    124  C   UNL A   1      48.008  26.086  32.440  1.00  0.00     0.173 A 
ATOM    125  C   UNL A   1      48.881  27.309  30.564  1.00  0.00     0.173 A 
ATOM    126  F   UNL A   1      46.988  25.695  33.219  1.00  0.00    -0.203 F 
ATOM    127  C   UNL A   1      49.300  25.687  32.776  1.00  0.00     0.198 A 
ATOM    128  C   UNL A   1      50.166  26.879  30.881  1.00  0.00     0.198 A 
ATOM    129  F   UNL A   1      48.714  28.097  29.491  1.00  0.00    -0.203 F 
ATOM    130  F   UNL A   1      49.504  24.937  33.868  1.00  0.00    -0.200 F 
ATOM    131  C   UNL A   1      50.375  26.076  31.992  1.00  0.00     0.200 A 
ATOM    132  F   UNL A   1      51.202  27.242  30.113  1.00  0.00    -0.200 F 
ATOM    133  F   UNL A   1      51.616  25.683  32.312  1.00  0.00    -0.200 F 
ENDBRANCH  99 123
ENDBRANCH  64  67
ENDBRANCH  54  57
ENDBRANCH  50  53
ENDBRANCH  47  50
ENDBRANCH   1  47
TORSDOF 15
ENDMDL
MODEL 9
REMARK VINA RESULT:     -11.9      3.996      7.660
REMARK SMILES O=C(NCCCCCCNC(=O)c1ccc(-c2c3nc(c(-c4c(F)c(F)c(F)c(F)c4F)c4ccc([nH]4)c(-c4c(F)c(F)c(F)c(F)c4F)c4nc(c(-c5c(F)c(F)c(F)c(F)c5F)c5ccc2[nH]5)C=C4)C=C3)cc1)C1=Cc2c(ccc(Cl)c2-c2ccccc2)O[C@H]1C(F)(F)F
REMARK SMILES IDX 7 1 6 4 5 7 4 10 3 13 1 14 2 15 76 17 77 18 92 19 78 20
REMARK SMILES IDX 91 22 79 24 84 25 80 26 82 27 81 28 83 30 93 32 94 33 95 34
REMARK SMILES IDX 96 35 85 36 86 37 90 38 87 39 89 41 88 43 8 47 9 50 10 53
REMARK SMILES IDX 11 54 12 56 13 57 14 58 75 59 15 60 74 62 16 64 17 67 18 68
REMARK SMILES IDX 68 69 19 70 73 71 67 72 69 73 20 74 72 75 66 77 65 79 21 81
REMARK SMILES IDX 53 84 33 85 52 86 34 87 37 88 51 89 70 90 35 91 36 93 50 95
REMARK SMILES IDX 71 96 38 99 22 101 23 102 31 103 24 104 25 105 29 106 32 107
REMARK SMILES IDX 26 108 27 109 30 110 28 111 54 112 55 113 63 114 56 115
REMARK SMILES IDX 57 116 61 117 64 118 58 119 59 120 62 121 60 122 39 123
REMARK SMILES IDX 40 124 48 125 41 126 42 127 46 128 49 129 43 130 44 131
REMARK SMILES IDX 47 132 45 133
REMARK H PARENT 7 2 7 3 6 5 6 6 5 8 5 9 4 11 4 12 3 16 77 21 92 23 80 29 81 31
REMARK H PARENT 86 40 90 42 87 44 89 45 88 46 8 48 8 49 9 51 9 52 10 55 14 61
REMARK H PARENT 75 63 15 65 74 66 73 76 67 78 69 80 72 82 66 83 34 92 37 94
REMARK H PARENT 70 97 35 98 71 100
REMARK Flexibility Score: inf
ROOT
ATOM      1  C   UNL A   1      31.383  30.902  25.817  1.00  0.00    -0.052 C 
ATOM      2  H   UNL A   1      30.461  30.372  25.930  1.00  0.00     0.027 H 
ATOM      3  H   UNL A   1      31.654  31.132  24.808  1.00  0.00     0.027 H 
ENDROOT
BRANCH   1   4
ATOM      4  C   UNL A   1      32.505  29.991  26.330  1.00  0.00    -0.052 C 
ATOM      5  H   UNL A   1      32.992  29.568  25.476  1.00  0.00     0.027 H 
ATOM      6  H   UNL A   1      33.119  30.625  26.937  1.00  0.00     0.027 H 
BRANCH   4   7
ATOM      7  C   UNL A   1      32.106  28.833  27.251  1.00  0.00    -0.036 C 
ATOM      8  H   UNL A   1      32.707  28.897  28.134  1.00  0.00     0.028 H 
ATOM      9  H   UNL A   1      31.056  28.954  27.419  1.00  0.00     0.028 H 
BRANCH   7  10
ATOM     10  C   UNL A   1      32.264  27.426  26.683  1.00  0.00     0.018 C 
ATOM     11  H   UNL A   1      32.309  27.503  25.617  1.00  0.00     0.049 H 
ATOM     12  H   UNL A   1      33.154  27.029  27.125  1.00  0.00     0.049 H 
BRANCH  10  13
ATOM     13  N   UNL A   1      31.206  26.493  27.018  1.00  0.00    -0.352 N 
ATOM     14  O   UNL A   1      29.395  25.201  26.695  1.00  0.00    -0.270 OA
ATOM     15  C   UNL A   1      30.240  25.953  26.213  1.00  0.00     0.251 C 
ATOM     16  H   UNL A   1      31.178  26.208  27.961  1.00  0.00     0.163 HD
BRANCH  15  17
ATOM     17  C   UNL A   1      30.200  26.234  24.760  1.00  0.00     0.067 C 
ATOM     18  C   UNL A   1      30.498  25.231  23.925  1.00  0.00    -0.038 C 
ATOM     19  C   UNL A   1      30.281  27.623  24.215  1.00  0.00     0.224 C 
ATOM     20  C   UNL A   1      31.891  25.433  23.435  1.00  0.00     0.027 A 
ATOM     21  H   UNL A   1      29.872  24.454  23.665  1.00  0.00     0.064 H 
ATOM     22  O   UNL A   1      31.545  27.849  23.490  1.00  0.00    -0.475 OA
ATOM     23  H   UNL A   1      30.260  28.289  25.053  1.00  0.00     0.090 H 
ATOM     24  C   UNL A   1      32.344  26.750  23.258  1.00  0.00     0.128 A 
ATOM     25  C   UNL A   1      32.755  24.309  23.349  1.00  0.00     0.011 A 
ATOM     26  C   UNL A   1      33.688  26.971  22.991  1.00  0.00    -0.018 A 
ATOM     27  C   UNL A   1      34.110  24.561  23.117  1.00  0.00     0.049 A 
ATOM     28  C   UNL A   1      34.569  25.881  22.939  1.00  0.00    -0.039 A 
ATOM     29  H   UNL A   1      34.036  27.929  22.830  1.00  0.00     0.066 H 
ATOM     30  Cl  UNL A   1      35.281  23.294  23.127  1.00  0.00    -0.084 Cl
ATOM     31  H   UNL A   1      35.573  26.050  22.767  1.00  0.00     0.064 H 
BRANCH  19  32
ATOM     32  C   UNL A   1      29.061  27.959  23.320  1.00  0.00     0.429 C 
ATOM     33  F   UNL A   1      28.015  27.116  23.501  1.00  0.00    -0.167 F 
ATOM     34  F   UNL A   1      28.606  29.210  23.567  1.00  0.00    -0.167 F 
ATOM     35  F   UNL A   1      29.370  27.901  22.002  1.00  0.00    -0.167 F 
ENDBRANCH  19  32
BRANCH  25  36
ATOM     36  C   UNL A   1      32.141  22.998  23.656  1.00  0.00    -0.016 A 
ATOM     37  C   UNL A   1      32.089  22.017  22.649  1.00  0.00    -0.054 A 
ATOM     38  C   UNL A   1      32.073  22.586  25.000  1.00  0.00    -0.054 A 
ATOM     39  C   UNL A   1      32.153  20.663  22.981  1.00  0.00    -0.062 A 
ATOM     40  H   UNL A   1      32.004  22.300  21.661  1.00  0.00     0.063 H 
ATOM     41  C   UNL A   1      32.151  21.231  25.326  1.00  0.00    -0.062 A 
ATOM     42  H   UNL A   1      31.965  23.289  25.747  1.00  0.00     0.063 H 
ATOM     43  C   UNL A   1      32.229  20.274  24.316  1.00  0.00    -0.062 A 
ATOM     44  H   UNL A   1      32.144  19.949  22.235  1.00  0.00     0.062 H 
ATOM     45  H   UNL A   1      32.151  20.938  26.315  1.00  0.00     0.062 H 
ATOM     46  H   UNL A   1      32.342  19.277  24.558  1.00  0.00     0.062 H 
ENDBRANCH  25  36
ENDBRANCH  15  17
ENDBRANCH  10  13
ENDBRANCH   7  10
ENDBRANCH   4   7
ENDBRANCH   1   4
BRANCH   1  47
ATOM     47  C   UNL A   1      31.218  32.261  26.501  1.00  0.00    -0.036 C 
ATOM     48  H   UNL A   1      30.445  32.164  27.234  1.00  0.00     0.028 H 
ATOM     49  H   UNL A   1      30.999  32.950  25.712  1.00  0.00     0.028 H 
BRANCH  47  50
ATOM     50  C   UNL A   1      32.452  32.823  27.199  1.00  0.00     0.018 C 
ATOM     51  H   UNL A   1      33.279  32.771  26.522  1.00  0.00     0.049 H 
ATOM     52  H   UNL A   1      32.614  32.236  28.078  1.00  0.00     0.049 H 
BRANCH  50  53
ATOM     53  N   UNL A   1      32.293  34.203  27.626  1.00  0.00    -0.352 N 
ATOM     54  C   UNL A   1      32.956  34.920  28.588  1.00  0.00     0.251 C 
ATOM     55  H   UNL A   1      31.593  34.704  27.147  1.00  0.00     0.163 HD
ATOM     56  O   UNL A   1      32.567  36.057  28.871  1.00  0.00    -0.269 OA
BRANCH  54  57
ATOM     57  C   UNL A   1      34.118  34.355  29.316  1.00  0.00     0.039 A 
ATOM     58  C   UNL A   1      33.891  33.695  30.529  1.00  0.00    -0.049 A 
ATOM     59  C   UNL A   1      35.426  34.500  28.848  1.00  0.00    -0.049 A 
ATOM     60  C   UNL A   1      34.959  33.135  31.235  1.00  0.00    -0.053 A 
ATOM     61  H   UNL A   1      32.932  33.622  30.903  1.00  0.00     0.063 H 
ATOM     62  C   UNL A   1      36.481  33.869  29.509  1.00  0.00    -0.053 A 
ATOM     63  H   UNL A   1      35.613  35.074  28.011  1.00  0.00     0.063 H 
ATOM     64  C   UNL A   1      36.262  33.186  30.715  1.00  0.00    -0.014 A 
ATOM     65  H   UNL A   1      34.789  32.681  32.147  1.00  0.00     0.063 H 
ATOM     66  H   UNL A   1      37.431  33.905  29.108  1.00  0.00     0.063 H 
BRANCH  64  67
ATOM     67  C   UNL A   1      37.401  32.543  31.426  1.00  0.00     0.031 A 
ATOM     68  C   UNL A   1      38.133  31.385  30.800  1.00  0.00     0.074 A 
ATOM     69  C   UNL A   1      37.750  32.971  32.655  1.00  0.00     0.049 A 
ATOM     70  N   UNL A   1      39.109  30.659  31.287  1.00  0.00    -0.248 NA
ATOM     71  C   UNL A   1      37.695  30.972  29.458  1.00  0.00    -0.034 C 
ATOM     72  C   UNL A   1      37.097  34.056  33.390  1.00  0.00    -0.036 A 
ATOM     73  N   UNL A   1      38.735  32.540  33.511  1.00  0.00    -0.354 N 
ATOM     74  C   UNL A   1      39.391  29.704  30.320  1.00  0.00     0.074 A 
ATOM     75  C   UNL A   1      38.446  29.902  29.243  1.00  0.00    -0.034 C 
ATOM     76  H   UNL A   1      36.987  31.404  28.844  1.00  0.00     0.065 H 
ATOM     77  C   UNL A   1      37.712  34.221  34.571  1.00  0.00    -0.036 A 
ATOM     78  H   UNL A   1      36.292  34.606  33.052  1.00  0.00     0.065 H 
ATOM     79  C   UNL A   1      38.774  33.226  34.700  1.00  0.00     0.049 A 
ATOM     80  H   UNL A   1      39.356  31.807  33.292  1.00  0.00     0.167 HD
ATOM     81  C   UNL A   1      40.366  28.763  30.317  1.00  0.00     0.037 A 
ATOM     82  H   UNL A   1      38.366  29.290  28.416  1.00  0.00     0.065 H 
ATOM     83  H   UNL A   1      37.472  34.935  35.277  1.00  0.00     0.065 H 
ATOM     84  C   UNL A   1      39.566  33.068  35.778  1.00  0.00     0.037 A 
ATOM     85  C   UNL A   1      41.320  28.580  31.381  1.00  0.00     0.049 A 
ATOM     86  C   UNL A   1      40.629  31.999  35.756  1.00  0.00     0.074 A 
ATOM     87  C   UNL A   1      42.375  27.687  31.448  1.00  0.00    -0.036 A 
ATOM     88  N   UNL A   1      41.331  29.304  32.564  1.00  0.00    -0.354 N 
ATOM     89  N   UNL A   1      40.926  31.145  34.807  1.00  0.00    -0.248 NA
ATOM     90  C   UNL A   1      41.472  31.879  36.954  1.00  0.00    -0.034 C 
ATOM     91  C   UNL A   1      42.991  27.831  32.695  1.00  0.00    -0.036 A 
ATOM     92  H   UNL A   1      42.659  27.028  30.706  1.00  0.00     0.065 H 
ATOM     93  C   UNL A   1      42.361  28.858  33.379  1.00  0.00     0.049 A 
ATOM     94  H   UNL A   1      40.703  30.026  32.791  1.00  0.00     0.167 HD
ATOM     95  C   UNL A   1      42.006  30.410  35.279  1.00  0.00     0.074 A 
ATOM     96  C   UNL A   1      42.324  30.931  36.591  1.00  0.00    -0.034 C 
ATOM     97  H   UNL A   1      41.415  32.397  37.845  1.00  0.00     0.065 H 
ATOM     98  H   UNL A   1      43.782  27.269  33.047  1.00  0.00     0.065 H 
ATOM     99  C   UNL A   1      42.674  29.395  34.678  1.00  0.00     0.037 A 
ATOM    100  H   UNL A   1      43.114  30.607  37.170  1.00  0.00     0.065 H 
BRANCH  81 101
ATOM    101  C   UNL A   1      40.459  27.856  29.121  1.00  0.00     0.064 A 
ATOM    102  C   UNL A   1      39.697  26.681  29.028  1.00  0.00     0.173 A 
ATOM    103  C   UNL A   1      41.278  28.192  28.033  1.00  0.00     0.173 A 
ATOM    104  F   UNL A   1      38.903  26.309  30.044  1.00  0.00    -0.203 F 
ATOM    105  C   UNL A   1      39.774  25.862  27.905  1.00  0.00     0.198 A 
ATOM    106  C   UNL A   1      41.327  27.388  26.896  1.00  0.00     0.198 A 
ATOM    107  F   UNL A   1      42.023  29.307  28.065  1.00  0.00    -0.203 F 
ATOM    108  F   UNL A   1      39.073  24.720  27.861  1.00  0.00    -0.200 F 
ATOM    109  C   UNL A   1      40.581  26.220  26.836  1.00  0.00     0.200 A 
ATOM    110  F   UNL A   1      42.096  27.744  25.858  1.00  0.00    -0.200 F 
ATOM    111  F   UNL A   1      40.645  25.438  25.751  1.00  0.00    -0.200 F 
ENDBRANCH  81 101
BRANCH  84 112
ATOM    112  C   UNL A   1      39.397  33.944  36.968  1.00  0.00     0.064 A 
ATOM    113  C   UNL A   1      39.984  35.216  37.020  1.00  0.00     0.173 A 
ATOM    114  C   UNL A   1      38.667  33.520  38.088  1.00  0.00     0.173 A 
ATOM    115  F   UNL A   1      40.711  35.661  35.983  1.00  0.00    -0.203 F 
ATOM    116  C   UNL A   1      39.874  36.017  38.156  1.00  0.00     0.198 A 
ATOM    117  C   UNL A   1      38.529  34.334  39.210  1.00  0.00     0.198 A 
ATOM    118  F   UNL A   1      38.080  32.314  38.091  1.00  0.00    -0.203 F 
ATOM    119  F   UNL A   1      40.496  37.202  38.200  1.00  0.00    -0.200 F 
ATOM    120  C   UNL A   1      39.141  35.577  39.247  1.00  0.00     0.200 A 
ATOM    121  F   UNL A   1      37.806  33.912  40.257  1.00  0.00    -0.200 F 
ATOM    122  F   UNL A   1      39.036  36.346  40.340  1.00  0.00    -0.200 F 
ENDBRANCH  84 112
BRANCH  99 123
ATOM    123  C   UNL A   1      43.845  28.807  35.414  1.00  0.00     0.064 A 
ATOM    124  C   UNL A   1      45.150  29.286  35.232  1.00  0.00     0.173 A 
ATOM    125  C   UNL A   1      43.650  27.773  36.344  1.00  0.00     0.173 A 
ATOM    126  F   UNL A   1      45.394  30.263  34.344  1.00  0.00    -0.203 F 
ATOM    127  C   UNL A   1      46.221  28.734  35.931  1.00  0.00     0.198 A 
ATOM    128  C   UNL A   1      44.717  27.247  37.067  1.00  0.00     0.198 A 
ATOM    129  F   UNL A   1      42.421  27.283  36.563  1.00  0.00    -0.203 F 
ATOM    130  F   UNL A   1      47.466  29.171  35.700  1.00  0.00    -0.200 F 
ATOM    131  C   UNL A   1      46.002  27.722  36.853  1.00  0.00     0.200 A 
ATOM    132  F   UNL A   1      44.501  26.281  37.970  1.00  0.00    -0.200 F 
ATOM    133  F   UNL A   1      47.032  27.197  37.532  1.00  0.00    -0.200 F 
ENDBRANCH  99 123
ENDBRANCH  64  67
ENDBRANCH  54  57
ENDBRANCH  50  53
ENDBRANCH  47  50
ENDBRANCH   1  47
TORSDOF 15
ENDMDL
MODEL 10
REMARK VINA RESULT:     -11.8      3.558      5.381
REMARK SMILES O=C(NCCCCCCNC(=O)c1ccc(-c2c3nc(c(-c4c(F)c(F)c(F)c(F)c4F)c4ccc([nH]4)c(-c4c(F)c(F)c(F)c(F)c4F)c4nc(c(-c5c(F)c(F)c(F)c(F)c5F)c5ccc2[nH]5)C=C4)C=C3)cc1)C1=Cc2c(ccc(Cl)c2-c2ccccc2)O[C@H]1C(F)(F)F
REMARK SMILES IDX 7 1 6 4 5 7 4 10 3 13 1 14 2 15 76 17 77 18 92 19 78 20
REMARK SMILES IDX 91 22 79 24 84 25 80 26 82 27 81 28 83 30 93 32 94 33 95 34
REMARK SMILES IDX 96 35 85 36 86 37 90 38 87 39 89 41 88 43 8 47 9 50 10 53
REMARK SMILES IDX 11 54 12 56 13 57 14 58 75 59 15 60 74 62 16 64 17 67 18 68
REMARK SMILES IDX 68 69 19 70 73 71 67 72 69 73 20 74 72 75 66 77 65 79 21 81
REMARK SMILES IDX 53 84 33 85 52 86 34 87 37 88 51 89 70 90 35 91 36 93 50 95
REMARK SMILES IDX 71 96 38 99 22 101 23 102 31 103 24 104 25 105 29 106 32 107
REMARK SMILES IDX 26 108 27 109 30 110 28 111 54 112 55 113 63 114 56 115
REMARK SMILES IDX 57 116 61 117 64 118 58 119 59 120 62 121 60 122 39 123
REMARK SMILES IDX 40 124 48 125 41 126 42 127 46 128 49 129 43 130 44 131
REMARK SMILES IDX 47 132 45 133
REMARK H PARENT 7 2 7 3 6 5 6 6 5 8 5 9 4 11 4 12 3 16 77 21 92 23 80 29 81 31
REMARK H PARENT 86 40 90 42 87 44 89 45 88 46 8 48 8 49 9 51 9 52 10 55 14 61
REMARK H PARENT 75 63 15 65 74 66 73 76 67 78 69 80 72 82 66 83 34 92 37 94
REMARK H PARENT 70 97 35 98 71 100
REMARK Flexibility Score: inf
ROOT
ATOM      1  C   UNL A   1      37.050  19.894  24.980  1.00  0.00    -0.052 C 
ATOM      2  H   UNL A   1      36.987  20.552  25.821  1.00  0.00     0.027 H 
ATOM      3  H   UNL A   1      37.198  20.377  24.036  1.00  0.00     0.027 H 
ENDROOT
BRANCH   1   4
ATOM      4  C   UNL A   1      35.698  19.181  24.851  1.00  0.00    -0.052 C 
ATOM      5  H   UNL A   1      35.647  18.763  23.867  1.00  0.00     0.027 H 
ATOM      6  H   UNL A   1      35.687  18.468  25.650  1.00  0.00     0.027 H 
BRANCH   4   7
ATOM      7  C   UNL A   1      34.435  20.023  25.059  1.00  0.00    -0.036 C 
ATOM      8  H   UNL A   1      34.185  20.473  24.120  1.00  0.00     0.028 H 
ATOM      9  H   UNL A   1      33.700  19.342  25.434  1.00  0.00     0.028 H 
BRANCH   7  10
ATOM     10  C   UNL A   1      34.522  21.137  26.099  1.00  0.00     0.018 C 
ATOM     11  H   UNL A   1      34.672  20.684  27.056  1.00  0.00     0.049 H 
ATOM     12  H   UNL A   1      35.331  21.766  25.788  1.00  0.00     0.049 H 
BRANCH  10  13
ATOM     13  N   UNL A   1      33.361  22.000  26.190  1.00  0.00    -0.352 N 
ATOM     14  O   UNL A   1      32.119  23.850  25.899  1.00  0.00    -0.270 OA
ATOM     15  C   UNL A   1      33.173  23.256  25.680  1.00  0.00     0.251 C 
ATOM     16  H   UNL A   1      32.597  21.628  26.690  1.00  0.00     0.163 HD
BRANCH  15  17
ATOM     17  C   UNL A   1      34.204  23.913  24.846  1.00  0.00     0.067 C 
ATOM     18  C   UNL A   1      34.379  25.231  24.997  1.00  0.00    -0.038 C 
ATOM     19  C   UNL A   1      34.722  23.294  23.587  1.00  0.00     0.224 C 
ATOM     20  C   UNL A   1      33.710  25.921  23.858  1.00  0.00     0.027 A 
ATOM     21  H   UNL A   1      34.889  25.689  25.767  1.00  0.00     0.064 H 
ATOM     22  O   UNL A   1      34.307  24.059  22.397  1.00  0.00    -0.475 OA
ATOM     23  H   UNL A   1      34.289  22.319  23.518  1.00  0.00     0.090 H 
ATOM     24  C   UNL A   1      33.700  25.279  22.611  1.00  0.00     0.128 A 
ATOM     25  C   UNL A   1      32.956  27.096  24.119  1.00  0.00     0.011 A 
ATOM     26  C   UNL A   1      32.923  25.803  21.587  1.00  0.00    -0.018 A 
ATOM     27  C   UNL A   1      32.152  27.583  23.083  1.00  0.00     0.049 A 
ATOM     28  C   UNL A   1      32.139  26.940  21.830  1.00  0.00    -0.039 A 
ATOM     29  H   UNL A   1      32.924  25.362  20.654  1.00  0.00     0.066 H 
ATOM     30  Cl  UNL A   1      31.086  28.919  23.317  1.00  0.00    -0.084 Cl
ATOM     31  H   UNL A   1      31.541  27.313  21.075  1.00  0.00     0.064 H 
BRANCH  19  32
ATOM     32  C   UNL A   1      36.262  23.123  23.626  1.00  0.00     0.429 C 
ATOM     33  F   UNL A   1      36.772  23.140  24.882  1.00  0.00    -0.167 F 
ATOM     34  F   UNL A   1      36.634  21.947  23.067  1.00  0.00    -0.167 F 
ATOM     35  F   UNL A   1      36.898  24.106  22.945  1.00  0.00    -0.167 F 
ENDBRANCH  19  32
BRANCH  25  36
ATOM     36  C   UNL A   1      32.999  27.595  25.512  1.00  0.00    -0.016 A 
ATOM     37  C   UNL A   1      33.831  28.686  25.819  1.00  0.00    -0.054 A 
ATOM     38  C   UNL A   1      31.906  27.323  26.357  1.00  0.00    -0.054 A 
ATOM     39  C   UNL A   1      33.476  29.581  26.830  1.00  0.00    -0.062 A 
ATOM     40  H   UNL A   1      34.709  28.826  25.296  1.00  0.00     0.063 H 
ATOM     41  C   UNL A   1      31.547  28.229  27.357  1.00  0.00    -0.062 A 
ATOM     42  H   UNL A   1      31.369  26.452  26.236  1.00  0.00     0.063 H 
ATOM     43  C   UNL A   1      32.312  29.375  27.566  1.00  0.00    -0.062 A 
ATOM     44  H   UNL A   1      34.076  30.396  27.031  1.00  0.00     0.062 H 
ATOM     45  H   UNL A   1      30.716  28.049  27.940  1.00  0.00     0.062 H 
ATOM     46  H   UNL A   1      32.014  30.071  28.268  1.00  0.00     0.062 H 
ENDBRANCH  25  36
ENDBRANCH  15  17
ENDBRANCH  10  13
ENDBRANCH   7  10
ENDBRANCH   4   7
ENDBRANCH   1   4
BRANCH   1  47
ATOM     47  C   UNL A   1      38.288  19.017  25.173  1.00  0.00    -0.036 C 
ATOM     48  H   UNL A   1      38.588  18.661  24.209  1.00  0.00     0.028 H 
ATOM     49  H   UNL A   1      37.988  18.250  25.856  1.00  0.00     0.028 H 
BRANCH  47  50
ATOM     50  C   UNL A   1      39.498  19.684  25.818  1.00  0.00     0.018 C 
ATOM     51  H   UNL A   1      39.247  19.941  26.826  1.00  0.00     0.049 H 
ATOM     52  H   UNL A   1      39.736  20.545  25.230  1.00  0.00     0.049 H 
BRANCH  50  53
ATOM     53  N   UNL A   1      40.679  18.837  25.839  1.00  0.00    -0.352 N 
ATOM     54  C   UNL A   1      41.997  19.152  26.049  1.00  0.00     0.251 C 
ATOM     55  H   UNL A   1      40.504  17.883  25.675  1.00  0.00     0.163 HD
ATOM     56  O   UNL A   1      42.858  18.280  25.897  1.00  0.00    -0.269 OA
BRANCH  54  57
ATOM     57  C   UNL A   1      42.418  20.520  26.431  1.00  0.00     0.039 A 
ATOM     58  C   UNL A   1      42.852  21.393  25.427  1.00  0.00    -0.049 A 
ATOM     59  C   UNL A   1      42.433  20.946  27.762  1.00  0.00    -0.049 A 
ATOM     60  C   UNL A   1      43.241  22.697  25.746  1.00  0.00    -0.053 A 
ATOM     61  H   UNL A   1      42.885  21.072  24.446  1.00  0.00     0.063 H 
ATOM     62  C   UNL A   1      42.740  22.271  28.071  1.00  0.00    -0.053 A 
ATOM     63  H   UNL A   1      42.216  20.278  28.518  1.00  0.00     0.063 H 
ATOM     64  C   UNL A   1      43.156  23.161  27.068  1.00  0.00    -0.014 A 
ATOM     65  H   UNL A   1      43.593  23.323  25.005  1.00  0.00     0.063 H 
ATOM     66  H   UNL A   1      42.662  22.601  29.046  1.00  0.00     0.063 H 
BRANCH  64  67
ATOM     67  C   UNL A   1      43.511  24.565  27.417  1.00  0.00     0.031 A 
ATOM     68  C   UNL A   1      44.953  24.997  27.460  1.00  0.00     0.074 A 
ATOM     69  C   UNL A   1      42.539  25.441  27.739  1.00  0.00     0.049 A 
ATOM     70  N   UNL A   1      45.463  26.155  27.798  1.00  0.00    -0.248 NA
ATOM     71  C   UNL A   1      45.959  23.985  27.098  1.00  0.00    -0.034 C 
ATOM     72  C   UNL A   1      41.107  25.139  27.776  1.00  0.00    -0.036 A 
ATOM     73  N   UNL A   1      42.607  26.762  28.107  1.00  0.00    -0.354 N 
ATOM     74  C   UNL A   1      46.840  26.008  27.699  1.00  0.00     0.074 A 
ATOM     75  C   UNL A   1      47.092  24.633  27.328  1.00  0.00    -0.034 C 
ATOM     76  H   UNL A   1      45.818  23.023  26.754  1.00  0.00     0.065 H 
ATOM     77  C   UNL A   1      40.432  26.246  28.121  1.00  0.00    -0.036 A 
ATOM     78  H   UNL A   1      40.685  24.221  27.568  1.00  0.00     0.065 H 
ATOM     79  C   UNL A   1      41.383  27.325  28.375  1.00  0.00     0.049 A 
ATOM     80  H   UNL A   1      43.454  27.260  28.174  1.00  0.00     0.167 HD
ATOM     81  C   UNL A   1      47.807  26.940  27.875  1.00  0.00     0.037 A 
ATOM     82  H   UNL A   1      48.030  24.211  27.253  1.00  0.00     0.065 H 
ATOM     83  H   UNL A   1      39.405  26.322  28.197  1.00  0.00     0.065 H 
ATOM     84  C   UNL A   1      41.061  28.566  28.789  1.00  0.00     0.037 A 
ATOM     85  C   UNL A   1      47.554  28.315  28.224  1.00  0.00     0.049 A 
ATOM     86  C   UNL A   1      42.158  29.578  28.998  1.00  0.00     0.074 A 
ATOM     87  C   UNL A   1      48.464  29.347  28.377  1.00  0.00    -0.036 A 
ATOM     88  N   UNL A   1      46.299  28.847  28.476  1.00  0.00    -0.354 N 
ATOM     89  N   UNL A   1      43.452  29.442  28.838  1.00  0.00    -0.248 NA
ATOM     90  C   UNL A   1      41.747  30.919  29.438  1.00  0.00    -0.034 C 
ATOM     91  C   UNL A   1      47.765  30.491  28.776  1.00  0.00    -0.036 A 
ATOM     92  H   UNL A   1      49.482  29.284  28.224  1.00  0.00     0.065 H 
ATOM     93  C   UNL A   1      46.413  30.189  28.809  1.00  0.00     0.049 A 
ATOM     94  H   UNL A   1      45.452  28.348  28.425  1.00  0.00     0.167 HD
ATOM     95  C   UNL A   1      44.005  30.683  29.126  1.00  0.00     0.074 A 
ATOM     96  C   UNL A   1      42.905  31.564  29.452  1.00  0.00    -0.034 C 
ATOM     97  H   UNL A   1      40.805  31.266  29.675  1.00  0.00     0.065 H 
ATOM     98  H   UNL A   1      48.185  31.405  29.007  1.00  0.00     0.065 H 
ATOM     99  C   UNL A   1      45.308  31.058  29.120  1.00  0.00     0.037 A 
ATOM    100  H   UNL A   1      43.007  32.569  29.668  1.00  0.00     0.065 H 
BRANCH  81 101
ATOM    101  C   UNL A   1      49.235  26.510  27.689  1.00  0.00     0.064 A 
ATOM    102  C   UNL A   1      49.791  26.335  26.412  1.00  0.00     0.173 A 
ATOM    103  C   UNL A   1      50.074  26.322  28.799  1.00  0.00     0.173 A 
ATOM    104  F   UNL A   1      49.032  26.493  25.318  1.00  0.00    -0.203 F 
ATOM    105  C   UNL A   1      51.123  25.959  26.254  1.00  0.00     0.198 A 
ATOM    106  C   UNL A   1      51.414  25.980  28.636  1.00  0.00     0.198 A 
ATOM    107  F   UNL A   1      49.597  26.482  30.042  1.00  0.00    -0.203 F 
ATOM    108  F   UNL A   1      51.617  25.750  25.026  1.00  0.00    -0.200 F 
ATOM    109  C   UNL A   1      51.936  25.791  27.364  1.00  0.00     0.200 A 
ATOM    110  F   UNL A   1      52.202  25.833  29.710  1.00  0.00    -0.200 F 
ATOM    111  F   UNL A   1      53.219  25.441  27.211  1.00  0.00    -0.200 F 
ENDBRANCH  81 101
BRANCH  84 112
ATOM    112  C   UNL A   1      39.638  28.932  29.025  1.00  0.00     0.064 A 
ATOM    113  C   UNL A   1      39.055  28.791  30.291  1.00  0.00     0.173 A 
ATOM    114  C   UNL A   1      38.825  29.406  27.985  1.00  0.00     0.173 A 
ATOM    115  F   UNL A   1      39.783  28.321  31.315  1.00  0.00    -0.203 F 
ATOM    116  C   UNL A   1      37.707  29.080  30.503  1.00  0.00     0.198 A 
ATOM    117  C   UNL A   1      37.487  29.727  28.204  1.00  0.00     0.198 A 
ATOM    118  F   UNL A   1      39.332  29.565  26.753  1.00  0.00    -0.203 F 
ATOM    119  F   UNL A   1      37.162  28.878  31.710  1.00  0.00    -0.200 F 
ATOM    120  C   UNL A   1      36.927  29.554  29.460  1.00  0.00     0.200 A 
ATOM    121  F   UNL A   1      36.740  30.200  27.196  1.00  0.00    -0.200 F 
ATOM    122  F   UNL A   1      35.631  29.830  29.662  1.00  0.00    -0.200 F 
ENDBRANCH  84 112
BRANCH  99 123
ATOM    123  C   UNL A   1      45.615  32.495  29.434  1.00  0.00     0.064 A 
ATOM    124  C   UNL A   1      45.887  32.925  30.741  1.00  0.00     0.173 A 
ATOM    125  C   UNL A   1      45.675  33.448  28.404  1.00  0.00     0.173 A 
ATOM    126  F   UNL A   1      45.828  32.058  31.764  1.00  0.00    -0.203 F 
ATOM    127  C   UNL A   1      46.179  34.260  31.010  1.00  0.00     0.198 A 
ATOM    128  C   UNL A   1      46.003  34.774  28.672  1.00  0.00     0.198 A 
ATOM    129  F   UNL A   1      45.433  33.089  27.135  1.00  0.00    -0.203 F 
ATOM    130  F   UNL A   1      46.382  34.658  32.273  1.00  0.00    -0.200 F 
ATOM    131  C   UNL A   1      46.246  35.181  29.975  1.00  0.00     0.200 A 
ATOM    132  F   UNL A   1      46.084  35.658  27.668  1.00  0.00    -0.200 F 
ATOM    133  F   UNL A   1      46.536  36.463  30.234  1.00  0.00    -0.200 F 
ENDBRANCH  99 123
ENDBRANCH  64  67
ENDBRANCH  54  57
ENDBRANCH  50  53
ENDBRANCH  47  50
ENDBRANCH   1  47
TORSDOF 15
ENDMDL
