MODEL 1
REMARK VINA RESULT:     -13.2      0.000      0.000
REMARK SMILES CCc1cc(C(=O)c2[nH]c3cc(Cl)ccc3c2CC(=O)NCCCCCCNC(=O)c2ccc(-c3c4nc(c(-c5c(F)c(F)c(F)c(F)c5F)c5ccc([nH]5)c(-c5c(F)c(F)c(F)c(F)c5F)c5nc(c(-c6c(F)c(F)c(F)c(F)c6F)c6ccc3[nH]6)C=C5)C=C4)cc2)ncc1Cl
REMARK SMILES IDX 23 1 22 4 21 7 19 8 20 9 18 11 17 14 8 15 9 16 10 17 16 19
REMARK SMILES IDX 11 20 15 21 12 22 14 24 13 26 6 28 7 29 5 30 3 31 4 32 96 33
REMARK SMILES IDX 95 35 97 36 94 37 2 39 1 42 24 46 25 49 26 52 27 55 28 58
REMARK SMILES IDX 29 59 30 61 31 62 32 63 93 64 33 65 92 67 34 69 35 72 36 73
REMARK SMILES IDX 86 74 37 75 91 76 85 77 87 78 38 79 90 80 84 82 83 84 39 86
REMARK SMILES IDX 71 89 51 90 70 91 52 92 55 93 69 94 88 95 53 96 54 98 68 100
REMARK SMILES IDX 89 101 56 104 40 106 41 107 49 108 42 109 43 110 47 111
REMARK SMILES IDX 50 112 44 113 45 114 48 115 46 116 72 117 73 118 81 119
REMARK SMILES IDX 74 120 75 121 79 122 82 123 76 124 77 125 80 126 78 127
REMARK SMILES IDX 57 128 58 129 66 130 59 131 60 132 64 133 67 134 61 135
REMARK SMILES IDX 62 136 65 137 63 138
REMARK H PARENT 23 2 23 3 22 5 22 6 21 10 18 12 18 13 9 18 11 23 15 25 14 27
REMARK H PARENT 4 34 95 38 2 40 2 41 1 43 1 44 1 45 24 47 24 48 25 50 25 51
REMARK H PARENT 26 53 26 54 27 56 27 57 28 60 32 66 93 68 33 70 92 71 91 81
REMARK H PARENT 85 83 87 85 90 87 84 88 52 97 55 99 88 102 53 103 89 105
REMARK Flexibility Score: inf
ROOT
ATOM      1  C   UNL A   1      31.700  28.609  27.361  1.00  0.00    -0.036 C 
ATOM      2  H   UNL A   1      32.106  28.350  28.317  1.00  0.00     0.028 H 
ATOM      3  H   UNL A   1      30.643  28.769  27.377  1.00  0.00     0.028 H 
ENDROOT
BRANCH   1   4
ATOM      4  C   UNL A   1      31.940  27.435  26.412  1.00  0.00     0.017 C 
ATOM      5  H   UNL A   1      31.559  27.693  25.445  1.00  0.00     0.049 H 
ATOM      6  H   UNL A   1      32.993  27.250  26.385  1.00  0.00     0.049 H 
BRANCH   4   7
ATOM      7  N   UNL A   1      31.292  26.217  26.855  1.00  0.00    -0.356 N 
ATOM      8  C   UNL A   1      31.653  24.916  26.647  1.00  0.00     0.224 C 
ATOM      9  O   UNL A   1      31.002  24.032  27.208  1.00  0.00    -0.275 OA
ATOM     10  H   UNL A   1      30.472  26.346  27.384  1.00  0.00     0.163 HD
BRANCH   8  11
ATOM     11  C   UNL A   1      32.891  24.571  25.834  1.00  0.00     0.055 C 
ATOM     12  H   UNL A   1      33.438  25.474  25.662  1.00  0.00     0.042 H 
ATOM     13  H   UNL A   1      33.435  23.849  26.407  1.00  0.00     0.042 H 
BRANCH  11  14
ATOM     14  C   UNL A   1      32.616  23.931  24.502  1.00  0.00    -0.002 A 
ATOM     15  C   UNL A   1      32.350  24.569  23.294  1.00  0.00     0.093 A 
ATOM     16  N   UNL A   1      32.268  23.598  22.324  1.00  0.00    -0.351 N 
ATOM     17  C   UNL A   1      32.304  22.347  22.887  1.00  0.00     0.048 A 
ATOM     18  H   UNL A   1      32.195  23.776  21.358  1.00  0.00     0.167 HD
ATOM     19  C   UNL A   1      32.520  22.521  24.253  1.00  0.00     0.004 A 
ATOM     20  C   UNL A   1      32.174  21.088  22.289  1.00  0.00    -0.019 A 
ATOM     21  C   UNL A   1      32.607  21.371  25.068  1.00  0.00    -0.051 A 
ATOM     22  C   UNL A   1      32.260  19.970  23.123  1.00  0.00     0.043 A 
ATOM     23  H   UNL A   1      32.020  20.990  21.274  1.00  0.00     0.066 H 
ATOM     24  C   UNL A   1      32.472  20.101  24.491  1.00  0.00    -0.043 A 
ATOM     25  H   UNL A   1      32.768  21.465  26.083  1.00  0.00     0.063 H 
ATOM     26  Cl  UNL A   1      32.100  18.398  22.437  1.00  0.00    -0.084 Cl
ATOM     27  H   UNL A   1      32.532  19.259  25.085  1.00  0.00     0.064 H 
BRANCH  15  28
ATOM     28  C   UNL A   1      32.239  25.985  22.994  1.00  0.00     0.227 C 
ATOM     29  O   UNL A   1      33.217  26.630  22.625  1.00  0.00    -0.285 OA
BRANCH  28  30
ATOM     30  C   UNL A   1      30.871  26.625  23.075  1.00  0.00     0.113 A 
ATOM     31  C   UNL A   1      29.342  28.483  22.712  1.00  0.00    -0.026 A 
ATOM     32  C   UNL A   1      30.615  27.899  22.559  1.00  0.00    -0.028 A 
ATOM     33  C   UNL A   1      28.355  27.733  23.360  1.00  0.00     0.062 A 
ATOM     34  H   UNL A   1      31.362  28.413  22.066  1.00  0.00     0.065 H 
ATOM     35  C   UNL A   1      28.691  26.469  23.835  1.00  0.00     0.047 A 
ATOM     36  Cl  UNL A   1      26.748  28.300  23.606  1.00  0.00    -0.082 Cl
ATOM     37  N   UNL A   1      29.919  25.908  23.721  1.00  0.00    -0.251 NA
ATOM     38  H   UNL A   1      27.955  25.921  24.307  1.00  0.00     0.086 H 
BRANCH  31  39
ATOM     39  C   UNL A   1      29.125  29.892  22.206  1.00  0.00    -0.029 C 
ATOM     40  H   UNL A   1      29.962  30.168  21.600  1.00  0.00     0.031 H 
ATOM     41  H   UNL A   1      28.209  29.892  21.651  1.00  0.00     0.031 H 
BRANCH  39  42
ATOM     42  C   UNL A   1      28.978  30.913  23.325  1.00  0.00    -0.061 C 
ATOM     43  H   UNL A   1      28.519  30.449  24.174  1.00  0.00     0.023 H 
ATOM     44  H   UNL A   1      28.369  31.725  22.990  1.00  0.00     0.023 H 
ATOM     45  H   UNL A   1      29.944  31.281  23.601  1.00  0.00     0.023 H 
ENDBRANCH  39  42
ENDBRANCH  31  39
ENDBRANCH  28  30
ENDBRANCH  15  28
ENDBRANCH  11  14
ENDBRANCH   8  11
ENDBRANCH   4   7
ENDBRANCH   1   4
BRANCH   1  46
ATOM     46  C   UNL A   1      32.328  29.937  26.922  1.00  0.00    -0.052 C 
ATOM     47  H   UNL A   1      33.197  29.712  26.339  1.00  0.00     0.027 H 
ATOM     48  H   UNL A   1      32.533  30.472  27.826  1.00  0.00     0.027 H 
BRANCH  46  49
ATOM     49  C   UNL A   1      31.434  30.862  26.090  1.00  0.00    -0.052 C 
ATOM     50  H   UNL A   1      30.453  30.438  26.071  1.00  0.00     0.027 H 
ATOM     51  H   UNL A   1      31.903  30.928  25.130  1.00  0.00     0.027 H 
BRANCH  49  52
ATOM     52  C   UNL A   1      31.309  32.307  26.587  1.00  0.00    -0.036 C 
ATOM     53  H   UNL A   1      30.539  32.334  27.329  1.00  0.00     0.028 H 
ATOM     54  H   UNL A   1      31.099  32.896  25.718  1.00  0.00     0.028 H 
BRANCH  52  55
ATOM     55  C   UNL A   1      32.572  32.912  27.201  1.00  0.00     0.018 C 
ATOM     56  H   UNL A   1      33.342  32.925  26.457  1.00  0.00     0.049 H 
ATOM     57  H   UNL A   1      32.843  32.308  28.042  1.00  0.00     0.049 H 
BRANCH  55  58
ATOM     58  N   UNL A   1      32.370  34.266  27.682  1.00  0.00    -0.352 N 
ATOM     59  C   UNL A   1      33.027  34.951  28.675  1.00  0.00     0.251 C 
ATOM     60  H   UNL A   1      31.655  34.770  27.230  1.00  0.00     0.163 HD
ATOM     61  O   UNL A   1      32.623  36.057  29.027  1.00  0.00    -0.269 OA
BRANCH  59  62
ATOM     62  C   UNL A   1      34.208  34.366  29.352  1.00  0.00     0.039 A 
ATOM     63  C   UNL A   1      34.007  33.643  30.535  1.00  0.00    -0.049 A 
ATOM     64  C   UNL A   1      35.507  34.573  28.876  1.00  0.00    -0.049 A 
ATOM     65  C   UNL A   1      35.097  33.087  31.211  1.00  0.00    -0.053 A 
ATOM     66  H   UNL A   1      33.053  33.521  30.906  1.00  0.00     0.063 H 
ATOM     67  C   UNL A   1      36.593  33.996  29.538  1.00  0.00    -0.053 A 
ATOM     68  H   UNL A   1      35.662  35.151  28.035  1.00  0.00     0.063 H 
ATOM     69  C   UNL A   1      36.396  33.248  30.709  1.00  0.00    -0.014 A 
ATOM     70  H   UNL A   1      34.944  32.556  32.083  1.00  0.00     0.063 H 
ATOM     71  H   UNL A   1      37.546  34.122  29.165  1.00  0.00     0.063 H 
BRANCH  69  72
ATOM     72  C   UNL A   1      37.557  32.633  31.395  1.00  0.00     0.031 A 
ATOM     73  C   UNL A   1      38.303  31.498  30.758  1.00  0.00     0.074 A 
ATOM     74  C   UNL A   1      37.908  33.062  32.621  1.00  0.00     0.049 A 
ATOM     75  N   UNL A   1      39.281  30.775  31.247  1.00  0.00    -0.248 NA
ATOM     76  C   UNL A   1      37.886  31.114  29.402  1.00  0.00    -0.034 C 
ATOM     77  C   UNL A   1      37.250  34.139  33.360  1.00  0.00    -0.036 A 
ATOM     78  N   UNL A   1      38.897  32.628  33.468  1.00  0.00    -0.354 N 
ATOM     79  C   UNL A   1      39.575  29.832  30.274  1.00  0.00     0.074 A 
ATOM     80  C   UNL A   1      38.677  30.076  29.162  1.00  0.00    -0.034 C 
ATOM     81  H   UNL A   1      37.168  31.540  28.796  1.00  0.00     0.065 H 
ATOM     82  C   UNL A   1      37.852  34.281  34.553  1.00  0.00    -0.036 A 
ATOM     83  H   UNL A   1      36.453  34.698  33.021  1.00  0.00     0.065 H 
ATOM     84  C   UNL A   1      38.925  33.296  34.665  1.00  0.00     0.049 A 
ATOM     85  H   UNL A   1      39.528  31.908  33.237  1.00  0.00     0.167 HD
ATOM     86  C   UNL A   1      40.506  28.849  30.304  1.00  0.00     0.037 A 
ATOM     87  H   UNL A   1      38.655  29.514  28.297  1.00  0.00     0.065 H 
ATOM     88  H   UNL A   1      37.598  34.975  35.273  1.00  0.00     0.065 H 
ATOM     89  C   UNL A   1      39.718  33.125  35.738  1.00  0.00     0.037 A 
ATOM     90  C   UNL A   1      41.429  28.623  31.383  1.00  0.00     0.049 A 
ATOM     91  C   UNL A   1      40.780  32.066  35.725  1.00  0.00     0.074 A 
ATOM     92  C   UNL A   1      42.443  27.683  31.473  1.00  0.00    -0.036 A 
ATOM     93  N   UNL A   1      41.457  29.354  32.560  1.00  0.00    -0.354 N 
ATOM     94  N   UNL A   1      41.062  31.194  34.790  1.00  0.00    -0.248 NA
ATOM     95  C   UNL A   1      41.634  31.966  36.919  1.00  0.00    -0.034 C 
ATOM     96  C   UNL A   1      43.078  27.840  32.710  1.00  0.00    -0.036 A 
ATOM     97  H   UNL A   1      42.688  26.988  30.750  1.00  0.00     0.065 H 
ATOM     98  C   UNL A   1      42.466  28.883  33.385  1.00  0.00     0.049 A 
ATOM     99  H   UNL A   1      40.849  30.098  32.778  1.00  0.00     0.167 HD
ATOM    100  C   UNL A   1      42.124  30.446  35.276  1.00  0.00     0.074 A 
ATOM    101  C   UNL A   1      42.444  30.971  36.587  1.00  0.00    -0.034 C 
ATOM    102  H   UNL A   1      41.609  32.526  37.786  1.00  0.00     0.065 H 
ATOM    103  H   UNL A   1      43.867  27.273  33.061  1.00  0.00     0.065 H 
ATOM    104  C   UNL A   1      42.772  29.415  34.685  1.00  0.00     0.037 A 
ATOM    105  H   UNL A   1      43.205  30.614  37.186  1.00  0.00     0.065 H 
BRANCH  86 106
ATOM    106  C   UNL A   1      40.563  27.927  29.130  1.00  0.00     0.064 A 
ATOM    107  C   UNL A   1      41.445  28.155  28.067  1.00  0.00     0.173 A 
ATOM    108  C   UNL A   1      39.748  26.787  29.086  1.00  0.00     0.173 A 
ATOM    109  F   UNL A   1      42.233  29.240  28.064  1.00  0.00    -0.203 F 
ATOM    110  C   UNL A   1      41.503  27.274  26.990  1.00  0.00     0.198 A 
ATOM    111  C   UNL A   1      39.816  25.903  28.014  1.00  0.00     0.198 A 
ATOM    112  F   UNL A   1      38.887  26.533  30.083  1.00  0.00    -0.203 F 
ATOM    113  F   UNL A   1      42.339  27.517  25.972  1.00  0.00    -0.200 F 
ATOM    114  C   UNL A   1      40.692  26.148  26.966  1.00  0.00     0.200 A 
ATOM    115  F   UNL A   1      39.032  24.816  27.991  1.00  0.00    -0.200 F 
ATOM    116  F   UNL A   1      40.750  25.301  25.929  1.00  0.00    -0.200 F 
ENDBRANCH  86 106
BRANCH  89 117
ATOM    117  C   UNL A   1      39.533  33.993  36.924  1.00  0.00     0.064 A 
ATOM    118  C   UNL A   1      38.749  33.571  38.004  1.00  0.00     0.173 A 
ATOM    119  C   UNL A   1      40.149  35.249  37.001  1.00  0.00     0.173 A 
ATOM    120  F   UNL A   1      38.129  32.384  37.957  1.00  0.00    -0.203 F 
ATOM    121  C   UNL A   1      38.585  34.379  39.126  1.00  0.00     0.198 A 
ATOM    122  C   UNL A   1      39.993  36.052  38.128  1.00  0.00     0.198 A 
ATOM    123  F   UNL A   1      40.905  35.690  35.986  1.00  0.00    -0.203 F 
ATOM    124  F   UNL A   1      37.818  33.964  40.143  1.00  0.00    -0.200 F 
ATOM    125  C   UNL A   1      39.210  35.617  39.189  1.00  0.00     0.200 A 
ATOM    126  F   UNL A   1      40.597  37.246  38.187  1.00  0.00    -0.200 F 
ATOM    127  F   UNL A   1      39.054  36.393  40.270  1.00  0.00    -0.200 F 
ENDBRANCH  89 117
BRANCH 104 128
ATOM    128  C   UNL A   1      43.896  28.791  35.449  1.00  0.00     0.064 A 
ATOM    129  C   UNL A   1      45.215  29.234  35.281  1.00  0.00     0.173 A 
ATOM    130  C   UNL A   1      43.649  27.770  36.376  1.00  0.00     0.173 A 
ATOM    131  F   UNL A   1      45.495  30.199  34.393  1.00  0.00    -0.203 F 
ATOM    132  C   UNL A   1      46.253  28.667  36.016  1.00  0.00     0.198 A 
ATOM    133  C   UNL A   1      44.689  27.211  37.114  1.00  0.00     0.198 A 
ATOM    134  F   UNL A   1      42.401  27.314  36.562  1.00  0.00    -0.203 F 
ATOM    135  F   UNL A   1      47.511  29.091  35.830  1.00  0.00    -0.200 F 
ATOM    136  C   UNL A   1      45.989  27.660  36.932  1.00  0.00     0.200 A 
ATOM    137  F   UNL A   1      44.434  26.235  37.996  1.00  0.00    -0.200 F 
ATOM    138  F   UNL A   1      46.991  27.114  37.635  1.00  0.00    -0.200 F 
ENDBRANCH 104 128
ENDBRANCH  69  72
ENDBRANCH  59  62
ENDBRANCH  55  58
ENDBRANCH  52  55
ENDBRANCH  49  52
ENDBRANCH  46  49
ENDBRANCH   1  46
TORSDOF 18
ENDMDL
MODEL 2
REMARK VINA RESULT:     -13.2      0.157      1.534
REMARK SMILES CCc1cc(C(=O)c2[nH]c3cc(Cl)ccc3c2CC(=O)NCCCCCCNC(=O)c2ccc(-c3c4nc(c(-c5c(F)c(F)c(F)c(F)c5F)c5ccc([nH]5)c(-c5c(F)c(F)c(F)c(F)c5F)c5nc(c(-c6c(F)c(F)c(F)c(F)c6F)c6ccc3[nH]6)C=C5)C=C4)cc2)ncc1Cl
REMARK SMILES IDX 23 1 22 4 21 7 19 8 20 9 18 11 17 14 8 15 9 16 10 17 16 19
REMARK SMILES IDX 11 20 15 21 12 22 14 24 13 26 6 28 7 29 5 30 3 31 4 32 96 33
REMARK SMILES IDX 95 35 97 36 94 37 2 39 1 42 24 46 25 49 26 52 27 55 28 58
REMARK SMILES IDX 29 59 30 61 31 62 32 63 93 64 33 65 92 67 34 69 35 72 36 73
REMARK SMILES IDX 86 74 37 75 91 76 85 77 87 78 38 79 90 80 84 82 83 84 39 86
REMARK SMILES IDX 71 89 51 90 70 91 52 92 55 93 69 94 88 95 53 96 54 98 68 100
REMARK SMILES IDX 89 101 56 104 40 106 41 107 49 108 42 109 43 110 47 111
REMARK SMILES IDX 50 112 44 113 45 114 48 115 46 116 72 117 73 118 81 119
REMARK SMILES IDX 74 120 75 121 79 122 82 123 76 124 77 125 80 126 78 127
REMARK SMILES IDX 57 128 58 129 66 130 59 131 60 132 64 133 67 134 61 135
REMARK SMILES IDX 62 136 65 137 63 138
REMARK H PARENT 23 2 23 3 22 5 22 6 21 10 18 12 18 13 9 18 11 23 15 25 14 27
REMARK H PARENT 4 34 95 38 2 40 2 41 1 43 1 44 1 45 24 47 24 48 25 50 25 51
REMARK H PARENT 26 53 26 54 27 56 27 57 28 60 32 66 93 68 33 70 92 71 91 81
REMARK H PARENT 85 83 87 85 90 87 84 88 52 97 55 99 88 102 53 103 89 105
REMARK Flexibility Score: inf
ROOT
ATOM      1  C   UNL A   1      32.330  28.538  27.348  1.00  0.00    -0.036 C 
ATOM      2  H   UNL A   1      33.235  28.117  27.733  1.00  0.00     0.028 H 
ATOM      3  H   UNL A   1      31.550  28.610  28.075  1.00  0.00     0.028 H 
ENDROOT
BRANCH   1   4
ATOM      4  C   UNL A   1      31.806  27.613  26.249  1.00  0.00     0.017 C 
ATOM      5  H   UNL A   1      31.060  28.136  25.688  1.00  0.00     0.049 H 
ATOM      6  H   UNL A   1      32.638  27.334  25.637  1.00  0.00     0.049 H 
BRANCH   4   7
ATOM      7  N   UNL A   1      31.222  26.397  26.775  1.00  0.00    -0.356 N 
ATOM      8  C   UNL A   1      31.629  25.102  26.624  1.00  0.00     0.224 C 
ATOM      9  O   UNL A   1      31.031  24.224  27.251  1.00  0.00    -0.275 OA
ATOM     10  H   UNL A   1      30.414  26.521  27.323  1.00  0.00     0.163 HD
BRANCH   8  11
ATOM     11  C   UNL A   1      32.855  24.762  25.791  1.00  0.00     0.055 C 
ATOM     12  H   UNL A   1      33.371  25.674  25.573  1.00  0.00     0.042 H 
ATOM     13  H   UNL A   1      33.434  24.077  26.374  1.00  0.00     0.042 H 
BRANCH  11  14
ATOM     14  C   UNL A   1      32.565  24.068  24.490  1.00  0.00    -0.002 A 
ATOM     15  C   UNL A   1      32.246  24.654  23.269  1.00  0.00     0.093 A 
ATOM     16  N   UNL A   1      32.169  23.647  22.336  1.00  0.00    -0.351 N 
ATOM     17  C   UNL A   1      32.259  22.419  22.940  1.00  0.00     0.048 A 
ATOM     18  H   UNL A   1      32.063  23.788  21.367  1.00  0.00     0.167 HD
ATOM     19  C   UNL A   1      32.506  22.647  24.293  1.00  0.00     0.004 A 
ATOM     20  C   UNL A   1      32.153  21.136  22.390  1.00  0.00    -0.019 A 
ATOM     21  C   UNL A   1      32.651  21.530  25.144  1.00  0.00    -0.051 A 
ATOM     22  C   UNL A   1      32.296  20.051  23.259  1.00  0.00     0.043 A 
ATOM     23  H   UNL A   1      31.974  20.997  21.383  1.00  0.00     0.066 H 
ATOM     24  C   UNL A   1      32.541  20.237  24.616  1.00  0.00    -0.043 A 
ATOM     25  H   UNL A   1      32.837  21.664  26.150  1.00  0.00     0.063 H 
ATOM     26  Cl  UNL A   1      32.167  18.451  22.633  1.00  0.00    -0.084 Cl
ATOM     27  H   UNL A   1      32.643  19.418  25.236  1.00  0.00     0.064 H 
BRANCH  15  28
ATOM     28  C   UNL A   1      32.082  26.054  22.923  1.00  0.00     0.227 C 
ATOM     29  O   UNL A   1      33.021  26.706  22.472  1.00  0.00    -0.285 OA
BRANCH  28  30
ATOM     30  C   UNL A   1      30.707  26.666  23.063  1.00  0.00     0.113 A 
ATOM     31  C   UNL A   1      29.137  28.508  22.806  1.00  0.00    -0.026 A 
ATOM     32  C   UNL A   1      30.415  27.952  22.599  1.00  0.00    -0.028 A 
ATOM     33  C   UNL A   1      28.181  27.718  23.455  1.00  0.00     0.062 A 
ATOM     34  H   UNL A   1      31.139  28.496  22.104  1.00  0.00     0.065 H 
ATOM     35  C   UNL A   1      28.551  26.445  23.876  1.00  0.00     0.047 A 
ATOM     36  Cl  UNL A   1      26.572  28.248  23.763  1.00  0.00    -0.082 Cl
ATOM     37  N   UNL A   1      29.785  25.911  23.709  1.00  0.00    -0.251 NA
ATOM     38  H   UNL A   1      27.838  25.868  24.348  1.00  0.00     0.086 H 
BRANCH  31  39
ATOM     39  C   UNL A   1      28.881  29.929  22.356  1.00  0.00    -0.029 C 
ATOM     40  H   UNL A   1      29.637  30.202  21.649  1.00  0.00     0.031 H 
ATOM     41  H   UNL A   1      27.901  29.955  21.926  1.00  0.00     0.031 H 
BRANCH  39  42
ATOM     42  C   UNL A   1      28.903  30.932  23.501  1.00  0.00    -0.061 C 
ATOM     43  H   UNL A   1      28.423  30.506  24.358  1.00  0.00     0.023 H 
ATOM     44  H   UNL A   1      28.385  31.820  23.207  1.00  0.00     0.023 H 
ATOM     45  H   UNL A   1      29.916  31.174  23.744  1.00  0.00     0.023 H 
ENDBRANCH  39  42
ENDBRANCH  31  39
ENDBRANCH  28  30
ENDBRANCH  15  28
ENDBRANCH  11  14
ENDBRANCH   8  11
ENDBRANCH   4   7
ENDBRANCH   1   4
BRANCH   1  46
ATOM     46  C   UNL A   1      32.629  29.974  26.899  1.00  0.00    -0.052 C 
ATOM     47  H   UNL A   1      33.446  29.938  26.208  1.00  0.00     0.027 H 
ATOM     48  H   UNL A   1      32.839  30.519  27.796  1.00  0.00     0.027 H 
BRANCH  46  49
ATOM     49  C   UNL A   1      31.476  30.723  26.223  1.00  0.00    -0.052 C 
ATOM     50  H   UNL A   1      30.562  30.257  26.527  1.00  0.00     0.027 H 
ATOM     51  H   UNL A   1      31.672  30.663  25.173  1.00  0.00     0.027 H 
BRANCH  49  52
ATOM     52  C   UNL A   1      31.366  32.219  26.537  1.00  0.00    -0.036 C 
ATOM     53  H   UNL A   1      30.584  32.348  27.254  1.00  0.00     0.028 H 
ATOM     54  H   UNL A   1      31.181  32.700  25.598  1.00  0.00     0.028 H 
BRANCH  52  55
ATOM     55  C   UNL A   1      32.628  32.877  27.096  1.00  0.00     0.018 C 
ATOM     56  H   UNL A   1      33.352  32.951  26.312  1.00  0.00     0.049 H 
ATOM     57  H   UNL A   1      32.978  32.268  27.903  1.00  0.00     0.049 H 
BRANCH  55  58
ATOM     58  N   UNL A   1      32.381  34.206  27.627  1.00  0.00    -0.352 N 
ATOM     59  C   UNL A   1      32.996  34.864  28.663  1.00  0.00     0.251 C 
ATOM     60  H   UNL A   1      31.665  34.711  27.177  1.00  0.00     0.163 HD
ATOM     61  O   UNL A   1      32.557  35.945  29.048  1.00  0.00    -0.269 OA
BRANCH  59  62
ATOM     62  C   UNL A   1      34.173  34.279  29.346  1.00  0.00     0.039 A 
ATOM     63  C   UNL A   1      33.968  33.570  30.536  1.00  0.00    -0.049 A 
ATOM     64  C   UNL A   1      35.473  34.473  28.868  1.00  0.00    -0.049 A 
ATOM     65  C   UNL A   1      35.054  33.015  31.219  1.00  0.00    -0.053 A 
ATOM     66  H   UNL A   1      33.013  33.458  30.909  1.00  0.00     0.063 H 
ATOM     67  C   UNL A   1      36.556  33.897  29.537  1.00  0.00    -0.053 A 
ATOM     68  H   UNL A   1      35.632  35.041  28.021  1.00  0.00     0.063 H 
ATOM     69  C   UNL A   1      36.354  33.163  30.715  1.00  0.00    -0.014 A 
ATOM     70  H   UNL A   1      34.898  32.494  32.096  1.00  0.00     0.063 H 
ATOM     71  H   UNL A   1      37.511  34.013  29.162  1.00  0.00     0.063 H 
BRANCH  69  72
ATOM     72  C   UNL A   1      37.512  32.548  31.408  1.00  0.00     0.031 A 
ATOM     73  C   UNL A   1      38.260  31.411  30.777  1.00  0.00     0.074 A 
ATOM     74  C   UNL A   1      37.857  32.978  32.635  1.00  0.00     0.049 A 
ATOM     75  N   UNL A   1      39.235  30.688  31.271  1.00  0.00    -0.248 NA
ATOM     76  C   UNL A   1      37.850  31.025  29.419  1.00  0.00    -0.034 C 
ATOM     77  C   UNL A   1      37.196  34.057  33.369  1.00  0.00    -0.036 A 
ATOM     78  N   UNL A   1      38.842  32.545  33.488  1.00  0.00    -0.354 N 
ATOM     79  C   UNL A   1      39.533  29.743  30.301  1.00  0.00     0.074 A 
ATOM     80  C   UNL A   1      38.641  29.986  29.185  1.00  0.00    -0.034 C 
ATOM     81  H   UNL A   1      37.135  31.450  28.809  1.00  0.00     0.065 H 
ATOM     82  C   UNL A   1      37.792  34.201  34.565  1.00  0.00    -0.036 A 
ATOM     83  H   UNL A   1      36.401  34.617  33.025  1.00  0.00     0.065 H 
ATOM     84  C   UNL A   1      38.864  33.215  34.684  1.00  0.00     0.049 A 
ATOM     85  H   UNL A   1      39.473  31.824  33.261  1.00  0.00     0.167 HD
ATOM     86  C   UNL A   1      40.463  28.760  30.338  1.00  0.00     0.037 A 
ATOM     87  H   UNL A   1      38.623  29.423  28.320  1.00  0.00     0.065 H 
ATOM     88  H   UNL A   1      37.536  34.896  35.283  1.00  0.00     0.065 H 
ATOM     89  C   UNL A   1      39.652  33.046  35.761  1.00  0.00     0.037 A 
ATOM     90  C   UNL A   1      41.382  28.536  31.422  1.00  0.00     0.049 A 
ATOM     91  C   UNL A   1      40.713  31.986  35.755  1.00  0.00     0.074 A 
ATOM     92  C   UNL A   1      42.394  27.595  31.518  1.00  0.00    -0.036 A 
ATOM     93  N   UNL A   1      41.404  29.268  32.598  1.00  0.00    -0.354 N 
ATOM     94  N   UNL A   1      40.999  31.112  34.823  1.00  0.00    -0.248 NA
ATOM     95  C   UNL A   1      41.561  31.888  36.953  1.00  0.00    -0.034 C 
ATOM     96  C   UNL A   1      43.023  27.753  32.759  1.00  0.00    -0.036 A 
ATOM     97  H   UNL A   1      42.642  26.899  30.798  1.00  0.00     0.065 H 
ATOM     98  C   UNL A   1      42.408  28.798  33.428  1.00  0.00     0.049 A 
ATOM     99  H   UNL A   1      40.796  30.012  32.812  1.00  0.00     0.167 HD
ATOM    100  C   UNL A   1      42.058  30.365  35.315  1.00  0.00     0.074 A 
ATOM    101  C   UNL A   1      42.372  30.891  36.627  1.00  0.00    -0.034 C 
ATOM    102  H   UNL A   1      41.532  32.448  37.819  1.00  0.00     0.065 H 
ATOM    103  H   UNL A   1      43.810  27.187  33.114  1.00  0.00     0.065 H 
ATOM    104  C   UNL A   1      42.708  29.332  34.729  1.00  0.00     0.037 A 
ATOM    105  H   UNL A   1      43.129  30.535  37.231  1.00  0.00     0.065 H 
BRANCH  86 106
ATOM    106  C   UNL A   1      40.525  27.836  29.166  1.00  0.00     0.064 A 
ATOM    107  C   UNL A   1      39.721  26.692  29.097  1.00  0.00     0.173 A 
ATOM    108  C   UNL A   1      41.375  28.118  28.088  1.00  0.00     0.173 A 
ATOM    109  F   UNL A   1      38.903  26.379  30.112  1.00  0.00    -0.203 F 
ATOM    110  C   UNL A   1      39.773  25.852  27.986  1.00  0.00     0.198 A 
ATOM    111  C   UNL A   1      41.418  27.283  26.975  1.00  0.00     0.198 A 
ATOM    112  F   UNL A   1      42.165  29.203  28.115  1.00  0.00    -0.203 F 
ATOM    113  F   UNL A   1      39.011  24.752  27.944  1.00  0.00    -0.200 F 
ATOM    114  C   UNL A   1      40.618  26.150  26.926  1.00  0.00     0.200 A 
ATOM    115  F   UNL A   1      42.234  27.571  25.953  1.00  0.00    -0.200 F 
ATOM    116  F   UNL A   1      40.666  25.341  25.859  1.00  0.00    -0.200 F 
ENDBRANCH  86 106
BRANCH  89 117
ATOM    117  C   UNL A   1      39.461  33.916  36.944  1.00  0.00     0.064 A 
ATOM    118  C   UNL A   1      38.696  33.484  38.034  1.00  0.00     0.173 A 
ATOM    119  C   UNL A   1      40.053  35.184  37.010  1.00  0.00     0.173 A 
ATOM    120  F   UNL A   1      38.099  32.285  37.999  1.00  0.00    -0.203 F 
ATOM    121  C   UNL A   1      38.528  34.294  39.154  1.00  0.00     0.198 A 
ATOM    122  C   UNL A   1      39.892  35.989  38.134  1.00  0.00     0.198 A 
ATOM    123  F   UNL A   1      40.790  35.634  35.985  1.00  0.00    -0.203 F 
ATOM    124  F   UNL A   1      37.779  33.869  40.181  1.00  0.00    -0.200 F 
ATOM    125  C   UNL A   1      39.129  35.544  39.205  1.00  0.00     0.200 A 
ATOM    126  F   UNL A   1      40.474  37.195  38.182  1.00  0.00    -0.200 F 
ATOM    127  F   UNL A   1      38.968  36.323  40.283  1.00  0.00    -0.200 F 
ENDBRANCH  89 117
BRANCH 104 128
ATOM    128  C   UNL A   1      43.828  28.709  35.500  1.00  0.00     0.064 A 
ATOM    129  C   UNL A   1      43.592  27.647  36.383  1.00  0.00     0.173 A 
ATOM    130  C   UNL A   1      45.146  29.153  35.330  1.00  0.00     0.173 A 
ATOM    131  F   UNL A   1      42.343  27.202  36.585  1.00  0.00    -0.203 F 
ATOM    132  C   UNL A   1      44.642  27.053  37.077  1.00  0.00     0.198 A 
ATOM    133  C   UNL A   1      46.194  28.551  36.020  1.00  0.00     0.198 A 
ATOM    134  F   UNL A   1      45.414  30.171  34.498  1.00  0.00    -0.203 F 
ATOM    135  F   UNL A   1      44.395  26.049  37.931  1.00  0.00    -0.200 F 
ATOM    136  C   UNL A   1      45.941  27.502  36.893  1.00  0.00     0.200 A 
ATOM    137  F   UNL A   1      47.449  28.989  35.846  1.00  0.00    -0.200 F 
ATOM    138  F   UNL A   1      46.950  26.931  37.565  1.00  0.00    -0.200 F 
ENDBRANCH 104 128
ENDBRANCH  69  72
ENDBRANCH  59  62
ENDBRANCH  55  58
ENDBRANCH  52  55
ENDBRANCH  49  52
ENDBRANCH  46  49
ENDBRANCH   1  46
TORSDOF 18
ENDMDL
MODEL 3
REMARK VINA RESULT:     -12.9      0.785      6.938
REMARK SMILES CCc1cc(C(=O)c2[nH]c3cc(Cl)ccc3c2CC(=O)NCCCCCCNC(=O)c2ccc(-c3c4nc(c(-c5c(F)c(F)c(F)c(F)c5F)c5ccc([nH]5)c(-c5c(F)c(F)c(F)c(F)c5F)c5nc(c(-c6c(F)c(F)c(F)c(F)c6F)c6ccc3[nH]6)C=C5)C=C4)cc2)ncc1Cl
REMARK SMILES IDX 23 1 22 4 21 7 19 8 20 9 18 11 17 14 8 15 9 16 10 17 16 19
REMARK SMILES IDX 11 20 15 21 12 22 14 24 13 26 6 28 7 29 5 30 3 31 4 32 96 33
REMARK SMILES IDX 95 35 97 36 94 37 2 39 1 42 24 46 25 49 26 52 27 55 28 58
REMARK SMILES IDX 29 59 30 61 31 62 32 63 93 64 33 65 92 67 34 69 35 72 36 73
REMARK SMILES IDX 86 74 37 75 91 76 85 77 87 78 38 79 90 80 84 82 83 84 39 86
REMARK SMILES IDX 71 89 51 90 70 91 52 92 55 93 69 94 88 95 53 96 54 98 68 100
REMARK SMILES IDX 89 101 56 104 40 106 41 107 49 108 42 109 43 110 47 111
REMARK SMILES IDX 50 112 44 113 45 114 48 115 46 116 72 117 73 118 81 119
REMARK SMILES IDX 74 120 75 121 79 122 82 123 76 124 77 125 80 126 78 127
REMARK SMILES IDX 57 128 58 129 66 130 59 131 60 132 64 133 67 134 61 135
REMARK SMILES IDX 62 136 65 137 63 138
REMARK H PARENT 23 2 23 3 22 5 22 6 21 10 18 12 18 13 9 18 11 23 15 25 14 27
REMARK H PARENT 4 34 95 38 2 40 2 41 1 43 1 44 1 45 24 47 24 48 25 50 25 51
REMARK H PARENT 26 53 26 54 27 56 27 57 28 60 32 66 93 68 33 70 92 71 91 81
REMARK H PARENT 85 83 87 85 90 87 84 88 52 97 55 99 88 102 53 103 89 105
REMARK Flexibility Score: inf
ROOT
ATOM      1  C   UNL A   1      31.543  28.574  27.343  1.00  0.00    -0.036 C 
ATOM      2  H   UNL A   1      31.852  28.304  28.331  1.00  0.00     0.028 H 
ATOM      3  H   UNL A   1      30.493  28.756  27.260  1.00  0.00     0.028 H 
ENDROOT
BRANCH   1   4
ATOM      4  C   UNL A   1      31.847  27.398  26.414  1.00  0.00     0.017 C 
ATOM      5  H   UNL A   1      31.465  27.625  25.440  1.00  0.00     0.049 H 
ATOM      6  H   UNL A   1      32.908  27.261  26.401  1.00  0.00     0.049 H 
BRANCH   4   7
ATOM      7  N   UNL A   1      31.250  26.159  26.867  1.00  0.00    -0.356 N 
ATOM      8  C   UNL A   1      31.648  24.871  26.646  1.00  0.00     0.224 C 
ATOM      9  O   UNL A   1      31.040  23.964  27.219  1.00  0.00    -0.275 OA
ATOM     10  H   UNL A   1      30.440  26.259  27.417  1.00  0.00     0.163 HD
BRANCH   8  11
ATOM     11  C   UNL A   1      32.877  24.569  25.802  1.00  0.00     0.055 C 
ATOM     12  H   UNL A   1      33.389  25.491  25.619  1.00  0.00     0.042 H 
ATOM     13  H   UNL A   1      33.458  23.865  26.360  1.00  0.00     0.042 H 
BRANCH  11  14
ATOM     14  C   UNL A   1      32.591  23.923  24.475  1.00  0.00    -0.002 A 
ATOM     15  C   UNL A   1      32.293  24.555  23.272  1.00  0.00     0.093 A 
ATOM     16  N   UNL A   1      32.212  23.581  22.304  1.00  0.00    -0.351 N 
ATOM     17  C   UNL A   1      32.278  22.332  22.868  1.00  0.00     0.048 A 
ATOM     18  H   UNL A   1      32.119  23.756  21.339  1.00  0.00     0.167 HD
ATOM     19  C   UNL A   1      32.514  22.511  24.230  1.00  0.00     0.004 A 
ATOM     20  C   UNL A   1      32.160  21.070  22.274  1.00  0.00    -0.019 A 
ATOM     21  C   UNL A   1      32.634  21.363  25.044  1.00  0.00    -0.051 A 
ATOM     22  C   UNL A   1      32.279  19.954  23.107  1.00  0.00     0.043 A 
ATOM     23  H   UNL A   1      31.991  20.967  21.261  1.00  0.00     0.066 H 
ATOM     24  C   UNL A   1      32.511  20.091  24.471  1.00  0.00    -0.043 A 
ATOM     25  H   UNL A   1      32.810  21.461  26.056  1.00  0.00     0.063 H 
ATOM     26  Cl  UNL A   1      32.134  18.379  22.426  1.00  0.00    -0.084 Cl
ATOM     27  H   UNL A   1      32.595  19.251  25.064  1.00  0.00     0.064 H 
BRANCH  15  28
ATOM     28  C   UNL A   1      32.154  25.968  22.971  1.00  0.00     0.227 C 
ATOM     29  O   UNL A   1      33.113  26.627  22.579  1.00  0.00    -0.285 OA
BRANCH  28  30
ATOM     30  C   UNL A   1      30.779  26.587  23.084  1.00  0.00     0.113 A 
ATOM     31  C   UNL A   1      29.217  28.426  22.770  1.00  0.00    -0.026 A 
ATOM     32  C   UNL A   1      30.495  27.863  22.588  1.00  0.00    -0.028 A 
ATOM     33  C   UNL A   1      28.252  27.654  23.426  1.00  0.00     0.062 A 
ATOM     34  H   UNL A   1      31.226  28.394  22.088  1.00  0.00     0.065 H 
ATOM     35  C   UNL A   1      28.614  26.390  23.880  1.00  0.00     0.047 A 
ATOM     36  Cl  UNL A   1      26.642  28.196  23.706  1.00  0.00    -0.082 Cl
ATOM     37  N   UNL A   1      29.848  25.849  23.738  1.00  0.00    -0.251 NA
ATOM     38  H   UNL A   1      27.895  25.826  24.358  1.00  0.00     0.086 H 
BRANCH  31  39
ATOM     39  C   UNL A   1      28.970  29.838  22.285  1.00  0.00    -0.029 C 
ATOM     40  H   UNL A   1      29.703  30.075  21.542  1.00  0.00     0.031 H 
ATOM     41  H   UNL A   1      27.975  29.870  21.892  1.00  0.00     0.031 H 
BRANCH  39  42
ATOM     42  C   UNL A   1      29.054  30.875  23.396  1.00  0.00    -0.061 C 
ATOM     43  H   UNL A   1      28.408  31.698  23.165  1.00  0.00     0.023 H 
ATOM     44  H   UNL A   1      30.060  31.225  23.483  1.00  0.00     0.023 H 
ATOM     45  H   UNL A   1      28.748  30.433  24.321  1.00  0.00     0.023 H 
ENDBRANCH  39  42
ENDBRANCH  31  39
ENDBRANCH  28  30
ENDBRANCH  15  28
ENDBRANCH  11  14
ENDBRANCH   8  11
ENDBRANCH   4   7
ENDBRANCH   1   4
BRANCH   1  46
ATOM     46  C   UNL A   1      32.236  29.890  26.972  1.00  0.00    -0.052 C 
ATOM     47  H   UNL A   1      33.112  29.651  26.405  1.00  0.00     0.027 H 
ATOM     48  H   UNL A   1      32.436  30.383  27.901  1.00  0.00     0.027 H 
BRANCH  46  49
ATOM     49  C   UNL A   1      31.405  30.881  26.151  1.00  0.00    -0.052 C 
ATOM     50  H   UNL A   1      30.395  30.528  26.138  1.00  0.00     0.027 H 
ATOM     51  H   UNL A   1      31.870  30.918  25.188  1.00  0.00     0.027 H 
BRANCH  49  52
ATOM     52  C   UNL A   1      31.387  32.329  26.656  1.00  0.00    -0.036 C 
ATOM     53  H   UNL A   1      30.743  32.371  27.508  1.00  0.00     0.028 H 
ATOM     54  H   UNL A   1      31.056  32.921  25.828  1.00  0.00     0.028 H 
BRANCH  52  55
ATOM     55  C   UNL A   1      32.742  32.909  27.063  1.00  0.00     0.018 C 
ATOM     56  H   UNL A   1      33.353  32.997  26.189  1.00  0.00     0.049 H 
ATOM     57  H   UNL A   1      33.173  32.246  27.784  1.00  0.00     0.049 H 
BRANCH  55  58
ATOM     58  N   UNL A   1      32.630  34.216  27.683  1.00  0.00    -0.352 N 
ATOM     59  C   UNL A   1      33.310  34.739  28.756  1.00  0.00     0.251 C 
ATOM     60  H   UNL A   1      31.967  34.819  27.275  1.00  0.00     0.163 HD
ATOM     61  O   UNL A   1      32.982  35.830  29.216  1.00  0.00    -0.269 OA
BRANCH  59  62
ATOM     62  C   UNL A   1      34.425  33.995  29.386  1.00  0.00     0.039 A 
ATOM     63  C   UNL A   1      35.738  34.356  29.056  1.00  0.00    -0.049 A 
ATOM     64  C   UNL A   1      34.197  32.912  30.242  1.00  0.00    -0.049 A 
ATOM     65  C   UNL A   1      36.818  33.669  29.617  1.00  0.00    -0.053 A 
ATOM     66  H   UNL A   1      35.906  35.131  28.396  1.00  0.00     0.063 H 
ATOM     67  C   UNL A   1      35.277  32.242  30.823  1.00  0.00    -0.053 A 
ATOM     68  H   UNL A   1      33.231  32.609  30.444  1.00  0.00     0.063 H 
ATOM     69  C   UNL A   1      36.593  32.617  30.516  1.00  0.00    -0.014 A 
ATOM     70  H   UNL A   1      37.782  33.938  29.370  1.00  0.00     0.063 H 
ATOM     71  H   UNL A   1      35.104  31.466  31.480  1.00  0.00     0.063 H 
BRANCH  69  72
ATOM     72  C   UNL A   1      37.729  31.904  31.149  1.00  0.00     0.031 A 
ATOM     73  C   UNL A   1      38.169  32.256  32.539  1.00  0.00     0.074 A 
ATOM     74  C   UNL A   1      38.402  30.973  30.448  1.00  0.00     0.049 A 
ATOM     75  N   UNL A   1      39.196  31.808  33.219  1.00  0.00    -0.248 NA
ATOM     76  C   UNL A   1      37.359  33.253  33.254  1.00  0.00    -0.034 C 
ATOM     77  C   UNL A   1      38.093  30.556  29.081  1.00  0.00    -0.036 A 
ATOM     78  N   UNL A   1      39.499  30.222  30.789  1.00  0.00    -0.354 N 
ATOM     79  C   UNL A   1      39.175  32.490  34.426  1.00  0.00     0.074 A 
ATOM     80  C   UNL A   1      38.030  33.378  34.391  1.00  0.00    -0.034 C 
ATOM     81  H   UNL A   1      36.495  33.729  32.951  1.00  0.00     0.065 H 
ATOM     82  C   UNL A   1      38.981  29.625  28.696  1.00  0.00    -0.036 A 
ATOM     83  H   UNL A   1      37.318  30.919  28.505  1.00  0.00     0.065 H 
ATOM     84  C   UNL A   1      39.929  29.393  29.784  1.00  0.00     0.049 A 
ATOM     85  H   UNL A   1      39.935  30.272  31.670  1.00  0.00     0.167 HD
ATOM     86  C   UNL A   1      40.033  32.387  35.468  1.00  0.00     0.037 A 
ATOM     87  H   UNL A   1      37.771  34.025  35.153  1.00  0.00     0.065 H 
ATOM     88  H   UNL A   1      38.992  29.149  27.781  1.00  0.00     0.065 H 
ATOM     89  C   UNL A   1      40.977  28.550  29.740  1.00  0.00     0.037 A 
ATOM     90  C   UNL A   1      41.147  31.480  35.531  1.00  0.00     0.049 A 
ATOM     91  C   UNL A   1      41.880  28.414  30.929  1.00  0.00     0.074 A 
ATOM     92  C   UNL A   1      42.036  31.273  36.573  1.00  0.00    -0.036 A 
ATOM     93  N   UNL A   1      41.520  30.622  34.510  1.00  0.00    -0.354 N 
ATOM     94  N   UNL A   1      41.837  29.049  32.073  1.00  0.00    -0.248 NA
ATOM     95  C   UNL A   1      42.980  27.443  30.820  1.00  0.00    -0.034 C 
ATOM     96  C   UNL A   1      42.955  30.293  36.177  1.00  0.00    -0.036 A 
ATOM     97  H   UNL A   1      42.023  31.757  37.485  1.00  0.00     0.065 H 
ATOM     98  C   UNL A   1      42.630  29.886  34.894  1.00  0.00     0.049 A 
ATOM     99  H   UNL A   1      41.065  30.546  33.641  1.00  0.00     0.167 HD
ATOM    100  C   UNL A   1      42.895  28.555  32.822  1.00  0.00     0.074 A 
ATOM    101  C   UNL A   1      43.560  27.561  32.006  1.00  0.00    -0.034 C 
ATOM    102  H   UNL A   1      43.232  26.830  30.028  1.00  0.00     0.065 H 
ATOM    103  H   UNL A   1      43.741  29.937  36.744  1.00  0.00     0.065 H 
ATOM    104  C   UNL A   1      43.280  28.901  34.072  1.00  0.00     0.037 A 
ATOM    105  H   UNL A   1      44.382  27.014  32.309  1.00  0.00     0.065 H 
BRANCH  86 106
ATOM    106  C   UNL A   1      39.805  33.298  36.631  1.00  0.00     0.064 A 
ATOM    107  C   UNL A   1      40.473  34.524  36.738  1.00  0.00     0.173 A 
ATOM    108  C   UNL A   1      38.884  32.952  37.630  1.00  0.00     0.173 A 
ATOM    109  F   UNL A   1      41.371  34.887  35.811  1.00  0.00    -0.203 F 
ATOM    110  C   UNL A   1      40.233  35.372  37.816  1.00  0.00     0.198 A 
ATOM    111  C   UNL A   1      38.639  33.806  38.700  1.00  0.00     0.198 A 
ATOM    112  F   UNL A   1      38.225  31.785  37.566  1.00  0.00    -0.203 F 
ATOM    113  F   UNL A   1      40.895  36.533  37.914  1.00  0.00    -0.200 F 
ATOM    114  C   UNL A   1      39.315  35.015  38.794  1.00  0.00     0.200 A 
ATOM    115  F   UNL A   1      37.753  33.461  39.644  1.00  0.00    -0.200 F 
ATOM    116  F   UNL A   1      39.085  35.834  39.830  1.00  0.00    -0.200 F 
ENDBRANCH  86 106
BRANCH  89 117
ATOM    117  C   UNL A   1      41.223  27.761  28.511  1.00  0.00     0.064 A 
ATOM    118  C   UNL A   1      40.552  26.552  28.291  1.00  0.00     0.173 A 
ATOM    119  C   UNL A   1      42.118  28.212  27.532  1.00  0.00     0.173 A 
ATOM    120  F   UNL A   1      39.702  26.081  29.213  1.00  0.00    -0.203 F 
ATOM    121  C   UNL A   1      40.770  25.817  27.129  1.00  0.00     0.198 A 
ATOM    122  C   UNL A   1      42.328  27.480  26.367  1.00  0.00     0.198 A 
ATOM    123  F   UNL A   1      42.782  29.363  27.708  1.00  0.00    -0.203 F 
ATOM    124  F   UNL A   1      40.130  24.654  26.944  1.00  0.00    -0.200 F 
ATOM    125  C   UNL A   1      41.655  26.282  26.166  1.00  0.00     0.200 A 
ATOM    126  F   UNL A   1      43.182  27.931  25.438  1.00  0.00    -0.200 F 
ATOM    127  F   UNL A   1      41.863  25.575  25.048  1.00  0.00    -0.200 F 
ENDBRANCH  89 117
BRANCH 104 128
ATOM    128  C   UNL A   1      44.470  28.193  34.638  1.00  0.00     0.064 A 
ATOM    129  C   UNL A   1      45.759  28.722  34.493  1.00  0.00     0.173 A 
ATOM    130  C   UNL A   1      44.317  27.000  35.355  1.00  0.00     0.173 A 
ATOM    131  F   UNL A   1      45.950  29.855  33.800  1.00  0.00    -0.203 F 
ATOM    132  C   UNL A   1      46.859  28.073  35.044  1.00  0.00     0.198 A 
ATOM    133  C   UNL A   1      45.419  26.357  35.912  1.00  0.00     0.198 A 
ATOM    134  F   UNL A   1      43.100  26.457  35.512  1.00  0.00    -0.203 F 
ATOM    135  F   UNL A   1      48.088  28.584  34.881  1.00  0.00    -0.200 F 
ATOM    136  C   UNL A   1      46.689  26.894  35.755  1.00  0.00     0.200 A 
ATOM    137  F   UNL A   1      45.254  25.216  36.595  1.00  0.00    -0.200 F 
ATOM    138  F   UNL A   1      47.750  26.269  36.283  1.00  0.00    -0.200 F 
ENDBRANCH 104 128
ENDBRANCH  69  72
ENDBRANCH  59  62
ENDBRANCH  55  58
ENDBRANCH  52  55
ENDBRANCH  49  52
ENDBRANCH  46  49
ENDBRANCH   1  46
TORSDOF 18
ENDMDL
MODEL 4
REMARK VINA RESULT:     -12.9      1.868      8.015
REMARK SMILES CCc1cc(C(=O)c2[nH]c3cc(Cl)ccc3c2CC(=O)NCCCCCCNC(=O)c2ccc(-c3c4nc(c(-c5c(F)c(F)c(F)c(F)c5F)c5ccc([nH]5)c(-c5c(F)c(F)c(F)c(F)c5F)c5nc(c(-c6c(F)c(F)c(F)c(F)c6F)c6ccc3[nH]6)C=C5)C=C4)cc2)ncc1Cl
REMARK SMILES IDX 23 1 22 4 21 7 19 8 20 9 18 11 17 14 8 15 9 16 10 17 16 19
REMARK SMILES IDX 11 20 15 21 12 22 14 24 13 26 6 28 7 29 5 30 3 31 4 32 96 33
REMARK SMILES IDX 95 35 97 36 94 37 2 39 1 42 24 46 25 49 26 52 27 55 28 58
REMARK SMILES IDX 29 59 30 61 31 62 32 63 93 64 33 65 92 67 34 69 35 72 36 73
REMARK SMILES IDX 86 74 37 75 91 76 85 77 87 78 38 79 90 80 84 82 83 84 39 86
REMARK SMILES IDX 71 89 51 90 70 91 52 92 55 93 69 94 88 95 53 96 54 98 68 100
REMARK SMILES IDX 89 101 56 104 40 106 41 107 49 108 42 109 43 110 47 111
REMARK SMILES IDX 50 112 44 113 45 114 48 115 46 116 72 117 73 118 81 119
REMARK SMILES IDX 74 120 75 121 79 122 82 123 76 124 77 125 80 126 78 127
REMARK SMILES IDX 57 128 58 129 66 130 59 131 60 132 64 133 67 134 61 135
REMARK SMILES IDX 62 136 65 137 63 138
REMARK H PARENT 23 2 23 3 22 5 22 6 21 10 18 12 18 13 9 18 11 23 15 25 14 27
REMARK H PARENT 4 34 95 38 2 40 2 41 1 43 1 44 1 45 24 47 24 48 25 50 25 51
REMARK H PARENT 26 53 26 54 27 56 27 57 28 60 32 66 93 68 33 70 92 71 91 81
REMARK H PARENT 85 83 87 85 90 87 84 88 52 97 55 99 88 102 53 103 89 105
REMARK Flexibility Score: inf
ROOT
ATOM      1  C   UNL A   1      34.928  31.600  28.349  1.00  0.00    -0.036 C 
ATOM      2  H   UNL A   1      35.556  32.057  27.613  1.00  0.00     0.028 H 
ATOM      3  H   UNL A   1      35.438  30.884  28.958  1.00  0.00     0.028 H 
ENDROOT
BRANCH   1   4
ATOM      4  C   UNL A   1      33.824  30.833  27.621  1.00  0.00     0.017 C 
ATOM      5  H   UNL A   1      33.357  30.165  28.314  1.00  0.00     0.049 H 
ATOM      6  H   UNL A   1      33.131  31.552  27.236  1.00  0.00     0.049 H 
BRANCH   4   7
ATOM      7  N   UNL A   1      34.324  30.063  26.501  1.00  0.00    -0.356 N 
ATOM      8  C   UNL A   1      33.886  28.869  26.003  1.00  0.00     0.224 C 
ATOM      9  O   UNL A   1      34.403  28.441  24.969  1.00  0.00    -0.275 OA
ATOM     10  H   UNL A   1      35.091  30.458  26.028  1.00  0.00     0.163 HD
BRANCH   8  11
ATOM     11  C   UNL A   1      32.716  28.138  26.645  1.00  0.00     0.055 C 
ATOM     12  H   UNL A   1      33.109  27.333  27.231  1.00  0.00     0.042 H 
ATOM     13  H   UNL A   1      32.190  28.867  27.226  1.00  0.00     0.042 H 
BRANCH  11  14
ATOM     14  C   UNL A   1      31.717  27.569  25.678  1.00  0.00    -0.002 A 
ATOM     15  C   UNL A   1      31.437  26.226  25.441  1.00  0.00     0.093 A 
ATOM     16  N   UNL A   1      30.384  26.175  24.559  1.00  0.00    -0.351 N 
ATOM     17  C   UNL A   1      30.085  27.428  24.087  1.00  0.00     0.048 A 
ATOM     18  H   UNL A   1      29.910  25.351  24.300  1.00  0.00     0.167 HD
ATOM     19  C   UNL A   1      30.905  28.326  24.769  1.00  0.00     0.004 A 
ATOM     20  C   UNL A   1      29.149  27.828  23.126  1.00  0.00    -0.019 A 
ATOM     21  C   UNL A   1      30.785  29.701  24.469  1.00  0.00    -0.051 A 
ATOM     22  C   UNL A   1      29.058  29.194  22.849  1.00  0.00     0.043 A 
ATOM     23  H   UNL A   1      28.552  27.141  22.641  1.00  0.00     0.066 H 
ATOM     24  C   UNL A   1      29.860  30.122  23.505  1.00  0.00    -0.043 A 
ATOM     25  H   UNL A   1      31.375  30.392  24.957  1.00  0.00     0.063 H 
ATOM     26  Cl  UNL A   1      27.926  29.737  21.669  1.00  0.00    -0.084 Cl
ATOM     27  H   UNL A   1      29.772  31.126  23.282  1.00  0.00     0.064 H 
BRANCH  15  28
ATOM     28  C   UNL A   1      32.029  25.035  26.022  1.00  0.00     0.227 C 
ATOM     29  O   UNL A   1      31.538  24.508  27.017  1.00  0.00    -0.285 OA
BRANCH  28  30
ATOM     30  C   UNL A   1      33.221  24.420  25.324  1.00  0.00     0.113 A 
ATOM     31  C   UNL A   1      35.453  23.450  25.334  1.00  0.00    -0.026 A 
ATOM     32  C   UNL A   1      34.338  23.959  26.028  1.00  0.00    -0.028 A 
ATOM     33  C   UNL A   1      35.382  23.395  23.937  1.00  0.00     0.062 A 
ATOM     34  H   UNL A   1      34.345  23.993  27.059  1.00  0.00     0.065 H 
ATOM     35  C   UNL A   1      34.229  23.865  23.316  1.00  0.00     0.047 A 
ATOM     36  Cl  UNL A   1      36.653  22.782  22.951  1.00  0.00    -0.082 Cl
ATOM     37  N   UNL A   1      33.163  24.385  23.970  1.00  0.00    -0.251 NA
ATOM     38  H   UNL A   1      34.184  23.816  22.286  1.00  0.00     0.086 H 
BRANCH  31  39
ATOM     39  C   UNL A   1      36.671  23.030  26.126  1.00  0.00    -0.029 C 
ATOM     40  H   UNL A   1      36.373  22.849  27.138  1.00  0.00     0.031 H 
ATOM     41  H   UNL A   1      37.066  22.150  25.660  1.00  0.00     0.031 H 
BRANCH  39  42
ATOM     42  C   UNL A   1      37.776  24.078  26.126  1.00  0.00    -0.061 C 
ATOM     43  H   UNL A   1      38.702  23.621  26.408  1.00  0.00     0.023 H 
ATOM     44  H   UNL A   1      37.533  24.852  26.823  1.00  0.00     0.023 H 
ATOM     45  H   UNL A   1      37.870  24.497  25.146  1.00  0.00     0.023 H 
ENDBRANCH  39  42
ENDBRANCH  31  39
ENDBRANCH  28  30
ENDBRANCH  15  28
ENDBRANCH  11  14
ENDBRANCH   8  11
ENDBRANCH   4   7
ENDBRANCH   1   4
BRANCH   1  46
ATOM     46  C   UNL A   1      34.437  32.697  29.301  1.00  0.00    -0.052 C 
ATOM     47  H   UNL A   1      35.004  32.624  30.206  1.00  0.00     0.027 H 
ATOM     48  H   UNL A   1      33.388  32.523  29.426  1.00  0.00     0.027 H 
BRANCH  46  49
ATOM     49  C   UNL A   1      34.557  34.137  28.790  1.00  0.00    -0.052 C 
ATOM     50  H   UNL A   1      34.911  34.096  27.781  1.00  0.00     0.027 H 
ATOM     51  H   UNL A   1      35.220  34.629  29.470  1.00  0.00     0.027 H 
BRANCH  49  52
ATOM     52  C   UNL A   1      33.267  34.966  28.800  1.00  0.00    -0.036 C 
ATOM     53  H   UNL A   1      32.505  34.383  29.272  1.00  0.00     0.028 H 
ATOM     54  H   UNL A   1      33.066  35.201  27.775  1.00  0.00     0.028 H 
BRANCH  52  55
ATOM     55  C   UNL A   1      33.345  36.311  29.523  1.00  0.00     0.018 C 
ATOM     56  H   UNL A   1      33.104  37.088  28.829  1.00  0.00     0.049 H 
ATOM     57  H   UNL A   1      34.340  36.414  29.905  1.00  0.00     0.049 H 
BRANCH  55  58
ATOM     58  N   UNL A   1      32.434  36.396  30.650  1.00  0.00    -0.352 N 
ATOM     59  C   UNL A   1      32.528  35.831  31.898  1.00  0.00     0.251 C 
ATOM     60  H   UNL A   1      31.628  36.941  30.497  1.00  0.00     0.163 HD
ATOM     61  O   UNL A   1      31.585  35.916  32.681  1.00  0.00    -0.269 OA
BRANCH  59  62
ATOM     62  C   UNL A   1      33.745  35.095  32.312  1.00  0.00     0.039 A 
ATOM     63  C   UNL A   1      33.598  33.800  32.825  1.00  0.00    -0.049 A 
ATOM     64  C   UNL A   1      35.013  35.684  32.264  1.00  0.00    -0.049 A 
ATOM     65  C   UNL A   1      34.720  33.078  33.240  1.00  0.00    -0.053 A 
ATOM     66  H   UNL A   1      32.659  33.379  32.895  1.00  0.00     0.063 H 
ATOM     67  C   UNL A   1      36.137  34.953  32.656  1.00  0.00    -0.053 A 
ATOM     68  H   UNL A   1      35.118  36.658  31.939  1.00  0.00     0.063 H 
ATOM     69  C   UNL A   1      35.999  33.645  33.145  1.00  0.00    -0.014 A 
ATOM     70  H   UNL A   1      34.607  32.125  33.617  1.00  0.00     0.063 H 
ATOM     71  H   UNL A   1      37.074  35.378  32.587  1.00  0.00     0.063 H 
BRANCH  69  72
ATOM     72  C   UNL A   1      37.202  32.877  33.546  1.00  0.00     0.031 A 
ATOM     73  C   UNL A   1      37.883  33.159  34.853  1.00  0.00     0.074 A 
ATOM     74  C   UNL A   1      37.716  31.960  32.707  1.00  0.00     0.049 A 
ATOM     75  N   UNL A   1      38.995  32.657  35.330  1.00  0.00    -0.248 NA
ATOM     76  C   UNL A   1      37.239  34.145  35.733  1.00  0.00    -0.034 C 
ATOM     77  C   UNL A   1      37.165  31.609  31.398  1.00  0.00    -0.036 A 
ATOM     78  N   UNL A   1      38.830  31.167  32.826  1.00  0.00    -0.354 N 
ATOM     79  C   UNL A   1      39.202  33.287  36.547  1.00  0.00     0.074 A 
ATOM     80  C   UNL A   1      38.098  34.205  36.742  1.00  0.00    -0.034 C 
ATOM     81  H   UNL A   1      36.352  34.656  35.600  1.00  0.00     0.065 H 
ATOM     82  C   UNL A   1      37.944  30.673  30.833  1.00  0.00    -0.036 A 
ATOM     83  H   UNL A   1      36.315  32.016  30.977  1.00  0.00     0.065 H 
ATOM     84  C   UNL A   1      39.055  30.371  31.732  1.00  0.00     0.049 A 
ATOM     85  H   UNL A   1      39.410  31.169  33.621  1.00  0.00     0.167 HD
ATOM     86  C   UNL A   1      40.222  33.119  37.423  1.00  0.00     0.037 A 
ATOM     87  H   UNL A   1      37.993  34.826  37.560  1.00  0.00     0.065 H 
ATOM     88  H   UNL A   1      37.784  30.236  29.912  1.00  0.00     0.065 H 
ATOM     89  C   UNL A   1      40.052  29.504  31.478  1.00  0.00     0.037 A 
ATOM     90  C   UNL A   1      41.301  32.182  37.260  1.00  0.00     0.049 A 
ATOM     91  C   UNL A   1      41.140  29.295  32.490  1.00  0.00     0.074 A 
ATOM     92  C   UNL A   1      42.347  31.909  38.126  1.00  0.00    -0.036 A 
ATOM     93  N   UNL A   1      41.466  31.358  36.159  1.00  0.00    -0.354 N 
ATOM     94  N   UNL A   1      41.313  29.882  33.646  1.00  0.00    -0.248 NA
ATOM     95  C   UNL A   1      42.173  28.302  32.157  1.00  0.00    -0.034 C 
ATOM     96  C   UNL A   1      43.153  30.924  37.542  1.00  0.00    -0.036 A 
ATOM     97  H   UNL A   1      42.504  32.354  39.044  1.00  0.00     0.065 H 
ATOM     98  C   UNL A   1      42.601  30.579  36.319  1.00  0.00     0.049 A 
ATOM     99  H   UNL A   1      40.868  31.331  35.378  1.00  0.00     0.167 HD
ATOM    100  C   UNL A   1      42.466  29.330  34.184  1.00  0.00     0.074 A 
ATOM    101  C   UNL A   1      42.951  28.355  33.230  1.00  0.00    -0.034 C 
ATOM    102  H   UNL A   1      42.267  27.717  31.312  1.00  0.00     0.065 H 
ATOM    103  H   UNL A   1      44.011  30.524  37.952  1.00  0.00     0.065 H 
ATOM    104  C   UNL A   1      43.069  29.613  35.362  1.00  0.00     0.037 A 
ATOM    105  H   UNL A   1      43.794  27.775  33.367  1.00  0.00     0.065 H 
BRANCH  86 106
ATOM    106  C   UNL A   1      40.224  33.985  38.640  1.00  0.00     0.064 A 
ATOM    107  C   UNL A   1      40.878  35.224  38.652  1.00  0.00     0.173 A 
ATOM    108  C   UNL A   1      39.538  33.584  39.794  1.00  0.00     0.173 A 
ATOM    109  F   UNL A   1      41.556  35.640  37.572  1.00  0.00    -0.203 F 
ATOM    110  C   UNL A   1      40.852  36.031  39.787  1.00  0.00     0.198 A 
ATOM    111  C   UNL A   1      39.505  34.397  40.924  1.00  0.00     0.198 A 
ATOM    112  F   UNL A   1      38.901  32.404  39.826  1.00  0.00    -0.203 F 
ATOM    113  F   UNL A   1      41.498  37.204  39.788  1.00  0.00    -0.200 F 
ATOM    114  C   UNL A   1      40.164  35.618  40.919  1.00  0.00     0.200 A 
ATOM    115  F   UNL A   1      38.842  33.998  42.017  1.00  0.00    -0.200 F 
ATOM    116  F   UNL A   1      40.140  36.397  42.011  1.00  0.00    -0.200 F 
ENDBRANCH  86 106
BRANCH  89 117
ATOM    117  C   UNL A   1      40.060  28.762  30.197  1.00  0.00     0.064 A 
ATOM    118  C   UNL A   1      39.461  27.501  30.097  1.00  0.00     0.173 A 
ATOM    119  C   UNL A   1      40.651  29.309  29.050  1.00  0.00     0.173 A 
ATOM    120  F   UNL A   1      38.903  26.938  31.178  1.00  0.00    -0.203 F 
ATOM    121  C   UNL A   1      39.454  26.807  28.890  1.00  0.00     0.198 A 
ATOM    122  C   UNL A   1      40.635  28.619  27.842  1.00  0.00     0.198 A 
ATOM    123  F   UNL A   1      41.238  30.513  29.107  1.00  0.00    -0.203 F 
ATOM    124  F   UNL A   1      38.888  25.595  28.819  1.00  0.00    -0.200 F 
ATOM    125  C   UNL A   1      40.037  27.368  27.762  1.00  0.00     0.200 A 
ATOM    126  F   UNL A   1      41.197  29.162  26.754  1.00  0.00    -0.200 F 
ATOM    127  F   UNL A   1      40.028  26.701  26.600  1.00  0.00    -0.200 F 
ENDBRANCH  89 117
BRANCH 104 128
ATOM    128  C   UNL A   1      44.314  28.853  35.689  1.00  0.00     0.064 A 
ATOM    129  C   UNL A   1      45.574  29.333  35.306  1.00  0.00     0.173 A 
ATOM    130  C   UNL A   1      44.251  27.656  36.415  1.00  0.00     0.173 A 
ATOM    131  F   UNL A   1      45.677  30.466  34.596  1.00  0.00    -0.203 F 
ATOM    132  C   UNL A   1      46.731  28.634  35.636  1.00  0.00     0.198 A 
ATOM    133  C   UNL A   1      45.411  26.964  36.750  1.00  0.00     0.198 A 
ATOM    134  F   UNL A   1      43.064  27.159  36.796  1.00  0.00    -0.203 F 
ATOM    135  F   UNL A   1      47.927  29.099  35.246  1.00  0.00    -0.200 F 
ATOM    136  C   UNL A   1      46.650  27.453  36.360  1.00  0.00     0.200 A 
ATOM    137  F   UNL A   1      45.332  25.821  37.446  1.00  0.00    -0.200 F 
ATOM    138  F   UNL A   1      47.765  26.780  36.674  1.00  0.00    -0.200 F 
ENDBRANCH 104 128
ENDBRANCH  69  72
ENDBRANCH  59  62
ENDBRANCH  55  58
ENDBRANCH  52  55
ENDBRANCH  49  52
ENDBRANCH  46  49
ENDBRANCH   1  46
TORSDOF 18
ENDMDL
MODEL 5
REMARK VINA RESULT:     -12.7      1.735      8.015
REMARK SMILES CCc1cc(C(=O)c2[nH]c3cc(Cl)ccc3c2CC(=O)NCCCCCCNC(=O)c2ccc(-c3c4nc(c(-c5c(F)c(F)c(F)c(F)c5F)c5ccc([nH]5)c(-c5c(F)c(F)c(F)c(F)c5F)c5nc(c(-c6c(F)c(F)c(F)c(F)c6F)c6ccc3[nH]6)C=C5)C=C4)cc2)ncc1Cl
REMARK SMILES IDX 23 1 22 4 21 7 19 8 20 9 18 11 17 14 8 15 9 16 10 17 16 19
REMARK SMILES IDX 11 20 15 21 12 22 14 24 13 26 6 28 7 29 5 30 3 31 4 32 96 33
REMARK SMILES IDX 95 35 97 36 94 37 2 39 1 42 24 46 25 49 26 52 27 55 28 58
REMARK SMILES IDX 29 59 30 61 31 62 32 63 93 64 33 65 92 67 34 69 35 72 36 73
REMARK SMILES IDX 86 74 37 75 91 76 85 77 87 78 38 79 90 80 84 82 83 84 39 86
REMARK SMILES IDX 71 89 51 90 70 91 52 92 55 93 69 94 88 95 53 96 54 98 68 100
REMARK SMILES IDX 89 101 56 104 40 106 41 107 49 108 42 109 43 110 47 111
REMARK SMILES IDX 50 112 44 113 45 114 48 115 46 116 72 117 73 118 81 119
REMARK SMILES IDX 74 120 75 121 79 122 82 123 76 124 77 125 80 126 78 127
REMARK SMILES IDX 57 128 58 129 66 130 59 131 60 132 64 133 67 134 61 135
REMARK SMILES IDX 62 136 65 137 63 138
REMARK H PARENT 23 2 23 3 22 5 22 6 21 10 18 12 18 13 9 18 11 23 15 25 14 27
REMARK H PARENT 4 34 95 38 2 40 2 41 1 43 1 44 1 45 24 47 24 48 25 50 25 51
REMARK H PARENT 26 53 26 54 27 56 27 57 28 60 32 66 93 68 33 70 92 71 91 81
REMARK H PARENT 85 83 87 85 90 87 84 88 52 97 55 99 88 102 53 103 89 105
REMARK Flexibility Score: inf
ROOT
ATOM      1  C   UNL A   1      33.995  31.378  27.601  1.00  0.00    -0.036 C 
ATOM      2  H   UNL A   1      32.931  31.267  27.626  1.00  0.00     0.028 H 
ATOM      3  H   UNL A   1      34.346  31.929  26.754  1.00  0.00     0.028 H 
ENDROOT
BRANCH   1   4
ATOM      4  C   UNL A   1      34.616  29.985  27.490  1.00  0.00     0.017 C 
ATOM      5  H   UNL A   1      35.139  29.917  26.559  1.00  0.00     0.049 H 
ATOM      6  H   UNL A   1      35.274  29.857  28.324  1.00  0.00     0.049 H 
BRANCH   4   7
ATOM      7  N   UNL A   1      33.627  28.928  27.545  1.00  0.00    -0.356 N 
ATOM      8  C   UNL A   1      33.122  28.158  26.535  1.00  0.00     0.224 C 
ATOM      9  O   UNL A   1      32.354  27.239  26.829  1.00  0.00    -0.275 OA
ATOM     10  H   UNL A   1      33.267  28.734  28.440  1.00  0.00     0.163 HD
BRANCH   8  11
ATOM     11  C   UNL A   1      33.579  28.358  25.099  1.00  0.00     0.055 C 
ATOM     12  H   UNL A   1      34.127  29.276  25.049  1.00  0.00     0.042 H 
ATOM     13  H   UNL A   1      34.167  27.501  24.848  1.00  0.00     0.042 H 
BRANCH  11  14
ATOM     14  C   UNL A   1      32.472  28.421  24.085  1.00  0.00    -0.002 A 
ATOM     15  C   UNL A   1      32.322  27.639  22.943  1.00  0.00     0.093 A 
ATOM     16  N   UNL A   1      31.114  27.968  22.374  1.00  0.00    -0.351 N 
ATOM     17  C   UNL A   1      30.558  29.050  23.009  1.00  0.00     0.048 A 
ATOM     18  H   UNL A   1      30.705  27.493  21.615  1.00  0.00     0.167 HD
ATOM     19  C   UNL A   1      31.386  29.360  24.087  1.00  0.00     0.004 A 
ATOM     20  C   UNL A   1      29.387  29.761  22.717  1.00  0.00    -0.019 A 
ATOM     21  C   UNL A   1      31.025  30.445  24.916  1.00  0.00    -0.051 A 
ATOM     22  C   UNL A   1      29.060  30.831  23.554  1.00  0.00     0.043 A 
ATOM     23  H   UNL A   1      28.790  29.504  21.915  1.00  0.00     0.066 H 
ATOM     24  C   UNL A   1      29.862  31.174  24.638  1.00  0.00    -0.043 A 
ATOM     25  H   UNL A   1      31.615  30.699  25.723  1.00  0.00     0.063 H 
ATOM     26  Cl  UNL A   1      27.634  31.741  23.233  1.00  0.00    -0.084 Cl
ATOM     27  H   UNL A   1      29.597  31.969  25.240  1.00  0.00     0.064 H 
BRANCH  15  28
ATOM     28  C   UNL A   1      33.177  26.595  22.412  1.00  0.00     0.227 C 
ATOM     29  O   UNL A   1      34.023  26.845  21.558  1.00  0.00    -0.285 OA
BRANCH  28  30
ATOM     30  C   UNL A   1      33.047  25.204  22.993  1.00  0.00     0.113 A 
ATOM     31  C   UNL A   1      33.998  23.120  23.814  1.00  0.00    -0.026 A 
ATOM     32  C   UNL A   1      34.164  24.434  23.333  1.00  0.00    -0.028 A 
ATOM     33  C   UNL A   1      32.692  22.641  23.965  1.00  0.00     0.062 A 
ATOM     34  H   UNL A   1      35.111  24.829  23.230  1.00  0.00     0.065 H 
ATOM     35  C   UNL A   1      31.637  23.477  23.613  1.00  0.00     0.047 A 
ATOM     36  Cl  UNL A   1      32.328  21.066  24.558  1.00  0.00    -0.082 Cl
ATOM     37  N   UNL A   1      31.784  24.731  23.122  1.00  0.00    -0.251 NA
ATOM     38  H   UNL A   1      30.678  23.117  23.733  1.00  0.00     0.086 H 
BRANCH  31  39
ATOM     39  C   UNL A   1      35.231  22.292  24.100  1.00  0.00    -0.029 C 
ATOM     40  H   UNL A   1      35.433  22.335  25.150  1.00  0.00     0.031 H 
ATOM     41  H   UNL A   1      35.028  21.294  23.771  1.00  0.00     0.031 H 
BRANCH  39  42
ATOM     42  C   UNL A   1      36.465  22.775  23.349  1.00  0.00    -0.061 C 
ATOM     43  H   UNL A   1      36.553  22.240  22.427  1.00  0.00     0.023 H 
ATOM     44  H   UNL A   1      37.335  22.605  23.946  1.00  0.00     0.023 H 
ATOM     45  H   UNL A   1      36.370  23.821  23.144  1.00  0.00     0.023 H 
ENDBRANCH  39  42
ENDBRANCH  31  39
ENDBRANCH  28  30
ENDBRANCH  15  28
ENDBRANCH  11  14
ENDBRANCH   8  11
ENDBRANCH   4   7
ENDBRANCH   1   4
BRANCH   1  46
ATOM     46  C   UNL A   1      34.418  32.181  28.838  1.00  0.00    -0.052 C 
ATOM     47  H   UNL A   1      35.387  31.836  29.136  1.00  0.00     0.027 H 
ATOM     48  H   UNL A   1      33.651  32.015  29.565  1.00  0.00     0.027 H 
BRANCH  46  49
ATOM     49  C   UNL A   1      34.497  33.701  28.660  1.00  0.00    -0.052 C 
ATOM     50  H   UNL A   1      34.865  33.895  27.675  1.00  0.00     0.027 H 
ATOM     51  H   UNL A   1      35.134  34.049  29.446  1.00  0.00     0.027 H 
BRANCH  49  52
ATOM     52  C   UNL A   1      33.180  34.468  28.827  1.00  0.00    -0.036 C 
ATOM     53  H   UNL A   1      32.586  33.949  29.549  1.00  0.00     0.028 H 
ATOM     54  H   UNL A   1      32.743  34.510  27.851  1.00  0.00     0.028 H 
BRANCH  52  55
ATOM     55  C   UNL A   1      33.309  35.921  29.284  1.00  0.00     0.018 C 
ATOM     56  H   UNL A   1      32.994  36.561  28.486  1.00  0.00     0.049 H 
ATOM     57  H   UNL A   1      34.334  36.088  29.544  1.00  0.00     0.049 H 
BRANCH  55  58
ATOM     58  N   UNL A   1      32.507  36.215  30.458  1.00  0.00    -0.352 N 
ATOM     59  C   UNL A   1      32.682  35.819  31.761  1.00  0.00     0.251 C 
ATOM     60  H   UNL A   1      31.719  36.784  30.296  1.00  0.00     0.163 HD
ATOM     61  O   UNL A   1      31.817  36.068  32.597  1.00  0.00    -0.269 OA
BRANCH  59  62
ATOM     62  C   UNL A   1      33.892  35.071  32.174  1.00  0.00     0.039 A 
ATOM     63  C   UNL A   1      33.735  33.765  32.656  1.00  0.00    -0.049 A 
ATOM     64  C   UNL A   1      35.162  35.657  32.155  1.00  0.00    -0.049 A 
ATOM     65  C   UNL A   1      34.850  33.031  33.070  1.00  0.00    -0.053 A 
ATOM     66  H   UNL A   1      32.794  33.345  32.705  1.00  0.00     0.063 H 
ATOM     67  C   UNL A   1      36.279  34.914  32.545  1.00  0.00    -0.053 A 
ATOM     68  H   UNL A   1      35.273  36.637  31.853  1.00  0.00     0.063 H 
ATOM     69  C   UNL A   1      36.131  33.596  33.003  1.00  0.00    -0.014 A 
ATOM     70  H   UNL A   1      34.729  32.069  33.424  1.00  0.00     0.063 H 
ATOM     71  H   UNL A   1      37.218  35.338  32.498  1.00  0.00     0.063 H 
BRANCH  69  72
ATOM     72  C   UNL A   1      37.327  32.816  33.403  1.00  0.00     0.031 A 
ATOM     73  C   UNL A   1      38.015  33.094  34.707  1.00  0.00     0.074 A 
ATOM     74  C   UNL A   1      37.828  31.891  32.564  1.00  0.00     0.049 A 
ATOM     75  N   UNL A   1      39.123  32.580  35.182  1.00  0.00    -0.248 NA
ATOM     76  C   UNL A   1      37.384  34.088  35.586  1.00  0.00    -0.034 C 
ATOM     77  C   UNL A   1      37.269  31.543  31.258  1.00  0.00    -0.036 A 
ATOM     78  N   UNL A   1      38.934  31.087  32.682  1.00  0.00    -0.354 N 
ATOM     79  C   UNL A   1      39.340  33.212  36.397  1.00  0.00     0.074 A 
ATOM     80  C   UNL A   1      38.247  34.142  36.593  1.00  0.00    -0.034 C 
ATOM     81  H   UNL A   1      36.502  34.609  35.455  1.00  0.00     0.065 H 
ATOM     82  C   UNL A   1      38.037  30.597  30.693  1.00  0.00    -0.036 A 
ATOM     83  H   UNL A   1      36.423  31.958  30.839  1.00  0.00     0.065 H 
ATOM     84  C   UNL A   1      39.147  30.286  31.589  1.00  0.00     0.049 A 
ATOM     85  H   UNL A   1      39.517  31.084  33.475  1.00  0.00     0.167 HD
ATOM     86  C   UNL A   1      40.361  33.035  37.270  1.00  0.00     0.037 A 
ATOM     87  H   UNL A   1      38.151  34.766  37.410  1.00  0.00     0.065 H 
ATOM     88  H   UNL A   1      37.869  30.159  29.773  1.00  0.00     0.065 H 
ATOM     89  C   UNL A   1      40.134  29.407  31.335  1.00  0.00     0.037 A 
ATOM     90  C   UNL A   1      41.429  32.085  37.106  1.00  0.00     0.049 A 
ATOM     91  C   UNL A   1      41.222  29.188  32.343  1.00  0.00     0.074 A 
ATOM     92  C   UNL A   1      42.474  31.803  37.969  1.00  0.00    -0.036 A 
ATOM     93  N   UNL A   1      41.582  31.257  36.006  1.00  0.00    -0.354 N 
ATOM     94  N   UNL A   1      41.405  29.776  33.498  1.00  0.00    -0.248 NA
ATOM     95  C   UNL A   1      42.244  28.183  32.010  1.00  0.00    -0.034 C 
ATOM     96  C   UNL A   1      43.268  30.807  37.386  1.00  0.00    -0.036 A 
ATOM     97  H   UNL A   1      42.639  32.248  38.886  1.00  0.00     0.065 H 
ATOM     98  C   UNL A   1      42.709  30.466  36.165  1.00  0.00     0.049 A 
ATOM     99  H   UNL A   1      40.981  31.234  35.227  1.00  0.00     0.167 HD
ATOM    100  C   UNL A   1      42.554  29.213  34.034  1.00  0.00     0.074 A 
ATOM    101  C   UNL A   1      43.025  28.230  33.081  1.00  0.00    -0.034 C 
ATOM    102  H   UNL A   1      42.329  27.595  31.166  1.00  0.00     0.065 H 
ATOM    103  H   UNL A   1      44.124  30.399  37.794  1.00  0.00     0.065 H 
ATOM    104  C   UNL A   1      43.163  29.492  35.210  1.00  0.00     0.037 A 
ATOM    105  H   UNL A   1      43.862  27.642  33.217  1.00  0.00     0.065 H 
BRANCH  86 106
ATOM    106  C   UNL A   1      40.377  33.903  38.485  1.00  0.00     0.064 A 
ATOM    107  C   UNL A   1      39.711  33.527  39.659  1.00  0.00     0.173 A 
ATOM    108  C   UNL A   1      41.093  35.108  38.483  1.00  0.00     0.173 A 
ATOM    109  F   UNL A   1      39.005  32.388  39.698  1.00  0.00    -0.203 F 
ATOM    110  C   UNL A   1      39.755  34.337  40.791  1.00  0.00     0.198 A 
ATOM    111  C   UNL A   1      41.142  35.910  39.619  1.00  0.00     0.198 A 
ATOM    112  F   UNL A   1      41.742  35.507  37.379  1.00  0.00    -0.203 F 
ATOM    113  F   UNL A   1      39.097  33.971  41.899  1.00  0.00    -0.200 F 
ATOM    114  C   UNL A   1      40.472  35.525  40.771  1.00  0.00     0.200 A 
ATOM    115  F   UNL A   1      41.834  37.057  39.600  1.00  0.00    -0.200 F 
ATOM    116  F   UNL A   1      40.513  36.302  41.863  1.00  0.00    -0.200 F 
ENDBRANCH  86 106
BRANCH  89 117
ATOM    117  C   UNL A   1      40.130  28.662  30.055  1.00  0.00     0.064 A 
ATOM    118  C   UNL A   1      39.496  27.417  29.954  1.00  0.00     0.173 A 
ATOM    119  C   UNL A   1      40.744  29.189  28.911  1.00  0.00     0.173 A 
ATOM    120  F   UNL A   1      38.916  26.873  31.032  1.00  0.00    -0.203 F 
ATOM    121  C   UNL A   1      39.478  26.721  28.749  1.00  0.00     0.198 A 
ATOM    122  C   UNL A   1      40.716  28.496  27.704  1.00  0.00     0.198 A 
ATOM    123  F   UNL A   1      41.363  30.376  28.969  1.00  0.00    -0.203 F 
ATOM    124  F   UNL A   1      38.880  25.524  28.676  1.00  0.00    -0.200 F 
ATOM    125  C   UNL A   1      40.085  27.262  27.623  1.00  0.00     0.200 A 
ATOM    126  F   UNL A   1      41.301  29.021  26.619  1.00  0.00    -0.200 F 
ATOM    127  F   UNL A   1      40.065  26.594  26.463  1.00  0.00    -0.200 F 
ENDBRANCH  89 117
BRANCH 104 128
ATOM    128  C   UNL A   1      44.401  28.719  35.534  1.00  0.00     0.064 A 
ATOM    129  C   UNL A   1      45.664  29.180  35.139  1.00  0.00     0.173 A 
ATOM    130  C   UNL A   1      44.328  27.530  36.271  1.00  0.00     0.173 A 
ATOM    131  F   UNL A   1      45.776  30.307  34.420  1.00  0.00    -0.203 F 
ATOM    132  C   UNL A   1      46.815  28.470  35.468  1.00  0.00     0.198 A 
ATOM    133  C   UNL A   1      45.482  26.826  36.604  1.00  0.00     0.198 A 
ATOM    134  F   UNL A   1      43.137  27.050  36.663  1.00  0.00    -0.203 F 
ATOM    135  F   UNL A   1      48.014  28.917  35.066  1.00  0.00    -0.200 F 
ATOM    136  C   UNL A   1      46.724  27.296  36.201  1.00  0.00     0.200 A 
ATOM    137  F   UNL A   1      45.393  25.690  37.309  1.00  0.00    -0.200 F 
ATOM    138  F   UNL A   1      47.832  26.612  36.514  1.00  0.00    -0.200 F 
ENDBRANCH 104 128
ENDBRANCH  69  72
ENDBRANCH  59  62
ENDBRANCH  55  58
ENDBRANCH  52  55
ENDBRANCH  49  52
ENDBRANCH  46  49
ENDBRANCH   1  46
TORSDOF 18
ENDMDL
MODEL 6
REMARK VINA RESULT:     -12.6      1.292      2.457
REMARK SMILES CCc1cc(C(=O)c2[nH]c3cc(Cl)ccc3c2CC(=O)NCCCCCCNC(=O)c2ccc(-c3c4nc(c(-c5c(F)c(F)c(F)c(F)c5F)c5ccc([nH]5)c(-c5c(F)c(F)c(F)c(F)c5F)c5nc(c(-c6c(F)c(F)c(F)c(F)c6F)c6ccc3[nH]6)C=C5)C=C4)cc2)ncc1Cl
REMARK SMILES IDX 23 1 22 4 21 7 19 8 20 9 18 11 17 14 8 15 9 16 10 17 16 19
REMARK SMILES IDX 11 20 15 21 12 22 14 24 13 26 6 28 7 29 5 30 3 31 4 32 96 33
REMARK SMILES IDX 95 35 97 36 94 37 2 39 1 42 24 46 25 49 26 52 27 55 28 58
REMARK SMILES IDX 29 59 30 61 31 62 32 63 93 64 33 65 92 67 34 69 35 72 36 73
REMARK SMILES IDX 86 74 37 75 91 76 85 77 87 78 38 79 90 80 84 82 83 84 39 86
REMARK SMILES IDX 71 89 51 90 70 91 52 92 55 93 69 94 88 95 53 96 54 98 68 100
REMARK SMILES IDX 89 101 56 104 40 106 41 107 49 108 42 109 43 110 47 111
REMARK SMILES IDX 50 112 44 113 45 114 48 115 46 116 72 117 73 118 81 119
REMARK SMILES IDX 74 120 75 121 79 122 82 123 76 124 77 125 80 126 78 127
REMARK SMILES IDX 57 128 58 129 66 130 59 131 60 132 64 133 67 134 61 135
REMARK SMILES IDX 62 136 65 137 63 138
REMARK H PARENT 23 2 23 3 22 5 22 6 21 10 18 12 18 13 9 18 11 23 15 25 14 27
REMARK H PARENT 4 34 95 38 2 40 2 41 1 43 1 44 1 45 24 47 24 48 25 50 25 51
REMARK H PARENT 26 53 26 54 27 56 27 57 28 60 32 66 93 68 33 70 92 71 91 81
REMARK H PARENT 85 83 87 85 90 87 84 88 52 97 55 99 88 102 53 103 89 105
REMARK Flexibility Score: inf
ROOT
ATOM      1  C   UNL A   1      33.164  28.249  25.454  1.00  0.00    -0.036 C 
ATOM      2  H   UNL A   1      32.678  28.128  24.508  1.00  0.00     0.028 H 
ATOM      3  H   UNL A   1      34.091  28.778  25.391  1.00  0.00     0.028 H 
ENDROOT
BRANCH   1   4
ATOM      4  C   UNL A   1      33.502  26.859  25.995  1.00  0.00     0.017 C 
ATOM      5  H   UNL A   1      34.051  26.971  26.907  1.00  0.00     0.049 H 
ATOM      6  H   UNL A   1      32.580  26.339  26.150  1.00  0.00     0.049 H 
BRANCH   4   7
ATOM      7  N   UNL A   1      34.296  26.077  25.069  1.00  0.00    -0.356 N 
ATOM      8  C   UNL A   1      34.625  24.752  25.112  1.00  0.00     0.224 C 
ATOM      9  O   UNL A   1      35.234  24.270  24.155  1.00  0.00    -0.275 OA
ATOM     10  H   UNL A   1      34.649  26.573  24.296  1.00  0.00     0.163 HD
BRANCH   8  11
ATOM     11  C   UNL A   1      34.158  23.869  26.259  1.00  0.00     0.055 C 
ATOM     12  H   UNL A   1      35.023  23.522  26.784  1.00  0.00     0.042 H 
ATOM     13  H   UNL A   1      33.513  24.475  26.860  1.00  0.00     0.042 H 
BRANCH  11  14
ATOM     14  C   UNL A   1      33.350  22.671  25.847  1.00  0.00    -0.002 A 
ATOM     15  C   UNL A   1      31.963  22.551  25.823  1.00  0.00     0.093 A 
ATOM     16  N   UNL A   1      31.665  21.324  25.279  1.00  0.00    -0.351 N 
ATOM     17  C   UNL A   1      32.805  20.580  25.109  1.00  0.00     0.048 A 
ATOM     18  H   UNL A   1      30.758  21.021  25.045  1.00  0.00     0.167 HD
ATOM     19  C   UNL A   1      33.881  21.396  25.457  1.00  0.00     0.004 A 
ATOM     20  C   UNL A   1      32.961  19.262  24.663  1.00  0.00    -0.019 A 
ATOM     21  C   UNL A   1      35.184  20.862  25.359  1.00  0.00    -0.051 A 
ATOM     22  C   UNL A   1      34.263  18.761  24.581  1.00  0.00     0.043 A 
ATOM     23  H   UNL A   1      32.146  18.683  24.407  1.00  0.00     0.066 H 
ATOM     24  C   UNL A   1      35.362  19.543  24.923  1.00  0.00    -0.043 A 
ATOM     25  H   UNL A   1      36.002  21.440  25.608  1.00  0.00     0.063 H 
ATOM     26  Cl  UNL A   1      34.508  17.143  24.046  1.00  0.00    -0.084 Cl
ATOM     27  H   UNL A   1      36.313  19.149  24.853  1.00  0.00     0.064 H 
BRANCH  15  28
ATOM     28  C   UNL A   1      30.940  23.508  26.201  1.00  0.00     0.227 C 
ATOM     29  O   UNL A   1      30.348  23.408  27.272  1.00  0.00    -0.285 OA
BRANCH  28  30
ATOM     30  C   UNL A   1      30.676  24.672  25.272  1.00  0.00     0.113 A 
ATOM     31  C   UNL A   1      30.995  25.864  23.175  1.00  0.00    -0.026 A 
ATOM     32  C   UNL A   1      31.216  24.732  23.984  1.00  0.00    -0.028 A 
ATOM     33  C   UNL A   1      30.199  26.891  23.695  1.00  0.00     0.062 A 
ATOM     34  H   UNL A   1      31.779  23.946  23.626  1.00  0.00     0.065 H 
ATOM     35  C   UNL A   1      29.692  26.746  24.982  1.00  0.00     0.047 A 
ATOM     36  Cl  UNL A   1      29.822  28.327  22.822  1.00  0.00    -0.082 Cl
ATOM     37  N   UNL A   1      29.921  25.676  25.781  1.00  0.00    -0.251 NA
ATOM     38  H   UNL A   1      29.101  27.506  25.355  1.00  0.00     0.086 H 
BRANCH  31  39
ATOM     39  C   UNL A   1      31.657  25.926  21.817  1.00  0.00    -0.029 C 
ATOM     40  H   UNL A   1      30.929  25.680  21.072  1.00  0.00     0.031 H 
ATOM     41  H   UNL A   1      32.038  26.919  21.693  1.00  0.00     0.031 H 
BRANCH  39  42
ATOM     42  C   UNL A   1      32.833  24.968  21.680  1.00  0.00    -0.061 C 
ATOM     43  H   UNL A   1      32.685  24.341  20.825  1.00  0.00     0.023 H 
ATOM     44  H   UNL A   1      32.904  24.362  22.559  1.00  0.00     0.023 H 
ATOM     45  H   UNL A   1      33.737  25.527  21.558  1.00  0.00     0.023 H 
ENDBRANCH  39  42
ENDBRANCH  31  39
ENDBRANCH  28  30
ENDBRANCH  15  28
ENDBRANCH  11  14
ENDBRANCH   8  11
ENDBRANCH   4   7
ENDBRANCH   1   4
BRANCH   1  46
ATOM     46  C   UNL A   1      32.250  29.091  26.352  1.00  0.00    -0.052 C 
ATOM     47  H   UNL A   1      32.839  29.453  27.170  1.00  0.00     0.027 H 
ATOM     48  H   UNL A   1      31.452  28.440  26.641  1.00  0.00     0.027 H 
BRANCH  46  49
ATOM     49  C   UNL A   1      31.579  30.298  25.688  1.00  0.00    -0.052 C 
ATOM     50  H   UNL A   1      30.611  29.989  25.354  1.00  0.00     0.027 H 
ATOM     51  H   UNL A   1      32.241  30.598  24.903  1.00  0.00     0.027 H 
BRANCH  49  52
ATOM     52  C   UNL A   1      31.396  31.538  26.570  1.00  0.00    -0.036 C 
ATOM     53  H   UNL A   1      30.922  31.229  27.478  1.00  0.00     0.028 H 
ATOM     54  H   UNL A   1      30.817  32.225  25.988  1.00  0.00     0.028 H 
BRANCH  52  55
ATOM     55  C   UNL A   1      32.676  32.287  26.941  1.00  0.00     0.018 C 
ATOM     56  H   UNL A   1      33.308  32.333  26.079  1.00  0.00     0.049 H 
ATOM     57  H   UNL A   1      33.140  31.754  27.745  1.00  0.00     0.049 H 
BRANCH  55  58
ATOM     58  N   UNL A   1      32.422  33.640  27.403  1.00  0.00    -0.352 N 
ATOM     59  C   UNL A   1      33.060  34.368  28.377  1.00  0.00     0.251 C 
ATOM     60  H   UNL A   1      31.681  34.106  26.950  1.00  0.00     0.163 HD
ATOM     61  O   UNL A   1      32.613  35.462  28.714  1.00  0.00    -0.269 OA
BRANCH  59  62
ATOM     62  C   UNL A   1      34.271  33.844  29.049  1.00  0.00     0.039 A 
ATOM     63  C   UNL A   1      34.115  32.845  30.018  1.00  0.00    -0.049 A 
ATOM     64  C   UNL A   1      35.542  34.366  28.788  1.00  0.00    -0.049 A 
ATOM     65  C   UNL A   1      35.231  32.335  30.687  1.00  0.00    -0.053 A 
ATOM     66  H   UNL A   1      33.174  32.486  30.239  1.00  0.00     0.063 H 
ATOM     67  C   UNL A   1      36.661  33.838  29.438  1.00  0.00    -0.053 A 
ATOM     68  H   UNL A   1      35.654  35.140  28.114  1.00  0.00     0.063 H 
ATOM     69  C   UNL A   1      36.513  32.818  30.390  1.00  0.00    -0.014 A 
ATOM     70  H   UNL A   1      35.111  31.599  31.401  1.00  0.00     0.063 H 
ATOM     71  H   UNL A   1      37.600  34.202  29.217  1.00  0.00     0.063 H 
BRANCH  69  72
ATOM     72  C   UNL A   1      37.710  32.260  31.063  1.00  0.00     0.031 A 
ATOM     73  C   UNL A   1      38.533  31.199  30.396  1.00  0.00     0.074 A 
ATOM     74  C   UNL A   1      38.026  32.671  32.305  1.00  0.00     0.049 A 
ATOM     75  N   UNL A   1      39.556  30.528  30.867  1.00  0.00    -0.248 NA
ATOM     76  C   UNL A   1      38.150  30.833  29.025  1.00  0.00    -0.034 C 
ATOM     77  C   UNL A   1      37.294  33.677  33.075  1.00  0.00    -0.036 A 
ATOM     78  N   UNL A   1      39.038  32.277  33.144  1.00  0.00    -0.354 N 
ATOM     79  C   UNL A   1      39.917  29.639  29.866  1.00  0.00     0.074 A 
ATOM     80  C   UNL A   1      39.010  29.858  28.757  1.00  0.00    -0.034 C 
ATOM     81  H   UNL A   1      37.407  31.229  28.428  1.00  0.00     0.065 H 
ATOM     82  C   UNL A   1      37.879  33.820  34.275  1.00  0.00    -0.036 A 
ATOM     83  H   UNL A   1      36.462  34.192  32.748  1.00  0.00     0.065 H 
ATOM     84  C   UNL A   1      39.015  32.906  34.363  1.00  0.00     0.049 A 
ATOM     85  H   UNL A   1      39.717  31.609  32.895  1.00  0.00     0.167 HD
ATOM     86  C   UNL A   1      40.912  28.721  29.871  1.00  0.00     0.037 A 
ATOM     87  H   UNL A   1      39.030  29.325  27.873  1.00  0.00     0.065 H 
ATOM     88  H   UNL A   1      37.576  34.472  35.016  1.00  0.00     0.065 H 
ATOM     89  C   UNL A   1      39.814  32.754  35.435  1.00  0.00     0.037 A 
ATOM     90  C   UNL A   1      41.844  28.522  30.948  1.00  0.00     0.049 A 
ATOM     91  C   UNL A   1      40.945  31.769  35.395  1.00  0.00     0.074 A 
ATOM     92  C   UNL A   1      42.918  27.650  31.014  1.00  0.00    -0.036 A 
ATOM     93  N   UNL A   1      41.817  29.214  32.148  1.00  0.00    -0.354 N 
ATOM     94  N   UNL A   1      41.288  30.949  34.434  1.00  0.00    -0.248 NA
ATOM     95  C   UNL A   1      41.798  31.688  36.590  1.00  0.00    -0.034 C 
ATOM     96  C   UNL A   1      43.536  27.808  32.260  1.00  0.00    -0.036 A 
ATOM     97  H   UNL A   1      43.212  26.997  30.270  1.00  0.00     0.065 H 
ATOM     98  C   UNL A   1      42.851  28.785  32.964  1.00  0.00     0.049 A 
ATOM     99  H   UNL A   1      41.160  29.908  32.386  1.00  0.00     0.167 HD
ATOM    100  C   UNL A   1      42.397  30.259  34.902  1.00  0.00     0.074 A 
ATOM    101  C   UNL A   1      42.675  30.761  36.232  1.00  0.00    -0.034 C 
ATOM    102  H   UNL A   1      41.732  32.216  37.475  1.00  0.00     0.065 H 
ATOM    103  H   UNL A   1      44.359  27.284  32.597  1.00  0.00     0.065 H 
ATOM    104  C   UNL A   1      43.115  29.294  34.282  1.00  0.00     0.037 A 
ATOM    105  H   UNL A   1      43.455  30.437  36.824  1.00  0.00     0.065 H 
BRANCH  86 106
ATOM    106  C   UNL A   1      41.036  27.844  28.668  1.00  0.00     0.064 A 
ATOM    107  C   UNL A   1      40.278  26.673  28.538  1.00  0.00     0.173 A 
ATOM    108  C   UNL A   1      41.899  28.197  27.621  1.00  0.00     0.173 A 
ATOM    109  F   UNL A   1      39.449  26.293  29.521  1.00  0.00    -0.203 F 
ATOM    110  C   UNL A   1      40.388  25.878  27.400  1.00  0.00     0.198 A 
ATOM    111  C   UNL A   1      41.999  27.406  26.481  1.00  0.00     0.198 A 
ATOM    112  F   UNL A   1      42.645  29.309  27.707  1.00  0.00    -0.203 F 
ATOM    113  F   UNL A   1      39.669  24.752  27.300  1.00  0.00    -0.200 F 
ATOM    114  C   UNL A   1      41.245  26.246  26.372  1.00  0.00     0.200 A 
ATOM    115  F   UNL A   1      42.827  27.761  25.489  1.00  0.00    -0.200 F 
ATOM    116  F   UNL A   1      41.348  25.479  25.277  1.00  0.00    -0.200 F 
ENDBRANCH  86 106
BRANCH  89 117
ATOM    117  C   UNL A   1      39.565  33.568  36.647  1.00  0.00     0.064 A 
ATOM    118  C   UNL A   1      38.782  33.070  37.695  1.00  0.00     0.173 A 
ATOM    119  C   UNL A   1      40.119  34.848  36.782  1.00  0.00     0.173 A 
ATOM    120  F   UNL A   1      38.219  31.858  37.593  1.00  0.00    -0.203 F 
ATOM    121  C   UNL A   1      38.559  33.828  38.841  1.00  0.00     0.198 A 
ATOM    122  C   UNL A   1      39.904  35.600  37.933  1.00  0.00     0.198 A 
ATOM    123  F   UNL A   1      40.872  35.360  35.798  1.00  0.00    -0.203 F 
ATOM    124  F   UNL A   1      37.793  33.340  39.827  1.00  0.00    -0.200 F 
ATOM    125  C   UNL A   1      39.122  35.091  38.962  1.00  0.00     0.200 A 
ATOM    126  F   UNL A   1      40.450  36.818  38.048  1.00  0.00    -0.200 F 
ATOM    127  F   UNL A   1      38.909  35.819  40.066  1.00  0.00    -0.200 F 
ENDBRANCH  89 117
BRANCH 104 128
ATOM    128  C   UNL A   1      44.275  28.722  35.033  1.00  0.00     0.064 A 
ATOM    129  C   UNL A   1      44.118  27.600  35.859  1.00  0.00     0.173 A 
ATOM    130  C   UNL A   1      45.555  29.277  34.902  1.00  0.00     0.173 A 
ATOM    131  F   UNL A   1      42.906  27.049  36.023  1.00  0.00    -0.203 F 
ATOM    132  C   UNL A   1      45.206  27.057  36.534  1.00  0.00     0.198 A 
ATOM    133  C   UNL A   1      46.642  28.726  35.573  1.00  0.00     0.198 A 
ATOM    134  F   UNL A   1      45.747  30.355  34.126  1.00  0.00    -0.203 F 
ATOM    135  F   UNL A   1      45.034  25.994  37.333  1.00  0.00    -0.200 F 
ATOM    136  C   UNL A   1      46.467  27.617  36.389  1.00  0.00     0.200 A 
ATOM    137  F   UNL A   1      47.860  29.270  35.435  1.00  0.00    -0.200 F 
ATOM    138  F   UNL A   1      47.513  27.094  37.042  1.00  0.00    -0.200 F 
ENDBRANCH 104 128
ENDBRANCH  69  72
ENDBRANCH  59  62
ENDBRANCH  55  58
ENDBRANCH  52  55
ENDBRANCH  49  52
ENDBRANCH  46  49
ENDBRANCH   1  46
TORSDOF 18
ENDMDL
MODEL 7
REMARK VINA RESULT:     -12.6      1.646      7.244
REMARK SMILES CCc1cc(C(=O)c2[nH]c3cc(Cl)ccc3c2CC(=O)NCCCCCCNC(=O)c2ccc(-c3c4nc(c(-c5c(F)c(F)c(F)c(F)c5F)c5ccc([nH]5)c(-c5c(F)c(F)c(F)c(F)c5F)c5nc(c(-c6c(F)c(F)c(F)c(F)c6F)c6ccc3[nH]6)C=C5)C=C4)cc2)ncc1Cl
REMARK SMILES IDX 23 1 22 4 21 7 19 8 20 9 18 11 17 14 8 15 9 16 10 17 16 19
REMARK SMILES IDX 11 20 15 21 12 22 14 24 13 26 6 28 7 29 5 30 3 31 4 32 96 33
REMARK SMILES IDX 95 35 97 36 94 37 2 39 1 42 24 46 25 49 26 52 27 55 28 58
REMARK SMILES IDX 29 59 30 61 31 62 32 63 93 64 33 65 92 67 34 69 35 72 36 73
REMARK SMILES IDX 86 74 37 75 91 76 85 77 87 78 38 79 90 80 84 82 83 84 39 86
REMARK SMILES IDX 71 89 51 90 70 91 52 92 55 93 69 94 88 95 53 96 54 98 68 100
REMARK SMILES IDX 89 101 56 104 40 106 41 107 49 108 42 109 43 110 47 111
REMARK SMILES IDX 50 112 44 113 45 114 48 115 46 116 72 117 73 118 81 119
REMARK SMILES IDX 74 120 75 121 79 122 82 123 76 124 77 125 80 126 78 127
REMARK SMILES IDX 57 128 58 129 66 130 59 131 60 132 64 133 67 134 61 135
REMARK SMILES IDX 62 136 65 137 63 138
REMARK H PARENT 23 2 23 3 22 5 22 6 21 10 18 12 18 13 9 18 11 23 15 25 14 27
REMARK H PARENT 4 34 95 38 2 40 2 41 1 43 1 44 1 45 24 47 24 48 25 50 25 51
REMARK H PARENT 26 53 26 54 27 56 27 57 28 60 32 66 93 68 33 70 92 71 91 81
REMARK H PARENT 85 83 87 85 90 87 84 88 52 97 55 99 88 102 53 103 89 105
REMARK Flexibility Score: inf
ROOT
ATOM      1  C   UNL A   1      34.056  31.318  27.676  1.00  0.00    -0.036 C 
ATOM      2  H   UNL A   1      32.994  31.426  27.599  1.00  0.00     0.028 H 
ATOM      3  H   UNL A   1      34.583  31.664  26.812  1.00  0.00     0.028 H 
ENDROOT
BRANCH   1   4
ATOM      4  C   UNL A   1      34.374  29.828  27.802  1.00  0.00     0.017 C 
ATOM      5  H   UNL A   1      35.120  29.575  27.078  1.00  0.00     0.049 H 
ATOM      6  H   UNL A   1      34.717  29.653  28.800  1.00  0.00     0.049 H 
BRANCH   4   7
ATOM      7  N   UNL A   1      33.213  28.989  27.584  1.00  0.00    -0.356 N 
ATOM      8  C   UNL A   1      33.058  27.923  26.745  1.00  0.00     0.224 C 
ATOM      9  O   UNL A   1      32.003  27.287  26.796  1.00  0.00    -0.275 OA
ATOM     10  H   UNL A   1      32.421  29.221  28.119  1.00  0.00     0.163 HD
BRANCH   8  11
ATOM     11  C   UNL A   1      34.198  27.463  25.849  1.00  0.00     0.055 C 
ATOM     12  H   UNL A   1      34.554  28.312  25.303  1.00  0.00     0.042 H 
ATOM     13  H   UNL A   1      34.935  27.036  26.496  1.00  0.00     0.042 H 
BRANCH  11  14
ATOM     14  C   UNL A   1      33.833  26.392  24.859  1.00  0.00    -0.002 A 
ATOM     15  C   UNL A   1      33.218  26.556  23.621  1.00  0.00     0.093 A 
ATOM     16  N   UNL A   1      33.178  25.322  23.015  1.00  0.00    -0.351 N 
ATOM     17  C   UNL A   1      33.589  24.342  23.883  1.00  0.00     0.048 A 
ATOM     18  H   UNL A   1      32.893  25.164  22.086  1.00  0.00     0.167 HD
ATOM     19  C   UNL A   1      34.006  24.980  25.051  1.00  0.00     0.004 A 
ATOM     20  C   UNL A   1      33.633  22.953  23.716  1.00  0.00    -0.019 A 
ATOM     21  C   UNL A   1      34.489  24.184  26.111  1.00  0.00    -0.051 A 
ATOM     22  C   UNL A   1      34.112  22.192  24.786  1.00  0.00     0.043 A 
ATOM     23  H   UNL A   1      33.322  22.509  22.838  1.00  0.00     0.066 H 
ATOM     24  C   UNL A   1      34.535  22.791  25.968  1.00  0.00    -0.043 A 
ATOM     25  H   UNL A   1      34.808  24.625  26.988  1.00  0.00     0.063 H 
ATOM     26  Cl  UNL A   1      34.180  20.478  24.633  1.00  0.00    -0.084 Cl
ATOM     27  H   UNL A   1      34.885  22.206  26.743  1.00  0.00     0.064 H 
BRANCH  15  28
ATOM     28  C   UNL A   1      32.747  27.763  22.968  1.00  0.00     0.227 C 
ATOM     29  O   UNL A   1      33.526  28.508  22.381  1.00  0.00    -0.285 OA
BRANCH  28  30
ATOM     30  C   UNL A   1      31.260  28.038  22.969  1.00  0.00     0.113 A 
ATOM     31  C   UNL A   1      29.342  29.490  22.601  1.00  0.00    -0.026 A 
ATOM     32  C   UNL A   1      30.728  29.253  22.526  1.00  0.00    -0.028 A 
ATOM     33  C   UNL A   1      28.531  28.463  23.099  1.00  0.00     0.062 A 
ATOM     34  H   UNL A   1      31.355  29.978  22.143  1.00  0.00     0.065 H 
ATOM     35  C   UNL A   1      29.140  27.282  23.510  1.00  0.00     0.047 A 
ATOM     36  Cl  UNL A   1      26.820  28.595  23.235  1.00  0.00    -0.082 Cl
ATOM     37  N   UNL A   1      30.474  27.053  23.469  1.00  0.00    -0.251 NA
ATOM     38  H   UNL A   1      28.534  26.529  23.870  1.00  0.00     0.086 H 
BRANCH  31  39
ATOM     39  C   UNL A   1      28.813  30.843  22.181  1.00  0.00    -0.029 C 
ATOM     40  H   UNL A   1      29.603  31.384  21.703  1.00  0.00     0.031 H 
ATOM     41  H   UNL A   1      27.988  30.672  21.522  1.00  0.00     0.031 H 
BRANCH  39  42
ATOM     42  C   UNL A   1      28.296  31.673  23.349  1.00  0.00    -0.061 C 
ATOM     43  H   UNL A   1      29.080  32.305  23.712  1.00  0.00     0.023 H 
ATOM     44  H   UNL A   1      27.971  31.022  24.133  1.00  0.00     0.023 H 
ATOM     45  H   UNL A   1      27.476  32.277  23.023  1.00  0.00     0.023 H 
ENDBRANCH  39  42
ENDBRANCH  31  39
ENDBRANCH  28  30
ENDBRANCH  15  28
ENDBRANCH  11  14
ENDBRANCH   8  11
ENDBRANCH   4   7
ENDBRANCH   1   4
BRANCH   1  46
ATOM     46  C   UNL A   1      34.537  32.186  28.846  1.00  0.00    -0.052 C 
ATOM     47  H   UNL A   1      35.528  31.871  29.101  1.00  0.00     0.027 H 
ATOM     48  H   UNL A   1      33.818  32.043  29.625  1.00  0.00     0.027 H 
BRANCH  46  49
ATOM     49  C   UNL A   1      34.577  33.696  28.593  1.00  0.00    -0.052 C 
ATOM     50  H   UNL A   1      34.940  33.851  27.599  1.00  0.00     0.027 H 
ATOM     51  H   UNL A   1      35.206  34.099  29.359  1.00  0.00     0.027 H 
BRANCH  49  52
ATOM     52  C   UNL A   1      33.241  34.438  28.724  1.00  0.00    -0.036 C 
ATOM     53  H   UNL A   1      32.652  33.927  29.455  1.00  0.00     0.028 H 
ATOM     54  H   UNL A   1      32.814  34.440  27.742  1.00  0.00     0.028 H 
BRANCH  52  55
ATOM     55  C   UNL A   1      33.332  35.907  29.138  1.00  0.00     0.018 C 
ATOM     56  H   UNL A   1      33.003  36.514  28.320  1.00  0.00     0.049 H 
ATOM     57  H   UNL A   1      34.352  36.107  29.395  1.00  0.00     0.049 H 
BRANCH  55  58
ATOM     58  N   UNL A   1      32.519  36.214  30.300  1.00  0.00    -0.352 N 
ATOM     59  C   UNL A   1      32.679  35.829  31.609  1.00  0.00     0.251 C 
ATOM     60  H   UNL A   1      31.736  36.785  30.125  1.00  0.00     0.163 HD
ATOM     61  O   UNL A   1      31.807  36.089  32.434  1.00  0.00    -0.269 OA
BRANCH  59  62
ATOM     62  C   UNL A   1      33.881  35.079  32.041  1.00  0.00     0.039 A 
ATOM     63  C   UNL A   1      33.724  33.750  32.455  1.00  0.00    -0.049 A 
ATOM     64  C   UNL A   1      35.141  35.682  32.105  1.00  0.00    -0.049 A 
ATOM     65  C   UNL A   1      34.831  33.013  32.884  1.00  0.00    -0.053 A 
ATOM     66  H   UNL A   1      32.788  33.316  32.443  1.00  0.00     0.063 H 
ATOM     67  C   UNL A   1      36.252  34.937  32.510  1.00  0.00    -0.053 A 
ATOM     68  H   UNL A   1      35.251  36.677  31.853  1.00  0.00     0.063 H 
ATOM     69  C   UNL A   1      36.105  33.598  32.900  1.00  0.00    -0.014 A 
ATOM     70  H   UNL A   1      34.710  32.034  33.189  1.00  0.00     0.063 H 
ATOM     71  H   UNL A   1      37.186  35.376  32.524  1.00  0.00     0.063 H 
BRANCH  69  72
ATOM     72  C   UNL A   1      37.294  32.817  33.317  1.00  0.00     0.031 A 
ATOM     73  C   UNL A   1      37.957  33.086  34.635  1.00  0.00     0.074 A 
ATOM     74  C   UNL A   1      37.812  31.898  32.481  1.00  0.00     0.049 A 
ATOM     75  N   UNL A   1      39.057  32.570  35.127  1.00  0.00    -0.248 NA
ATOM     76  C   UNL A   1      37.309  34.074  35.510  1.00  0.00    -0.034 C 
ATOM     77  C   UNL A   1      37.278  31.559  31.163  1.00  0.00    -0.036 A 
ATOM     78  N   UNL A   1      38.916  31.094  32.615  1.00  0.00    -0.354 N 
ATOM     79  C   UNL A   1      39.251  33.193  36.351  1.00  0.00     0.074 A 
ATOM     80  C   UNL A   1      38.152  34.121  36.533  1.00  0.00    -0.034 C 
ATOM     81  H   UNL A   1      36.429  34.594  35.366  1.00  0.00     0.065 H 
ATOM     82  C   UNL A   1      38.057  30.617  30.605  1.00  0.00    -0.036 A 
ATOM     83  H   UNL A   1      36.439  31.975  30.731  1.00  0.00     0.065 H 
ATOM     84  C   UNL A   1      39.151  30.301  31.520  1.00  0.00     0.049 A 
ATOM     85  H   UNL A   1      39.484  31.086  33.418  1.00  0.00     0.167 HD
ATOM     86  C   UNL A   1      40.254  33.012  37.241  1.00  0.00     0.037 A 
ATOM     87  H   UNL A   1      38.041  34.739  37.352  1.00  0.00     0.065 H 
ATOM     88  H   UNL A   1      37.907  30.186  29.680  1.00  0.00     0.065 H 
ATOM     89  C   UNL A   1      40.144  29.425  31.278  1.00  0.00     0.037 A 
ATOM     90  C   UNL A   1      41.327  32.065  37.091  1.00  0.00     0.049 A 
ATOM     91  C   UNL A   1      41.213  29.201  32.305  1.00  0.00     0.074 A 
ATOM     92  C   UNL A   1      42.356  31.777  37.971  1.00  0.00    -0.036 A 
ATOM     93  N   UNL A   1      41.502  31.244  35.989  1.00  0.00    -0.354 N 
ATOM     94  N   UNL A   1      41.374  29.781  33.467  1.00  0.00    -0.248 NA
ATOM     95  C   UNL A   1      42.242  28.199  31.984  1.00  0.00    -0.034 C 
ATOM     96  C   UNL A   1      43.162  30.787  37.396  1.00  0.00    -0.036 A 
ATOM     97  H   UNL A   1      42.503  32.216  38.894  1.00  0.00     0.065 H 
ATOM     98  C   UNL A   1      42.626  30.454  36.163  1.00  0.00     0.049 A 
ATOM     99  H   UNL A   1      40.915  31.226  35.198  1.00  0.00     0.167 HD
ATOM    100  C   UNL A   1      42.513  29.216  34.020  1.00  0.00     0.074 A 
ATOM    101  C   UNL A   1      43.003  28.240  33.069  1.00  0.00    -0.034 C 
ATOM    102  H   UNL A   1      42.344  27.618  31.138  1.00  0.00     0.065 H 
ATOM    103  H   UNL A   1      44.010  30.377  37.818  1.00  0.00     0.065 H 
ATOM    104  C   UNL A   1      43.100  29.487  35.209  1.00  0.00     0.037 A 
ATOM    105  H   UNL A   1      43.838  27.652  33.217  1.00  0.00     0.065 H 
BRANCH  86 106
ATOM    106  C   UNL A   1      40.247  33.872  38.462  1.00  0.00     0.064 A 
ATOM    107  C   UNL A   1      40.956  35.079  38.509  1.00  0.00     0.173 A 
ATOM    108  C   UNL A   1      39.495  33.499  39.585  1.00  0.00     0.173 A 
ATOM    109  F   UNL A   1      41.697  35.467  37.460  1.00  0.00    -0.203 F 
ATOM    110  C   UNL A   1      40.920  35.881  39.646  1.00  0.00     0.198 A 
ATOM    111  C   UNL A   1      39.453  34.307  40.717  1.00  0.00     0.198 A 
ATOM    112  F   UNL A   1      38.803  32.349  39.584  1.00  0.00    -0.203 F 
ATOM    113  F   UNL A   1      41.619  37.024  39.680  1.00  0.00    -0.200 F 
ATOM    114  C   UNL A   1      40.166  35.497  40.747  1.00  0.00     0.200 A 
ATOM    115  F   UNL A   1      38.726  33.936  41.780  1.00  0.00    -0.200 F 
ATOM    116  F   UNL A   1      40.133  36.272  41.840  1.00  0.00    -0.200 F 
ENDBRANCH  86 106
BRANCH  89 117
ATOM    117  C   UNL A   1      40.164  28.689  29.993  1.00  0.00     0.064 A 
ATOM    118  C   UNL A   1      39.525  27.450  29.869  1.00  0.00     0.173 A 
ATOM    119  C   UNL A   1      40.809  29.220  28.868  1.00  0.00     0.173 A 
ATOM    120  F   UNL A   1      38.915  26.902  30.929  1.00  0.00    -0.203 F 
ATOM    121  C   UNL A   1      39.530  26.763  28.658  1.00  0.00     0.198 A 
ATOM    122  C   UNL A   1      40.805  28.536  27.656  1.00  0.00     0.198 A 
ATOM    123  F   UNL A   1      41.435  30.402  28.949  1.00  0.00    -0.203 F 
ATOM    124  F   UNL A   1      38.926  25.570  28.563  1.00  0.00    -0.200 F 
ATOM    125  C   UNL A   1      40.167  27.307  27.551  1.00  0.00     0.200 A 
ATOM    126  F   UNL A   1      41.418  29.064  26.588  1.00  0.00    -0.200 F 
ATOM    127  F   UNL A   1      40.170  26.647  26.386  1.00  0.00    -0.200 F 
ENDBRANCH  89 117
BRANCH 104 128
ATOM    128  C   UNL A   1      44.333  28.713  35.551  1.00  0.00     0.064 A 
ATOM    129  C   UNL A   1      44.252  27.496  36.241  1.00  0.00     0.173 A 
ATOM    130  C   UNL A   1      45.597  29.173  35.159  1.00  0.00     0.173 A 
ATOM    131  F   UNL A   1      43.062  27.028  36.647  1.00  0.00    -0.203 F 
ATOM    132  C   UNL A   1      45.401  26.767  36.533  1.00  0.00     0.198 A 
ATOM    133  C   UNL A   1      46.743  28.437  35.447  1.00  0.00     0.198 A 
ATOM    134  F   UNL A   1      45.718  30.337  34.503  1.00  0.00    -0.203 F 
ATOM    135  F   UNL A   1      45.306  25.613  37.209  1.00  0.00    -0.200 F 
ATOM    136  C   UNL A   1      46.644  27.235  36.133  1.00  0.00     0.200 A 
ATOM    137  F   UNL A   1      47.944  28.893  35.064  1.00  0.00    -0.200 F 
ATOM    138  F   UNL A   1      47.749  26.533  36.418  1.00  0.00    -0.200 F 
ENDBRANCH 104 128
ENDBRANCH  69  72
ENDBRANCH  59  62
ENDBRANCH  55  58
ENDBRANCH  52  55
ENDBRANCH  49  52
ENDBRANCH  46  49
ENDBRANCH   1  46
TORSDOF 18
ENDMDL
MODEL 8
REMARK VINA RESULT:     -12.5      6.321     10.705
REMARK SMILES CCc1cc(C(=O)c2[nH]c3cc(Cl)ccc3c2CC(=O)NCCCCCCNC(=O)c2ccc(-c3c4nc(c(-c5c(F)c(F)c(F)c(F)c5F)c5ccc([nH]5)c(-c5c(F)c(F)c(F)c(F)c5F)c5nc(c(-c6c(F)c(F)c(F)c(F)c6F)c6ccc3[nH]6)C=C5)C=C4)cc2)ncc1Cl
REMARK SMILES IDX 23 1 22 4 21 7 19 8 20 9 18 11 17 14 8 15 9 16 10 17 16 19
REMARK SMILES IDX 11 20 15 21 12 22 14 24 13 26 6 28 7 29 5 30 3 31 4 32 96 33
REMARK SMILES IDX 95 35 97 36 94 37 2 39 1 42 24 46 25 49 26 52 27 55 28 58
REMARK SMILES IDX 29 59 30 61 31 62 32 63 93 64 33 65 92 67 34 69 35 72 36 73
REMARK SMILES IDX 86 74 37 75 91 76 85 77 87 78 38 79 90 80 84 82 83 84 39 86
REMARK SMILES IDX 71 89 51 90 70 91 52 92 55 93 69 94 88 95 53 96 54 98 68 100
REMARK SMILES IDX 89 101 56 104 40 106 41 107 49 108 42 109 43 110 47 111
REMARK SMILES IDX 50 112 44 113 45 114 48 115 46 116 72 117 73 118 81 119
REMARK SMILES IDX 74 120 75 121 79 122 82 123 76 124 77 125 80 126 78 127
REMARK SMILES IDX 57 128 58 129 66 130 59 131 60 132 64 133 67 134 61 135
REMARK SMILES IDX 62 136 65 137 63 138
REMARK H PARENT 23 2 23 3 22 5 22 6 21 10 18 12 18 13 9 18 11 23 15 25 14 27
REMARK H PARENT 4 34 95 38 2 40 2 41 1 43 1 44 1 45 24 47 24 48 25 50 25 51
REMARK H PARENT 26 53 26 54 27 56 27 57 28 60 32 66 93 68 33 70 92 71 91 81
REMARK H PARENT 85 83 87 85 90 87 84 88 52 97 55 99 88 102 53 103 89 105
REMARK Flexibility Score: inf
ROOT
ATOM      1  C   UNL A   1      39.629  21.350  26.460  1.00  0.00    -0.036 C 
ATOM      2  H   UNL A   1      39.647  20.280  26.443  1.00  0.00     0.028 H 
ATOM      3  H   UNL A   1      39.384  21.756  27.419  1.00  0.00     0.028 H 
ENDROOT
BRANCH   1   4
ATOM      4  C   UNL A   1      38.532  21.821  25.505  1.00  0.00     0.017 C 
ATOM      5  H   UNL A   1      38.988  22.146  24.593  1.00  0.00     0.049 H 
ATOM      6  H   UNL A   1      37.868  20.998  25.343  1.00  0.00     0.049 H 
BRANCH   4   7
ATOM      7  N   UNL A   1      37.751  22.914  26.047  1.00  0.00    -0.356 N 
ATOM      8  C   UNL A   1      36.735  23.623  25.473  1.00  0.00     0.224 C 
ATOM      9  O   UNL A   1      36.138  24.454  26.162  1.00  0.00    -0.275 OA
ATOM     10  H   UNL A   1      37.985  23.184  26.964  1.00  0.00     0.163 HD
BRANCH   8  11
ATOM     11  C   UNL A   1      36.277  23.322  24.054  1.00  0.00     0.055 C 
ATOM     12  H   UNL A   1      36.338  24.227  23.486  1.00  0.00     0.042 H 
ATOM     13  H   UNL A   1      36.921  22.549  23.689  1.00  0.00     0.042 H 
BRANCH  11  14
ATOM     14  C   UNL A   1      34.875  22.792  23.939  1.00  0.00    -0.002 A 
ATOM     15  C   UNL A   1      33.728  23.500  23.592  1.00  0.00     0.093 A 
ATOM     16  N   UNL A   1      32.696  22.595  23.509  1.00  0.00    -0.351 N 
ATOM     17  C   UNL A   1      33.097  21.361  23.954  1.00  0.00     0.048 A 
ATOM     18  H   UNL A   1      31.793  22.804  23.176  1.00  0.00     0.167 HD
ATOM     19  C   UNL A   1      34.460  21.450  24.233  1.00  0.00     0.004 A 
ATOM     20  C   UNL A   1      32.362  20.180  24.115  1.00  0.00    -0.019 A 
ATOM     21  C   UNL A   1      35.123  20.297  24.705  1.00  0.00    -0.051 A 
ATOM     22  C   UNL A   1      33.046  19.057  24.588  1.00  0.00     0.043 A 
ATOM     23  H   UNL A   1      31.354  20.141  23.895  1.00  0.00     0.066 H 
ATOM     24  C   UNL A   1      34.404  19.107  24.881  1.00  0.00    -0.043 A 
ATOM     25  H   UNL A   1      36.132  20.329  24.920  1.00  0.00     0.063 H 
ATOM     26  Cl  UNL A   1      32.185  17.582  24.811  1.00  0.00    -0.084 Cl
ATOM     27  H   UNL A   1      34.886  18.263  25.228  1.00  0.00     0.064 H 
BRANCH  15  28
ATOM     28  C   UNL A   1      33.561  24.906  23.278  1.00  0.00     0.227 C 
ATOM     29  O   UNL A   1      33.776  25.330  22.145  1.00  0.00    -0.285 OA
BRANCH  28  30
ATOM     30  C   UNL A   1      33.044  25.822  24.365  1.00  0.00     0.113 A 
ATOM     31  C   UNL A   1      33.174  27.842  25.716  1.00  0.00    -0.026 A 
ATOM     32  C   UNL A   1      33.650  27.049  24.653  1.00  0.00    -0.028 A 
ATOM     33  C   UNL A   1      32.068  27.373  26.434  1.00  0.00     0.062 A 
ATOM     34  H   UNL A   1      34.449  27.373  24.087  1.00  0.00     0.065 H 
ATOM     35  C   UNL A   1      31.519  26.146  26.075  1.00  0.00     0.047 A 
ATOM     36  Cl  UNL A   1      31.360  28.237  27.744  1.00  0.00    -0.082 Cl
ATOM     37  N   UNL A   1      31.986  25.361  25.075  1.00  0.00    -0.251 NA
ATOM     38  H   UNL A   1      30.701  25.811  26.607  1.00  0.00     0.086 H 
BRANCH  31  39
ATOM     39  C   UNL A   1      33.901  29.127  26.044  1.00  0.00    -0.029 C 
ATOM     40  H   UNL A   1      34.512  29.396  25.208  1.00  0.00     0.031 H 
ATOM     41  H   UNL A   1      33.158  29.868  26.254  1.00  0.00     0.031 H 
BRANCH  39  42
ATOM     42  C   UNL A   1      34.789  29.014  27.276  1.00  0.00    -0.061 C 
ATOM     43  H   UNL A   1      35.805  28.874  26.972  1.00  0.00     0.023 H 
ATOM     44  H   UNL A   1      34.476  28.179  27.866  1.00  0.00     0.023 H 
ATOM     45  H   UNL A   1      34.711  29.910  27.856  1.00  0.00     0.023 H 
ENDBRANCH  39  42
ENDBRANCH  31  39
ENDBRANCH  28  30
ENDBRANCH  15  28
ENDBRANCH  11  14
ENDBRANCH   8  11
ENDBRANCH   4   7
ENDBRANCH   1   4
BRANCH   1  46
ATOM     46  C   UNL A   1      41.039  21.854  26.129  1.00  0.00    -0.052 C 
ATOM     47  H   UNL A   1      41.180  22.788  26.634  1.00  0.00     0.027 H 
ATOM     48  H   UNL A   1      41.076  21.924  25.062  1.00  0.00     0.027 H 
BRANCH  46  49
ATOM     49  C   UNL A   1      42.195  20.929  26.523  1.00  0.00    -0.052 C 
ATOM     50  H   UNL A   1      42.147  20.780  27.581  1.00  0.00     0.027 H 
ATOM     51  H   UNL A   1      43.084  21.422  26.188  1.00  0.00     0.027 H 
BRANCH  49  52
ATOM     52  C   UNL A   1      42.213  19.549  25.855  1.00  0.00    -0.036 C 
ATOM     53  H   UNL A   1      42.069  19.690  24.805  1.00  0.00     0.028 H 
ATOM     54  H   UNL A   1      41.436  18.987  26.331  1.00  0.00     0.028 H 
BRANCH  52  55
ATOM     55  C   UNL A   1      43.491  18.733  26.047  1.00  0.00     0.018 C 
ATOM     56  H   UNL A   1      43.230  17.776  26.449  1.00  0.00     0.049 H 
ATOM     57  H   UNL A   1      44.127  19.281  26.711  1.00  0.00     0.049 H 
BRANCH  55  58
ATOM     58  N   UNL A   1      44.221  18.532  24.809  1.00  0.00    -0.352 N 
ATOM     59  C   UNL A   1      44.875  19.445  24.018  1.00  0.00     0.251 C 
ATOM     60  H   UNL A   1      44.253  17.602  24.487  1.00  0.00     0.163 HD
ATOM     61  O   UNL A   1      45.330  19.098  22.931  1.00  0.00    -0.269 OA
BRANCH  59  62
ATOM     62  C   UNL A   1      45.020  20.856  24.445  1.00  0.00     0.039 A 
ATOM     63  C   UNL A   1      45.636  21.120  25.674  1.00  0.00    -0.049 A 
ATOM     64  C   UNL A   1      44.503  21.912  23.686  1.00  0.00    -0.049 A 
ATOM     65  C   UNL A   1      45.779  22.437  26.120  1.00  0.00    -0.053 A 
ATOM     66  H   UNL A   1      45.984  20.340  26.252  1.00  0.00     0.063 H 
ATOM     67  C   UNL A   1      44.668  23.230  24.120  1.00  0.00    -0.053 A 
ATOM     68  H   UNL A   1      44.000  21.716  22.806  1.00  0.00     0.063 H 
ATOM     69  C   UNL A   1      45.309  23.501  25.338  1.00  0.00    -0.014 A 
ATOM     70  H   UNL A   1      46.233  22.626  27.027  1.00  0.00     0.063 H 
ATOM     71  H   UNL A   1      44.316  24.007  23.541  1.00  0.00     0.063 H 
BRANCH  69  72
ATOM     72  C   UNL A   1      45.487  24.905  25.780  1.00  0.00     0.031 A 
ATOM     73  C   UNL A   1      46.832  25.564  25.696  1.00  0.00     0.074 A 
ATOM     74  C   UNL A   1      44.446  25.571  26.311  1.00  0.00     0.049 A 
ATOM     75  N   UNL A   1      47.199  26.749  26.119  1.00  0.00    -0.248 NA
ATOM     76  C   UNL A   1      47.909  24.787  25.067  1.00  0.00    -0.034 C 
ATOM     77  C   UNL A   1      43.094  25.038  26.473  1.00  0.00    -0.036 A 
ATOM     78  N   UNL A   1      44.370  26.841  26.829  1.00  0.00    -0.354 N 
ATOM     79  C   UNL A   1      48.554  26.846  25.839  1.00  0.00     0.074 A 
ATOM     80  C   UNL A   1      48.945  25.604  25.202  1.00  0.00    -0.034 C 
ATOM     81  H   UNL A   1      47.869  23.851  24.633  1.00  0.00     0.065 H 
ATOM     82  C   UNL A   1      42.322  25.971  27.054  1.00  0.00    -0.036 A 
ATOM     83  H   UNL A   1      42.784  24.096  26.188  1.00  0.00     0.065 H 
ATOM     84  C   UNL A   1      43.129  27.160  27.317  1.00  0.00     0.049 A 
ATOM     85  H   UNL A   1      45.133  27.463  26.846  1.00  0.00     0.167 HD
ATOM     86  C   UNL A   1      49.396  27.875  26.091  1.00  0.00     0.037 A 
ATOM     87  H   UNL A   1      49.905  25.384  24.895  1.00  0.00     0.065 H 
ATOM     88  H   UNL A   1      41.320  25.866  27.277  1.00  0.00     0.065 H 
ATOM     89  C   UNL A   1      42.694  28.281  27.921  1.00  0.00     0.037 A 
ATOM     90  C   UNL A   1      49.011  29.128  26.684  1.00  0.00     0.049 A 
ATOM     91  C   UNL A   1      43.634  29.429  28.138  1.00  0.00     0.074 A 
ATOM     92  C   UNL A   1      49.791  30.246  26.926  1.00  0.00    -0.036 A 
ATOM     93  N   UNL A   1      47.732  29.430  27.121  1.00  0.00    -0.354 N 
ATOM     94  N   UNL A   1      44.907  29.516  27.849  1.00  0.00    -0.248 NA
ATOM     95  C   UNL A   1      43.075  30.635  28.768  1.00  0.00    -0.034 C 
ATOM     96  C   UNL A   1      48.984  31.224  27.520  1.00  0.00    -0.036 A 
ATOM     97  H   UNL A   1      50.795  30.343  26.705  1.00  0.00     0.065 H 
ATOM     98  C   UNL A   1      47.701  30.716  27.637  1.00  0.00     0.049 A 
ATOM     99  H   UNL A   1      46.959  28.822  27.073  1.00  0.00     0.167 HD
ATOM    100  C   UNL A   1      45.303  30.782  28.255  1.00  0.00     0.074 A 
ATOM    101  C   UNL A   1      44.132  31.434  28.805  1.00  0.00    -0.034 C 
ATOM    102  H   UNL A   1      42.112  30.813  29.095  1.00  0.00     0.065 H 
ATOM    103  H   UNL A   1      49.293  32.162  27.820  1.00  0.00     0.065 H 
ATOM    104  C   UNL A   1      46.530  31.349  28.179  1.00  0.00     0.037 A 
ATOM    105  H   UNL A   1      44.123  32.396  29.178  1.00  0.00     0.065 H 
BRANCH  86 106
ATOM    106  C   UNL A   1      50.834  27.682  25.736  1.00  0.00     0.064 A 
ATOM    107  C   UNL A   1      51.301  27.917  24.436  1.00  0.00     0.173 A 
ATOM    108  C   UNL A   1      51.758  27.290  26.714  1.00  0.00     0.173 A 
ATOM    109  F   UNL A   1      50.449  28.282  23.468  1.00  0.00    -0.203 F 
ATOM    110  C   UNL A   1      52.649  27.755  24.125  1.00  0.00     0.198 A 
ATOM    111  C   UNL A   1      53.106  27.138  26.403  1.00  0.00     0.198 A 
ATOM    112  F   UNL A   1      51.352  27.052  27.970  1.00  0.00    -0.203 F 
ATOM    113  F   UNL A   1      53.076  27.965  22.873  1.00  0.00    -0.200 F 
ATOM    114  C   UNL A   1      53.550  27.369  25.109  1.00  0.00     0.200 A 
ATOM    115  F   UNL A   1      53.975  26.766  27.352  1.00  0.00    -0.200 F 
ATOM    116  F   UNL A   1      54.847  27.215  24.807  1.00  0.00    -0.200 F 
ENDBRANCH  86 106
BRANCH  89 117
ATOM    117  C   UNL A   1      41.283  28.367  28.362  1.00  0.00     0.064 A 
ATOM    118  C   UNL A   1      40.302  28.904  27.520  1.00  0.00     0.173 A 
ATOM    119  C   UNL A   1      40.892  27.899  29.623  1.00  0.00     0.173 A 
ATOM    120  F   UNL A   1      40.642  29.380  26.315  1.00  0.00    -0.203 F 
ATOM    121  C   UNL A   1      38.972  28.973  27.927  1.00  0.00     0.198 A 
ATOM    122  C   UNL A   1      39.560  27.958  30.024  1.00  0.00     0.198 A 
ATOM    123  F   UNL A   1      41.803  27.380  30.459  1.00  0.00    -0.203 F 
ATOM    124  F   UNL A   1      38.050  29.505  27.113  1.00  0.00    -0.200 F 
ATOM    125  C   UNL A   1      38.601  28.497  29.177  1.00  0.00     0.200 A 
ATOM    126  F   UNL A   1      39.204  27.497  31.231  1.00  0.00    -0.200 F 
ATOM    127  F   UNL A   1      37.321  28.560  29.567  1.00  0.00    -0.200 F 
ENDBRANCH  89 117
BRANCH 104 128
ATOM    128  C   UNL A   1      46.666  32.746  28.697  1.00  0.00     0.064 A 
ATOM    129  C   UNL A   1      46.471  33.849  27.856  1.00  0.00     0.173 A 
ATOM    130  C   UNL A   1      46.960  32.981  30.047  1.00  0.00     0.173 A 
ATOM    131  F   UNL A   1      46.202  33.666  26.555  1.00  0.00    -0.203 F 
ATOM    132  C   UNL A   1      46.572  35.146  28.350  1.00  0.00     0.198 A 
ATOM    133  C   UNL A   1      47.054  34.280  30.539  1.00  0.00     0.198 A 
ATOM    134  F   UNL A   1      47.160  31.952  30.884  1.00  0.00    -0.203 F 
ATOM    135  F   UNL A   1      46.400  36.190  27.527  1.00  0.00    -0.200 F 
ATOM    136  C   UNL A   1      46.861  35.361  29.690  1.00  0.00     0.200 A 
ATOM    137  F   UNL A   1      47.336  34.487  31.832  1.00  0.00    -0.200 F 
ATOM    138  F   UNL A   1      46.961  36.610  30.163  1.00  0.00    -0.200 F 
ENDBRANCH 104 128
ENDBRANCH  69  72
ENDBRANCH  59  62
ENDBRANCH  55  58
ENDBRANCH  52  55
ENDBRANCH  49  52
ENDBRANCH  46  49
ENDBRANCH   1  46
TORSDOF 18
ENDMDL
MODEL 9
REMARK VINA RESULT:     -12.5      1.256      3.760
REMARK SMILES CCc1cc(C(=O)c2[nH]c3cc(Cl)ccc3c2CC(=O)NCCCCCCNC(=O)c2ccc(-c3c4nc(c(-c5c(F)c(F)c(F)c(F)c5F)c5ccc([nH]5)c(-c5c(F)c(F)c(F)c(F)c5F)c5nc(c(-c6c(F)c(F)c(F)c(F)c6F)c6ccc3[nH]6)C=C5)C=C4)cc2)ncc1Cl
REMARK SMILES IDX 23 1 22 4 21 7 19 8 20 9 18 11 17 14 8 15 9 16 10 17 16 19
REMARK SMILES IDX 11 20 15 21 12 22 14 24 13 26 6 28 7 29 5 30 3 31 4 32 96 33
REMARK SMILES IDX 95 35 97 36 94 37 2 39 1 42 24 46 25 49 26 52 27 55 28 58
REMARK SMILES IDX 29 59 30 61 31 62 32 63 93 64 33 65 92 67 34 69 35 72 36 73
REMARK SMILES IDX 86 74 37 75 91 76 85 77 87 78 38 79 90 80 84 82 83 84 39 86
REMARK SMILES IDX 71 89 51 90 70 91 52 92 55 93 69 94 88 95 53 96 54 98 68 100
REMARK SMILES IDX 89 101 56 104 40 106 41 107 49 108 42 109 43 110 47 111
REMARK SMILES IDX 50 112 44 113 45 114 48 115 46 116 72 117 73 118 81 119
REMARK SMILES IDX 74 120 75 121 79 122 82 123 76 124 77 125 80 126 78 127
REMARK SMILES IDX 57 128 58 129 66 130 59 131 60 132 64 133 67 134 61 135
REMARK SMILES IDX 62 136 65 137 63 138
REMARK H PARENT 23 2 23 3 22 5 22 6 21 10 18 12 18 13 9 18 11 23 15 25 14 27
REMARK H PARENT 4 34 95 38 2 40 2 41 1 43 1 44 1 45 24 47 24 48 25 50 25 51
REMARK H PARENT 26 53 26 54 27 56 27 57 28 60 32 66 93 68 33 70 92 71 91 81
REMARK H PARENT 85 83 87 85 90 87 84 88 52 97 55 99 88 102 53 103 89 105
REMARK Flexibility Score: inf
ROOT
ATOM      1  C   UNL A   1      34.930  29.671  27.707  1.00  0.00    -0.036 C 
ATOM      2  H   UNL A   1      35.947  30.004  27.694  1.00  0.00     0.028 H 
ATOM      3  H   UNL A   1      34.728  28.952  28.473  1.00  0.00     0.028 H 
ENDROOT
BRANCH   1   4
ATOM      4  C   UNL A   1      34.643  28.972  26.379  1.00  0.00     0.017 C 
ATOM      5  H   UNL A   1      33.958  29.572  25.817  1.00  0.00     0.049 H 
ATOM      6  H   UNL A   1      35.575  28.853  25.867  1.00  0.00     0.049 H 
BRANCH   4   7
ATOM      7  N   UNL A   1      34.067  27.654  26.553  1.00  0.00    -0.356 N 
ATOM      8  C   UNL A   1      33.712  26.730  25.613  1.00  0.00     0.224 C 
ATOM      9  O   UNL A   1      33.329  25.622  25.997  1.00  0.00    -0.275 OA
ATOM     10  H   UNL A   1      33.910  27.385  27.487  1.00  0.00     0.163 HD
BRANCH   8  11
ATOM     11  C   UNL A   1      33.887  27.019  24.130  1.00  0.00     0.055 C 
ATOM     12  H   UNL A   1      34.414  27.945  24.033  1.00  0.00     0.042 H 
ATOM     13  H   UNL A   1      34.418  26.185  23.722  1.00  0.00     0.042 H 
BRANCH  11  14
ATOM     14  C   UNL A   1      32.607  27.126  23.350  1.00  0.00    -0.002 A 
ATOM     15  C   UNL A   1      32.177  26.309  22.309  1.00  0.00     0.093 A 
ATOM     16  N   UNL A   1      30.907  26.709  21.968  1.00  0.00    -0.351 N 
ATOM     17  C   UNL A   1      30.567  27.860  22.633  1.00  0.00     0.048 A 
ATOM     18  H   UNL A   1      30.322  26.235  21.333  1.00  0.00     0.167 HD
ATOM     19  C   UNL A   1      31.613  28.150  23.508  1.00  0.00     0.004 A 
ATOM     20  C   UNL A   1      29.415  28.649  22.534  1.00  0.00    -0.019 A 
ATOM     21  C   UNL A   1      31.503  29.296  24.325  1.00  0.00    -0.051 A 
ATOM     22  C   UNL A   1      29.338  29.779  23.353  1.00  0.00     0.043 A 
ATOM     23  H   UNL A   1      28.653  28.407  21.881  1.00  0.00     0.066 H 
ATOM     24  C   UNL A   1      30.362  30.104  24.236  1.00  0.00    -0.043 A 
ATOM     25  H   UNL A   1      32.259  29.537  24.985  1.00  0.00     0.063 H 
ATOM     26  Cl  UNL A   1      27.944  30.787  23.263  1.00  0.00    -0.084 Cl
ATOM     27  H   UNL A   1      30.280  30.944  24.830  1.00  0.00     0.064 H 
BRANCH  15  28
ATOM     28  C   UNL A   1      32.833  25.175  21.684  1.00  0.00     0.227 C 
ATOM     29  O   UNL A   1      33.108  25.186  20.487  1.00  0.00    -0.285 OA
BRANCH  28  30
ATOM     30  C   UNL A   1      33.235  24.012  22.564  1.00  0.00     0.113 A 
ATOM     31  C   UNL A   1      34.892  22.701  23.770  1.00  0.00    -0.026 A 
ATOM     32  C   UNL A   1      34.550  23.832  23.004  1.00  0.00    -0.028 A 
ATOM     33  C   UNL A   1      33.872  21.800  24.094  1.00  0.00     0.062 A 
ATOM     34  H   UNL A   1      35.271  24.530  22.765  1.00  0.00     0.065 H 
ATOM     35  C   UNL A   1      32.588  22.059  23.624  1.00  0.00     0.047 A 
ATOM     36  Cl  UNL A   1      34.129  20.383  25.038  1.00  0.00    -0.082 Cl
ATOM     37  N   UNL A   1      32.252  23.127  22.862  1.00  0.00    -0.251 NA
ATOM     38  H   UNL A   1      31.841  21.392  23.872  1.00  0.00     0.086 H 
BRANCH  31  39
ATOM     39  C   UNL A   1      36.339  22.502  24.165  1.00  0.00    -0.029 C 
ATOM     40  H   UNL A   1      36.425  21.572  24.687  1.00  0.00     0.031 H 
ATOM     41  H   UNL A   1      36.918  22.513  23.265  1.00  0.00     0.031 H 
BRANCH  39  42
ATOM     42  C   UNL A   1      36.872  23.612  25.061  1.00  0.00    -0.061 C 
ATOM     43  H   UNL A   1      36.978  24.512  24.491  1.00  0.00     0.023 H 
ATOM     44  H   UNL A   1      37.823  23.326  25.456  1.00  0.00     0.023 H 
ATOM     45  H   UNL A   1      36.187  23.781  25.866  1.00  0.00     0.023 H 
ENDBRANCH  39  42
ENDBRANCH  31  39
ENDBRANCH  28  30
ENDBRANCH  15  28
ENDBRANCH  11  14
ENDBRANCH   8  11
ENDBRANCH   4   7
ENDBRANCH   1   4
BRANCH   1  46
ATOM     46  C   UNL A   1      34.038  30.881  28.011  1.00  0.00    -0.052 C 
ATOM     47  H   UNL A   1      34.531  31.753  27.633  1.00  0.00     0.027 H 
ATOM     48  H   UNL A   1      33.902  30.880  29.072  1.00  0.00     0.027 H 
BRANCH  46  49
ATOM     49  C   UNL A   1      32.627  30.844  27.414  1.00  0.00    -0.052 C 
ATOM     50  H   UNL A   1      32.015  30.252  28.061  1.00  0.00     0.027 H 
ATOM     51  H   UNL A   1      32.743  30.444  26.429  1.00  0.00     0.027 H 
BRANCH  49  52
ATOM     52  C   UNL A   1      31.938  32.201  27.229  1.00  0.00    -0.036 C 
ATOM     53  H   UNL A   1      31.366  32.402  28.110  1.00  0.00     0.028 H 
ATOM     54  H   UNL A   1      31.349  32.108  26.339  1.00  0.00     0.028 H 
BRANCH  52  55
ATOM     55  C   UNL A   1      32.864  33.393  26.989  1.00  0.00     0.018 C 
ATOM     56  H   UNL A   1      32.850  33.634  25.946  1.00  0.00     0.049 H 
ATOM     57  H   UNL A   1      33.844  33.111  27.317  1.00  0.00     0.049 H 
BRANCH  55  58
ATOM     58  N   UNL A   1      32.473  34.570  27.742  1.00  0.00    -0.352 N 
ATOM     59  C   UNL A   1      32.975  35.064  28.921  1.00  0.00     0.251 C 
ATOM     60  H   UNL A   1      31.736  35.093  27.350  1.00  0.00     0.163 HD
ATOM     61  O   UNL A   1      32.422  36.012  29.473  1.00  0.00    -0.269 OA
BRANCH  59  62
ATOM     62  C   UNL A   1      34.168  34.455  29.556  1.00  0.00     0.039 A 
ATOM     63  C   UNL A   1      33.996  33.743  30.749  1.00  0.00    -0.049 A 
ATOM     64  C   UNL A   1      35.452  34.630  29.030  1.00  0.00    -0.049 A 
ATOM     65  C   UNL A   1      35.097  33.165  31.388  1.00  0.00    -0.053 A 
ATOM     66  H   UNL A   1      33.054  33.645  31.158  1.00  0.00     0.063 H 
ATOM     67  C   UNL A   1      36.549  34.031  29.654  1.00  0.00    -0.053 A 
ATOM     68  H   UNL A   1      35.588  35.200  28.180  1.00  0.00     0.063 H 
ATOM     69  C   UNL A   1      36.379  33.294  30.835  1.00  0.00    -0.014 A 
ATOM     70  H   UNL A   1      34.965  32.642  32.267  1.00  0.00     0.063 H 
ATOM     71  H   UNL A   1      37.490  34.134  29.244  1.00  0.00     0.063 H 
BRANCH  69  72
ATOM     72  C   UNL A   1      37.551  32.655  31.481  1.00  0.00     0.031 A 
ATOM     73  C   UNL A   1      38.270  31.525  30.805  1.00  0.00     0.074 A 
ATOM     74  C   UNL A   1      37.937  33.058  32.705  1.00  0.00     0.049 A 
ATOM     75  N   UNL A   1      39.253  30.785  31.255  1.00  0.00    -0.248 NA
ATOM     76  C   UNL A   1      37.816  31.170  29.453  1.00  0.00    -0.034 C 
ATOM     77  C   UNL A   1      37.308  34.127  33.481  1.00  0.00    -0.036 A 
ATOM     78  N   UNL A   1      38.943  32.600  33.519  1.00  0.00    -0.354 N 
ATOM     79  C   UNL A   1      39.513  29.857  30.258  1.00  0.00     0.074 A 
ATOM     80  C   UNL A   1      38.590  30.130  29.174  1.00  0.00    -0.034 C 
ATOM     81  H   UNL A   1      37.087  31.614  28.873  1.00  0.00     0.065 H 
ATOM     82  C   UNL A   1      37.941  34.242  34.660  1.00  0.00    -0.036 A 
ATOM     83  H   UNL A   1      36.508  34.700  33.171  1.00  0.00     0.065 H 
ATOM     84  C   UNL A   1      39.007  33.245  34.727  1.00  0.00     0.049 A 
ATOM     85  H   UNL A   1      39.560  31.878  33.259  1.00  0.00     0.167 HD
ATOM     86  C   UNL A   1      40.435  28.865  30.247  1.00  0.00     0.037 A 
ATOM     87  H   UNL A   1      38.542  29.584  28.299  1.00  0.00     0.065 H 
ATOM     88  H   UNL A   1      37.712  34.925  35.399  1.00  0.00     0.065 H 
ATOM     89  C   UNL A   1      39.825  33.047  35.777  1.00  0.00     0.037 A 
ATOM     90  C   UNL A   1      41.383  28.611  31.298  1.00  0.00     0.049 A 
ATOM     91  C   UNL A   1      40.876  31.979  35.717  1.00  0.00     0.074 A 
ATOM     92  C   UNL A   1      42.389  27.661  31.345  1.00  0.00    -0.036 A 
ATOM     93  N   UNL A   1      41.448  29.320  32.487  1.00  0.00    -0.354 N 
ATOM     94  N   UNL A   1      41.126  31.122  34.760  1.00  0.00    -0.248 NA
ATOM     95  C   UNL A   1      41.759  31.849  36.887  1.00  0.00    -0.034 C 
ATOM     96  C   UNL A   1      43.057  27.788  32.569  1.00  0.00    -0.036 A 
ATOM     97  H   UNL A   1      42.610  26.977  30.604  1.00  0.00     0.065 H 
ATOM     98  C   UNL A   1      42.472  28.824  33.277  1.00  0.00     0.049 A 
ATOM     99  H   UNL A   1      40.853  30.065  32.734  1.00  0.00     0.167 HD
ATOM    100  C   UNL A   1      42.193  30.356  35.205  1.00  0.00     0.074 A 
ATOM    101  C   UNL A   1      42.551  30.853  36.517  1.00  0.00    -0.034 C 
ATOM    102  H   UNL A   1      41.761  32.393  37.765  1.00  0.00     0.065 H 
ATOM    103  H   UNL A   1      43.849  27.208  32.889  1.00  0.00     0.065 H 
ATOM    104  C   UNL A   1      42.816  29.330  34.579  1.00  0.00     0.037 A 
ATOM    105  H   UNL A   1      43.323  30.478  37.090  1.00  0.00     0.065 H 
BRANCH  86 106
ATOM    106  C   UNL A   1      40.454  27.965  29.056  1.00  0.00     0.064 A 
ATOM    107  C   UNL A   1      39.687  26.793  29.015  1.00  0.00     0.173 A 
ATOM    108  C   UNL A   1      41.222  28.296  27.931  1.00  0.00     0.173 A 
ATOM    109  F   UNL A   1      38.948  26.433  30.075  1.00  0.00    -0.203 F 
ATOM    110  C   UNL A   1      39.697  25.976  27.888  1.00  0.00     0.198 A 
ATOM    111  C   UNL A   1      41.222  27.483  26.802  1.00  0.00     0.198 A 
ATOM    112  F   UNL A   1      41.973  29.408  27.929  1.00  0.00    -0.203 F 
ATOM    113  F   UNL A   1      38.973  24.849  27.873  1.00  0.00    -0.200 F 
ATOM    114  C   UNL A   1      40.461  26.323  26.782  1.00  0.00     0.200 A 
ATOM    115  F   UNL A   1      41.960  27.817  25.735  1.00  0.00    -0.200 F 
ATOM    116  F   UNL A   1      40.468  25.534  25.698  1.00  0.00    -0.200 F 
ENDBRANCH  86 106
BRANCH  89 117
ATOM    117  C   UNL A   1      39.678  33.895  36.982  1.00  0.00     0.064 A 
ATOM    118  C   UNL A   1      38.908  33.465  38.069  1.00  0.00     0.173 A 
ATOM    119  C   UNL A   1      40.317  35.138  37.071  1.00  0.00     0.173 A 
ATOM    120  F   UNL A   1      38.267  32.290  38.012  1.00  0.00    -0.203 F 
ATOM    121  C   UNL A   1      38.780  34.253  39.209  1.00  0.00     0.198 A 
ATOM    122  C   UNL A   1      40.196  35.921  38.216  1.00  0.00     0.198 A 
ATOM    123  F   UNL A   1      41.060  35.586  36.050  1.00  0.00    -0.203 F 
ATOM    124  F   UNL A   1      38.027  33.831  40.234  1.00  0.00    -0.200 F 
ATOM    125  C   UNL A   1      39.427  35.479  39.284  1.00  0.00     0.200 A 
ATOM    126  F   UNL A   1      40.822  37.104  38.287  1.00  0.00    -0.200 F 
ATOM    127  F   UNL A   1      39.306  36.237  40.382  1.00  0.00    -0.200 F 
ENDBRANCH  89 117
BRANCH 104 128
ATOM    128  C   UNL A   1      43.952  28.681  35.303  1.00  0.00     0.064 A 
ATOM    129  C   UNL A   1      45.270  29.120  35.117  1.00  0.00     0.173 A 
ATOM    130  C   UNL A   1      43.719  27.640  36.211  1.00  0.00     0.173 A 
ATOM    131  F   UNL A   1      45.537  30.105  34.246  1.00  0.00    -0.203 F 
ATOM    132  C   UNL A   1      46.320  28.531  35.814  1.00  0.00     0.198 A 
ATOM    133  C   UNL A   1      44.772  27.057  36.911  1.00  0.00     0.198 A 
ATOM    134  F   UNL A   1      42.473  27.186  36.413  1.00  0.00    -0.203 F 
ATOM    135  F   UNL A   1      47.577  28.951  35.611  1.00  0.00    -0.200 F 
ATOM    136  C   UNL A   1      46.071  27.503  36.712  1.00  0.00     0.200 A 
ATOM    137  F   UNL A   1      44.531  26.062  37.776  1.00  0.00    -0.200 F 
ATOM    138  F   UNL A   1      47.084  26.935  37.380  1.00  0.00    -0.200 F 
ENDBRANCH 104 128
ENDBRANCH  69  72
ENDBRANCH  59  62
ENDBRANCH  55  58
ENDBRANCH  52  55
ENDBRANCH  49  52
ENDBRANCH  46  49
ENDBRANCH   1  46
TORSDOF 18
ENDMDL
MODEL 10
REMARK VINA RESULT:     -12.5      5.209     10.377
REMARK SMILES CCc1cc(C(=O)c2[nH]c3cc(Cl)ccc3c2CC(=O)NCCCCCCNC(=O)c2ccc(-c3c4nc(c(-c5c(F)c(F)c(F)c(F)c5F)c5ccc([nH]5)c(-c5c(F)c(F)c(F)c(F)c5F)c5nc(c(-c6c(F)c(F)c(F)c(F)c6F)c6ccc3[nH]6)C=C5)C=C4)cc2)ncc1Cl
REMARK SMILES IDX 23 1 22 4 21 7 19 8 20 9 18 11 17 14 8 15 9 16 10 17 16 19
REMARK SMILES IDX 11 20 15 21 12 22 14 24 13 26 6 28 7 29 5 30 3 31 4 32 96 33
REMARK SMILES IDX 95 35 97 36 94 37 2 39 1 42 24 46 25 49 26 52 27 55 28 58
REMARK SMILES IDX 29 59 30 61 31 62 32 63 93 64 33 65 92 67 34 69 35 72 36 73
REMARK SMILES IDX 86 74 37 75 91 76 85 77 87 78 38 79 90 80 84 82 83 84 39 86
REMARK SMILES IDX 71 89 51 90 70 91 52 92 55 93 69 94 88 95 53 96 54 98 68 100
REMARK SMILES IDX 89 101 56 104 40 106 41 107 49 108 42 109 43 110 47 111
REMARK SMILES IDX 50 112 44 113 45 114 48 115 46 116 72 117 73 118 81 119
REMARK SMILES IDX 74 120 75 121 79 122 82 123 76 124 77 125 80 126 78 127
REMARK SMILES IDX 57 128 58 129 66 130 59 131 60 132 64 133 67 134 61 135
REMARK SMILES IDX 62 136 65 137 63 138
REMARK H PARENT 23 2 23 3 22 5 22 6 21 10 18 12 18 13 9 18 11 23 15 25 14 27
REMARK H PARENT 4 34 95 38 2 40 2 41 1 43 1 44 1 45 24 47 24 48 25 50 25 51
REMARK H PARENT 26 53 26 54 27 56 27 57 28 60 32 66 93 68 33 70 92 71 91 81
REMARK H PARENT 85 83 87 85 90 87 84 88 52 97 55 99 88 102 53 103 89 105
REMARK Flexibility Score: inf
ROOT
ATOM      1  C   UNL A   1      37.037  22.943  24.945  1.00  0.00    -0.036 C 
ATOM      2  H   UNL A   1      37.818  22.578  25.579  1.00  0.00     0.028 H 
ATOM      3  H   UNL A   1      37.387  23.580  24.161  1.00  0.00     0.028 H 
ENDROOT
BRANCH   1   4
ATOM      4  C   UNL A   1      36.091  23.791  25.795  1.00  0.00     0.017 C 
ATOM      5  H   UNL A   1      36.652  24.588  26.238  1.00  0.00     0.049 H 
ATOM      6  H   UNL A   1      35.320  24.160  25.152  1.00  0.00     0.049 H 
BRANCH   4   7
ATOM      7  N   UNL A   1      35.456  23.030  26.851  1.00  0.00    -0.356 N 
ATOM      8  C   UNL A   1      34.142  22.990  27.222  1.00  0.00     0.224 C 
ATOM      9  O   UNL A   1      33.805  22.186  28.095  1.00  0.00    -0.275 OA
ATOM     10  H   UNL A   1      36.058  22.458  27.378  1.00  0.00     0.163 HD
BRANCH   8  11
ATOM     11  C   UNL A   1      33.102  23.835  26.503  1.00  0.00     0.055 C 
ATOM     12  H   UNL A   1      32.185  23.772  27.052  1.00  0.00     0.042 H 
ATOM     13  H   UNL A   1      33.500  24.827  26.458  1.00  0.00     0.042 H 
BRANCH  11  14
ATOM     14  C   UNL A   1      32.824  23.426  25.084  1.00  0.00    -0.002 A 
ATOM     15  C   UNL A   1      32.616  24.258  23.987  1.00  0.00     0.093 A 
ATOM     16  N   UNL A   1      32.507  23.455  22.877  1.00  0.00    -0.351 N 
ATOM     17  C   UNL A   1      32.468  22.131  23.237  1.00  0.00     0.048 A 
ATOM     18  H   UNL A   1      32.463  23.784  21.949  1.00  0.00     0.167 HD
ATOM     19  C   UNL A   1      32.663  22.078  24.616  1.00  0.00     0.004 A 
ATOM     20  C   UNL A   1      32.289  20.989  22.448  1.00  0.00    -0.019 A 
ATOM     21  C   UNL A   1      32.675  20.813  25.242  1.00  0.00    -0.051 A 
ATOM     22  C   UNL A   1      32.301  19.752  23.097  1.00  0.00     0.043 A 
ATOM     23  H   UNL A   1      32.152  21.058  21.428  1.00  0.00     0.066 H 
ATOM     24  C   UNL A   1      32.490  19.658  24.472  1.00  0.00    -0.043 A 
ATOM     25  H   UNL A   1      32.819  20.739  26.261  1.00  0.00     0.063 H 
ATOM     26  Cl  UNL A   1      32.078  18.316  22.172  1.00  0.00    -0.084 Cl
ATOM     27  H   UNL A   1      32.495  18.731  24.927  1.00  0.00     0.064 H 
BRANCH  15  28
ATOM     28  C   UNL A   1      32.582  25.706  23.911  1.00  0.00     0.227 C 
ATOM     29  O   UNL A   1      33.620  26.363  23.923  1.00  0.00    -0.285 OA
BRANCH  28  30
ATOM     30  C   UNL A   1      31.238  26.379  23.740  1.00  0.00     0.113 A 
ATOM     31  C   UNL A   1      29.846  28.348  23.410  1.00  0.00    -0.026 A 
ATOM     32  C   UNL A   1      31.120  27.751  23.501  1.00  0.00    -0.028 A 
ATOM     33  C   UNL A   1      28.728  27.516  23.534  1.00  0.00     0.062 A 
ATOM     34  H   UNL A   1      31.968  28.329  23.392  1.00  0.00     0.065 H 
ATOM     35  C   UNL A   1      28.935  26.159  23.761  1.00  0.00     0.047 A 
ATOM     36  Cl  UNL A   1      27.108  28.092  23.427  1.00  0.00    -0.082 Cl
ATOM     37  N   UNL A   1      30.153  25.579  23.880  1.00  0.00    -0.251 NA
ATOM     38  H   UNL A   1      28.104  25.554  23.845  1.00  0.00     0.086 H 
BRANCH  31  39
ATOM     39  C   UNL A   1      29.758  29.846  23.225  1.00  0.00    -0.029 C 
ATOM     40  H   UNL A   1      28.943  30.214  23.813  1.00  0.00     0.031 H 
ATOM     41  H   UNL A   1      30.696  30.260  23.534  1.00  0.00     0.031 H 
BRANCH  39  42
ATOM     42  C   UNL A   1      29.535  30.258  21.776  1.00  0.00    -0.061 C 
ATOM     43  H   UNL A   1      30.201  31.058  21.526  1.00  0.00     0.023 H 
ATOM     44  H   UNL A   1      28.525  30.583  21.649  1.00  0.00     0.023 H 
ATOM     45  H   UNL A   1      29.726  29.423  21.135  1.00  0.00     0.023 H 
ENDBRANCH  39  42
ENDBRANCH  31  39
ENDBRANCH  28  30
ENDBRANCH  15  28
ENDBRANCH  11  14
ENDBRANCH   8  11
ENDBRANCH   4   7
ENDBRANCH   1   4
BRANCH   1  46
ATOM     46  C   UNL A   1      36.385  21.738  24.255  1.00  0.00    -0.052 C 
ATOM     47  H   UNL A   1      36.851  21.615  23.300  1.00  0.00     0.027 H 
ATOM     48  H   UNL A   1      35.340  21.964  24.207  1.00  0.00     0.027 H 
BRANCH  46  49
ATOM     49  C   UNL A   1      36.483  20.401  24.999  1.00  0.00    -0.052 C 
ATOM     50  H   UNL A   1      35.700  19.769  24.638  1.00  0.00     0.027 H 
ATOM     51  H   UNL A   1      36.407  20.645  26.038  1.00  0.00     0.027 H 
BRANCH  49  52
ATOM     52  C   UNL A   1      37.806  19.641  24.850  1.00  0.00    -0.036 C 
ATOM     53  H   UNL A   1      38.130  19.743  23.836  1.00  0.00     0.028 H 
ATOM     54  H   UNL A   1      37.596  18.633  25.142  1.00  0.00     0.028 H 
BRANCH  52  55
ATOM     55  C   UNL A   1      38.947  20.105  25.755  1.00  0.00     0.018 C 
ATOM     56  H   UNL A   1      38.562  20.256  26.742  1.00  0.00     0.049 H 
ATOM     57  H   UNL A   1      39.340  21.011  25.341  1.00  0.00     0.049 H 
BRANCH  55  58
ATOM     58  N   UNL A   1      40.036  19.148  25.823  1.00  0.00    -0.352 N 
ATOM     59  C   UNL A   1      41.372  19.354  26.065  1.00  0.00     0.251 C 
ATOM     60  H   UNL A   1      39.779  18.209  25.673  1.00  0.00     0.163 HD
ATOM     61  O   UNL A   1      42.165  18.423  25.955  1.00  0.00    -0.269 OA
BRANCH  59  62
ATOM     62  C   UNL A   1      41.880  20.696  26.435  1.00  0.00     0.039 A 
ATOM     63  C   UNL A   1      42.117  21.623  25.413  1.00  0.00    -0.049 A 
ATOM     64  C   UNL A   1      42.187  21.027  27.759  1.00  0.00    -0.049 A 
ATOM     65  C   UNL A   1      42.611  22.895  25.719  1.00  0.00    -0.053 A 
ATOM     66  H   UNL A   1      41.926  21.367  24.433  1.00  0.00     0.063 H 
ATOM     67  C   UNL A   1      42.657  22.306  28.068  1.00  0.00    -0.053 A 
ATOM     68  H   UNL A   1      42.066  20.326  28.508  1.00  0.00     0.063 H 
ATOM     69  C   UNL A   1      42.870  23.249  27.051  1.00  0.00    -0.014 A 
ATOM     70  H   UNL A   1      42.784  23.575  24.963  1.00  0.00     0.063 H 
ATOM     71  H   UNL A   1      42.849  22.558  29.049  1.00  0.00     0.063 H 
BRANCH  69  72
ATOM     72  C   UNL A   1      43.358  24.606  27.394  1.00  0.00     0.031 A 
ATOM     73  C   UNL A   1      42.428  25.620  27.991  1.00  0.00     0.074 A 
ATOM     74  C   UNL A   1      44.630  24.944  27.117  1.00  0.00     0.049 A 
ATOM     75  N   UNL A   1      42.650  26.882  28.269  1.00  0.00    -0.248 NA
ATOM     76  C   UNL A   1      41.066  25.164  28.302  1.00  0.00    -0.034 C 
ATOM     77  C   UNL A   1      45.628  24.060  26.515  1.00  0.00    -0.036 A 
ATOM     78  N   UNL A   1      45.295  26.132  27.292  1.00  0.00    -0.354 N 
ATOM     79  C   UNL A   1      41.450  27.377  28.757  1.00  0.00     0.074 A 
ATOM     80  C   UNL A   1      40.503  26.281  28.743  1.00  0.00    -0.034 C 
ATOM     81  H   UNL A   1      40.656  24.222  28.204  1.00  0.00     0.065 H 
ATOM     82  C   UNL A   1      46.779  24.737  26.368  1.00  0.00    -0.036 A 
ATOM     83  H   UNL A   1      45.473  23.076  26.247  1.00  0.00     0.065 H 
ATOM     84  C   UNL A   1      46.593  26.103  26.849  1.00  0.00     0.049 A 
ATOM     85  H   UNL A   1      44.881  26.928  27.697  1.00  0.00     0.167 HD
ATOM     86  C   UNL A   1      41.163  28.633  29.174  1.00  0.00     0.037 A 
ATOM     87  H   UNL A   1      39.517  26.359  29.039  1.00  0.00     0.065 H 
ATOM     88  H   UNL A   1      47.654  24.353  25.978  1.00  0.00     0.065 H 
ATOM     89  C   UNL A   1      47.525  27.073  26.825  1.00  0.00     0.037 A 
ATOM     90  C   UNL A   1      42.105  29.717  29.231  1.00  0.00     0.049 A 
ATOM     91  C   UNL A   1      47.198  28.441  27.346  1.00  0.00     0.074 A 
ATOM     92  C   UNL A   1      41.911  31.009  29.693  1.00  0.00    -0.036 A 
ATOM     93  N   UNL A   1      43.425  29.634  28.819  1.00  0.00    -0.354 N 
ATOM     94  N   UNL A   1      46.066  28.891  27.823  1.00  0.00    -0.248 NA
ATOM     95  C   UNL A   1      48.281  29.437  27.322  1.00  0.00    -0.034 C 
ATOM     96  C   UNL A   1      43.114  31.711  29.551  1.00  0.00    -0.036 A 
ATOM     97  H   UNL A   1      41.032  31.387  30.078  1.00  0.00     0.065 H 
ATOM     98  C   UNL A   1      44.057  30.852  29.010  1.00  0.00     0.049 A 
ATOM     99  H   UNL A   1      43.851  28.829  28.445  1.00  0.00     0.167 HD
ATOM    100  C   UNL A   1      46.296  30.217  28.162  1.00  0.00     0.074 A 
ATOM    101  C   UNL A   1      47.680  30.499  27.842  1.00  0.00    -0.034 C 
ATOM    102  H   UNL A   1      49.253  29.336  26.989  1.00  0.00     0.065 H 
ATOM    103  H   UNL A   1      43.271  32.699  29.804  1.00  0.00     0.065 H 
ATOM    104  C   UNL A   1      45.433  31.117  28.688  1.00  0.00     0.037 A 
ATOM    105  H   UNL A   1      48.139  31.410  27.998  1.00  0.00     0.065 H 
BRANCH  86 106
ATOM    106  C   UNL A   1      39.756  28.906  29.594  1.00  0.00     0.064 A 
ATOM    107  C   UNL A   1      39.335  28.696  30.914  1.00  0.00     0.173 A 
ATOM    108  C   UNL A   1      38.829  29.413  28.674  1.00  0.00     0.173 A 
ATOM    109  F   UNL A   1      40.187  28.200  31.823  1.00  0.00    -0.203 F 
ATOM    110  C   UNL A   1      38.025  28.977  31.296  1.00  0.00     0.198 A 
ATOM    111  C   UNL A   1      37.524  29.703  29.061  1.00  0.00     0.198 A 
ATOM    112  F   UNL A   1      39.190  29.627  27.399  1.00  0.00    -0.203 F 
ATOM    113  F   UNL A   1      37.635  28.753  32.557  1.00  0.00    -0.200 F 
ATOM    114  C   UNL A   1      37.123  29.483  30.371  1.00  0.00     0.200 A 
ATOM    115  F   UNL A   1      36.652  30.191  28.167  1.00  0.00    -0.200 F 
ATOM    116  F   UNL A   1      35.863  29.754  30.741  1.00  0.00    -0.200 F 
ENDBRANCH  86 106
BRANCH  89 117
ATOM    117  C   UNL A   1      48.870  26.774  26.282  1.00  0.00     0.064 A 
ATOM    118  C   UNL A   1      49.857  26.199  27.093  1.00  0.00     0.173 A 
ATOM    119  C   UNL A   1      49.185  27.043  24.944  1.00  0.00     0.173 A 
ATOM    120  F   UNL A   1      49.599  25.946  28.383  1.00  0.00    -0.203 F 
ATOM    121  C   UNL A   1      51.117  25.903  26.581  1.00  0.00     0.198 A 
ATOM    122  C   UNL A   1      50.442  26.737  24.431  1.00  0.00     0.198 A 
ATOM    123  F   UNL A   1      48.268  27.596  24.137  1.00  0.00    -0.203 F 
ATOM    124  F   UNL A   1      52.053  25.367  27.377  1.00  0.00    -0.200 F 
ATOM    125  C   UNL A   1      51.409  26.168  25.250  1.00  0.00     0.200 A 
ATOM    126  F   UNL A   1      50.721  26.993  23.146  1.00  0.00    -0.200 F 
ATOM    127  F   UNL A   1      52.621  25.881  24.758  1.00  0.00    -0.200 F 
ENDBRANCH  89 117
BRANCH 104 128
ATOM    128  C   UNL A   1      45.963  32.489  28.957  1.00  0.00     0.064 A 
ATOM    129  C   UNL A   1      46.576  32.800  30.178  1.00  0.00     0.173 A 
ATOM    130  C   UNL A   1      45.888  33.488  27.977  1.00  0.00     0.173 A 
ATOM    131  F   UNL A   1      46.654  31.875  31.147  1.00  0.00    -0.203 F 
ATOM    132  C   UNL A   1      47.091  34.071  30.412  1.00  0.00     0.198 A 
ATOM    133  C   UNL A   1      46.411  34.757  28.212  1.00  0.00     0.198 A 
ATOM    134  F   UNL A   1      45.304  33.234  26.796  1.00  0.00    -0.203 F 
ATOM    135  F   UNL A   1      47.658  34.355  31.593  1.00  0.00    -0.200 F 
ATOM    136  C   UNL A   1      47.011  35.047  29.429  1.00  0.00     0.200 A 
ATOM    137  F   UNL A   1      46.330  35.700  27.264  1.00  0.00    -0.200 F 
ATOM    138  F   UNL A   1      47.505  36.271  29.658  1.00  0.00    -0.200 F 
ENDBRANCH 104 128
ENDBRANCH  69  72
ENDBRANCH  59  62
ENDBRANCH  55  58
ENDBRANCH  52  55
ENDBRANCH  49  52
ENDBRANCH  46  49
ENDBRANCH   1  46
TORSDOF 18
ENDMDL
