MODEL 1
REMARK VINA RESULT:     -13.0      0.000      0.000
REMARK SMILES CC(=O)NS(=O)(=O)c1ccc(-c2ccn(C(F)F)c(=O)c2)cc1C(=O)NCCCCCCNC(=O)c1ccc(-c2c3nc(c(-c4c(F)c(F)c(F)c(F)c4F)c4ccc([nH]4)c(-c4c(F)c(F)c(F)c(F)c4F)c4nc(c(-c5c(F)c(F)c(F)c(F)c5F)c5ccc2[nH]5)C=C4)C=C3)cc1
REMARK SMILES IDX 29 1 28 4 27 7 26 10 24 11 25 12 23 14 8 15 9 16 10 17 22 19
REMARK SMILES IDX 11 20 5 23 6 24 7 25 4 26 2 27 3 28 1 30 12 34 13 35 21 36
REMARK SMILES IDX 14 37 19 39 15 41 20 43 16 44 17 45 18 46 30 48 31 51 32 54
REMARK SMILES IDX 33 57 34 58 35 60 36 61 37 62 98 63 38 64 97 66 39 68 40 71
REMARK SMILES IDX 41 72 91 73 42 74 96 75 90 76 92 77 43 78 95 79 89 81 88 83
REMARK SMILES IDX 44 85 76 88 56 89 75 90 57 91 60 92 74 93 93 94 58 95 59 97
REMARK SMILES IDX 73 99 94 100 61 103 45 105 46 106 54 107 47 108 48 109
REMARK SMILES IDX 52 110 55 111 49 112 50 113 53 114 51 115 77 116 78 117
REMARK SMILES IDX 86 118 79 119 80 120 84 121 87 122 81 123 82 124 85 125
REMARK SMILES IDX 83 126 62 127 63 128 71 129 64 130 65 131 69 132 72 133
REMARK SMILES IDX 66 134 67 135 70 136 68 137
REMARK H PARENT 29 2 29 3 28 5 28 6 27 8 27 9 26 13 9 18 10 21 22 22 4 29 1 31
REMARK H PARENT 1 32 1 33 13 38 21 40 14 42 16 47 30 49 30 50 31 52 31 53
REMARK H PARENT 32 55 32 56 33 59 37 65 98 67 38 69 97 70 96 80 90 82 92 84
REMARK H PARENT 95 86 89 87 57 96 60 98 93 101 58 102 94 104
REMARK Flexibility Score: inf
ROOT
ATOM      1  C   UNL A   1      32.387  29.884  26.795  1.00  0.00    -0.052 C 
ATOM      2  H   UNL A   1      33.223  29.651  26.168  1.00  0.00     0.027 H 
ATOM      3  H   UNL A   1      32.661  30.435  27.671  1.00  0.00     0.027 H 
ENDROOT
BRANCH   1   4
ATOM      4  C   UNL A   1      31.777  28.570  27.285  1.00  0.00    -0.036 C 
ATOM      5  H   UNL A   1      31.687  28.619  28.349  1.00  0.00     0.028 H 
ATOM      6  H   UNL A   1      30.835  28.468  26.789  1.00  0.00     0.028 H 
BRANCH   4   7
ATOM      7  C   UNL A   1      32.593  27.318  26.931  1.00  0.00     0.018 C 
ATOM      8  H   UNL A   1      32.977  27.412  25.937  1.00  0.00     0.049 H 
ATOM      9  H   UNL A   1      33.407  27.216  27.620  1.00  0.00     0.049 H 
BRANCH   7  10
ATOM     10  N   UNL A   1      31.739  26.142  27.013  1.00  0.00    -0.352 N 
ATOM     11  C   UNL A   1      30.960  25.503  26.091  1.00  0.00     0.252 C 
ATOM     12  O   UNL A   1      30.275  24.539  26.429  1.00  0.00    -0.269 OA
ATOM     13  H   UNL A   1      31.719  25.727  27.905  1.00  0.00     0.163 HD
BRANCH  11  14
ATOM     14  C   UNL A   1      30.989  25.844  24.656  1.00  0.00     0.060 A 
ATOM     15  C   UNL A   1      31.788  25.244  23.685  1.00  0.00     0.100 A 
ATOM     16  C   UNL A   1      31.761  25.720  22.363  1.00  0.00    -0.040 A 
ATOM     17  C   UNL A   1      31.032  26.868  22.040  1.00  0.00    -0.053 A 
ATOM     18  H   UNL A   1      32.282  25.220  21.626  1.00  0.00     0.064 H 
ATOM     19  C   UNL A   1      30.256  27.000  24.315  1.00  0.00    -0.040 A 
ATOM     20  C   UNL A   1      30.304  27.545  23.023  1.00  0.00    -0.017 A 
ATOM     21  H   UNL A   1      31.031  27.217  21.068  1.00  0.00     0.063 H 
ATOM     22  H   UNL A   1      29.673  27.457  25.033  1.00  0.00     0.064 H 
BRANCH  15  23
ATOM     23  S   UNL A   1      32.986  24.004  24.075  1.00  0.00     0.264 S 
ATOM     24  O   UNL A   1      33.640  24.438  25.291  1.00  0.00    -0.201 OA
ATOM     25  O   UNL A   1      33.734  23.639  22.898  1.00  0.00    -0.201 OA
BRANCH  23  26
ATOM     26  N   UNL A   1      32.069  22.689  24.493  1.00  0.00    -0.249 N 
ATOM     27  C   UNL A   1      32.487  21.413  24.893  1.00  0.00     0.230 C 
ATOM     28  O   UNL A   1      31.641  20.635  25.315  1.00  0.00    -0.274 OA
ATOM     29  H   UNL A   1      31.095  22.824  24.455  1.00  0.00     0.183 HD
BRANCH  27  30
ATOM     30  C   UNL A   1      33.928  21.022  24.744  1.00  0.00     0.016 C 
ATOM     31  H   UNL A   1      34.063  20.021  25.095  1.00  0.00     0.033 H 
ATOM     32  H   UNL A   1      34.540  21.687  25.317  1.00  0.00     0.033 H 
ATOM     33  H   UNL A   1      34.208  21.079  23.713  1.00  0.00     0.033 H 
ENDBRANCH  27  30
ENDBRANCH  23  26
ENDBRANCH  15  23
BRANCH  20  34
ATOM     34  C   UNL A   1      29.714  28.878  22.751  1.00  0.00    -0.011 A 
ATOM     35  C   UNL A   1      30.200  29.723  21.670  1.00  0.00    -0.038 A 
ATOM     36  C   UNL A   1      28.660  29.302  23.471  1.00  0.00     0.012 A 
ATOM     37  C   UNL A   1      29.600  30.883  21.381  1.00  0.00     0.013 A 
ATOM     38  H   UNL A   1      31.019  29.423  21.120  1.00  0.00     0.064 H 
ATOM     39  C   UNL A   1      27.979  30.593  23.159  1.00  0.00     0.255 A 
ATOM     40  H   UNL A   1      28.317  28.725  24.253  1.00  0.00     0.069 H 
ATOM     41  N   UNL A   1      28.507  31.318  22.103  1.00  0.00    -0.258 N 
ATOM     42  H   UNL A   1      29.960  31.463  20.606  1.00  0.00     0.082 H 
ATOM     43  O   UNL A   1      27.005  30.915  23.833  1.00  0.00    -0.269 OA
BRANCH  41  44
ATOM     44  C   UNL A   1      27.842  32.547  21.752  1.00  0.00     0.321 C 
ATOM     45  F   UNL A   1      28.399  33.599  22.401  1.00  0.00    -0.185 F 
ATOM     46  F   UNL A   1      27.921  32.785  20.420  1.00  0.00    -0.185 F 
ATOM     47  H   UNL A   1      26.818  32.438  22.038  1.00  0.00     0.131 H 
ENDBRANCH  41  44
ENDBRANCH  20  34
ENDBRANCH  11  14
ENDBRANCH   7  10
ENDBRANCH   4   7
ENDBRANCH   1   4
BRANCH   1  48
ATOM     48  C   UNL A   1      31.431  30.779  26.003  1.00  0.00    -0.052 C 
ATOM     49  H   UNL A   1      30.463  30.323  26.028  1.00  0.00     0.027 H 
ATOM     50  H   UNL A   1      31.859  30.856  25.025  1.00  0.00     0.027 H 
BRANCH  48  51
ATOM     51  C   UNL A   1      31.280  32.226  26.499  1.00  0.00    -0.036 C 
ATOM     52  H   UNL A   1      30.448  32.253  27.170  1.00  0.00     0.028 H 
ATOM     53  H   UNL A   1      31.160  32.814  25.613  1.00  0.00     0.028 H 
BRANCH  51  54
ATOM     54  C   UNL A   1      32.482  32.836  27.225  1.00  0.00     0.018 C 
ATOM     55  H   UNL A   1      33.321  32.824  26.562  1.00  0.00     0.049 H 
ATOM     56  H   UNL A   1      32.653  32.248  28.104  1.00  0.00     0.049 H 
BRANCH  54  57
ATOM     57  N   UNL A   1      32.256  34.202  27.659  1.00  0.00    -0.352 N 
ATOM     58  C   UNL A   1      32.947  34.948  28.581  1.00  0.00     0.251 C 
ATOM     59  H   UNL A   1      31.499  34.660  27.229  1.00  0.00     0.163 HD
ATOM     60  O   UNL A   1      32.557  36.075  28.873  1.00  0.00    -0.269 OA
BRANCH  58  61
ATOM     61  C   UNL A   1      34.140  34.397  29.265  1.00  0.00     0.039 A 
ATOM     62  C   UNL A   1      33.952  33.731  30.483  1.00  0.00    -0.049 A 
ATOM     63  C   UNL A   1      35.432  34.570  28.757  1.00  0.00    -0.049 A 
ATOM     64  C   UNL A   1      35.045  33.187  31.161  1.00  0.00    -0.053 A 
ATOM     65  H   UNL A   1      33.003  33.644  30.880  1.00  0.00     0.063 H 
ATOM     66  C   UNL A   1      36.525  34.014  29.431  1.00  0.00    -0.053 A 
ATOM     67  H   UNL A   1      35.579  35.107  27.888  1.00  0.00     0.063 H 
ATOM     68  C   UNL A   1      36.337  33.309  30.629  1.00  0.00    -0.014 A 
ATOM     69  H   UNL A   1      34.902  32.693  32.055  1.00  0.00     0.063 H 
ATOM     70  H   UNL A   1      37.474  34.122  29.043  1.00  0.00     0.063 H 
BRANCH  68  71
ATOM     71  C   UNL A   1      37.490  32.665  31.301  1.00  0.00     0.031 A 
ATOM     72  C   UNL A   1      38.257  31.567  30.630  1.00  0.00     0.074 A 
ATOM     73  C   UNL A   1      37.836  33.064  32.539  1.00  0.00     0.049 A 
ATOM     74  N   UNL A   1      39.231  30.833  31.106  1.00  0.00    -0.248 NA
ATOM     75  C   UNL A   1      37.879  31.248  29.246  1.00  0.00    -0.034 C 
ATOM     76  C   UNL A   1      37.173  34.122  33.301  1.00  0.00    -0.036 A 
ATOM     77  N   UNL A   1      38.830  32.621  33.373  1.00  0.00    -0.354 N 
ATOM     78  C   UNL A   1      39.567  29.947  30.093  1.00  0.00     0.074 A 
ATOM     79  C   UNL A   1      38.705  30.247  28.967  1.00  0.00    -0.034 C 
ATOM     80  H   UNL A   1      37.161  31.686  28.649  1.00  0.00     0.065 H 
ATOM     81  C   UNL A   1      37.782  34.250  34.492  1.00  0.00    -0.036 A 
ATOM     82  H   UNL A   1      36.367  34.680  32.977  1.00  0.00     0.065 H 
ATOM     83  C   UNL A   1      38.865  33.274  34.578  1.00  0.00     0.049 A 
ATOM     84  H   UNL A   1      39.458  31.903  33.130  1.00  0.00     0.167 HD
ATOM     85  C   UNL A   1      40.499  28.966  30.107  1.00  0.00     0.037 A 
ATOM     86  H   UNL A   1      38.730  29.746  28.065  1.00  0.00     0.065 H 
ATOM     87  H   UNL A   1      37.526  34.928  35.226  1.00  0.00     0.065 H 
ATOM     88  C   UNL A   1      39.675  33.100  35.638  1.00  0.00     0.037 A 
ATOM     89  C   UNL A   1      41.371  28.668  31.212  1.00  0.00     0.049 A 
ATOM     90  C   UNL A   1      40.739  32.045  35.604  1.00  0.00     0.074 A 
ATOM     91  C   UNL A   1      42.315  27.662  31.324  1.00  0.00    -0.036 A 
ATOM     92  N   UNL A   1      41.412  29.390  32.394  1.00  0.00    -0.354 N 
ATOM     93  N   UNL A   1      41.013  31.182  34.659  1.00  0.00    -0.248 NA
ATOM     94  C   UNL A   1      41.605  31.938  36.789  1.00  0.00    -0.034 C 
ATOM     95  C   UNL A   1      42.936  27.780  32.575  1.00  0.00    -0.036 A 
ATOM     96  H   UNL A   1      42.525  26.948  30.610  1.00  0.00     0.065 H 
ATOM     97  C   UNL A   1      42.378  28.860  33.236  1.00  0.00     0.049 A 
ATOM     98  H   UNL A   1      40.841  30.163  32.605  1.00  0.00     0.167 HD
ATOM     99  C   UNL A   1      42.071  30.422  35.134  1.00  0.00     0.074 A 
ATOM    100  C   UNL A   1      42.404  30.935  36.447  1.00  0.00    -0.034 C 
ATOM    101  H   UNL A   1      41.594  32.496  37.657  1.00  0.00     0.065 H 
ATOM    102  H   UNL A   1      43.682  27.167  32.940  1.00  0.00     0.065 H 
ATOM    103  C   UNL A   1      42.700  29.384  34.536  1.00  0.00     0.037 A 
ATOM    104  H   UNL A   1      43.164  30.567  37.040  1.00  0.00     0.065 H 
BRANCH  85 105
ATOM    105  C   UNL A   1      40.613  28.120  28.882  1.00  0.00     0.064 A 
ATOM    106  C   UNL A   1      39.883  26.932  28.752  1.00  0.00     0.173 A 
ATOM    107  C   UNL A   1      41.431  28.520  27.814  1.00  0.00     0.173 A 
ATOM    108  F   UNL A   1      39.096  26.511  29.752  1.00  0.00    -0.203 F 
ATOM    109  C   UNL A   1      39.967  26.170  27.590  1.00  0.00     0.198 A 
ATOM    110  C   UNL A   1      41.510  27.757  26.654  1.00  0.00     0.198 A 
ATOM    111  F   UNL A   1      42.150  29.649  27.903  1.00  0.00    -0.203 F 
ATOM    112  F   UNL A   1      39.268  25.032  27.485  1.00  0.00    -0.200 F 
ATOM    113  C   UNL A   1      40.778  26.584  26.542  1.00  0.00     0.200 A 
ATOM    114  F   UNL A   1      42.296  28.155  25.644  1.00  0.00    -0.200 F 
ATOM    115  F   UNL A   1      40.859  25.848  25.426  1.00  0.00    -0.200 F 
ENDBRANCH  85 105
BRANCH  88 116
ATOM    116  C   UNL A   1      39.496  33.950  36.834  1.00  0.00     0.064 A 
ATOM    117  C   UNL A   1      38.753  33.498  37.931  1.00  0.00     0.173 A 
ATOM    118  C   UNL A   1      40.082  35.221  36.908  1.00  0.00     0.173 A 
ATOM    119  F   UNL A   1      38.165  32.294  37.891  1.00  0.00    -0.203 F 
ATOM    120  C   UNL A   1      38.602  34.290  39.066  1.00  0.00     0.198 A 
ATOM    121  C   UNL A   1      39.934  36.009  38.046  1.00  0.00     0.198 A 
ATOM    122  F   UNL A   1      40.797  35.689  35.875  1.00  0.00    -0.203 F 
ATOM    123  F   UNL A   1      37.878  33.843  40.102  1.00  0.00    -0.200 F 
ATOM    124  C   UNL A   1      39.194  35.544  39.123  1.00  0.00     0.200 A 
ATOM    125  F   UNL A   1      40.506  37.220  38.098  1.00  0.00    -0.200 F 
ATOM    126  F   UNL A   1      39.049  36.306  40.216  1.00  0.00    -0.200 F 
ENDBRANCH  88 116
BRANCH 103 127
ATOM    127  C   UNL A   1      43.806  28.731  35.300  1.00  0.00     0.064 A 
ATOM    128  C   UNL A   1      43.533  27.719  36.230  1.00  0.00     0.173 A 
ATOM    129  C   UNL A   1      45.141  29.098  35.087  1.00  0.00     0.173 A 
ATOM    130  F   UNL A   1      42.268  27.347  36.472  1.00  0.00    -0.203 F 
ATOM    131  C   UNL A   1      44.565  27.095  36.926  1.00  0.00     0.198 A 
ATOM    132  C   UNL A   1      46.170  28.471  35.783  1.00  0.00     0.198 A 
ATOM    133  F   UNL A   1      45.442  30.071  34.214  1.00  0.00    -0.203 F 
ATOM    134  F   UNL A   1      44.285  26.138  37.821  1.00  0.00    -0.200 F 
ATOM    135  C   UNL A   1      45.882  27.472  36.701  1.00  0.00     0.200 A 
ATOM    136  F   UNL A   1      47.441  28.840  35.574  1.00  0.00    -0.200 F 
ATOM    137  F   UNL A   1      46.873  26.875  37.376  1.00  0.00    -0.200 F 
ENDBRANCH 103 127
ENDBRANCH  68  71
ENDBRANCH  58  61
ENDBRANCH  54  57
ENDBRANCH  51  54
ENDBRANCH  48  51
ENDBRANCH   1  48
TORSDOF 18
ENDMDL
MODEL 2
REMARK VINA RESULT:     -12.7      5.458     10.476
REMARK SMILES CC(=O)NS(=O)(=O)c1ccc(-c2ccn(C(F)F)c(=O)c2)cc1C(=O)NCCCCCCNC(=O)c1ccc(-c2c3nc(c(-c4c(F)c(F)c(F)c(F)c4F)c4ccc([nH]4)c(-c4c(F)c(F)c(F)c(F)c4F)c4nc(c(-c5c(F)c(F)c(F)c(F)c5F)c5ccc2[nH]5)C=C4)C=C3)cc1
REMARK SMILES IDX 29 1 28 4 27 7 26 10 24 11 25 12 23 14 8 15 9 16 10 17 22 19
REMARK SMILES IDX 11 20 5 23 6 24 7 25 4 26 2 27 3 28 1 30 12 34 13 35 21 36
REMARK SMILES IDX 14 37 19 39 15 41 20 43 16 44 17 45 18 46 30 48 31 51 32 54
REMARK SMILES IDX 33 57 34 58 35 60 36 61 37 62 98 63 38 64 97 66 39 68 40 71
REMARK SMILES IDX 41 72 91 73 42 74 96 75 90 76 92 77 43 78 95 79 89 81 88 83
REMARK SMILES IDX 44 85 76 88 56 89 75 90 57 91 60 92 74 93 93 94 58 95 59 97
REMARK SMILES IDX 73 99 94 100 61 103 45 105 46 106 54 107 47 108 48 109
REMARK SMILES IDX 52 110 55 111 49 112 50 113 53 114 51 115 77 116 78 117
REMARK SMILES IDX 86 118 79 119 80 120 84 121 87 122 81 123 82 124 85 125
REMARK SMILES IDX 83 126 62 127 63 128 71 129 64 130 65 131 69 132 72 133
REMARK SMILES IDX 66 134 67 135 70 136 68 137
REMARK H PARENT 29 2 29 3 28 5 28 6 27 8 27 9 26 13 9 18 10 21 22 22 4 29 1 31
REMARK H PARENT 1 32 1 33 13 38 21 40 14 42 16 47 30 49 30 50 31 52 31 53
REMARK H PARENT 32 55 32 56 33 59 37 65 98 67 38 69 97 70 96 80 90 82 92 84
REMARK H PARENT 95 86 89 87 57 96 60 98 93 101 58 102 94 104
REMARK Flexibility Score: inf
ROOT
ATOM      1  C   UNL A   1      37.344  22.142  25.703  1.00  0.00    -0.052 C 
ATOM      2  H   UNL A   1      36.614  21.909  26.451  1.00  0.00     0.027 H 
ATOM      3  H   UNL A   1      38.345  22.144  26.080  1.00  0.00     0.027 H 
ENDROOT
BRANCH   1   4
ATOM      4  C   UNL A   1      37.071  23.559  25.196  1.00  0.00    -0.036 C 
ATOM      5  H   UNL A   1      37.835  24.204  25.575  1.00  0.00     0.028 H 
ATOM      6  H   UNL A   1      37.063  23.504  24.127  1.00  0.00     0.028 H 
BRANCH   4   7
ATOM      7  C   UNL A   1      35.710  24.134  25.612  1.00  0.00     0.018 C 
ATOM      8  H   UNL A   1      35.065  23.337  25.919  1.00  0.00     0.049 H 
ATOM      9  H   UNL A   1      35.845  24.817  26.426  1.00  0.00     0.049 H 
BRANCH   7  10
ATOM     10  N   UNL A   1      35.113  24.835  24.484  1.00  0.00    -0.352 N 
ATOM     11  C   UNL A   1      33.908  24.709  23.854  1.00  0.00     0.252 C 
ATOM     12  O   UNL A   1      33.656  25.399  22.868  1.00  0.00    -0.269 OA
ATOM     13  H   UNL A   1      35.689  25.537  24.104  1.00  0.00     0.163 HD
BRANCH  11  14
ATOM     14  C   UNL A   1      32.826  23.852  24.376  1.00  0.00     0.060 A 
ATOM     15  C   UNL A   1      31.776  24.264  25.195  1.00  0.00     0.100 A 
ATOM     16  C   UNL A   1      30.851  23.321  25.675  1.00  0.00    -0.040 A 
ATOM     17  C   UNL A   1      31.046  21.957  25.439  1.00  0.00    -0.053 A 
ATOM     18  H   UNL A   1      30.024  23.636  26.204  1.00  0.00     0.064 H 
ATOM     19  C   UNL A   1      33.008  22.473  24.145  1.00  0.00    -0.040 A 
ATOM     20  C   UNL A   1      32.152  21.515  24.706  1.00  0.00    -0.017 A 
ATOM     21  H   UNL A   1      30.368  21.272  25.810  1.00  0.00     0.063 H 
ATOM     22  H   UNL A   1      33.792  22.162  23.551  1.00  0.00     0.064 H 
BRANCH  15  23
ATOM     23  S   UNL A   1      31.645  25.915  25.813  1.00  0.00     0.264 S 
ATOM     24  O   UNL A   1      32.973  26.294  26.245  1.00  0.00    -0.201 OA
ATOM     25  O   UNL A   1      30.499  26.039  26.678  1.00  0.00    -0.201 OA
BRANCH  23  26
ATOM     26  N   UNL A   1      31.329  26.817  24.460  1.00  0.00    -0.249 N 
ATOM     27  C   UNL A   1      31.423  28.203  24.282  1.00  0.00     0.230 C 
ATOM     28  O   UNL A   1      31.300  28.650  23.149  1.00  0.00    -0.274 OA
ATOM     29  H   UNL A   1      31.034  26.307  23.671  1.00  0.00     0.183 HD
BRANCH  27  30
ATOM     30  C   UNL A   1      31.616  29.094  25.474  1.00  0.00     0.016 C 
ATOM     31  H   UNL A   1      31.342  30.097  25.218  1.00  0.00     0.033 H 
ATOM     32  H   UNL A   1      32.642  29.071  25.776  1.00  0.00     0.033 H 
ATOM     33  H   UNL A   1      31.000  28.752  26.279  1.00  0.00     0.033 H 
ENDBRANCH  27  30
ENDBRANCH  23  26
ENDBRANCH  15  23
BRANCH  20  34
ATOM     34  C   UNL A   1      32.493  20.074  24.639  1.00  0.00    -0.011 A 
ATOM     35  C   UNL A   1      32.782  19.300  25.836  1.00  0.00    -0.038 A 
ATOM     36  C   UNL A   1      32.477  19.438  23.454  1.00  0.00     0.012 A 
ATOM     37  C   UNL A   1      33.002  17.982  25.768  1.00  0.00     0.013 A 
ATOM     38  H   UNL A   1      32.818  19.774  26.752  1.00  0.00     0.064 H 
ATOM     39  C   UNL A   1      32.718  17.968  23.362  1.00  0.00     0.255 A 
ATOM     40  H   UNL A   1      32.294  19.975  22.593  1.00  0.00     0.069 H 
ATOM     41  N   UNL A   1      32.969  17.318  24.558  1.00  0.00    -0.258 N 
ATOM     42  H   UNL A   1      33.200  17.454  26.632  1.00  0.00     0.082 H 
ATOM     43  O   UNL A   1      32.663  17.437  22.256  1.00  0.00    -0.269 OA
BRANCH  41  44
ATOM     44  C   UNL A   1      33.163  15.891  24.504  1.00  0.00     0.321 C 
ATOM     45  F   UNL A   1      34.361  15.545  25.036  1.00  0.00    -0.185 F 
ATOM     46  F   UNL A   1      32.194  15.237  25.189  1.00  0.00    -0.185 F 
ATOM     47  H   UNL A   1      33.124  15.612  23.472  1.00  0.00     0.131 H 
ENDBRANCH  41  44
ENDBRANCH  20  34
ENDBRANCH  11  14
ENDBRANCH   7  10
ENDBRANCH   4   7
ENDBRANCH   1   4
BRANCH   1  48
ATOM     48  C   UNL A   1      37.287  21.054  24.628  1.00  0.00    -0.052 C 
ATOM     49  H   UNL A   1      37.538  21.508  23.693  1.00  0.00     0.027 H 
ATOM     50  H   UNL A   1      36.294  20.658  24.677  1.00  0.00     0.027 H 
BRANCH  48  51
ATOM     51  C   UNL A   1      38.218  19.847  24.828  1.00  0.00    -0.036 C 
ATOM     52  H   UNL A   1      38.850  19.780  23.967  1.00  0.00     0.028 H 
ATOM     53  H   UNL A   1      37.566  19.011  24.971  1.00  0.00     0.028 H 
BRANCH  51  54
ATOM     54  C   UNL A   1      39.121  19.869  26.064  1.00  0.00     0.018 C 
ATOM     55  H   UNL A   1      38.540  19.580  26.914  1.00  0.00     0.049 H 
ATOM     56  H   UNL A   1      39.507  20.863  26.158  1.00  0.00     0.049 H 
BRANCH  54  57
ATOM     57  N   UNL A   1      40.260  18.975  25.957  1.00  0.00    -0.352 N 
ATOM     58  C   UNL A   1      41.599  19.255  26.068  1.00  0.00     0.251 C 
ATOM     59  H   UNL A   1      40.039  18.032  25.781  1.00  0.00     0.163 HD
ATOM     60  O   UNL A   1      42.428  18.370  25.871  1.00  0.00    -0.269 OA
BRANCH  58  61
ATOM     61  C   UNL A   1      42.067  20.624  26.383  1.00  0.00     0.039 A 
ATOM     62  C   UNL A   1      42.286  21.507  25.319  1.00  0.00    -0.049 A 
ATOM     63  C   UNL A   1      42.340  21.032  27.694  1.00  0.00    -0.049 A 
ATOM     64  C   UNL A   1      42.718  22.812  25.566  1.00  0.00    -0.053 A 
ATOM     65  H   UNL A   1      42.127  21.192  24.348  1.00  0.00     0.063 H 
ATOM     66  C   UNL A   1      42.762  22.342  27.942  1.00  0.00    -0.053 A 
ATOM     67  H   UNL A   1      42.232  20.367  28.475  1.00  0.00     0.063 H 
ATOM     68  C   UNL A   1      42.941  23.243  26.882  1.00  0.00    -0.014 A 
ATOM     69  H   UNL A   1      42.873  23.461  24.779  1.00  0.00     0.063 H 
ATOM     70  H   UNL A   1      42.940  22.648  28.911  1.00  0.00     0.063 H 
BRANCH  68  71
ATOM     71  C   UNL A   1      43.322  24.649  27.157  1.00  0.00     0.031 A 
ATOM     72  C   UNL A   1      44.702  25.147  26.851  1.00  0.00     0.074 A 
ATOM     73  C   UNL A   1      42.417  25.479  27.706  1.00  0.00     0.049 A 
ATOM     74  N   UNL A   1      45.232  26.316  27.110  1.00  0.00    -0.248 NA
ATOM     75  C   UNL A   1      45.607  24.209  26.171  1.00  0.00    -0.034 C 
ATOM     76  C   UNL A   1      41.041  25.120  28.049  1.00  0.00    -0.036 A 
ATOM     77  N   UNL A   1      42.523  26.797  28.074  1.00  0.00    -0.354 N 
ATOM     78  C   UNL A   1      46.538  26.248  26.650  1.00  0.00     0.074 A 
ATOM     79  C   UNL A   1      46.718  24.929  26.078  1.00  0.00    -0.034 C 
ATOM     80  H   UNL A   1      45.426  23.246  25.850  1.00  0.00     0.065 H 
ATOM     81  C   UNL A   1      40.428  26.194  28.575  1.00  0.00    -0.036 A 
ATOM     82  H   UNL A   1      40.610  24.193  27.910  1.00  0.00     0.065 H 
ATOM     83  C   UNL A   1      41.373  27.307  28.617  1.00  0.00     0.049 A 
ATOM     84  H   UNL A   1      43.347  27.324  27.958  1.00  0.00     0.167 HD
ATOM     85  C   UNL A   1      47.502  27.197  26.712  1.00  0.00     0.037 A 
ATOM     86  H   UNL A   1      47.596  24.593  25.653  1.00  0.00     0.065 H 
ATOM     87  H   UNL A   1      39.448  26.227  28.896  1.00  0.00     0.065 H 
ATOM     88  C   UNL A   1      41.111  28.534  29.104  1.00  0.00     0.037 A 
ATOM     89  C   UNL A   1      47.334  28.514  27.263  1.00  0.00     0.049 A 
ATOM     90  C   UNL A   1      42.180  29.584  29.106  1.00  0.00     0.074 A 
ATOM     91  C   UNL A   1      48.273  29.522  27.404  1.00  0.00    -0.036 A 
ATOM     92  N   UNL A   1      46.137  29.011  27.754  1.00  0.00    -0.354 N 
ATOM     93  N   UNL A   1      43.426  29.492  28.712  1.00  0.00    -0.248 NA
ATOM     94  C   UNL A   1      41.808  30.909  29.624  1.00  0.00    -0.034 C 
ATOM     95  C   UNL A   1      47.640  30.635  27.974  1.00  0.00    -0.036 A 
ATOM     96  H   UNL A   1      49.267  29.463  27.137  1.00  0.00     0.065 H 
ATOM     97  C   UNL A   1      46.309  30.318  28.184  1.00  0.00     0.049 A 
ATOM     98  H   UNL A   1      45.290  28.511  27.791  1.00  0.00     0.167 HD
ATOM     99  C   UNL A   1      43.990  30.737  28.944  1.00  0.00     0.074 A 
ATOM    100  C   UNL A   1      42.948  31.577  29.498  1.00  0.00    -0.034 C 
ATOM    101  H   UNL A   1      40.899  31.235  29.989  1.00  0.00     0.065 H 
ATOM    102  H   UNL A   1      48.090  31.537  28.198  1.00  0.00     0.065 H 
ATOM    103  C   UNL A   1      45.263  31.140  28.727  1.00  0.00     0.037 A 
ATOM    104  H   UNL A   1      43.075  32.566  29.761  1.00  0.00     0.065 H 
BRANCH  85 105
ATOM    105  C   UNL A   1      48.850  26.831  26.179  1.00  0.00     0.064 A 
ATOM    106  C   UNL A   1      49.210  27.127  24.859  1.00  0.00     0.173 A 
ATOM    107  C   UNL A   1      49.799  26.215  27.008  1.00  0.00     0.173 A 
ATOM    108  F   UNL A   1      48.330  27.709  24.033  1.00  0.00    -0.203 F 
ATOM    109  C   UNL A   1      50.481  26.816  24.383  1.00  0.00     0.198 A 
ATOM    110  C   UNL A   1      51.069  25.909  26.530  1.00  0.00     0.198 A 
ATOM    111  F   UNL A   1      49.490  25.911  28.277  1.00  0.00    -0.203 F 
ATOM    112  F   UNL A   1      50.808  27.099  23.115  1.00  0.00    -0.200 F 
ATOM    113  C   UNL A   1      51.410  26.211  25.219  1.00  0.00     0.200 A 
ATOM    114  F   UNL A   1      51.963  25.321  27.336  1.00  0.00    -0.200 F 
ATOM    115  F   UNL A   1      52.631  25.911  24.759  1.00  0.00    -0.200 F 
ENDBRANCH  85 105
BRANCH  88 116
ATOM    116  C   UNL A   1      39.766  28.828  29.643  1.00  0.00     0.064 A 
ATOM    117  C   UNL A   1      38.772  29.381  28.826  1.00  0.00     0.173 A 
ATOM    118  C   UNL A   1      39.447  28.541  30.976  1.00  0.00     0.173 A 
ATOM    119  F   UNL A   1      39.046  29.682  27.549  1.00  0.00    -0.203 F 
ATOM    120  C   UNL A   1      37.499  29.638  29.327  1.00  0.00     0.198 A 
ATOM    121  C   UNL A   1      38.172  28.795  31.474  1.00  0.00     0.198 A 
ATOM    122  F   UNL A   1      40.374  28.016  31.789  1.00  0.00    -0.203 F 
ATOM    123  F   UNL A   1      36.564  30.178  28.532  1.00  0.00    -0.200 F 
ATOM    124  C   UNL A   1      37.200  29.343  30.650  1.00  0.00     0.200 A 
ATOM    125  F   UNL A   1      37.885  28.510  32.751  1.00  0.00    -0.200 F 
ATOM    126  F   UNL A   1      35.973  29.590  31.131  1.00  0.00    -0.200 F 
ENDBRANCH  88 116
BRANCH 103 127
ATOM    127  C   UNL A   1      45.599  32.549  29.096  1.00  0.00     0.064 A 
ATOM    128  C   UNL A   1      45.433  33.590  28.173  1.00  0.00     0.173 A 
ATOM    129  C   UNL A   1      46.062  32.864  30.380  1.00  0.00     0.173 A 
ATOM    130  F   UNL A   1      45.004  33.329  26.929  1.00  0.00    -0.203 F 
ATOM    131  C   UNL A   1      45.725  34.905  28.524  1.00  0.00     0.198 A 
ATOM    132  C   UNL A   1      46.351  34.181  30.728  1.00  0.00     0.198 A 
ATOM    133  F   UNL A   1      46.244  31.895  31.288  1.00  0.00    -0.203 F 
ATOM    134  F   UNL A   1      45.574  35.887  27.624  1.00  0.00    -0.200 F 
ATOM    135  C   UNL A   1      46.183  35.199  29.801  1.00  0.00     0.200 A 
ATOM    136  F   UNL A   1      46.802  34.464  31.958  1.00  0.00    -0.200 F 
ATOM    137  F   UNL A   1      46.469  36.464  30.135  1.00  0.00    -0.200 F 
ENDBRANCH 103 127
ENDBRANCH  68  71
ENDBRANCH  58  61
ENDBRANCH  54  57
ENDBRANCH  51  54
ENDBRANCH  48  51
ENDBRANCH   1  48
TORSDOF 18
ENDMDL
MODEL 3
REMARK VINA RESULT:     -12.6      2.543      4.900
REMARK SMILES CC(=O)NS(=O)(=O)c1ccc(-c2ccn(C(F)F)c(=O)c2)cc1C(=O)NCCCCCCNC(=O)c1ccc(-c2c3nc(c(-c4c(F)c(F)c(F)c(F)c4F)c4ccc([nH]4)c(-c4c(F)c(F)c(F)c(F)c4F)c4nc(c(-c5c(F)c(F)c(F)c(F)c5F)c5ccc2[nH]5)C=C4)C=C3)cc1
REMARK SMILES IDX 29 1 28 4 27 7 26 10 24 11 25 12 23 14 8 15 9 16 10 17 22 19
REMARK SMILES IDX 11 20 5 23 6 24 7 25 4 26 2 27 3 28 1 30 12 34 13 35 21 36
REMARK SMILES IDX 14 37 19 39 15 41 20 43 16 44 17 45 18 46 30 48 31 51 32 54
REMARK SMILES IDX 33 57 34 58 35 60 36 61 37 62 98 63 38 64 97 66 39 68 40 71
REMARK SMILES IDX 41 72 91 73 42 74 96 75 90 76 92 77 43 78 95 79 89 81 88 83
REMARK SMILES IDX 44 85 76 88 56 89 75 90 57 91 60 92 74 93 93 94 58 95 59 97
REMARK SMILES IDX 73 99 94 100 61 103 45 105 46 106 54 107 47 108 48 109
REMARK SMILES IDX 52 110 55 111 49 112 50 113 53 114 51 115 77 116 78 117
REMARK SMILES IDX 86 118 79 119 80 120 84 121 87 122 81 123 82 124 85 125
REMARK SMILES IDX 83 126 62 127 63 128 71 129 64 130 65 131 69 132 72 133
REMARK SMILES IDX 66 134 67 135 70 136 68 137
REMARK H PARENT 29 2 29 3 28 5 28 6 27 8 27 9 26 13 9 18 10 21 22 22 4 29 1 31
REMARK H PARENT 1 32 1 33 13 38 21 40 14 42 16 47 30 49 30 50 31 52 31 53
REMARK H PARENT 32 55 32 56 33 59 37 65 98 67 38 69 97 70 96 80 90 82 92 84
REMARK H PARENT 95 86 89 87 57 96 60 98 93 101 58 102 94 104
REMARK Flexibility Score: inf
ROOT
ATOM      1  C   UNL A   1      32.112  29.584  27.252  1.00  0.00    -0.052 C 
ATOM      2  H   UNL A   1      32.110  30.076  28.202  1.00  0.00     0.027 H 
ATOM      3  H   UNL A   1      31.452  28.742  27.214  1.00  0.00     0.027 H 
ENDROOT
BRANCH   1   4
ATOM      4  C   UNL A   1      33.519  29.041  26.998  1.00  0.00    -0.036 C 
ATOM      5  H   UNL A   1      34.037  29.733  26.369  1.00  0.00     0.028 H 
ATOM      6  H   UNL A   1      33.978  28.923  27.958  1.00  0.00     0.028 H 
BRANCH   4   7
ATOM      7  C   UNL A   1      33.558  27.662  26.325  1.00  0.00     0.018 C 
ATOM      8  H   UNL A   1      33.653  27.784  25.266  1.00  0.00     0.049 H 
ATOM      9  H   UNL A   1      34.396  27.106  26.696  1.00  0.00     0.049 H 
BRANCH   7  10
ATOM     10  N   UNL A   1      32.328  26.941  26.622  1.00  0.00    -0.352 N 
ATOM     11  C   UNL A   1      31.645  25.967  25.951  1.00  0.00     0.252 C 
ATOM     12  O   UNL A   1      30.578  25.550  26.395  1.00  0.00    -0.269 OA
ATOM     13  H   UNL A   1      31.908  27.207  27.472  1.00  0.00     0.163 HD
BRANCH  11  14
ATOM     14  C   UNL A   1      32.193  25.295  24.757  1.00  0.00     0.060 A 
ATOM     15  C   UNL A   1      32.089  25.745  23.442  1.00  0.00     0.100 A 
ATOM     16  C   UNL A   1      32.602  24.963  22.392  1.00  0.00    -0.040 A 
ATOM     17  C   UNL A   1      33.104  23.684  22.644  1.00  0.00    -0.053 A 
ATOM     18  H   UNL A   1      32.608  25.336  21.430  1.00  0.00     0.064 H 
ATOM     19  C   UNL A   1      32.704  24.003  24.996  1.00  0.00    -0.040 A 
ATOM     20  C   UNL A   1      33.122  23.173  23.945  1.00  0.00    -0.017 A 
ATOM     21  H   UNL A   1      33.464  23.113  21.863  1.00  0.00     0.063 H 
ATOM     22  H   UNL A   1      32.770  23.660  25.966  1.00  0.00     0.064 H 
BRANCH  15  23
ATOM     23  S   UNL A   1      31.175  27.193  23.002  1.00  0.00     0.264 S 
ATOM     24  O   UNL A   1      31.027  27.160  21.563  1.00  0.00    -0.201 OA
ATOM     25  O   UNL A   1      31.702  28.347  23.687  1.00  0.00    -0.201 OA
BRANCH  23  26
ATOM     26  N   UNL A   1      29.667  26.909  23.625  1.00  0.00    -0.249 N 
ATOM     27  C   UNL A   1      28.494  27.659  23.473  1.00  0.00     0.230 C 
ATOM     28  O   UNL A   1      27.445  27.181  23.886  1.00  0.00    -0.274 OA
ATOM     29  H   UNL A   1      29.584  26.099  24.179  1.00  0.00     0.183 HD
BRANCH  27  30
ATOM     30  C   UNL A   1      28.562  29.031  22.868  1.00  0.00     0.016 C 
ATOM     31  H   UNL A   1      28.082  29.023  21.912  1.00  0.00     0.033 H 
ATOM     32  H   UNL A   1      29.586  29.319  22.750  1.00  0.00     0.033 H 
ATOM     33  H   UNL A   1      28.066  29.729  23.509  1.00  0.00     0.033 H 
ENDBRANCH  27  30
ENDBRANCH  23  26
ENDBRANCH  15  23
BRANCH  20  34
ATOM     34  C   UNL A   1      33.438  21.747  24.199  1.00  0.00    -0.011 A 
ATOM     35  C   UNL A   1      32.446  20.699  24.014  1.00  0.00    -0.038 A 
ATOM     36  C   UNL A   1      34.688  21.390  24.546  1.00  0.00     0.012 A 
ATOM     37  C   UNL A   1      32.770  19.410  24.162  1.00  0.00     0.013 A 
ATOM     38  H   UNL A   1      31.477  20.954  23.767  1.00  0.00     0.064 H 
ATOM     39  C   UNL A   1      35.066  19.956  24.712  1.00  0.00     0.255 A 
ATOM     40  H   UNL A   1      35.398  22.122  24.701  1.00  0.00     0.069 H 
ATOM     41  N   UNL A   1      34.055  19.034  24.500  1.00  0.00    -0.258 N 
ATOM     42  H   UNL A   1      32.050  18.684  24.020  1.00  0.00     0.082 H 
ATOM     43  O   UNL A   1      36.228  19.691  25.002  1.00  0.00    -0.269 OA
BRANCH  41  44
ATOM     44  C   UNL A   1      34.402  17.640  24.611  1.00  0.00     0.321 C 
ATOM     45  F   UNL A   1      33.516  16.982  25.398  1.00  0.00    -0.185 F 
ATOM     46  F   UNL A   1      34.414  17.038  23.397  1.00  0.00    -0.185 F 
ATOM     47  H   UNL A   1      35.380  17.597  25.042  1.00  0.00     0.131 H 
ENDBRANCH  41  44
ENDBRANCH  20  34
ENDBRANCH  11  14
ENDBRANCH   7  10
ENDBRANCH   4   7
ENDBRANCH   1   4
BRANCH   1  48
ATOM     48  C   UNL A   1      31.609  30.576  26.201  1.00  0.00    -0.052 C 
ATOM     49  H   UNL A   1      30.668  30.218  25.839  1.00  0.00     0.027 H 
ATOM     50  H   UNL A   1      32.381  30.622  25.461  1.00  0.00     0.027 H 
BRANCH  48  51
ATOM     51  C   UNL A   1      31.408  32.026  26.671  1.00  0.00    -0.036 C 
ATOM     52  H   UNL A   1      30.716  32.010  27.487  1.00  0.00     0.028 H 
ATOM     53  H   UNL A   1      31.068  32.556  25.806  1.00  0.00     0.028 H 
BRANCH  51  54
ATOM     54  C   UNL A   1      32.657  32.780  27.138  1.00  0.00     0.018 C 
ATOM     55  H   UNL A   1      33.336  32.854  26.316  1.00  0.00     0.049 H 
ATOM     56  H   UNL A   1      33.072  32.228  27.956  1.00  0.00     0.049 H 
BRANCH  54  57
ATOM     57  N   UNL A   1      32.370  34.117  27.623  1.00  0.00    -0.352 N 
ATOM     58  C   UNL A   1      32.997  34.839  28.608  1.00  0.00     0.251 C 
ATOM     59  H   UNL A   1      31.618  34.573  27.181  1.00  0.00     0.163 HD
ATOM     60  O   UNL A   1      32.561  35.940  28.933  1.00  0.00    -0.269 OA
BRANCH  58  61
ATOM     61  C   UNL A   1      34.176  34.292  29.318  1.00  0.00     0.039 A 
ATOM     62  C   UNL A   1      33.952  33.447  30.412  1.00  0.00    -0.049 A 
ATOM     63  C   UNL A   1      35.484  34.636  28.960  1.00  0.00    -0.049 A 
ATOM     64  C   UNL A   1      35.032  32.899  31.109  1.00  0.00    -0.053 A 
ATOM     65  H   UNL A   1      32.987  33.230  30.705  1.00  0.00     0.063 H 
ATOM     66  C   UNL A   1      36.565  34.077  29.650  1.00  0.00    -0.053 A 
ATOM     67  H   UNL A   1      35.651  35.301  28.188  1.00  0.00     0.063 H 
ATOM     68  C   UNL A   1      36.346  33.197  30.720  1.00  0.00    -0.014 A 
ATOM     69  H   UNL A   1      34.863  32.273  31.911  1.00  0.00     0.063 H 
ATOM     70  H   UNL A   1      37.529  34.314  29.369  1.00  0.00     0.063 H 
BRANCH  68  71
ATOM     71  C   UNL A   1      37.495  32.556  31.402  1.00  0.00     0.031 A 
ATOM     72  C   UNL A   1      38.256  31.443  30.747  1.00  0.00     0.074 A 
ATOM     73  C   UNL A   1      37.842  32.971  32.634  1.00  0.00     0.049 A 
ATOM     74  N   UNL A   1      39.226  30.711  31.236  1.00  0.00    -0.248 NA
ATOM     75  C   UNL A   1      37.877  31.105  29.368  1.00  0.00    -0.034 C 
ATOM     76  C   UNL A   1      37.185  34.045  33.379  1.00  0.00    -0.036 A 
ATOM     77  N   UNL A   1      38.834  32.535  33.475  1.00  0.00    -0.354 N 
ATOM     78  C   UNL A   1      39.556  29.808  30.236  1.00  0.00     0.074 A 
ATOM     79  C   UNL A   1      38.697  30.095  29.105  1.00  0.00    -0.034 C 
ATOM     80  H   UNL A   1      37.162  31.539  28.764  1.00  0.00     0.065 H 
ATOM     81  C   UNL A   1      37.795  34.187  34.568  1.00  0.00    -0.036 A 
ATOM     82  H   UNL A   1      36.383  34.603  33.046  1.00  0.00     0.065 H 
ATOM     83  C   UNL A   1      38.872  33.205  34.670  1.00  0.00     0.049 A 
ATOM     84  H   UNL A   1      39.458  31.809  33.243  1.00  0.00     0.167 HD
ATOM     85  C   UNL A   1      40.483  28.822  30.266  1.00  0.00     0.037 A 
ATOM     86  H   UNL A   1      38.720  29.581  28.211  1.00  0.00     0.065 H 
ATOM     87  H   UNL A   1      37.543  34.877  35.292  1.00  0.00     0.065 H 
ATOM     88  C   UNL A   1      39.680  33.042  35.734  1.00  0.00     0.037 A 
ATOM     89  C   UNL A   1      41.352  28.535  31.375  1.00  0.00     0.049 A 
ATOM     90  C   UNL A   1      40.738  31.981  35.716  1.00  0.00     0.074 A 
ATOM     91  C   UNL A   1      42.291  27.525  31.503  1.00  0.00    -0.036 A 
ATOM     92  N   UNL A   1      41.397  29.274  32.547  1.00  0.00    -0.354 N 
ATOM     93  N   UNL A   1      41.008  31.102  34.784  1.00  0.00    -0.248 NA
ATOM     94  C   UNL A   1      41.603  31.886  36.902  1.00  0.00    -0.034 C 
ATOM     95  C   UNL A   1      42.911  27.659  32.752  1.00  0.00    -0.036 A 
ATOM     96  H   UNL A   1      42.497  26.800  30.800  1.00  0.00     0.065 H 
ATOM     97  C   UNL A   1      42.359  28.752  33.397  1.00  0.00     0.049 A 
ATOM     98  H   UNL A   1      40.831  30.054  32.745  1.00  0.00     0.167 HD
ATOM     99  C   UNL A   1      42.061  30.343  35.271  1.00  0.00     0.074 A 
ATOM    100  C   UNL A   1      42.395  30.874  36.576  1.00  0.00    -0.034 C 
ATOM    101  H   UNL A   1      41.595  32.457  37.762  1.00  0.00     0.065 H 
ATOM    102  H   UNL A   1      43.653  27.046  33.127  1.00  0.00     0.065 H 
ATOM    103  C   UNL A   1      42.684  29.293  34.689  1.00  0.00     0.037 A 
ATOM    104  H   UNL A   1      43.153  30.511  37.175  1.00  0.00     0.065 H 
BRANCH  85 105
ATOM    105  C   UNL A   1      40.593  27.956  29.053  1.00  0.00     0.064 A 
ATOM    106  C   UNL A   1      39.779  26.828  28.893  1.00  0.00     0.173 A 
ATOM    107  C   UNL A   1      41.492  28.280  28.027  1.00  0.00     0.173 A 
ATOM    108  F   UNL A   1      38.911  26.480  29.854  1.00  0.00    -0.203 F 
ATOM    109  C   UNL A   1      39.862  26.049  27.742  1.00  0.00     0.198 A 
ATOM    110  C   UNL A   1      41.571  27.502  26.877  1.00  0.00     0.198 A 
ATOM    111  F   UNL A   1      42.293  29.350  28.145  1.00  0.00    -0.203 F 
ATOM    112  F   UNL A   1      39.082  24.969  27.608  1.00  0.00    -0.200 F 
ATOM    113  C   UNL A   1      40.755  26.388  26.734  1.00  0.00     0.200 A 
ATOM    114  F   UNL A   1      42.435  27.827  25.906  1.00  0.00    -0.200 F 
ATOM    115  F   UNL A   1      40.835  25.637  25.628  1.00  0.00    -0.200 F 
ENDBRANCH  85 105
BRANCH  88 116
ATOM    116  C   UNL A   1      39.506  33.912  36.916  1.00  0.00     0.064 A 
ATOM    117  C   UNL A   1      40.112  35.173  36.975  1.00  0.00     0.173 A 
ATOM    118  C   UNL A   1      38.713  33.506  37.998  1.00  0.00     0.173 A 
ATOM    119  F   UNL A   1      40.889  35.589  35.965  1.00  0.00    -0.203 F 
ATOM    120  C   UNL A   1      39.931  36.001  38.079  1.00  0.00     0.198 A 
ATOM    121  C   UNL A   1      38.529  34.337  39.099  1.00  0.00     0.198 A 
ATOM    122  F   UNL A   1      38.120  32.303  37.979  1.00  0.00    -0.203 F 
ATOM    123  F   UNL A   1      40.528  37.200  38.121  1.00  0.00    -0.200 F 
ATOM    124  C   UNL A   1      39.138  35.583  39.139  1.00  0.00     0.200 A 
ATOM    125  F   UNL A   1      37.764  33.932  40.121  1.00  0.00    -0.200 F 
ATOM    126  F   UNL A   1      38.963  36.381  40.202  1.00  0.00    -0.200 F 
ENDBRANCH  88 116
BRANCH 103 127
ATOM    127  C   UNL A   1      43.785  28.645  35.464  1.00  0.00     0.064 A 
ATOM    128  C   UNL A   1      43.512  27.608  36.366  1.00  0.00     0.173 A 
ATOM    129  C   UNL A   1      45.117  29.041  35.288  1.00  0.00     0.173 A 
ATOM    130  F   UNL A   1      42.249  27.208  36.572  1.00  0.00    -0.203 F 
ATOM    131  C   UNL A   1      44.540  26.990  37.071  1.00  0.00     0.198 A 
ATOM    132  C   UNL A   1      46.143  28.420  35.993  1.00  0.00     0.198 A 
ATOM    133  F   UNL A   1      45.418  30.038  34.442  1.00  0.00    -0.203 F 
ATOM    134  F   UNL A   1      44.260  26.008  37.940  1.00  0.00    -0.200 F 
ATOM    135  C   UNL A   1      45.854  27.395  36.884  1.00  0.00     0.200 A 
ATOM    136  F   UNL A   1      47.411  28.817  35.820  1.00  0.00    -0.200 F 
ATOM    137  F   UNL A   1      46.843  26.803  37.568  1.00  0.00    -0.200 F 
ENDBRANCH 103 127
ENDBRANCH  68  71
ENDBRANCH  58  61
ENDBRANCH  54  57
ENDBRANCH  51  54
ENDBRANCH  48  51
ENDBRANCH   1  48
TORSDOF 18
ENDMDL
MODEL 4
REMARK VINA RESULT:     -12.6      2.579      5.003
REMARK SMILES CC(=O)NS(=O)(=O)c1ccc(-c2ccn(C(F)F)c(=O)c2)cc1C(=O)NCCCCCCNC(=O)c1ccc(-c2c3nc(c(-c4c(F)c(F)c(F)c(F)c4F)c4ccc([nH]4)c(-c4c(F)c(F)c(F)c(F)c4F)c4nc(c(-c5c(F)c(F)c(F)c(F)c5F)c5ccc2[nH]5)C=C4)C=C3)cc1
REMARK SMILES IDX 29 1 28 4 27 7 26 10 24 11 25 12 23 14 8 15 9 16 10 17 22 19
REMARK SMILES IDX 11 20 5 23 6 24 7 25 4 26 2 27 3 28 1 30 12 34 13 35 21 36
REMARK SMILES IDX 14 37 19 39 15 41 20 43 16 44 17 45 18 46 30 48 31 51 32 54
REMARK SMILES IDX 33 57 34 58 35 60 36 61 37 62 98 63 38 64 97 66 39 68 40 71
REMARK SMILES IDX 41 72 91 73 42 74 96 75 90 76 92 77 43 78 95 79 89 81 88 83
REMARK SMILES IDX 44 85 76 88 56 89 75 90 57 91 60 92 74 93 93 94 58 95 59 97
REMARK SMILES IDX 73 99 94 100 61 103 45 105 46 106 54 107 47 108 48 109
REMARK SMILES IDX 52 110 55 111 49 112 50 113 53 114 51 115 77 116 78 117
REMARK SMILES IDX 86 118 79 119 80 120 84 121 87 122 81 123 82 124 85 125
REMARK SMILES IDX 83 126 62 127 63 128 71 129 64 130 65 131 69 132 72 133
REMARK SMILES IDX 66 134 67 135 70 136 68 137
REMARK H PARENT 29 2 29 3 28 5 28 6 27 8 27 9 26 13 9 18 10 21 22 22 4 29 1 31
REMARK H PARENT 1 32 1 33 13 38 21 40 14 42 16 47 30 49 30 50 31 52 31 53
REMARK H PARENT 32 55 32 56 33 59 37 65 98 67 38 69 97 70 96 80 90 82 92 84
REMARK H PARENT 95 86 89 87 57 96 60 98 93 101 58 102 94 104
REMARK Flexibility Score: inf
ROOT
ATOM      1  C   UNL A   1      32.809  30.028  27.172  1.00  0.00    -0.052 C 
ATOM      2  H   UNL A   1      33.703  30.319  26.661  1.00  0.00     0.027 H 
ATOM      3  H   UNL A   1      32.788  30.343  28.194  1.00  0.00     0.027 H 
ENDROOT
BRANCH   1   4
ATOM      4  C   UNL A   1      32.746  28.500  27.190  1.00  0.00    -0.036 C 
ATOM      5  H   UNL A   1      32.981  28.167  28.179  1.00  0.00     0.028 H 
ATOM      6  H   UNL A   1      31.757  28.232  26.883  1.00  0.00     0.028 H 
BRANCH   4   7
ATOM      7  C   UNL A   1      33.708  27.811  26.212  1.00  0.00     0.018 C 
ATOM      8  H   UNL A   1      34.716  27.961  26.538  1.00  0.00     0.049 H 
ATOM      9  H   UNL A   1      33.496  26.762  26.182  1.00  0.00     0.049 H 
BRANCH   7  10
ATOM     10  N   UNL A   1      33.537  28.378  24.882  1.00  0.00    -0.352 N 
ATOM     11  C   UNL A   1      33.205  27.824  23.679  1.00  0.00     0.252 C 
ATOM     12  O   UNL A   1      33.178  28.523  22.668  1.00  0.00    -0.269 OA
ATOM     13  H   UNL A   1      33.691  29.350  24.843  1.00  0.00     0.163 HD
BRANCH  11  14
ATOM     14  C   UNL A   1      32.754  26.425  23.549  1.00  0.00     0.060 A 
ATOM     15  C   UNL A   1      31.431  25.987  23.539  1.00  0.00     0.100 A 
ATOM     16  C   UNL A   1      31.149  24.611  23.477  1.00  0.00    -0.040 A 
ATOM     17  C   UNL A   1      32.183  23.674  23.549  1.00  0.00    -0.053 A 
ATOM     18  H   UNL A   1      30.173  24.291  23.377  1.00  0.00     0.064 H 
ATOM     19  C   UNL A   1      33.787  25.468  23.620  1.00  0.00    -0.040 A 
ATOM     20  C   UNL A   1      33.513  24.093  23.664  1.00  0.00    -0.017 A 
ATOM     21  H   UNL A   1      31.963  22.666  23.518  1.00  0.00     0.063 H 
ATOM     22  H   UNL A   1      34.768  25.787  23.641  1.00  0.00     0.064 H 
BRANCH  15  23
ATOM     23  S   UNL A   1      30.065  27.084  23.779  1.00  0.00     0.264 S 
ATOM     24  O   UNL A   1      30.393  27.894  24.932  1.00  0.00    -0.201 OA
ATOM     25  O   UNL A   1      28.820  26.365  23.683  1.00  0.00    -0.201 OA
BRANCH  23  26
ATOM     26  N   UNL A   1      30.141  28.098  22.471  1.00  0.00    -0.249 N 
ATOM     27  C   UNL A   1      29.380  29.240  22.195  1.00  0.00     0.230 C 
ATOM     28  O   UNL A   1      29.710  29.940  21.247  1.00  0.00    -0.274 OA
ATOM     29  H   UNL A   1      30.815  27.864  21.793  1.00  0.00     0.183 HD
BRANCH  27  30
ATOM     30  C   UNL A   1      28.166  29.543  23.024  1.00  0.00     0.016 C 
ATOM     31  H   UNL A   1      27.291  29.475  22.413  1.00  0.00     0.033 H 
ATOM     32  H   UNL A   1      28.244  30.532  23.426  1.00  0.00     0.033 H 
ATOM     33  H   UNL A   1      28.096  28.838  23.826  1.00  0.00     0.033 H 
ENDBRANCH  27  30
ENDBRANCH  23  26
ENDBRANCH  15  23
BRANCH  20  34
ATOM     34  C   UNL A   1      34.593  23.124  23.966  1.00  0.00    -0.011 A 
ATOM     35  C   UNL A   1      35.994  23.516  23.968  1.00  0.00    -0.038 A 
ATOM     36  C   UNL A   1      34.281  21.862  24.314  1.00  0.00     0.012 A 
ATOM     37  C   UNL A   1      36.950  22.653  24.329  1.00  0.00     0.013 A 
ATOM     38  H   UNL A   1      36.254  24.474  23.686  1.00  0.00     0.064 H 
ATOM     39  C   UNL A   1      35.336  20.889  24.721  1.00  0.00     0.255 A 
ATOM     40  H   UNL A   1      33.295  21.562  24.298  1.00  0.00     0.069 H 
ATOM     41  N   UNL A   1      36.637  21.362  24.704  1.00  0.00    -0.258 N 
ATOM     42  H   UNL A   1      37.937  22.956  24.327  1.00  0.00     0.082 H 
ATOM     43  O   UNL A   1      34.988  19.759  25.054  1.00  0.00    -0.269 OA
BRANCH  41  44
ATOM     44  C   UNL A   1      37.672  20.456  25.134  1.00  0.00     0.321 C 
ATOM     45  F   UNL A   1      37.952  19.548  24.167  1.00  0.00    -0.185 F 
ATOM     46  F   UNL A   1      38.815  21.121  25.431  1.00  0.00    -0.185 F 
ATOM     47  H   UNL A   1      37.307  19.961  26.009  1.00  0.00     0.131 H 
ENDBRANCH  41  44
ENDBRANCH  20  34
ENDBRANCH  11  14
ENDBRANCH   7  10
ENDBRANCH   4   7
ENDBRANCH   1   4
BRANCH   1  48
ATOM     48  C   UNL A   1      31.623  30.710  26.484  1.00  0.00    -0.052 C 
ATOM     49  H   UNL A   1      30.735  30.192  26.778  1.00  0.00     0.027 H 
ATOM     50  H   UNL A   1      31.838  30.664  25.437  1.00  0.00     0.027 H 
BRANCH  48  51
ATOM     51  C   UNL A   1      31.420  32.202  26.793  1.00  0.00    -0.036 C 
ATOM     52  H   UNL A   1      30.746  32.272  27.622  1.00  0.00     0.028 H 
ATOM     53  H   UNL A   1      31.055  32.629  25.883  1.00  0.00     0.028 H 
BRANCH  51  54
ATOM     54  C   UNL A   1      32.671  33.011  27.144  1.00  0.00     0.018 C 
ATOM     55  H   UNL A   1      33.253  33.138  26.256  1.00  0.00     0.049 H 
ATOM     56  H   UNL A   1      33.199  32.467  27.899  1.00  0.00     0.049 H 
BRANCH  54  57
ATOM     57  N   UNL A   1      32.370  34.322  27.689  1.00  0.00    -0.352 N 
ATOM     58  C   UNL A   1      32.997  35.009  28.699  1.00  0.00     0.251 C 
ATOM     59  H   UNL A   1      31.608  34.786  27.274  1.00  0.00     0.163 HD
ATOM     60  O   UNL A   1      32.548  36.089  29.076  1.00  0.00    -0.269 OA
BRANCH  58  61
ATOM     61  C   UNL A   1      34.190  34.448  29.374  1.00  0.00     0.039 A 
ATOM     62  C   UNL A   1      34.003  33.769  30.584  1.00  0.00    -0.049 A 
ATOM     63  C   UNL A   1      35.482  34.625  28.867  1.00  0.00    -0.049 A 
ATOM     64  C   UNL A   1      35.097  33.214  31.254  1.00  0.00    -0.053 A 
ATOM     65  H   UNL A   1      33.055  33.678  30.982  1.00  0.00     0.063 H 
ATOM     66  C   UNL A   1      36.575  34.059  29.531  1.00  0.00    -0.053 A 
ATOM     67  H   UNL A   1      35.628  35.172  28.004  1.00  0.00     0.063 H 
ATOM     68  C   UNL A   1      36.388  33.341  30.722  1.00  0.00    -0.014 A 
ATOM     69  H   UNL A   1      34.954  32.710  32.143  1.00  0.00     0.063 H 
ATOM     70  H   UNL A   1      37.524  34.171  29.143  1.00  0.00     0.063 H 
BRANCH  68  71
ATOM     71  C   UNL A   1      37.541  32.687  31.384  1.00  0.00     0.031 A 
ATOM     72  C   UNL A   1      38.299  31.588  30.703  1.00  0.00     0.074 A 
ATOM     73  C   UNL A   1      37.896  33.077  32.622  1.00  0.00     0.049 A 
ATOM     74  N   UNL A   1      39.271  30.846  31.170  1.00  0.00    -0.248 NA
ATOM     75  C   UNL A   1      37.911  31.277  29.319  1.00  0.00    -0.034 C 
ATOM     76  C   UNL A   1      37.243  34.136  33.393  1.00  0.00    -0.036 A 
ATOM     77  N   UNL A   1      38.893  32.624  33.448  1.00  0.00    -0.354 N 
ATOM     78  C   UNL A   1      39.595  29.963  30.150  1.00  0.00     0.074 A 
ATOM     79  C   UNL A   1      38.729  30.273  29.031  1.00  0.00    -0.034 C 
ATOM     80  H   UNL A   1      37.192  31.723  28.729  1.00  0.00     0.065 H 
ATOM     81  C   UNL A   1      37.860  34.254  34.581  1.00  0.00    -0.036 A 
ATOM     82  H   UNL A   1      36.439  34.700  33.076  1.00  0.00     0.065 H 
ATOM     83  C   UNL A   1      38.938  33.271  34.656  1.00  0.00     0.049 A 
ATOM     84  H   UNL A   1      39.515  31.904  33.197  1.00  0.00     0.167 HD
ATOM     85  C   UNL A   1      40.523  28.977  30.155  1.00  0.00     0.037 A 
ATOM     86  H   UNL A   1      38.747  29.777  28.126  1.00  0.00     0.065 H 
ATOM     87  H   UNL A   1      37.612  34.930  35.320  1.00  0.00     0.065 H 
ATOM     88  C   UNL A   1      39.753  33.087  35.711  1.00  0.00     0.037 A 
ATOM     89  C   UNL A   1      41.398  28.669  31.253  1.00  0.00     0.049 A 
ATOM     90  C   UNL A   1      40.811  32.027  35.666  1.00  0.00     0.074 A 
ATOM     91  C   UNL A   1      42.338  27.656  31.355  1.00  0.00    -0.036 A 
ATOM     92  N   UNL A   1      41.451  29.384  32.439  1.00  0.00    -0.354 N 
ATOM     93  N   UNL A   1      41.075  31.167  34.714  1.00  0.00    -0.248 NA
ATOM     94  C   UNL A   1      41.683  31.908  36.845  1.00  0.00    -0.034 C 
ATOM     95  C   UNL A   1      42.966  27.765  32.602  1.00  0.00    -0.036 A 
ATOM     96  H   UNL A   1      42.540  26.945  30.636  1.00  0.00     0.065 H 
ATOM     97  C   UNL A   1      42.418  28.845  33.273  1.00  0.00     0.049 A 
ATOM     98  H   UNL A   1      40.885  30.160  32.656  1.00  0.00     0.167 HD
ATOM     99  C   UNL A   1      42.131  30.399  35.180  1.00  0.00     0.074 A 
ATOM    100  C   UNL A   1      42.473  30.903  36.493  1.00  0.00    -0.034 C 
ATOM    101  H   UNL A   1      41.680  32.462  37.715  1.00  0.00     0.065 H 
ATOM    102  H   UNL A   1      43.711  27.146  32.960  1.00  0.00     0.065 H 
ATOM    103  C   UNL A   1      42.751  29.360  34.573  1.00  0.00     0.037 A 
ATOM    104  H   UNL A   1      43.235  30.528  37.080  1.00  0.00     0.065 H 
BRANCH  85 105
ATOM    105  C   UNL A   1      40.625  28.136  28.924  1.00  0.00     0.064 A 
ATOM    106  C   UNL A   1      39.880  26.958  28.788  1.00  0.00     0.173 A 
ATOM    107  C   UNL A   1      41.445  28.532  27.858  1.00  0.00     0.173 A 
ATOM    108  F   UNL A   1      39.090  26.540  29.787  1.00  0.00    -0.203 F 
ATOM    109  C   UNL A   1      39.954  26.201  27.623  1.00  0.00     0.198 A 
ATOM    110  C   UNL A   1      41.514  27.775  26.693  1.00  0.00     0.198 A 
ATOM    111  F   UNL A   1      42.179  29.652  27.951  1.00  0.00    -0.203 F 
ATOM    112  F   UNL A   1      39.241  25.073  27.512  1.00  0.00    -0.200 F 
ATOM    113  C   UNL A   1      40.768  26.611  26.576  1.00  0.00     0.200 A 
ATOM    114  F   UNL A   1      42.303  28.169  25.684  1.00  0.00    -0.200 F 
ATOM    115  F   UNL A   1      40.839  25.881  25.455  1.00  0.00    -0.200 F 
ENDBRANCH  85 105
BRANCH  88 116
ATOM    116  C   UNL A   1      39.585  33.933  36.912  1.00  0.00     0.064 A 
ATOM    117  C   UNL A   1      40.190  35.193  36.991  1.00  0.00     0.173 A 
ATOM    118  C   UNL A   1      38.801  33.504  37.991  1.00  0.00     0.173 A 
ATOM    119  F   UNL A   1      40.959  35.631  35.984  1.00  0.00    -0.203 F 
ATOM    120  C   UNL A   1      40.015  35.999  38.113  1.00  0.00     0.198 A 
ATOM    121  C   UNL A   1      38.624  34.313  39.110  1.00  0.00     0.198 A 
ATOM    122  F   UNL A   1      38.211  32.301  37.953  1.00  0.00    -0.203 F 
ATOM    123  F   UNL A   1      40.611  37.198  38.174  1.00  0.00    -0.200 F 
ATOM    124  C   UNL A   1      39.230  35.559  39.169  1.00  0.00     0.200 A 
ATOM    125  F   UNL A   1      37.867  33.886  40.129  1.00  0.00    -0.200 F 
ATOM    126  F   UNL A   1      39.062  36.335  40.249  1.00  0.00    -0.200 F 
ENDBRANCH  88 116
BRANCH 103 127
ATOM    127  C   UNL A   1      43.857  28.697  35.328  1.00  0.00     0.064 A 
ATOM    128  C   UNL A   1      45.186  29.107  35.158  1.00  0.00     0.173 A 
ATOM    129  C   UNL A   1      43.588  27.670  36.241  1.00  0.00     0.173 A 
ATOM    130  F   UNL A   1      45.487  30.078  34.284  1.00  0.00    -0.203 F 
ATOM    131  C   UNL A   1      46.214  28.504  35.877  1.00  0.00     0.198 A 
ATOM    132  C   UNL A   1      44.618  27.071  36.961  1.00  0.00     0.198 A 
ATOM    133  F   UNL A   1      42.330  27.242  36.424  1.00  0.00    -0.203 F 
ATOM    134  F   UNL A   1      47.481  28.899  35.693  1.00  0.00    -0.200 F 
ATOM    135  C   UNL A   1      45.929  27.488  36.778  1.00  0.00     0.200 A 
ATOM    136  F   UNL A   1      44.345  26.083  37.824  1.00  0.00    -0.200 F 
ATOM    137  F   UNL A   1      46.919  26.905  37.466  1.00  0.00    -0.200 F 
ENDBRANCH 103 127
ENDBRANCH  68  71
ENDBRANCH  58  61
ENDBRANCH  54  57
ENDBRANCH  51  54
ENDBRANCH  48  51
ENDBRANCH   1  48
TORSDOF 18
ENDMDL
MODEL 5
REMARK VINA RESULT:     -12.6      0.972      7.082
REMARK SMILES CC(=O)NS(=O)(=O)c1ccc(-c2ccn(C(F)F)c(=O)c2)cc1C(=O)NCCCCCCNC(=O)c1ccc(-c2c3nc(c(-c4c(F)c(F)c(F)c(F)c4F)c4ccc([nH]4)c(-c4c(F)c(F)c(F)c(F)c4F)c4nc(c(-c5c(F)c(F)c(F)c(F)c5F)c5ccc2[nH]5)C=C4)C=C3)cc1
REMARK SMILES IDX 29 1 28 4 27 7 26 10 24 11 25 12 23 14 8 15 9 16 10 17 22 19
REMARK SMILES IDX 11 20 5 23 6 24 7 25 4 26 2 27 3 28 1 30 12 34 13 35 21 36
REMARK SMILES IDX 14 37 19 39 15 41 20 43 16 44 17 45 18 46 30 48 31 51 32 54
REMARK SMILES IDX 33 57 34 58 35 60 36 61 37 62 98 63 38 64 97 66 39 68 40 71
REMARK SMILES IDX 41 72 91 73 42 74 96 75 90 76 92 77 43 78 95 79 89 81 88 83
REMARK SMILES IDX 44 85 76 88 56 89 75 90 57 91 60 92 74 93 93 94 58 95 59 97
REMARK SMILES IDX 73 99 94 100 61 103 45 105 46 106 54 107 47 108 48 109
REMARK SMILES IDX 52 110 55 111 49 112 50 113 53 114 51 115 77 116 78 117
REMARK SMILES IDX 86 118 79 119 80 120 84 121 87 122 81 123 82 124 85 125
REMARK SMILES IDX 83 126 62 127 63 128 71 129 64 130 65 131 69 132 72 133
REMARK SMILES IDX 66 134 67 135 70 136 68 137
REMARK H PARENT 29 2 29 3 28 5 28 6 27 8 27 9 26 13 9 18 10 21 22 22 4 29 1 31
REMARK H PARENT 1 32 1 33 13 38 21 40 14 42 16 47 30 49 30 50 31 52 31 53
REMARK H PARENT 32 55 32 56 33 59 37 65 98 67 38 69 97 70 96 80 90 82 92 84
REMARK H PARENT 95 86 89 87 57 96 60 98 93 101 58 102 94 104
REMARK Flexibility Score: inf
ROOT
ATOM      1  C   UNL A   1      32.689  29.690  25.789  1.00  0.00    -0.052 C 
ATOM      2  H   UNL A   1      32.466  29.170  24.881  1.00  0.00     0.027 H 
ATOM      3  H   UNL A   1      33.359  30.513  25.649  1.00  0.00     0.027 H 
ENDROOT
BRANCH   1   4
ATOM      4  C   UNL A   1      33.393  28.716  26.736  1.00  0.00    -0.036 C 
ATOM      5  H   UNL A   1      34.127  29.262  27.291  1.00  0.00     0.028 H 
ATOM      6  H   UNL A   1      32.632  28.289  27.355  1.00  0.00     0.028 H 
BRANCH   4   7
ATOM      7  C   UNL A   1      34.096  27.544  26.037  1.00  0.00     0.018 C 
ATOM      8  H   UNL A   1      33.976  27.637  24.977  1.00  0.00     0.049 H 
ATOM      9  H   UNL A   1      35.139  27.556  26.280  1.00  0.00     0.049 H 
BRANCH   7  10
ATOM     10  N   UNL A   1      33.508  26.289  26.483  1.00  0.00    -0.352 N 
ATOM     11  C   UNL A   1      32.619  25.430  25.903  1.00  0.00     0.252 C 
ATOM     12  O   UNL A   1      32.228  24.442  26.521  1.00  0.00    -0.269 OA
ATOM     13  H   UNL A   1      33.810  26.005  27.376  1.00  0.00     0.163 HD
BRANCH  11  14
ATOM     14  C   UNL A   1      32.185  25.567  24.499  1.00  0.00     0.060 A 
ATOM     15  C   UNL A   1      32.739  24.910  23.401  1.00  0.00     0.100 A 
ATOM     16  C   UNL A   1      32.268  25.191  22.107  1.00  0.00    -0.040 A 
ATOM     17  C   UNL A   1      31.334  26.211  21.900  1.00  0.00    -0.053 A 
ATOM     18  H   UNL A   1      32.612  24.642  21.305  1.00  0.00     0.064 H 
ATOM     19  C   UNL A   1      31.243  26.592  24.275  1.00  0.00    -0.040 A 
ATOM     20  C   UNL A   1      30.843  26.951  22.980  1.00  0.00    -0.017 A 
ATOM     21  H   UNL A   1      31.006  26.418  20.944  1.00  0.00     0.063 H 
ATOM     22  H   UNL A   1      30.840  27.090  25.084  1.00  0.00     0.064 H 
BRANCH  15  23
ATOM     23  S   UNL A   1      34.149  23.853  23.539  1.00  0.00     0.264 S 
ATOM     24  O   UNL A   1      35.090  24.539  24.397  1.00  0.00    -0.201 OA
ATOM     25  O   UNL A   1      34.527  23.348  22.243  1.00  0.00    -0.201 OA
BRANCH  23  26
ATOM     26  N   UNL A   1      33.588  22.563  24.415  1.00  0.00    -0.249 N 
ATOM     27  C   UNL A   1      32.778  21.499  23.999  1.00  0.00     0.230 C 
ATOM     28  O   UNL A   1      32.614  20.562  24.769  1.00  0.00    -0.274 OA
ATOM     29  H   UNL A   1      33.863  22.543  25.360  1.00  0.00     0.183 HD
BRANCH  27  30
ATOM     30  C   UNL A   1      32.098  21.561  22.662  1.00  0.00     0.016 C 
ATOM     31  H   UNL A   1      32.732  21.122  21.920  1.00  0.00     0.033 H 
ATOM     32  H   UNL A   1      31.904  22.581  22.406  1.00  0.00     0.033 H 
ATOM     33  H   UNL A   1      31.175  21.022  22.706  1.00  0.00     0.033 H 
ENDBRANCH  27  30
ENDBRANCH  23  26
ENDBRANCH  15  23
BRANCH  20  34
ATOM     34  C   UNL A   1      30.032  28.172  22.759  1.00  0.00    -0.011 A 
ATOM     35  C   UNL A   1      30.565  29.326  22.051  1.00  0.00    -0.038 A 
ATOM     36  C   UNL A   1      28.749  28.205  23.161  1.00  0.00     0.012 A 
ATOM     37  C   UNL A   1      29.794  30.386  21.782  1.00  0.00     0.013 A 
ATOM     38  H   UNL A   1      31.553  29.328  21.752  1.00  0.00     0.064 H 
ATOM     39  C   UNL A   1      27.876  29.379  22.867  1.00  0.00     0.255 A 
ATOM     40  H   UNL A   1      28.361  27.404  23.682  1.00  0.00     0.069 H 
ATOM     41  N   UNL A   1      28.471  30.420  22.174  1.00  0.00    -0.258 N 
ATOM     42  H   UNL A   1      30.194  31.190  21.273  1.00  0.00     0.082 H 
ATOM     43  O   UNL A   1      26.705  29.340  23.234  1.00  0.00    -0.269 OA
BRANCH  41  44
ATOM     44  C   UNL A   1      27.639  31.548  21.839  1.00  0.00     0.321 C 
ATOM     45  F   UNL A   1      28.071  32.670  22.467  1.00  0.00    -0.185 F 
ATOM     46  F   UNL A   1      27.646  31.784  20.505  1.00  0.00    -0.185 F 
ATOM     47  H   UNL A   1      26.647  31.307  22.157  1.00  0.00     0.131 H 
ENDBRANCH  41  44
ENDBRANCH  20  34
ENDBRANCH  11  14
ENDBRANCH   7  10
ENDBRANCH   4   7
ENDBRANCH   1   4
BRANCH   1  48
ATOM     48  C   UNL A   1      31.385  30.281  26.332  1.00  0.00    -0.052 C 
ATOM     49  H   UNL A   1      31.214  29.858  27.300  1.00  0.00     0.027 H 
ATOM     50  H   UNL A   1      30.639  30.038  25.604  1.00  0.00     0.027 H 
BRANCH  48  51
ATOM     51  C   UNL A   1      31.335  31.810  26.474  1.00  0.00    -0.036 C 
ATOM     52  H   UNL A   1      30.553  32.047  27.165  1.00  0.00     0.028 H 
ATOM     53  H   UNL A   1      31.181  32.179  25.481  1.00  0.00     0.028 H 
BRANCH  51  54
ATOM     54  C   UNL A   1      32.610  32.500  26.965  1.00  0.00     0.018 C 
ATOM     55  H   UNL A   1      33.300  32.558  26.150  1.00  0.00     0.049 H 
ATOM     56  H   UNL A   1      32.993  31.918  27.777  1.00  0.00     0.049 H 
BRANCH  54  57
ATOM     57  N   UNL A   1      32.378  33.841  27.470  1.00  0.00    -0.352 N 
ATOM     58  C   UNL A   1      33.063  34.539  28.432  1.00  0.00     0.251 C 
ATOM     59  H   UNL A   1      31.620  34.319  27.062  1.00  0.00     0.163 HD
ATOM     60  O   UNL A   1      32.669  35.649  28.782  1.00  0.00    -0.269 OA
BRANCH  58  61
ATOM     61  C   UNL A   1      34.257  33.958  29.089  1.00  0.00     0.039 A 
ATOM     62  C   UNL A   1      34.055  33.034  30.121  1.00  0.00    -0.049 A 
ATOM     63  C   UNL A   1      35.556  34.344  28.744  1.00  0.00    -0.049 A 
ATOM     64  C   UNL A   1      35.149  32.451  30.766  1.00  0.00    -0.053 A 
ATOM     65  H   UNL A   1      33.095  32.783  30.407  1.00  0.00     0.063 H 
ATOM     66  C   UNL A   1      36.652  33.751  29.381  1.00  0.00    -0.053 A 
ATOM     67  H   UNL A   1      35.707  35.065  28.021  1.00  0.00     0.063 H 
ATOM     68  C   UNL A   1      36.455  32.793  30.386  1.00  0.00    -0.014 A 
ATOM     69  H   UNL A   1      34.996  31.766  31.522  1.00  0.00     0.063 H 
ATOM     70  H   UNL A   1      37.610  34.020  29.108  1.00  0.00     0.063 H 
BRANCH  68  71
ATOM     71  C   UNL A   1      37.619  32.119  31.009  1.00  0.00     0.031 A 
ATOM     72  C   UNL A   1      38.079  32.494  32.385  1.00  0.00     0.074 A 
ATOM     73  C   UNL A   1      38.277  31.172  30.317  1.00  0.00     0.049 A 
ATOM     74  N   UNL A   1      39.129  32.074  33.045  1.00  0.00    -0.248 NA
ATOM     75  C   UNL A   1      37.258  33.471  33.114  1.00  0.00    -0.034 C 
ATOM     76  C   UNL A   1      37.929  30.714  28.972  1.00  0.00    -0.036 A 
ATOM     77  N   UNL A   1      39.379  30.427  30.653  1.00  0.00    -0.354 N 
ATOM     78  C   UNL A   1      39.112  32.752  34.254  1.00  0.00     0.074 A 
ATOM     79  C   UNL A   1      37.936  33.599  34.247  1.00  0.00    -0.034 C 
ATOM     80  H   UNL A   1      36.384  33.935  32.821  1.00  0.00     0.065 H 
ATOM     81  C   UNL A   1      38.800  29.762  28.597  1.00  0.00    -0.036 A 
ATOM     82  H   UNL A   1      37.143  31.064  28.404  1.00  0.00     0.065 H 
ATOM     83  C   UNL A   1      39.772  29.557  29.669  1.00  0.00     0.049 A 
ATOM     84  H   UNL A   1      39.844  30.510  31.517  1.00  0.00     0.167 HD
ATOM     85  C   UNL A   1      40.003  32.683  35.271  1.00  0.00     0.037 A 
ATOM     86  H   UNL A   1      37.662  34.222  35.023  1.00  0.00     0.065 H 
ATOM     87  H   UNL A   1      38.785  29.257  27.697  1.00  0.00     0.065 H 
ATOM     88  C   UNL A   1      40.804  28.696  29.631  1.00  0.00     0.037 A 
ATOM     89  C   UNL A   1      41.165  31.836  35.297  1.00  0.00     0.049 A 
ATOM     90  C   UNL A   1      41.742  28.596  30.796  1.00  0.00     0.074 A 
ATOM     91  C   UNL A   1      42.144  31.737  36.271  1.00  0.00    -0.036 A 
ATOM     92  N   UNL A   1      41.496  30.929  34.303  1.00  0.00    -0.354 N 
ATOM     93  N   UNL A   1      41.742  29.279  31.913  1.00  0.00    -0.248 NA
ATOM     94  C   UNL A   1      42.827  27.609  30.692  1.00  0.00    -0.034 C 
ATOM     95  C   UNL A   1      43.066  30.761  35.870  1.00  0.00    -0.036 A 
ATOM     96  H   UNL A   1      42.188  32.288  37.142  1.00  0.00     0.065 H 
ATOM     97  C   UNL A   1      42.657  30.254  34.649  1.00  0.00     0.049 A 
ATOM     98  H   UNL A   1      40.984  30.784  33.476  1.00  0.00     0.167 HD
ATOM     99  C   UNL A   1      42.828  28.816  32.640  1.00  0.00     0.074 A 
ATOM    100  C   UNL A   1      43.457  27.780  31.847  1.00  0.00    -0.034 C 
ATOM    101  H   UNL A   1      43.041  26.954  29.923  1.00  0.00     0.065 H 
ATOM    102  H   UNL A   1      43.905  30.470  36.396  1.00  0.00     0.065 H 
ATOM    103  C   UNL A   1      43.267  29.224  33.853  1.00  0.00     0.037 A 
ATOM    104  H   UNL A   1      44.289  27.246  32.141  1.00  0.00     0.065 H 
BRANCH  85 105
ATOM    105  C   UNL A   1      39.762  33.573  36.446  1.00  0.00     0.064 A 
ATOM    106  C   UNL A   1      40.360  34.837  36.532  1.00  0.00     0.173 A 
ATOM    107  C   UNL A   1      38.898  33.174  37.476  1.00  0.00     0.173 A 
ATOM    108  F   UNL A   1      41.199  35.253  35.572  1.00  0.00    -0.203 F 
ATOM    109  C   UNL A   1      40.100  35.674  37.613  1.00  0.00     0.198 A 
ATOM    110  C   UNL A   1      38.638  34.014  38.553  1.00  0.00     0.198 A 
ATOM    111  F   UNL A   1      38.310  31.968  37.433  1.00  0.00    -0.203 F 
ATOM    112  F   UNL A   1      40.686  36.876  37.684  1.00  0.00    -0.200 F 
ATOM    113  C   UNL A   1      39.238  35.263  38.621  1.00  0.00     0.200 A 
ATOM    114  F   UNL A   1      37.809  33.616  39.527  1.00  0.00    -0.200 F 
ATOM    115  F   UNL A   1      38.990  36.070  39.661  1.00  0.00    -0.200 F 
ENDBRANCH  85 105
BRANCH  88 116
ATOM    116  C   UNL A   1      41.007  27.860  28.428  1.00  0.00     0.064 A 
ATOM    117  C   UNL A   1      40.358  26.626  28.294  1.00  0.00     0.173 A 
ATOM    118  C   UNL A   1      41.836  28.290  27.383  1.00  0.00     0.173 A 
ATOM    119  F   UNL A   1      39.569  26.175  29.280  1.00  0.00    -0.203 F 
ATOM    120  C   UNL A   1      40.532  25.849  27.153  1.00  0.00     0.198 A 
ATOM    121  C   UNL A   1      42.004  27.513  26.241  1.00  0.00     0.198 A 
ATOM    122  F   UNL A   1      42.477  29.464  27.478  1.00  0.00    -0.203 F 
ATOM    123  F   UNL A   1      39.910  24.666  27.049  1.00  0.00    -0.200 F 
ATOM    124  C   UNL A   1      41.352  26.294  26.126  1.00  0.00     0.200 A 
ATOM    125  F   UNL A   1      42.798  27.945  25.251  1.00  0.00    -0.200 F 
ATOM    126  F   UNL A   1      41.519  25.545  25.027  1.00  0.00    -0.200 F 
ENDBRANCH  88 116
BRANCH 103 127
ATOM    127  C   UNL A   1      44.490  28.554  34.390  1.00  0.00     0.064 A 
ATOM    128  C   UNL A   1      45.764  29.081  34.139  1.00  0.00     0.173 A 
ATOM    129  C   UNL A   1      44.389  27.400  35.178  1.00  0.00     0.173 A 
ATOM    130  F   UNL A   1      45.904  30.177  33.379  1.00  0.00    -0.203 F 
ATOM    131  C   UNL A   1      46.902  28.469  34.658  1.00  0.00     0.198 A 
ATOM    132  C   UNL A   1      45.529  26.792  35.697  1.00  0.00     0.198 A 
ATOM    133  F   UNL A   1      43.189  26.859  35.432  1.00  0.00    -0.203 F 
ATOM    134  F   UNL A   1      48.114  28.979  34.397  1.00  0.00    -0.200 F 
ATOM    135  C   UNL A   1      46.783  27.327  35.437  1.00  0.00     0.200 A 
ATOM    136  F   UNL A   1      45.416  25.684  36.442  1.00  0.00    -0.200 F 
ATOM    137  F   UNL A   1      47.879  26.736  35.931  1.00  0.00    -0.200 F 
ENDBRANCH 103 127
ENDBRANCH  68  71
ENDBRANCH  58  61
ENDBRANCH  54  57
ENDBRANCH  51  54
ENDBRANCH  48  51
ENDBRANCH   1  48
TORSDOF 18
ENDMDL
MODEL 6
REMARK VINA RESULT:     -12.6      2.564      4.711
REMARK SMILES CC(=O)NS(=O)(=O)c1ccc(-c2ccn(C(F)F)c(=O)c2)cc1C(=O)NCCCCCCNC(=O)c1ccc(-c2c3nc(c(-c4c(F)c(F)c(F)c(F)c4F)c4ccc([nH]4)c(-c4c(F)c(F)c(F)c(F)c4F)c4nc(c(-c5c(F)c(F)c(F)c(F)c5F)c5ccc2[nH]5)C=C4)C=C3)cc1
REMARK SMILES IDX 29 1 28 4 27 7 26 10 24 11 25 12 23 14 8 15 9 16 10 17 22 19
REMARK SMILES IDX 11 20 5 23 6 24 7 25 4 26 2 27 3 28 1 30 12 34 13 35 21 36
REMARK SMILES IDX 14 37 19 39 15 41 20 43 16 44 17 45 18 46 30 48 31 51 32 54
REMARK SMILES IDX 33 57 34 58 35 60 36 61 37 62 98 63 38 64 97 66 39 68 40 71
REMARK SMILES IDX 41 72 91 73 42 74 96 75 90 76 92 77 43 78 95 79 89 81 88 83
REMARK SMILES IDX 44 85 76 88 56 89 75 90 57 91 60 92 74 93 93 94 58 95 59 97
REMARK SMILES IDX 73 99 94 100 61 103 45 105 46 106 54 107 47 108 48 109
REMARK SMILES IDX 52 110 55 111 49 112 50 113 53 114 51 115 77 116 78 117
REMARK SMILES IDX 86 118 79 119 80 120 84 121 87 122 81 123 82 124 85 125
REMARK SMILES IDX 83 126 62 127 63 128 71 129 64 130 65 131 69 132 72 133
REMARK SMILES IDX 66 134 67 135 70 136 68 137
REMARK H PARENT 29 2 29 3 28 5 28 6 27 8 27 9 26 13 9 18 10 21 22 22 4 29 1 31
REMARK H PARENT 1 32 1 33 13 38 21 40 14 42 16 47 30 49 30 50 31 52 31 53
REMARK H PARENT 32 55 32 56 33 59 37 65 98 67 38 69 97 70 96 80 90 82 92 84
REMARK H PARENT 95 86 89 87 57 96 60 98 93 101 58 102 94 104
REMARK Flexibility Score: inf
ROOT
ATOM      1  C   UNL A   1      33.889  30.225  27.426  1.00  0.00    -0.052 C 
ATOM      2  H   UNL A   1      34.372  31.152  27.193  1.00  0.00     0.027 H 
ATOM      3  H   UNL A   1      33.991  29.946  28.454  1.00  0.00     0.027 H 
ENDROOT
BRANCH   1   4
ATOM      4  C   UNL A   1      34.560  29.120  26.609  1.00  0.00    -0.036 C 
ATOM      5  H   UNL A   1      35.308  29.568  25.990  1.00  0.00     0.028 H 
ATOM      6  H   UNL A   1      34.963  28.422  27.314  1.00  0.00     0.028 H 
BRANCH   4   7
ATOM      7  C   UNL A   1      33.606  28.326  25.707  1.00  0.00     0.018 C 
ATOM      8  H   UNL A   1      33.731  27.279  25.888  1.00  0.00     0.049 H 
ATOM      9  H   UNL A   1      32.595  28.606  25.922  1.00  0.00     0.049 H 
BRANCH   7  10
ATOM     10  N   UNL A   1      33.902  28.616  24.311  1.00  0.00    -0.352 N 
ATOM     11  C   UNL A   1      33.497  28.036  23.143  1.00  0.00     0.252 C 
ATOM     12  O   UNL A   1      33.942  28.441  22.070  1.00  0.00    -0.269 OA
ATOM     13  H   UNL A   1      34.513  29.378  24.185  1.00  0.00     0.163 HD
BRANCH  11  14
ATOM     14  C   UNL A   1      32.443  27.005  23.094  1.00  0.00     0.060 A 
ATOM     15  C   UNL A   1      31.071  27.237  23.022  1.00  0.00     0.100 A 
ATOM     16  C   UNL A   1      30.175  26.154  23.052  1.00  0.00    -0.040 A 
ATOM     17  C   UNL A   1      30.643  24.856  23.275  1.00  0.00    -0.053 A 
ATOM     18  H   UNL A   1      29.167  26.317  22.908  1.00  0.00     0.064 H 
ATOM     19  C   UNL A   1      32.901  25.690  23.317  1.00  0.00    -0.040 A 
ATOM     20  C   UNL A   1      32.009  24.615  23.452  1.00  0.00    -0.017 A 
ATOM     21  H   UNL A   1      29.975  24.070  23.310  1.00  0.00     0.063 H 
ATOM     22  H   UNL A   1      33.915  25.514  23.384  1.00  0.00     0.064 H 
BRANCH  15  23
ATOM     23  S   UNL A   1      30.378  28.862  23.073  1.00  0.00     0.264 S 
ATOM     24  O   UNL A   1      30.562  29.424  21.752  1.00  0.00    -0.201 OA
ATOM     25  O   UNL A   1      30.809  29.555  24.261  1.00  0.00    -0.201 OA
BRANCH  23  26
ATOM     26  N   UNL A   1      28.752  28.592  23.233  1.00  0.00    -0.249 N 
ATOM     27  C   UNL A   1      27.697  29.513  23.209  1.00  0.00     0.230 C 
ATOM     28  O   UNL A   1      26.553  29.080  23.183  1.00  0.00    -0.274 OA
ATOM     29  H   UNL A   1      28.491  27.652  23.364  1.00  0.00     0.183 HD
BRANCH  27  30
ATOM     30  C   UNL A   1      27.993  30.983  23.270  1.00  0.00     0.016 C 
ATOM     31  H   UNL A   1      27.839  31.337  24.267  1.00  0.00     0.033 H 
ATOM     32  H   UNL A   1      27.342  31.507  22.601  1.00  0.00     0.033 H 
ATOM     33  H   UNL A   1      29.010  31.155  22.984  1.00  0.00     0.033 H 
ENDBRANCH  27  30
ENDBRANCH  23  26
ENDBRANCH  15  23
BRANCH  20  34
ATOM     34  C   UNL A   1      32.496  23.292  23.910  1.00  0.00    -0.011 A 
ATOM     35  C   UNL A   1      32.175  22.068  23.192  1.00  0.00    -0.038 A 
ATOM     36  C   UNL A   1      33.310  23.212  24.978  1.00  0.00     0.012 A 
ATOM     37  C   UNL A   1      32.693  20.894  23.566  1.00  0.00     0.013 A 
ATOM     38  H   UNL A   1      31.536  22.107  22.382  1.00  0.00     0.064 H 
ATOM     39  C   UNL A   1      33.899  21.909  25.406  1.00  0.00     0.255 A 
ATOM     40  H   UNL A   1      33.532  24.067  25.510  1.00  0.00     0.069 H 
ATOM     41  N   UNL A   1      33.544  20.805  24.650  1.00  0.00    -0.258 N 
ATOM     42  H   UNL A   1      32.454  20.040  23.037  1.00  0.00     0.082 H 
ATOM     43  O   UNL A   1      34.657  21.903  26.371  1.00  0.00    -0.269 OA
BRANCH  41  44
ATOM     44  C   UNL A   1      34.132  19.541  25.015  1.00  0.00     0.321 C 
ATOM     45  F   UNL A   1      33.461  18.512  24.440  1.00  0.00    -0.185 F 
ATOM     46  F   UNL A   1      35.427  19.470  24.623  1.00  0.00    -0.185 F 
ATOM     47  H   UNL A   1      34.074  19.469  26.080  1.00  0.00     0.131 H 
ENDBRANCH  41  44
ENDBRANCH  20  34
ENDBRANCH  11  14
ENDBRANCH   7  10
ENDBRANCH   4   7
ENDBRANCH   1   4
BRANCH   1  48
ATOM     48  C   UNL A   1      32.389  30.392  27.169  1.00  0.00    -0.052 C 
ATOM     49  H   UNL A   1      31.867  29.853  27.932  1.00  0.00     0.027 H 
ATOM     50  H   UNL A   1      32.229  30.025  26.177  1.00  0.00     0.027 H 
BRANCH  48  51
ATOM     51  C   UNL A   1      31.853  31.832  27.164  1.00  0.00    -0.036 C 
ATOM     52  H   UNL A   1      31.380  32.006  28.107  1.00  0.00     0.028 H 
ATOM     53  H   UNL A   1      31.198  31.884  26.318  1.00  0.00     0.028 H 
BRANCH  51  54
ATOM     54  C   UNL A   1      32.877  32.950  26.947  1.00  0.00     0.018 C 
ATOM     55  H   UNL A   1      33.000  33.098  25.896  1.00  0.00     0.049 H 
ATOM     56  H   UNL A   1      33.786  32.643  27.421  1.00  0.00     0.049 H 
BRANCH  54  57
ATOM     57  N   UNL A   1      32.484  34.211  27.548  1.00  0.00    -0.352 N 
ATOM     58  C   UNL A   1      33.025  34.867  28.626  1.00  0.00     0.251 C 
ATOM     59  H   UNL A   1      31.720  34.661  27.121  1.00  0.00     0.163 HD
ATOM     60  O   UNL A   1      32.504  35.900  29.038  1.00  0.00    -0.269 OA
BRANCH  58  61
ATOM     61  C   UNL A   1      34.211  34.327  29.329  1.00  0.00     0.039 A 
ATOM     62  C   UNL A   1      34.000  33.542  30.469  1.00  0.00    -0.049 A 
ATOM     63  C   UNL A   1      35.516  34.620  28.917  1.00  0.00    -0.049 A 
ATOM     64  C   UNL A   1      35.087  33.002  31.161  1.00  0.00    -0.053 A 
ATOM     65  H   UNL A   1      33.039  33.363  30.800  1.00  0.00     0.063 H 
ATOM     66  C   UNL A   1      36.604  34.069  29.603  1.00  0.00    -0.053 A 
ATOM     67  H   UNL A   1      35.676  35.242  28.109  1.00  0.00     0.063 H 
ATOM     68  C   UNL A   1      36.396  33.248  30.721  1.00  0.00    -0.014 A 
ATOM     69  H   UNL A   1      34.926  32.421  31.998  1.00  0.00     0.063 H 
ATOM     70  H   UNL A   1      37.564  34.268  29.284  1.00  0.00     0.063 H 
BRANCH  68  71
ATOM     71  C   UNL A   1      37.548  32.613  31.402  1.00  0.00     0.031 A 
ATOM     72  C   UNL A   1      38.328  31.518  30.737  1.00  0.00     0.074 A 
ATOM     73  C   UNL A   1      37.884  33.016  32.641  1.00  0.00     0.049 A 
ATOM     74  N   UNL A   1      39.303  30.792  31.221  1.00  0.00    -0.248 NA
ATOM     75  C   UNL A   1      37.960  31.194  29.352  1.00  0.00    -0.034 C 
ATOM     76  C   UNL A   1      37.209  34.072  33.396  1.00  0.00    -0.036 A 
ATOM     77  N   UNL A   1      38.876  32.582  33.482  1.00  0.00    -0.354 N 
ATOM     78  C   UNL A   1      39.651  29.907  30.212  1.00  0.00     0.074 A 
ATOM     79  C   UNL A   1      38.794  30.198  29.080  1.00  0.00    -0.034 C 
ATOM     80  H   UNL A   1      37.243  31.626  28.749  1.00  0.00     0.065 H 
ATOM     81  C   UNL A   1      37.810  34.206  34.591  1.00  0.00    -0.036 A 
ATOM     82  H   UNL A   1      36.402  34.624  33.066  1.00  0.00     0.065 H 
ATOM     83  C   UNL A   1      38.899  33.237  34.686  1.00  0.00     0.049 A 
ATOM     84  H   UNL A   1      39.510  31.867  33.244  1.00  0.00     0.167 HD
ATOM     85  C   UNL A   1      40.590  28.932  30.235  1.00  0.00     0.037 A 
ATOM     86  H   UNL A   1      38.829  29.695  28.180  1.00  0.00     0.065 H 
ATOM     87  H   UNL A   1      37.545  34.884  35.322  1.00  0.00     0.065 H 
ATOM     88  C   UNL A   1      39.703  33.071  35.752  1.00  0.00     0.037 A 
ATOM     89  C   UNL A   1      41.456  28.642  31.345  1.00  0.00     0.049 A 
ATOM     90  C   UNL A   1      40.775  32.023  35.726  1.00  0.00     0.074 A 
ATOM     91  C   UNL A   1      42.407  27.642  31.466  1.00  0.00    -0.036 A 
ATOM     92  N   UNL A   1      41.485  29.366  32.526  1.00  0.00    -0.354 N 
ATOM     93  N   UNL A   1      41.061  31.160  34.784  1.00  0.00    -0.248 NA
ATOM     94  C   UNL A   1      41.634  31.924  36.917  1.00  0.00    -0.034 C 
ATOM     95  C   UNL A   1      43.019  27.767  32.720  1.00  0.00    -0.036 A 
ATOM     96  H   UNL A   1      42.627  26.929  30.754  1.00  0.00     0.065 H 
ATOM     97  C   UNL A   1      42.450  28.845  33.375  1.00  0.00     0.049 A 
ATOM     98  H   UNL A   1      40.908  30.136  32.732  1.00  0.00     0.167 HD
ATOM     99  C   UNL A   1      42.121  30.408  35.268  1.00  0.00     0.074 A 
ATOM    100  C   UNL A   1      42.441  30.926  36.582  1.00  0.00    -0.034 C 
ATOM    101  H   UNL A   1      41.614  32.484  37.783  1.00  0.00     0.065 H 
ATOM    102  H   UNL A   1      43.767  27.160  33.090  1.00  0.00     0.065 H 
ATOM    103  C   UNL A   1      42.760  29.373  34.676  1.00  0.00     0.037 A 
ATOM    104  H   UNL A   1      43.200  30.565  37.181  1.00  0.00     0.065 H 
BRANCH  85 105
ATOM    105  C   UNL A   1      40.718  28.084  29.011  1.00  0.00     0.064 A 
ATOM    106  C   UNL A   1      39.915  26.951  28.829  1.00  0.00     0.173 A 
ATOM    107  C   UNL A   1      41.623  28.429  27.997  1.00  0.00     0.173 A 
ATOM    108  F   UNL A   1      39.042  26.582  29.778  1.00  0.00    -0.203 F 
ATOM    109  C   UNL A   1      40.015  26.188  27.669  1.00  0.00     0.198 A 
ATOM    110  C   UNL A   1      41.718  27.667  26.838  1.00  0.00     0.198 A 
ATOM    111  F   UNL A   1      42.413  29.505  28.136  1.00  0.00    -0.203 F 
ATOM    112  F   UNL A   1      39.246  25.103  27.514  1.00  0.00    -0.200 F 
ATOM    113  C   UNL A   1      40.914  26.548  26.674  1.00  0.00     0.200 A 
ATOM    114  F   UNL A   1      42.588  28.012  25.879  1.00  0.00    -0.200 F 
ATOM    115  F   UNL A   1      41.009  25.812  25.558  1.00  0.00    -0.200 F 
ENDBRANCH  85 105
BRANCH  88 116
ATOM    116  C   UNL A   1      39.511  33.923  36.945  1.00  0.00     0.064 A 
ATOM    117  C   UNL A   1      38.735  33.481  38.023  1.00  0.00     0.173 A 
ATOM    118  C   UNL A   1      40.117  35.183  37.034  1.00  0.00     0.173 A 
ATOM    119  F   UNL A   1      38.127  32.287  37.967  1.00  0.00    -0.203 F 
ATOM    120  C   UNL A   1      38.571  34.274  39.155  1.00  0.00     0.198 A 
ATOM    121  C   UNL A   1      39.955  35.972  38.170  1.00  0.00     0.198 A 
ATOM    122  F   UNL A   1      40.863  35.641  36.019  1.00  0.00    -0.203 F 
ATOM    123  F   UNL A   1      37.815  33.838  40.173  1.00  0.00    -0.200 F 
ATOM    124  C   UNL A   1      39.183  35.517  39.228  1.00  0.00     0.200 A 
ATOM    125  F   UNL A   1      40.547  37.172  38.238  1.00  0.00    -0.200 F 
ATOM    126  F   UNL A   1      39.025  36.280  40.319  1.00  0.00    -0.200 F 
ENDBRANCH  88 116
BRANCH 103 127
ATOM    127  C   UNL A   1      43.865  28.730  35.449  1.00  0.00     0.064 A 
ATOM    128  C   UNL A   1      45.194  29.139  35.274  1.00  0.00     0.173 A 
ATOM    129  C   UNL A   1      43.596  27.721  36.383  1.00  0.00     0.173 A 
ATOM    130  F   UNL A   1      45.495  30.092  34.381  1.00  0.00    -0.203 F 
ATOM    131  C   UNL A   1      46.221  28.554  36.010  1.00  0.00     0.198 A 
ATOM    132  C   UNL A   1      44.624  27.140  37.119  1.00  0.00     0.198 A 
ATOM    133  F   UNL A   1      42.338  27.294  36.571  1.00  0.00    -0.203 F 
ATOM    134  F   UNL A   1      47.488  28.948  35.822  1.00  0.00    -0.200 F 
ATOM    135  C   UNL A   1      45.935  27.557  36.932  1.00  0.00     0.200 A 
ATOM    136  F   UNL A   1      44.351  26.171  38.002  1.00  0.00    -0.200 F 
ATOM    137  F   UNL A   1      46.925  26.991  37.636  1.00  0.00    -0.200 F 
ENDBRANCH 103 127
ENDBRANCH  68  71
ENDBRANCH  58  61
ENDBRANCH  54  57
ENDBRANCH  51  54
ENDBRANCH  48  51
ENDBRANCH   1  48
TORSDOF 18
ENDMDL
MODEL 7
REMARK VINA RESULT:     -12.6      2.695      8.417
REMARK SMILES CC(=O)NS(=O)(=O)c1ccc(-c2ccn(C(F)F)c(=O)c2)cc1C(=O)NCCCCCCNC(=O)c1ccc(-c2c3nc(c(-c4c(F)c(F)c(F)c(F)c4F)c4ccc([nH]4)c(-c4c(F)c(F)c(F)c(F)c4F)c4nc(c(-c5c(F)c(F)c(F)c(F)c5F)c5ccc2[nH]5)C=C4)C=C3)cc1
REMARK SMILES IDX 29 1 28 4 27 7 26 10 24 11 25 12 23 14 8 15 9 16 10 17 22 19
REMARK SMILES IDX 11 20 5 23 6 24 7 25 4 26 2 27 3 28 1 30 12 34 13 35 21 36
REMARK SMILES IDX 14 37 19 39 15 41 20 43 16 44 17 45 18 46 30 48 31 51 32 54
REMARK SMILES IDX 33 57 34 58 35 60 36 61 37 62 98 63 38 64 97 66 39 68 40 71
REMARK SMILES IDX 41 72 91 73 42 74 96 75 90 76 92 77 43 78 95 79 89 81 88 83
REMARK SMILES IDX 44 85 76 88 56 89 75 90 57 91 60 92 74 93 93 94 58 95 59 97
REMARK SMILES IDX 73 99 94 100 61 103 45 105 46 106 54 107 47 108 48 109
REMARK SMILES IDX 52 110 55 111 49 112 50 113 53 114 51 115 77 116 78 117
REMARK SMILES IDX 86 118 79 119 80 120 84 121 87 122 81 123 82 124 85 125
REMARK SMILES IDX 83 126 62 127 63 128 71 129 64 130 65 131 69 132 72 133
REMARK SMILES IDX 66 134 67 135 70 136 68 137
REMARK H PARENT 29 2 29 3 28 5 28 6 27 8 27 9 26 13 9 18 10 21 22 22 4 29 1 31
REMARK H PARENT 1 32 1 33 13 38 21 40 14 42 16 47 30 49 30 50 31 52 31 53
REMARK H PARENT 32 55 32 56 33 59 37 65 98 67 38 69 97 70 96 80 90 82 92 84
REMARK H PARENT 95 86 89 87 57 96 60 98 93 101 58 102 94 104
REMARK Flexibility Score: inf
ROOT
ATOM      1  C   UNL A   1      33.711  30.220  27.540  1.00  0.00    -0.052 C 
ATOM      2  H   UNL A   1      34.184  31.173  27.422  1.00  0.00     0.027 H 
ATOM      3  H   UNL A   1      33.728  29.866  28.550  1.00  0.00     0.027 H 
ENDROOT
BRANCH   1   4
ATOM      4  C   UNL A   1      34.487  29.196  26.711  1.00  0.00    -0.036 C 
ATOM      5  H   UNL A   1      35.197  29.722  26.109  1.00  0.00     0.028 H 
ATOM      6  H   UNL A   1      34.943  28.523  27.407  1.00  0.00     0.028 H 
BRANCH   4   7
ATOM      7  C   UNL A   1      33.617  28.337  25.782  1.00  0.00     0.018 C 
ATOM      8  H   UNL A   1      33.821  27.301  25.959  1.00  0.00     0.049 H 
ATOM      9  H   UNL A   1      32.583  28.535  25.978  1.00  0.00     0.049 H 
BRANCH   7  10
ATOM     10  N   UNL A   1      33.919  28.662  24.395  1.00  0.00    -0.352 N 
ATOM     11  C   UNL A   1      33.538  28.096  23.212  1.00  0.00     0.252 C 
ATOM     12  O   UNL A   1      33.982  28.533  22.152  1.00  0.00    -0.269 OA
ATOM     13  H   UNL A   1      34.512  29.440  24.291  1.00  0.00     0.163 HD
BRANCH  11  14
ATOM     14  C   UNL A   1      32.509  27.042  23.133  1.00  0.00     0.060 A 
ATOM     15  C   UNL A   1      31.135  27.243  23.012  1.00  0.00     0.100 A 
ATOM     16  C   UNL A   1      30.263  26.141  23.018  1.00  0.00    -0.040 A 
ATOM     17  C   UNL A   1      30.750  24.855  23.266  1.00  0.00    -0.053 A 
ATOM     18  H   UNL A   1      29.256  26.281  22.838  1.00  0.00     0.064 H 
ATOM     19  C   UNL A   1      32.986  25.738  23.381  1.00  0.00    -0.040 A 
ATOM     20  C   UNL A   1      32.114  24.645  23.492  1.00  0.00    -0.017 A 
ATOM     21  H   UNL A   1      30.098  24.055  23.282  1.00  0.00     0.063 H 
ATOM     22  H   UNL A   1      34.001  25.585  23.484  1.00  0.00     0.064 H 
BRANCH  15  23
ATOM     23  S   UNL A   1      30.406  28.854  23.028  1.00  0.00     0.264 S 
ATOM     24  O   UNL A   1      30.588  29.396  21.699  1.00  0.00    -0.201 OA
ATOM     25  O   UNL A   1      30.810  29.577  24.208  1.00  0.00    -0.201 OA
BRANCH  23  26
ATOM     26  N   UNL A   1      28.785  28.549  23.179  1.00  0.00    -0.249 N 
ATOM     27  C   UNL A   1      27.712  29.449  23.152  1.00  0.00     0.230 C 
ATOM     28  O   UNL A   1      26.576  28.993  23.119  1.00  0.00    -0.274 OA
ATOM     29  H   UNL A   1      28.542  27.604  23.306  1.00  0.00     0.183 HD
BRANCH  27  30
ATOM     30  C   UNL A   1      27.977  30.925  23.217  1.00  0.00     0.016 C 
ATOM     31  H   UNL A   1      27.547  31.325  24.111  1.00  0.00     0.033 H 
ATOM     32  H   UNL A   1      27.541  31.405  22.366  1.00  0.00     0.033 H 
ATOM     33  H   UNL A   1      29.033  31.097  23.222  1.00  0.00     0.033 H 
ENDBRANCH  27  30
ENDBRANCH  23  26
ENDBRANCH  15  23
BRANCH  20  34
ATOM     34  C   UNL A   1      32.613  23.336  23.975  1.00  0.00    -0.011 A 
ATOM     35  C   UNL A   1      31.705  22.268  24.367  1.00  0.00    -0.038 A 
ATOM     36  C   UNL A   1      33.936  23.091  23.996  1.00  0.00     0.012 A 
ATOM     37  C   UNL A   1      32.169  21.064  24.717  1.00  0.00     0.013 A 
ATOM     38  H   UNL A   1      30.688  22.444  24.376  1.00  0.00     0.064 H 
ATOM     39  C   UNL A   1      34.468  21.751  24.382  1.00  0.00     0.255 A 
ATOM     40  H   UNL A   1      34.594  23.842  23.741  1.00  0.00     0.069 H 
ATOM     41  N   UNL A   1      33.523  20.797  24.723  1.00  0.00    -0.258 N 
ATOM     42  H   UNL A   1      31.504  20.321  24.986  1.00  0.00     0.082 H 
ATOM     43  O   UNL A   1      35.683  21.578  24.356  1.00  0.00    -0.269 OA
BRANCH  41  44
ATOM     44  C   UNL A   1      34.007  19.482  25.058  1.00  0.00     0.321 C 
ATOM     45  F   UNL A   1      33.177  18.872  25.940  1.00  0.00    -0.185 F 
ATOM     46  F   UNL A   1      34.101  18.698  23.957  1.00  0.00    -0.185 F 
ATOM     47  H   UNL A   1      34.976  19.610  25.493  1.00  0.00     0.131 H 
ENDBRANCH  41  44
ENDBRANCH  20  34
ENDBRANCH  11  14
ENDBRANCH   7  10
ENDBRANCH   4   7
ENDBRANCH   1   4
BRANCH   1  48
ATOM     48  C   UNL A   1      32.236  30.369  27.158  1.00  0.00    -0.052 C 
ATOM     49  H   UNL A   1      31.654  29.871  27.905  1.00  0.00     0.027 H 
ATOM     50  H   UNL A   1      32.153  29.949  26.178  1.00  0.00     0.027 H 
BRANCH  48  51
ATOM     51  C   UNL A   1      31.705  31.807  27.033  1.00  0.00    -0.036 C 
ATOM     52  H   UNL A   1      31.147  32.025  27.920  1.00  0.00     0.028 H 
ATOM     53  H   UNL A   1      31.131  31.815  26.130  1.00  0.00     0.028 H 
BRANCH  51  54
ATOM     54  C   UNL A   1      32.747  32.915  26.858  1.00  0.00     0.018 C 
ATOM     55  H   UNL A   1      32.841  33.130  25.814  1.00  0.00     0.049 H 
ATOM     56  H   UNL A   1      33.664  32.558  27.280  1.00  0.00     0.049 H 
BRANCH  54  57
ATOM     57  N   UNL A   1      32.402  34.141  27.553  1.00  0.00    -0.352 N 
ATOM     58  C   UNL A   1      32.994  34.715  28.650  1.00  0.00     0.251 C 
ATOM     59  H   UNL A   1      31.632  34.631  27.185  1.00  0.00     0.163 HD
ATOM     60  O   UNL A   1      32.510  35.728  29.148  1.00  0.00    -0.269 OA
BRANCH  58  61
ATOM     61  C   UNL A   1      34.193  34.108  29.272  1.00  0.00     0.039 A 
ATOM     62  C   UNL A   1      34.002  33.176  30.299  1.00  0.00    -0.049 A 
ATOM     63  C   UNL A   1      35.491  34.478  28.900  1.00  0.00    -0.049 A 
ATOM     64  C   UNL A   1      35.101  32.569  30.911  1.00  0.00    -0.053 A 
ATOM     65  H   UNL A   1      33.045  32.937  30.605  1.00  0.00     0.063 H 
ATOM     66  C   UNL A   1      36.591  33.861  29.505  1.00  0.00    -0.053 A 
ATOM     67  H   UNL A   1      35.635  35.205  28.181  1.00  0.00     0.063 H 
ATOM     68  C   UNL A   1      36.403  32.895  30.504  1.00  0.00    -0.014 A 
ATOM     69  H   UNL A   1      34.956  31.879  31.663  1.00  0.00     0.063 H 
ATOM     70  H   UNL A   1      37.547  34.118  29.212  1.00  0.00     0.063 H 
BRANCH  68  71
ATOM     71  C   UNL A   1      37.571  32.197  31.092  1.00  0.00     0.031 A 
ATOM     72  C   UNL A   1      38.081  32.562  32.453  1.00  0.00     0.074 A 
ATOM     73  C   UNL A   1      38.187  31.235  30.381  1.00  0.00     0.049 A 
ATOM     74  N   UNL A   1      39.142  32.120  33.080  1.00  0.00    -0.248 NA
ATOM     75  C   UNL A   1      37.303  33.557  33.205  1.00  0.00    -0.034 C 
ATOM     76  C   UNL A   1      37.789  30.784  29.048  1.00  0.00    -0.036 A 
ATOM     77  N   UNL A   1      39.283  30.467  30.684  1.00  0.00    -0.354 N 
ATOM     78  C   UNL A   1      39.176  32.799  34.289  1.00  0.00     0.074 A 
ATOM     79  C   UNL A   1      38.019  33.671  34.317  1.00  0.00    -0.034 C 
ATOM     80  H   UNL A   1      36.432  34.040  32.938  1.00  0.00     0.065 H 
ATOM     81  C   UNL A   1      38.627  29.813  28.647  1.00  0.00    -0.036 A 
ATOM     82  H   UNL A   1      36.993  31.152  28.503  1.00  0.00     0.065 H 
ATOM     83  C   UNL A   1      39.626  29.588  29.689  1.00  0.00     0.049 A 
ATOM     84  H   UNL A   1      39.776  30.541  31.533  1.00  0.00     0.167 HD
ATOM     85  C   UNL A   1      40.096  32.711  35.278  1.00  0.00     0.037 A 
ATOM     86  H   UNL A   1      37.782  34.300  35.100  1.00  0.00     0.065 H 
ATOM     87  H   UNL A   1      38.574  29.309  27.749  1.00  0.00     0.065 H 
ATOM     88  C   UNL A   1      40.639  28.705  29.620  1.00  0.00     0.037 A 
ATOM     89  C   UNL A   1      41.240  31.840  35.270  1.00  0.00     0.049 A 
ATOM     90  C   UNL A   1      41.609  28.586  30.756  1.00  0.00     0.074 A 
ATOM     91  C   UNL A   1      42.246  31.720  36.214  1.00  0.00    -0.036 A 
ATOM     92  N   UNL A   1      41.521  30.925  34.268  1.00  0.00    -0.354 N 
ATOM     93  N   UNL A   1      41.658  29.269  31.872  1.00  0.00    -0.248 NA
ATOM     94  C   UNL A   1      42.669  27.575  30.620  1.00  0.00    -0.034 C 
ATOM     95  C   UNL A   1      43.133  30.724  35.786  1.00  0.00    -0.036 A 
ATOM     96  H   UNL A   1      42.328  32.270  37.082  1.00  0.00     0.065 H 
ATOM     97  C   UNL A   1      42.677  30.225  34.578  1.00  0.00     0.049 A 
ATOM     98  H   UNL A   1      40.980  30.791  33.456  1.00  0.00     0.167 HD
ATOM     99  C   UNL A   1      42.755  28.783  32.566  1.00  0.00     0.074 A 
ATOM    100  C   UNL A   1      43.338  27.734  31.755  1.00  0.00    -0.034 C 
ATOM    101  H   UNL A   1      42.845  26.916  29.846  1.00  0.00     0.065 H 
ATOM    102  H   UNL A   1      43.982  30.415  36.286  1.00  0.00     0.065 H 
ATOM    103  C   UNL A   1      43.240  29.182  33.765  1.00  0.00     0.037 A 
ATOM    104  H   UNL A   1      44.166  27.181  32.025  1.00  0.00     0.065 H 
BRANCH  85 105
ATOM    105  C   UNL A   1      39.911  33.607  36.460  1.00  0.00     0.064 A 
ATOM    106  C   UNL A   1      40.509  34.872  36.510  1.00  0.00     0.173 A 
ATOM    107  C   UNL A   1      39.098  33.211  37.531  1.00  0.00     0.173 A 
ATOM    108  F   UNL A   1      41.300  35.285  35.509  1.00  0.00    -0.203 F 
ATOM    109  C   UNL A   1      40.300  35.714  37.598  1.00  0.00     0.198 A 
ATOM    110  C   UNL A   1      38.888  34.056  38.616  1.00  0.00     0.198 A 
ATOM    111  F   UNL A   1      38.511  32.004  37.523  1.00  0.00    -0.203 F 
ATOM    112  F   UNL A   1      40.886  36.918  37.635  1.00  0.00    -0.200 F 
ATOM    113  C   UNL A   1      39.488  35.307  38.648  1.00  0.00     0.200 A 
ATOM    114  F   UNL A   1      38.108  33.662  39.631  1.00  0.00    -0.200 F 
ATOM    115  F   UNL A   1      39.289  36.118  39.696  1.00  0.00    -0.200 F 
ENDBRANCH  85 105
BRANCH  88 116
ATOM    116  C   UNL A   1      40.786  27.864  28.413  1.00  0.00     0.064 A 
ATOM    117  C   UNL A   1      40.121  26.637  28.308  1.00  0.00     0.173 A 
ATOM    118  C   UNL A   1      41.578  28.284  27.336  1.00  0.00     0.173 A 
ATOM    119  F   UNL A   1      39.366  26.196  29.325  1.00  0.00    -0.203 F 
ATOM    120  C   UNL A   1      40.242  25.855  27.163  1.00  0.00     0.198 A 
ATOM    121  C   UNL A   1      41.694  27.503  26.190  1.00  0.00     0.198 A 
ATOM    122  F   UNL A   1      42.234  29.452  27.402  1.00  0.00    -0.203 F 
ATOM    123  F   UNL A   1      39.606  24.678  27.086  1.00  0.00    -0.200 F 
ATOM    124  C   UNL A   1      41.027  26.290  26.104  1.00  0.00     0.200 A 
ATOM    125  F   UNL A   1      42.453  27.925  25.169  1.00  0.00    -0.200 F 
ATOM    126  F   UNL A   1      41.144  25.537  25.001  1.00  0.00    -0.200 F 
ENDBRANCH  88 116
BRANCH 103 127
ATOM    127  C   UNL A   1      44.464  28.486  34.265  1.00  0.00     0.064 A 
ATOM    128  C   UNL A   1      45.741  28.981  33.969  1.00  0.00     0.173 A 
ATOM    129  C   UNL A   1      44.363  27.340  35.064  1.00  0.00     0.173 A 
ATOM    130  F   UNL A   1      45.881  30.069  33.197  1.00  0.00    -0.203 F 
ATOM    131  C   UNL A   1      46.881  28.345  34.453  1.00  0.00     0.198 A 
ATOM    132  C   UNL A   1      45.504  26.708  35.549  1.00  0.00     0.198 A 
ATOM    133  F   UNL A   1      43.159  26.829  35.361  1.00  0.00    -0.203 F 
ATOM    134  F   UNL A   1      48.095  28.824  34.149  1.00  0.00    -0.200 F 
ATOM    135  C   UNL A   1      46.761  27.211  35.243  1.00  0.00     0.200 A 
ATOM    136  F   UNL A   1      45.390  25.606  36.303  1.00  0.00    -0.200 F 
ATOM    137  F   UNL A   1      47.859  26.596  35.704  1.00  0.00    -0.200 F 
ENDBRANCH 103 127
ENDBRANCH  68  71
ENDBRANCH  58  61
ENDBRANCH  54  57
ENDBRANCH  51  54
ENDBRANCH  48  51
ENDBRANCH   1  48
TORSDOF 18
ENDMDL
MODEL 8
REMARK VINA RESULT:     -12.6      0.866      6.990
REMARK SMILES CC(=O)NS(=O)(=O)c1ccc(-c2ccn(C(F)F)c(=O)c2)cc1C(=O)NCCCCCCNC(=O)c1ccc(-c2c3nc(c(-c4c(F)c(F)c(F)c(F)c4F)c4ccc([nH]4)c(-c4c(F)c(F)c(F)c(F)c4F)c4nc(c(-c5c(F)c(F)c(F)c(F)c5F)c5ccc2[nH]5)C=C4)C=C3)cc1
REMARK SMILES IDX 29 1 28 4 27 7 26 10 24 11 25 12 23 14 8 15 9 16 10 17 22 19
REMARK SMILES IDX 11 20 5 23 6 24 7 25 4 26 2 27 3 28 1 30 12 34 13 35 21 36
REMARK SMILES IDX 14 37 19 39 15 41 20 43 16 44 17 45 18 46 30 48 31 51 32 54
REMARK SMILES IDX 33 57 34 58 35 60 36 61 37 62 98 63 38 64 97 66 39 68 40 71
REMARK SMILES IDX 41 72 91 73 42 74 96 75 90 76 92 77 43 78 95 79 89 81 88 83
REMARK SMILES IDX 44 85 76 88 56 89 75 90 57 91 60 92 74 93 93 94 58 95 59 97
REMARK SMILES IDX 73 99 94 100 61 103 45 105 46 106 54 107 47 108 48 109
REMARK SMILES IDX 52 110 55 111 49 112 50 113 53 114 51 115 77 116 78 117
REMARK SMILES IDX 86 118 79 119 80 120 84 121 87 122 81 123 82 124 85 125
REMARK SMILES IDX 83 126 62 127 63 128 71 129 64 130 65 131 69 132 72 133
REMARK SMILES IDX 66 134 67 135 70 136 68 137
REMARK H PARENT 29 2 29 3 28 5 28 6 27 8 27 9 26 13 9 18 10 21 22 22 4 29 1 31
REMARK H PARENT 1 32 1 33 13 38 21 40 14 42 16 47 30 49 30 50 31 52 31 53
REMARK H PARENT 32 55 32 56 33 59 37 65 98 67 38 69 97 70 96 80 90 82 92 84
REMARK H PARENT 95 86 89 87 57 96 60 98 93 101 58 102 94 104
REMARK Flexibility Score: inf
ROOT
ATOM      1  C   UNL A   1      32.267  29.854  27.021  1.00  0.00    -0.052 C 
ATOM      2  H   UNL A   1      33.174  29.702  26.473  1.00  0.00     0.027 H 
ATOM      3  H   UNL A   1      32.423  30.336  27.964  1.00  0.00     0.027 H 
ENDROOT
BRANCH   1   4
ATOM      4  C   UNL A   1      31.661  28.485  27.330  1.00  0.00    -0.036 C 
ATOM      5  H   UNL A   1      31.489  28.425  28.384  1.00  0.00     0.028 H 
ATOM      6  H   UNL A   1      30.762  28.412  26.755  1.00  0.00     0.028 H 
BRANCH   4   7
ATOM      7  C   UNL A   1      32.537  27.293  26.921  1.00  0.00     0.018 C 
ATOM      8  H   UNL A   1      32.885  27.434  25.919  1.00  0.00     0.049 H 
ATOM      9  H   UNL A   1      33.376  27.222  27.583  1.00  0.00     0.049 H 
BRANCH   7  10
ATOM     10  N   UNL A   1      31.755  26.066  26.995  1.00  0.00    -0.352 N 
ATOM     11  C   UNL A   1      31.020  25.384  26.069  1.00  0.00     0.252 C 
ATOM     12  O   UNL A   1      30.394  24.380  26.401  1.00  0.00    -0.269 OA
ATOM     13  H   UNL A   1      31.758  25.648  27.887  1.00  0.00     0.163 HD
BRANCH  11  14
ATOM     14  C   UNL A   1      31.033  25.732  24.635  1.00  0.00     0.060 A 
ATOM     15  C   UNL A   1      31.826  25.138  23.653  1.00  0.00     0.100 A 
ATOM     16  C   UNL A   1      31.783  25.620  22.334  1.00  0.00    -0.040 A 
ATOM     17  C   UNL A   1      31.046  26.766  22.022  1.00  0.00    -0.053 A 
ATOM     18  H   UNL A   1      32.299  25.125  21.590  1.00  0.00     0.064 H 
ATOM     19  C   UNL A   1      30.293  26.886  24.305  1.00  0.00    -0.040 A 
ATOM     20  C   UNL A   1      30.326  27.437  23.016  1.00  0.00    -0.017 A 
ATOM     21  H   UNL A   1      31.035  27.119  21.053  1.00  0.00     0.063 H 
ATOM     22  H   UNL A   1      29.716  27.337  25.032  1.00  0.00     0.064 H 
BRANCH  15  23
ATOM     23  S   UNL A   1      33.032  23.902  24.027  1.00  0.00     0.264 S 
ATOM     24  O   UNL A   1      33.696  24.333  25.238  1.00  0.00    -0.201 OA
ATOM     25  O   UNL A   1      33.770  23.544  22.841  1.00  0.00    -0.201 OA
BRANCH  23  26
ATOM     26  N   UNL A   1      32.125  22.582  24.448  1.00  0.00    -0.249 N 
ATOM     27  C   UNL A   1      32.550  21.321  24.885  1.00  0.00     0.230 C 
ATOM     28  O   UNL A   1      31.706  20.539  25.301  1.00  0.00    -0.274 OA
ATOM     29  H   UNL A   1      31.150  22.700  24.381  1.00  0.00     0.183 HD
BRANCH  27  30
ATOM     30  C   UNL A   1      34.001  20.949  24.783  1.00  0.00     0.016 C 
ATOM     31  H   UNL A   1      34.216  20.158  25.470  1.00  0.00     0.033 H 
ATOM     32  H   UNL A   1      34.605  21.800  25.018  1.00  0.00     0.033 H 
ATOM     33  H   UNL A   1      34.216  20.624  23.787  1.00  0.00     0.033 H 
ENDBRANCH  27  30
ENDBRANCH  23  26
ENDBRANCH  15  23
BRANCH  20  34
ATOM     34  C   UNL A   1      29.728  28.768  22.755  1.00  0.00    -0.011 A 
ATOM     35  C   UNL A   1      30.247  29.650  21.721  1.00  0.00    -0.038 A 
ATOM     36  C   UNL A   1      28.638  29.157  23.439  1.00  0.00     0.012 A 
ATOM     37  C   UNL A   1      29.644  30.809  21.438  1.00  0.00     0.013 A 
ATOM     38  H   UNL A   1      31.094  29.378  21.199  1.00  0.00     0.064 H 
ATOM     39  C   UNL A   1      27.951  30.446  23.133  1.00  0.00     0.255 A 
ATOM     40  H   UNL A   1      28.269  28.553  24.189  1.00  0.00     0.069 H 
ATOM     41  N   UNL A   1      28.513  31.208  22.123  1.00  0.00    -0.258 N 
ATOM     42  H   UNL A   1      30.028  31.416  20.696  1.00  0.00     0.082 H 
ATOM     43  O   UNL A   1      26.944  30.735  23.773  1.00  0.00    -0.269 OA
BRANCH  41  44
ATOM     44  C   UNL A   1      27.846  32.438  21.777  1.00  0.00     0.321 C 
ATOM     45  F   UNL A   1      28.463  33.500  22.351  1.00  0.00    -0.185 F 
ATOM     46  F   UNL A   1      27.835  32.631  20.436  1.00  0.00    -0.185 F 
ATOM     47  H   UNL A   1      26.842  32.357  22.136  1.00  0.00     0.131 H 
ENDBRANCH  41  44
ENDBRANCH  20  34
ENDBRANCH  11  14
ENDBRANCH   7  10
ENDBRANCH   4   7
ENDBRANCH   1   4
BRANCH   1  48
ATOM     48  C   UNL A   1      31.367  30.784  26.203  1.00  0.00    -0.052 C 
ATOM     49  H   UNL A   1      30.366  30.413  26.275  1.00  0.00     0.027 H 
ATOM     50  H   UNL A   1      31.774  30.775  25.214  1.00  0.00     0.027 H 
BRANCH  48  51
ATOM     51  C   UNL A   1      31.349  32.262  26.624  1.00  0.00    -0.036 C 
ATOM     52  H   UNL A   1      30.753  32.340  27.509  1.00  0.00     0.028 H 
ATOM     53  H   UNL A   1      30.964  32.790  25.776  1.00  0.00     0.028 H 
BRANCH  51  54
ATOM     54  C   UNL A   1      32.703  32.912  26.920  1.00  0.00     0.018 C 
ATOM     55  H   UNL A   1      33.216  33.064  25.994  1.00  0.00     0.049 H 
ATOM     56  H   UNL A   1      33.236  32.252  27.573  1.00  0.00     0.049 H 
BRANCH  54  57
ATOM     57  N   UNL A   1      32.590  34.189  27.600  1.00  0.00    -0.352 N 
ATOM     58  C   UNL A   1      33.310  34.677  28.662  1.00  0.00     0.251 C 
ATOM     59  H   UNL A   1      31.896  34.792  27.249  1.00  0.00     0.163 HD
ATOM     60  O   UNL A   1      33.016  35.763  29.154  1.00  0.00    -0.269 OA
BRANCH  58  61
ATOM     61  C   UNL A   1      34.419  33.893  29.253  1.00  0.00     0.039 A 
ATOM     62  C   UNL A   1      35.729  34.333  29.031  1.00  0.00    -0.049 A 
ATOM     63  C   UNL A   1      34.192  32.713  29.972  1.00  0.00    -0.049 A 
ATOM     64  C   UNL A   1      36.807  33.632  29.575  1.00  0.00    -0.053 A 
ATOM     65  H   UNL A   1      35.898  35.178  28.462  1.00  0.00     0.063 H 
ATOM     66  C   UNL A   1      35.272  32.019  30.528  1.00  0.00    -0.053 A 
ATOM     67  H   UNL A   1      33.231  32.357  30.092  1.00  0.00     0.063 H 
ATOM     68  C   UNL A   1      36.584  32.480  30.343  1.00  0.00    -0.014 A 
ATOM     69  H   UNL A   1      37.771  33.963  29.413  1.00  0.00     0.063 H 
ATOM     70  H   UNL A   1      35.102  31.162  31.077  1.00  0.00     0.063 H 
BRANCH  68  71
ATOM     71  C   UNL A   1      37.717  31.778  30.991  1.00  0.00     0.031 A 
ATOM     72  C   UNL A   1      38.101  32.080  32.408  1.00  0.00     0.074 A 
ATOM     73  C   UNL A   1      38.418  30.871  30.286  1.00  0.00     0.049 A 
ATOM     74  N   UNL A   1      39.117  31.628  33.099  1.00  0.00    -0.248 NA
ATOM     75  C   UNL A   1      37.235  33.013  33.142  1.00  0.00    -0.034 C 
ATOM     76  C   UNL A   1      38.146  30.485  28.901  1.00  0.00    -0.036 A 
ATOM     77  N   UNL A   1      39.505  30.114  30.639  1.00  0.00    -0.354 N 
ATOM     78  C   UNL A   1      39.030  32.241  34.341  1.00  0.00     0.074 A 
ATOM     79  C   UNL A   1      37.851  33.083  34.316  1.00  0.00    -0.034 C 
ATOM     80  H   UNL A   1      36.376  33.489  32.828  1.00  0.00     0.065 H 
ATOM     81  C   UNL A   1      39.042  29.558  28.523  1.00  0.00    -0.036 A 
ATOM     82  H   UNL A   1      37.388  30.863  28.311  1.00  0.00     0.065 H 
ATOM     83  C   UNL A   1      39.955  29.299  29.633  1.00  0.00     0.049 A 
ATOM     84  H   UNL A   1      39.923  30.152  31.530  1.00  0.00     0.167 HD
ATOM     85  C   UNL A   1      39.866  32.120  35.398  1.00  0.00     0.037 A 
ATOM     86  H   UNL A   1      37.532  33.661  35.108  1.00  0.00     0.065 H 
ATOM     87  H   UNL A   1      39.078  29.103  27.597  1.00  0.00     0.065 H 
ATOM     88  C   UNL A   1      40.994  28.445  29.604  1.00  0.00     0.037 A 
ATOM     89  C   UNL A   1      41.031  31.278  35.442  1.00  0.00     0.049 A 
ATOM     90  C   UNL A   1      41.869  28.287  30.811  1.00  0.00     0.074 A 
ATOM     91  C   UNL A   1      41.957  31.130  36.461  1.00  0.00    -0.036 A 
ATOM     92  N   UNL A   1      41.421  30.426  34.420  1.00  0.00    -0.354 N 
ATOM     93  N   UNL A   1      41.805  28.908  31.962  1.00  0.00    -0.248 NA
ATOM     94  C   UNL A   1      42.964  27.310  30.713  1.00  0.00    -0.034 C 
ATOM     95  C   UNL A   1      42.905  30.180  36.058  1.00  0.00    -0.036 A 
ATOM     96  H   UNL A   1      41.950  31.633  37.361  1.00  0.00     0.065 H 
ATOM     97  C   UNL A   1      42.565  29.737  34.791  1.00  0.00     0.049 A 
ATOM     98  H   UNL A   1      40.954  30.324  33.560  1.00  0.00     0.167 HD
ATOM     99  C   UNL A   1      42.853  28.410  32.720  1.00  0.00     0.074 A 
ATOM    100  C   UNL A   1      43.531  27.422  31.907  1.00  0.00    -0.034 C 
ATOM    101  H   UNL A   1      43.224  26.698  29.923  1.00  0.00     0.065 H 
ATOM    102  H   UNL A   1      43.717  29.864  36.612  1.00  0.00     0.065 H 
ATOM    103  C   UNL A   1      43.224  28.754  33.975  1.00  0.00     0.037 A 
ATOM    104  H   UNL A   1      44.349  26.875  32.217  1.00  0.00     0.065 H 
BRANCH  85 105
ATOM    105  C   UNL A   1      39.557  32.945  36.606  1.00  0.00     0.064 A 
ATOM    106  C   UNL A   1      38.609  32.524  37.546  1.00  0.00     0.173 A 
ATOM    107  C   UNL A   1      40.243  34.145  36.842  1.00  0.00     0.173 A 
ATOM    108  F   UNL A   1      37.926  31.387  37.354  1.00  0.00    -0.203 F 
ATOM    109  C   UNL A   1      38.355  33.281  38.686  1.00  0.00     0.198 A 
ATOM    110  C   UNL A   1      39.989  34.897  37.983  1.00  0.00     0.198 A 
ATOM    111  F   UNL A   1      41.156  34.585  35.962  1.00  0.00    -0.203 F 
ATOM    112  F   UNL A   1      37.438  32.869  39.572  1.00  0.00    -0.200 F 
ATOM    113  C   UNL A   1      39.047  34.465  38.905  1.00  0.00     0.200 A 
ATOM    114  F   UNL A   1      40.654  36.041  38.193  1.00  0.00    -0.200 F 
ATOM    115  F   UNL A   1      38.800  35.192  40.003  1.00  0.00    -0.200 F 
ENDBRANCH  85 105
BRANCH  88 116
ATOM    116  C   UNL A   1      41.266  27.676  28.371  1.00  0.00     0.064 A 
ATOM    117  C   UNL A   1      42.187  28.142  27.424  1.00  0.00     0.173 A 
ATOM    118  C   UNL A   1      40.626  26.453  28.129  1.00  0.00     0.173 A 
ATOM    119  F   UNL A   1      42.807  29.315  27.615  1.00  0.00    -0.203 F 
ATOM    120  C   UNL A   1      42.459  27.408  26.273  1.00  0.00     0.198 A 
ATOM    121  C   UNL A   1      40.904  25.719  26.980  1.00  0.00     0.198 A 
ATOM    122  F   UNL A   1      39.735  25.978  29.011  1.00  0.00    -0.203 F 
ATOM    123  F   UNL A   1      43.336  27.875  25.373  1.00  0.00    -0.200 F 
ATOM    124  C   UNL A   1      41.819  26.196  26.054  1.00  0.00     0.200 A 
ATOM    125  F   UNL A   1      40.284  24.549  26.769  1.00  0.00    -0.200 F 
ATOM    126  F   UNL A   1      42.082  25.489  24.945  1.00  0.00    -0.200 F 
ENDBRANCH  88 116
BRANCH 103 127
ATOM    127  C   UNL A   1      44.421  28.061  34.541  1.00  0.00     0.064 A 
ATOM    128  C   UNL A   1      44.300  26.802  35.144  1.00  0.00     0.173 A 
ATOM    129  C   UNL A   1      45.693  28.641  34.458  1.00  0.00     0.173 A 
ATOM    130  F   UNL A   1      43.098  26.218  35.255  1.00  0.00    -0.203 F 
ATOM    131  C   UNL A   1      45.418  26.146  35.652  1.00  0.00     0.198 A 
ATOM    132  C   UNL A   1      46.809  27.982  34.964  1.00  0.00     0.198 A 
ATOM    133  F   UNL A   1      45.848  29.850  33.898  1.00  0.00    -0.203 F 
ATOM    134  F   UNL A   1      45.283  24.949  36.238  1.00  0.00    -0.200 F 
ATOM    135  C   UNL A   1      46.671  26.736  35.561  1.00  0.00     0.200 A 
ATOM    136  F   UNL A   1      48.018  28.555  34.885  1.00  0.00    -0.200 F 
ATOM    137  F   UNL A   1      47.746  26.107  36.054  1.00  0.00    -0.200 F 
ENDBRANCH 103 127
ENDBRANCH  68  71
ENDBRANCH  58  61
ENDBRANCH  54  57
ENDBRANCH  51  54
ENDBRANCH  48  51
ENDBRANCH   1  48
TORSDOF 18
ENDMDL
MODEL 9
REMARK VINA RESULT:     -12.5      5.654     11.685
REMARK SMILES CC(=O)NS(=O)(=O)c1ccc(-c2ccn(C(F)F)c(=O)c2)cc1C(=O)NCCCCCCNC(=O)c1ccc(-c2c3nc(c(-c4c(F)c(F)c(F)c(F)c4F)c4ccc([nH]4)c(-c4c(F)c(F)c(F)c(F)c4F)c4nc(c(-c5c(F)c(F)c(F)c(F)c5F)c5ccc2[nH]5)C=C4)C=C3)cc1
REMARK SMILES IDX 29 1 28 4 27 7 26 10 24 11 25 12 23 14 8 15 9 16 10 17 22 19
REMARK SMILES IDX 11 20 5 23 6 24 7 25 4 26 2 27 3 28 1 30 12 34 13 35 21 36
REMARK SMILES IDX 14 37 19 39 15 41 20 43 16 44 17 45 18 46 30 48 31 51 32 54
REMARK SMILES IDX 33 57 34 58 35 60 36 61 37 62 98 63 38 64 97 66 39 68 40 71
REMARK SMILES IDX 41 72 91 73 42 74 96 75 90 76 92 77 43 78 95 79 89 81 88 83
REMARK SMILES IDX 44 85 76 88 56 89 75 90 57 91 60 92 74 93 93 94 58 95 59 97
REMARK SMILES IDX 73 99 94 100 61 103 45 105 46 106 54 107 47 108 48 109
REMARK SMILES IDX 52 110 55 111 49 112 50 113 53 114 51 115 77 116 78 117
REMARK SMILES IDX 86 118 79 119 80 120 84 121 87 122 81 123 82 124 85 125
REMARK SMILES IDX 83 126 62 127 63 128 71 129 64 130 65 131 69 132 72 133
REMARK SMILES IDX 66 134 67 135 70 136 68 137
REMARK H PARENT 29 2 29 3 28 5 28 6 27 8 27 9 26 13 9 18 10 21 22 22 4 29 1 31
REMARK H PARENT 1 32 1 33 13 38 21 40 14 42 16 47 30 49 30 50 31 52 31 53
REMARK H PARENT 32 55 32 56 33 59 37 65 98 67 38 69 97 70 96 80 90 82 92 84
REMARK H PARENT 95 86 89 87 57 96 60 98 93 101 58 102 94 104
REMARK Flexibility Score: inf
ROOT
ATOM      1  C   UNL A   1      37.102  21.945  24.628  1.00  0.00    -0.052 C 
ATOM      2  H   UNL A   1      38.138  22.027  24.370  1.00  0.00     0.027 H 
ATOM      3  H   UNL A   1      36.448  22.231  23.831  1.00  0.00     0.027 H 
ENDROOT
BRANCH   1   4
ATOM      4  C   UNL A   1      36.821  22.908  25.783  1.00  0.00    -0.036 C 
ATOM      5  H   UNL A   1      36.168  22.420  26.474  1.00  0.00     0.028 H 
ATOM      6  H   UNL A   1      37.771  23.158  26.209  1.00  0.00     0.028 H 
BRANCH   4   7
ATOM      7  C   UNL A   1      36.170  24.233  25.363  1.00  0.00     0.018 C 
ATOM      8  H   UNL A   1      36.823  25.045  25.606  1.00  0.00     0.049 H 
ATOM      9  H   UNL A   1      35.989  24.224  24.308  1.00  0.00     0.049 H 
BRANCH   7  10
ATOM     10  N   UNL A   1      34.907  24.398  26.069  1.00  0.00    -0.352 N 
ATOM     11  C   UNL A   1      33.628  24.023  25.771  1.00  0.00     0.252 C 
ATOM     12  O   UNL A   1      32.706  24.335  26.522  1.00  0.00    -0.269 OA
ATOM     13  H   UNL A   1      34.992  24.873  26.928  1.00  0.00     0.163 HD
BRANCH  11  14
ATOM     14  C   UNL A   1      33.305  23.144  24.631  1.00  0.00     0.060 A 
ATOM     15  C   UNL A   1      32.688  23.534  23.443  1.00  0.00     0.100 A 
ATOM     16  C   UNL A   1      32.379  22.571  22.467  1.00  0.00    -0.040 A 
ATOM     17  C   UNL A   1      32.573  21.212  22.727  1.00  0.00    -0.053 A 
ATOM     18  H   UNL A   1      32.006  22.869  21.552  1.00  0.00     0.064 H 
ATOM     19  C   UNL A   1      33.497  21.769  24.879  1.00  0.00    -0.040 A 
ATOM     20  C   UNL A   1      33.097  20.794  23.955  1.00  0.00    -0.017 A 
ATOM     21  H   UNL A   1      32.329  20.513  22.008  1.00  0.00     0.063 H 
ATOM     22  H   UNL A   1      33.941  21.475  25.762  1.00  0.00     0.064 H 
BRANCH  15  23
ATOM     23  S   UNL A   1      32.106  25.181  23.171  1.00  0.00     0.264 S 
ATOM     24  O   UNL A   1      31.663  25.234  21.794  1.00  0.00    -0.201 OA
ATOM     25  O   UNL A   1      33.040  26.139  23.707  1.00  0.00    -0.201 OA
BRANCH  23  26
ATOM     26  N   UNL A   1      30.735  25.271  24.096  1.00  0.00    -0.249 N 
ATOM     27  C   UNL A   1      29.772  26.286  24.150  1.00  0.00     0.230 C 
ATOM     28  O   UNL A   1      28.747  26.077  24.786  1.00  0.00    -0.274 OA
ATOM     29  H   UNL A   1      30.576  24.503  24.691  1.00  0.00     0.183 HD
BRANCH  27  30
ATOM     30  C   UNL A   1      30.042  27.602  23.482  1.00  0.00     0.016 C 
ATOM     31  H   UNL A   1      30.363  28.314  24.213  1.00  0.00     0.033 H 
ATOM     32  H   UNL A   1      29.147  27.954  23.011  1.00  0.00     0.033 H 
ATOM     33  H   UNL A   1      30.808  27.479  22.745  1.00  0.00     0.033 H 
ENDBRANCH  27  30
ENDBRANCH  23  26
ENDBRANCH  15  23
BRANCH  20  34
ATOM     34  C   UNL A   1      33.099  19.360  24.332  1.00  0.00    -0.011 A 
ATOM     35  C   UNL A   1      32.593  18.907  25.619  1.00  0.00    -0.038 A 
ATOM     36  C   UNL A   1      33.515  18.436  23.447  1.00  0.00     0.012 A 
ATOM     37  C   UNL A   1      32.520  17.603  25.910  1.00  0.00     0.013 A 
ATOM     38  H   UNL A   1      32.287  19.601  26.318  1.00  0.00     0.064 H 
ATOM     39  C   UNL A   1      33.438  16.978  23.756  1.00  0.00     0.255 A 
ATOM     40  H   UNL A   1      33.896  18.741  22.539  1.00  0.00     0.069 H 
ATOM     41  N   UNL A   1      32.928  16.648  25.001  1.00  0.00    -0.258 N 
ATOM     42  H   UNL A   1      32.153  17.306  26.828  1.00  0.00     0.082 H 
ATOM     43  O   UNL A   1      33.807  16.181  22.899  1.00  0.00    -0.269 OA
BRANCH  41  44
ATOM     44  C   UNL A   1      32.802  15.246  25.309  1.00  0.00     0.321 C 
ATOM     45  F   UNL A   1      34.020  14.683  25.506  1.00  0.00    -0.185 F 
ATOM     46  F   UNL A   1      32.063  15.054  26.429  1.00  0.00    -0.185 F 
ATOM     47  H   UNL A   1      32.315  14.788  24.474  1.00  0.00     0.131 H 
ENDBRANCH  41  44
ENDBRANCH  20  34
ENDBRANCH  11  14
ENDBRANCH   7  10
ENDBRANCH   4   7
ENDBRANCH   1   4
BRANCH   1  48
ATOM     48  C   UNL A   1      36.801  20.475  24.931  1.00  0.00    -0.052 C 
ATOM     49  H   UNL A   1      36.133  20.118  24.176  1.00  0.00     0.027 H 
ATOM     50  H   UNL A   1      36.397  20.467  25.922  1.00  0.00     0.027 H 
BRANCH  48  51
ATOM     51  C   UNL A   1      38.009  19.526  24.974  1.00  0.00    -0.036 C 
ATOM     52  H   UNL A   1      38.327  19.359  23.967  1.00  0.00     0.028 H 
ATOM     53  H   UNL A   1      37.660  18.652  25.484  1.00  0.00     0.028 H 
BRANCH  51  54
ATOM     54  C   UNL A   1      39.228  19.995  25.773  1.00  0.00     0.018 C 
ATOM     55  H   UNL A   1      38.920  20.196  26.776  1.00  0.00     0.049 H 
ATOM     56  H   UNL A   1      39.610  20.868  25.285  1.00  0.00     0.049 H 
BRANCH  54  57
ATOM     57  N   UNL A   1      40.301  19.018  25.807  1.00  0.00    -0.352 N 
ATOM     58  C   UNL A   1      41.636  19.200  26.072  1.00  0.00     0.251 C 
ATOM     59  H   UNL A   1      40.033  18.092  25.612  1.00  0.00     0.163 HD
ATOM     60  O   UNL A   1      42.413  18.254  25.980  1.00  0.00    -0.269 OA
BRANCH  58  61
ATOM     61  C   UNL A   1      42.164  20.536  26.431  1.00  0.00     0.039 A 
ATOM     62  C   UNL A   1      42.585  21.379  25.394  1.00  0.00    -0.049 A 
ATOM     63  C   UNL A   1      42.300  20.948  27.762  1.00  0.00    -0.049 A 
ATOM     64  C   UNL A   1      43.082  22.652  25.682  1.00  0.00    -0.053 A 
ATOM     65  H   UNL A   1      42.527  21.057  24.415  1.00  0.00     0.063 H 
ATOM     66  C   UNL A   1      42.787  22.228  28.048  1.00  0.00    -0.053 A 
ATOM     67  H   UNL A   1      42.042  20.309  28.530  1.00  0.00     0.063 H 
ATOM     68  C   UNL A   1      43.170  23.091  27.011  1.00  0.00    -0.014 A 
ATOM     69  H   UNL A   1      43.386  23.271  24.915  1.00  0.00     0.063 H 
ATOM     70  H   UNL A   1      42.865  22.538  29.029  1.00  0.00     0.063 H 
BRANCH  68  71
ATOM     71  C   UNL A   1      43.621  24.469  27.318  1.00  0.00     0.031 A 
ATOM     72  C   UNL A   1      42.677  25.475  27.905  1.00  0.00     0.074 A 
ATOM     73  C   UNL A   1      44.891  24.820  27.048  1.00  0.00     0.049 A 
ATOM     74  N   UNL A   1      42.876  26.745  28.150  1.00  0.00    -0.248 NA
ATOM     75  C   UNL A   1      41.333  24.994  28.255  1.00  0.00    -0.034 C 
ATOM     76  C   UNL A   1      45.909  23.936  26.481  1.00  0.00    -0.036 A 
ATOM     77  N   UNL A   1      45.539  26.018  27.214  1.00  0.00    -0.354 N 
ATOM     78  C   UNL A   1      41.678  27.224  28.659  1.00  0.00     0.074 A 
ATOM     79  C   UNL A   1      40.761  26.103  28.706  1.00  0.00    -0.034 C 
ATOM     80  H   UNL A   1      40.939  24.044  28.173  1.00  0.00     0.065 H 
ATOM     81  C   UNL A   1      47.057  24.621  26.348  1.00  0.00    -0.036 A 
ATOM     82  H   UNL A   1      45.768  22.946  26.224  1.00  0.00     0.065 H 
ATOM     83  C   UNL A   1      46.848  25.992  26.808  1.00  0.00     0.049 A 
ATOM     84  H   UNL A   1      45.105  26.818  27.588  1.00  0.00     0.167 HD
ATOM     85  C   UNL A   1      41.370  28.486  29.040  1.00  0.00     0.037 A 
ATOM     86  H   UNL A   1      39.788  26.161  29.046  1.00  0.00     0.065 H 
ATOM     87  H   UNL A   1      47.943  24.240  25.981  1.00  0.00     0.065 H 
ATOM     88  C   UNL A   1      47.775  26.967  26.798  1.00  0.00     0.037 A 
ATOM     89  C   UNL A   1      42.275  29.603  29.013  1.00  0.00     0.049 A 
ATOM     90  C   UNL A   1      47.424  28.341  27.282  1.00  0.00     0.074 A 
ATOM     91  C   UNL A   1      42.030  30.926  29.342  1.00  0.00    -0.036 A 
ATOM     92  N   UNL A   1      43.609  29.523  28.647  1.00  0.00    -0.354 N 
ATOM     93  N   UNL A   1      46.273  28.792  27.716  1.00  0.00    -0.248 NA
ATOM     94  C   UNL A   1      48.500  29.344  27.272  1.00  0.00    -0.034 C 
ATOM     95  C   UNL A   1      43.221  31.646  29.182  1.00  0.00    -0.036 A 
ATOM     96  H   UNL A   1      41.126  31.314  29.650  1.00  0.00     0.065 H 
ATOM     97  C   UNL A   1      44.205  30.770  28.757  1.00  0.00     0.049 A 
ATOM     98  H   UNL A   1      44.067  28.702  28.353  1.00  0.00     0.167 HD
ATOM     99  C   UNL A   1      46.480  30.129  28.018  1.00  0.00     0.074 A 
ATOM    100  C   UNL A   1      47.871  30.416  27.735  1.00  0.00    -0.034 C 
ATOM    101  H   UNL A   1      49.484  29.240  26.981  1.00  0.00     0.065 H 
ATOM    102  H   UNL A   1      43.344  32.656  29.353  1.00  0.00     0.065 H 
ATOM    103  C   UNL A   1      45.589  31.038  28.477  1.00  0.00     0.037 A 
ATOM    104  H   UNL A   1      48.316  31.337  27.875  1.00  0.00     0.065 H 
BRANCH  85 105
ATOM    105  C   UNL A   1      39.973  28.732  29.508  1.00  0.00     0.064 A 
ATOM    106  C   UNL A   1      39.616  28.549  30.849  1.00  0.00     0.173 A 
ATOM    107  C   UNL A   1      38.994  29.190  28.614  1.00  0.00     0.173 A 
ATOM    108  F   UNL A   1      40.520  28.105  31.734  1.00  0.00    -0.203 F 
ATOM    109  C   UNL A   1      38.320  28.817  31.282  1.00  0.00     0.198 A 
ATOM    110  C   UNL A   1      37.702  29.460  29.051  1.00  0.00     0.198 A 
ATOM    111  F   UNL A   1      39.296  29.372  27.319  1.00  0.00    -0.203 F 
ATOM    112  F   UNL A   1      37.992  28.630  32.568  1.00  0.00    -0.200 F 
ATOM    113  C   UNL A   1      37.365  29.274  30.384  1.00  0.00     0.200 A 
ATOM    114  F   UNL A   1      36.779  29.897  28.183  1.00  0.00    -0.200 F 
ATOM    115  F   UNL A   1      36.119  29.530  30.803  1.00  0.00    -0.200 F 
ENDBRANCH  85 105
BRANCH  88 116
ATOM    116  C   UNL A   1      49.135  26.669  26.299  1.00  0.00     0.064 A 
ATOM    117  C   UNL A   1      49.476  26.912  24.963  1.00  0.00     0.173 A 
ATOM    118  C   UNL A   1      50.120  26.158  27.154  1.00  0.00     0.173 A 
ATOM    119  F   UNL A   1      48.555  27.387  24.112  1.00  0.00    -0.203 F 
ATOM    120  C   UNL A   1      50.762  26.652  24.497  1.00  0.00     0.198 A 
ATOM    121  C   UNL A   1      51.406  25.903  26.687  1.00  0.00     0.198 A 
ATOM    122  F   UNL A   1      49.828  25.909  28.438  1.00  0.00    -0.203 F 
ATOM    123  F   UNL A   1      51.066  26.880  23.212  1.00  0.00    -0.200 F 
ATOM    124  C   UNL A   1      51.726  26.150  25.360  1.00  0.00     0.200 A 
ATOM    125  F   UNL A   1      52.336  25.419  27.522  1.00  0.00    -0.200 F 
ATOM    126  F   UNL A   1      52.964  25.901  24.911  1.00  0.00    -0.200 F 
ENDBRANCH  88 116
BRANCH 103 127
ATOM    127  C   UNL A   1      46.092  32.428  28.695  1.00  0.00     0.064 A 
ATOM    128  C   UNL A   1      46.043  33.377  27.665  1.00  0.00     0.173 A 
ATOM    129  C   UNL A   1      46.599  32.822  29.941  1.00  0.00     0.173 A 
ATOM    130  F   UNL A   1      45.577  33.037  26.455  1.00  0.00    -0.203 F 
ATOM    131  C   UNL A   1      46.491  34.678  27.875  1.00  0.00     0.198 A 
ATOM    132  C   UNL A   1      47.044  34.124  30.148  1.00  0.00     0.198 A 
ATOM    133  F   UNL A   1      46.672  31.940  30.949  1.00  0.00    -0.203 F 
ATOM    134  F   UNL A   1      46.450  35.570  26.875  1.00  0.00    -0.200 F 
ATOM    135  C   UNL A   1      46.990  35.050  29.116  1.00  0.00     0.200 A 
ATOM    136  F   UNL A   1      47.534  34.482  31.342  1.00  0.00    -0.200 F 
ATOM    137  F   UNL A   1      47.426  36.302  29.315  1.00  0.00    -0.200 F 
ENDBRANCH 103 127
ENDBRANCH  68  71
ENDBRANCH  58  61
ENDBRANCH  54  57
ENDBRANCH  51  54
ENDBRANCH  48  51
ENDBRANCH   1  48
TORSDOF 18
ENDMDL
MODEL 10
REMARK VINA RESULT:     -12.4      2.663      8.495
REMARK SMILES CC(=O)NS(=O)(=O)c1ccc(-c2ccn(C(F)F)c(=O)c2)cc1C(=O)NCCCCCCNC(=O)c1ccc(-c2c3nc(c(-c4c(F)c(F)c(F)c(F)c4F)c4ccc([nH]4)c(-c4c(F)c(F)c(F)c(F)c4F)c4nc(c(-c5c(F)c(F)c(F)c(F)c5F)c5ccc2[nH]5)C=C4)C=C3)cc1
REMARK SMILES IDX 29 1 28 4 27 7 26 10 24 11 25 12 23 14 8 15 9 16 10 17 22 19
REMARK SMILES IDX 11 20 5 23 6 24 7 25 4 26 2 27 3 28 1 30 12 34 13 35 21 36
REMARK SMILES IDX 14 37 19 39 15 41 20 43 16 44 17 45 18 46 30 48 31 51 32 54
REMARK SMILES IDX 33 57 34 58 35 60 36 61 37 62 98 63 38 64 97 66 39 68 40 71
REMARK SMILES IDX 41 72 91 73 42 74 96 75 90 76 92 77 43 78 95 79 89 81 88 83
REMARK SMILES IDX 44 85 76 88 56 89 75 90 57 91 60 92 74 93 93 94 58 95 59 97
REMARK SMILES IDX 73 99 94 100 61 103 45 105 46 106 54 107 47 108 48 109
REMARK SMILES IDX 52 110 55 111 49 112 50 113 53 114 51 115 77 116 78 117
REMARK SMILES IDX 86 118 79 119 80 120 84 121 87 122 81 123 82 124 85 125
REMARK SMILES IDX 83 126 62 127 63 128 71 129 64 130 65 131 69 132 72 133
REMARK SMILES IDX 66 134 67 135 70 136 68 137
REMARK H PARENT 29 2 29 3 28 5 28 6 27 8 27 9 26 13 9 18 10 21 22 22 4 29 1 31
REMARK H PARENT 1 32 1 33 13 38 21 40 14 42 16 47 30 49 30 50 31 52 31 53
REMARK H PARENT 32 55 32 56 33 59 37 65 98 67 38 69 97 70 96 80 90 82 92 84
REMARK H PARENT 95 86 89 87 57 96 60 98 93 101 58 102 94 104
REMARK Flexibility Score: inf
ROOT
ATOM      1  C   UNL A   1      33.217  30.160  26.480  1.00  0.00    -0.052 C 
ATOM      2  H   UNL A   1      33.412  29.988  25.441  1.00  0.00     0.027 H 
ATOM      3  H   UNL A   1      33.795  30.963  26.888  1.00  0.00     0.027 H 
ENDROOT
BRANCH   1   4
ATOM      4  C   UNL A   1      33.615  28.903  27.255  1.00  0.00    -0.036 C 
ATOM      5  H   UNL A   1      34.618  29.029  27.604  1.00  0.00     0.028 H 
ATOM      6  H   UNL A   1      32.905  28.798  28.049  1.00  0.00     0.028 H 
BRANCH   4   7
ATOM      7  C   UNL A   1      33.551  27.605  26.440  1.00  0.00     0.018 C 
ATOM      8  H   UNL A   1      33.609  27.835  25.396  1.00  0.00     0.049 H 
ATOM      9  H   UNL A   1      34.371  26.972  26.711  1.00  0.00     0.049 H 
BRANCH   7  10
ATOM     10  N   UNL A   1      32.297  26.918  26.716  1.00  0.00    -0.352 N 
ATOM     11  C   UNL A   1      31.583  25.986  26.018  1.00  0.00     0.252 C 
ATOM     12  O   UNL A   1      30.501  25.593  26.449  1.00  0.00    -0.269 OA
ATOM     13  H   UNL A   1      31.883  27.176  27.571  1.00  0.00     0.163 HD
BRANCH  11  14
ATOM     14  C   UNL A   1      32.111  25.327  24.808  1.00  0.00     0.060 A 
ATOM     15  C   UNL A   1      31.966  25.778  23.497  1.00  0.00     0.100 A 
ATOM     16  C   UNL A   1      32.465  25.009  22.432  1.00  0.00    -0.040 A 
ATOM     17  C   UNL A   1      32.996  23.737  22.667  1.00  0.00    -0.053 A 
ATOM     18  H   UNL A   1      32.440  25.384  21.472  1.00  0.00     0.064 H 
ATOM     19  C   UNL A   1      32.651  24.042  25.029  1.00  0.00    -0.040 A 
ATOM     20  C   UNL A   1      33.056  23.223  23.966  1.00  0.00    -0.017 A 
ATOM     21  H   UNL A   1      33.345  23.174  21.875  1.00  0.00     0.063 H 
ATOM     22  H   UNL A   1      32.748  23.698  25.997  1.00  0.00     0.064 H 
BRANCH  15  23
ATOM     23  S   UNL A   1      31.016  27.211  23.086  1.00  0.00     0.264 S 
ATOM     24  O   UNL A   1      30.874  27.206  21.646  1.00  0.00    -0.201 OA
ATOM     25  O   UNL A   1      31.510  28.363  23.798  1.00  0.00    -0.201 OA
BRANCH  23  26
ATOM     26  N   UNL A   1      29.514  26.874  23.696  1.00  0.00    -0.249 N 
ATOM     27  C   UNL A   1      28.311  27.568  23.513  1.00  0.00     0.230 C 
ATOM     28  O   UNL A   1      27.279  27.053  23.922  1.00  0.00    -0.274 OA
ATOM     29  H   UNL A   1      29.459  26.074  24.267  1.00  0.00     0.183 HD
BRANCH  27  30
ATOM     30  C   UNL A   1      28.326  28.928  22.878  1.00  0.00     0.016 C 
ATOM     31  H   UNL A   1      29.086  29.526  23.335  1.00  0.00     0.033 H 
ATOM     32  H   UNL A   1      27.374  29.396  23.012  1.00  0.00     0.033 H 
ATOM     33  H   UNL A   1      28.531  28.830  21.832  1.00  0.00     0.033 H 
ENDBRANCH  27  30
ENDBRANCH  23  26
ENDBRANCH  15  23
BRANCH  20  34
ATOM     34  C   UNL A   1      33.403  21.802  24.207  1.00  0.00    -0.011 A 
ATOM     35  C   UNL A   1      32.444  20.731  23.979  1.00  0.00    -0.038 A 
ATOM     36  C   UNL A   1      34.652  21.473  24.582  1.00  0.00     0.012 A 
ATOM     37  C   UNL A   1      32.799  19.449  24.116  1.00  0.00     0.013 A 
ATOM     38  H   UNL A   1      31.476  20.965  23.710  1.00  0.00     0.064 H 
ATOM     39  C   UNL A   1      35.063  20.047  24.736  1.00  0.00     0.255 A 
ATOM     40  H   UNL A   1      35.338  22.220  24.767  1.00  0.00     0.069 H 
ATOM     41  N   UNL A   1      34.084  19.102  24.483  1.00  0.00    -0.258 N 
ATOM     42  H   UNL A   1      32.102  18.707  23.945  1.00  0.00     0.082 H 
ATOM     43  O   UNL A   1      36.225  19.807  25.054  1.00  0.00    -0.269 OA
BRANCH  41  44
ATOM     44  C   UNL A   1      34.465  17.715  24.583  1.00  0.00     0.321 C 
ATOM     45  F   UNL A   1      33.541  17.009  25.281  1.00  0.00    -0.185 F 
ATOM     46  F   UNL A   1      34.589  17.151  23.357  1.00  0.00    -0.185 F 
ATOM     47  H   UNL A   1      35.407  17.689  25.088  1.00  0.00     0.131 H 
ENDBRANCH  41  44
ENDBRANCH  20  34
ENDBRANCH  11  14
ENDBRANCH   7  10
ENDBRANCH   4   7
ENDBRANCH   1   4
BRANCH   1  48
ATOM     48  C   UNL A   1      31.748  30.566  26.626  1.00  0.00    -0.052 C 
ATOM     49  H   UNL A   1      31.338  30.013  27.445  1.00  0.00     0.027 H 
ATOM     50  H   UNL A   1      31.299  30.354  25.679  1.00  0.00     0.027 H 
BRANCH  48  51
ATOM     51  C   UNL A   1      31.474  32.056  26.885  1.00  0.00    -0.036 C 
ATOM     52  H   UNL A   1      30.943  32.133  27.810  1.00  0.00     0.028 H 
ATOM     53  H   UNL A   1      30.929  32.393  26.027  1.00  0.00     0.028 H 
BRANCH  51  54
ATOM     54  C   UNL A   1      32.693  32.978  26.973  1.00  0.00     0.018 C 
ATOM     55  H   UNL A   1      33.051  33.163  25.983  1.00  0.00     0.049 H 
ATOM     56  H   UNL A   1      33.422  32.482  27.580  1.00  0.00     0.049 H 
BRANCH  54  57
ATOM     57  N   UNL A   1      32.404  34.252  27.605  1.00  0.00    -0.352 N 
ATOM     58  C   UNL A   1      33.032  34.862  28.662  1.00  0.00     0.251 C 
ATOM     59  H   UNL A   1      31.649  34.751  27.219  1.00  0.00     0.163 HD
ATOM     60  O   UNL A   1      32.592  35.918  29.109  1.00  0.00    -0.269 OA
BRANCH  58  61
ATOM     61  C   UNL A   1      34.215  34.243  29.303  1.00  0.00     0.039 A 
ATOM     62  C   UNL A   1      34.000  33.357  30.366  1.00  0.00    -0.049 A 
ATOM     63  C   UNL A   1      35.521  34.560  28.913  1.00  0.00    -0.049 A 
ATOM     64  C   UNL A   1      35.084  32.741  30.997  1.00  0.00    -0.053 A 
ATOM     65  H   UNL A   1      33.038  33.158  30.684  1.00  0.00     0.063 H 
ATOM     66  C   UNL A   1      36.605  33.934  29.537  1.00  0.00    -0.053 A 
ATOM     67  H   UNL A   1      35.684  35.254  28.167  1.00  0.00     0.063 H 
ATOM     68  C   UNL A   1      36.393  33.013  30.574  1.00  0.00    -0.014 A 
ATOM     69  H   UNL A   1      34.921  32.085  31.776  1.00  0.00     0.063 H 
ATOM     70  H   UNL A   1      37.567  34.151  29.232  1.00  0.00     0.063 H 
BRANCH  68  71
ATOM     71  C   UNL A   1      37.542  32.303  31.184  1.00  0.00     0.031 A 
ATOM     72  C   UNL A   1      38.013  32.646  32.565  1.00  0.00     0.074 A 
ATOM     73  C   UNL A   1      38.178  31.352  30.477  1.00  0.00     0.049 A 
ATOM     74  N   UNL A   1      39.054  32.191  33.216  1.00  0.00    -0.248 NA
ATOM     75  C   UNL A   1      37.215  33.630  33.310  1.00  0.00    -0.034 C 
ATOM     76  C   UNL A   1      37.818  30.923  29.125  1.00  0.00    -0.036 A 
ATOM     77  N   UNL A   1      39.263  30.577  30.798  1.00  0.00    -0.354 N 
ATOM     78  C   UNL A   1      39.054  32.851  34.436  1.00  0.00     0.074 A 
ATOM     79  C   UNL A   1      37.898  33.725  34.444  1.00  0.00    -0.034 C 
ATOM     80  H   UNL A   1      36.352  34.119  33.026  1.00  0.00     0.065 H 
ATOM     81  C   UNL A   1      38.666  29.957  28.733  1.00  0.00    -0.036 A 
ATOM     82  H   UNL A   1      37.039  31.300  28.563  1.00  0.00     0.065 H 
ATOM     83  C   UNL A   1      39.634  29.713  29.800  1.00  0.00     0.049 A 
ATOM     84  H   UNL A   1      39.731  30.636  31.663  1.00  0.00     0.167 HD
ATOM     85  C   UNL A   1      39.945  32.746  35.450  1.00  0.00     0.037 A 
ATOM     86  H   UNL A   1      37.640  34.342  35.230  1.00  0.00     0.065 H 
ATOM     87  H   UNL A   1      38.638  29.467  27.826  1.00  0.00     0.065 H 
ATOM     88  C   UNL A   1      40.647  28.829  29.747  1.00  0.00     0.037 A 
ATOM     89  C   UNL A   1      41.087  31.873  35.461  1.00  0.00     0.049 A 
ATOM     90  C   UNL A   1      41.583  28.690  30.909  1.00  0.00     0.074 A 
ATOM     91  C   UNL A   1      42.065  31.736  36.432  1.00  0.00    -0.036 A 
ATOM     92  N   UNL A   1      41.396  30.973  34.453  1.00  0.00    -0.354 N 
ATOM     93  N   UNL A   1      41.600  29.355  32.036  1.00  0.00    -0.248 NA
ATOM     94  C   UNL A   1      42.645  27.680  30.788  1.00  0.00    -0.034 C 
ATOM     95  C   UNL A   1      42.963  30.745  36.014  1.00  0.00    -0.036 A 
ATOM     96  H   UNL A   1      42.122  32.272  37.311  1.00  0.00     0.065 H 
ATOM     97  C   UNL A   1      42.541  30.266  34.786  1.00  0.00     0.049 A 
ATOM     98  H   UNL A   1      40.879  30.853  33.624  1.00  0.00     0.167 HD
ATOM     99  C   UNL A   1      42.676  28.856  32.754  1.00  0.00     0.074 A 
ATOM    100  C   UNL A   1      43.281  27.819  31.944  1.00  0.00    -0.034 C 
ATOM    101  H   UNL A   1      42.843  27.033  30.009  1.00  0.00     0.065 H 
ATOM    102  H   UNL A   1      43.796  30.427  36.533  1.00  0.00     0.065 H 
ATOM    103  C   UNL A   1      43.127  29.236  33.973  1.00  0.00     0.037 A 
ATOM    104  H   UNL A   1      44.100  27.261  32.229  1.00  0.00     0.065 H 
BRANCH  85 105
ATOM    105  C   UNL A   1      39.726  33.623  36.639  1.00  0.00     0.064 A 
ATOM    106  C   UNL A   1      40.303  34.897  36.715  1.00  0.00     0.173 A 
ATOM    107  C   UNL A   1      38.904  33.200  37.693  1.00  0.00     0.173 A 
ATOM    108  F   UNL A   1      41.102  35.336  35.732  1.00  0.00    -0.203 F 
ATOM    109  C   UNL A   1      40.063  35.721  37.811  1.00  0.00     0.198 A 
ATOM    110  C   UNL A   1      38.663  34.028  38.785  1.00  0.00     0.198 A 
ATOM    111  F   UNL A   1      38.337  31.984  37.660  1.00  0.00    -0.203 F 
ATOM    112  F   UNL A   1      40.628  36.934  37.871  1.00  0.00    -0.200 F 
ATOM    113  C   UNL A   1      39.242  35.288  38.843  1.00  0.00     0.200 A 
ATOM    114  F   UNL A   1      37.874  33.607  39.783  1.00  0.00    -0.200 F 
ATOM    115  F   UNL A   1      39.013  36.082  39.897  1.00  0.00    -0.200 F 
ENDBRANCH  85 105
BRANCH  88 116
ATOM    116  C   UNL A   1      40.828  28.008  28.531  1.00  0.00     0.064 A 
ATOM    117  C   UNL A   1      41.629  28.459  27.475  1.00  0.00     0.173 A 
ATOM    118  C   UNL A   1      40.221  26.750  28.415  1.00  0.00     0.173 A 
ATOM    119  F   UNL A   1      42.213  29.663  27.544  1.00  0.00    -0.203 F 
ATOM    120  C   UNL A   1      41.817  27.676  26.338  1.00  0.00     0.198 A 
ATOM    121  C   UNL A   1      40.415  25.968  27.280  1.00  0.00     0.198 A 
ATOM    122  F   UNL A   1      39.444  26.288  29.404  1.00  0.00    -0.203 F 
ATOM    123  F   UNL A   1      42.578  28.130  25.333  1.00  0.00    -0.200 F 
ATOM    124  C   UNL A   1      41.212  26.431  26.244  1.00  0.00     0.200 A 
ATOM    125  F   UNL A   1      39.829  24.766  27.190  1.00  0.00    -0.200 F 
ATOM    126  F   UNL A   1      41.394  25.678  25.149  1.00  0.00    -0.200 F 
ENDBRANCH  88 116
BRANCH 103 127
ATOM    127  C   UNL A   1      44.334  28.530  34.497  1.00  0.00     0.064 A 
ATOM    128  C   UNL A   1      44.207  27.353  35.248  1.00  0.00     0.173 A 
ATOM    129  C   UNL A   1      45.622  29.012  34.229  1.00  0.00     0.173 A 
ATOM    130  F   UNL A   1      42.992  26.865  35.538  1.00  0.00    -0.203 F 
ATOM    131  C   UNL A   1      45.333  26.684  35.719  1.00  0.00     0.198 A 
ATOM    132  C   UNL A   1      46.746  28.339  34.699  1.00  0.00     0.198 A 
ATOM    133  F   UNL A   1      45.786  30.141  33.524  1.00  0.00    -0.203 F 
ATOM    134  F   UNL A   1      45.192  25.567  36.447  1.00  0.00    -0.200 F 
ATOM    135  C   UNL A   1      46.601  27.177  35.443  1.00  0.00     0.200 A 
ATOM    136  F   UNL A   1      47.970  28.819  34.442  1.00  0.00    -0.200 F 
ATOM    137  F   UNL A   1      47.684  26.534  35.901  1.00  0.00    -0.200 F 
ENDBRANCH 103 127
ENDBRANCH  68  71
ENDBRANCH  58  61
ENDBRANCH  54  57
ENDBRANCH  51  54
ENDBRANCH  48  51
ENDBRANCH   1  48
TORSDOF 18
ENDMDL
