MODEL 1
REMARK VINA RESULT:     -12.2      0.000      0.000
REMARK SMILES O=C(Cc1ccn(C(F)F)c(=O)c1)NCCCCCCNC(=O)c1ccc(-c2c3nc(c(-c4c(F)c(F)c(F)c(F)c4F)c4ccc([nH]4)c(-c4c(F)c(F)c(F)c(F)c4F)c4nc(c(-c5c(F)c(F)c(F)c(F)c5F)c5ccc2[nH]5)C=C4)C=C3)cc1
REMARK SMILES IDX 17 1 16 4 15 7 14 10 1 11 2 12 3 14 4 17 5 18 13 19 6 20
REMARK SMILES IDX 11 22 7 24 12 26 8 27 9 28 10 29 18 31 19 34 20 37 21 40
REMARK SMILES IDX 22 41 23 43 24 44 25 45 86 46 26 47 85 49 27 51 28 54 29 55
REMARK SMILES IDX 79 56 30 57 84 58 78 59 80 60 31 61 83 62 77 64 76 66 32 68
REMARK SMILES IDX 64 71 44 72 63 73 45 74 48 75 62 76 81 77 46 78 47 80 61 82
REMARK SMILES IDX 82 83 49 86 33 88 34 89 42 90 35 91 36 92 40 93 43 94 37 95
REMARK SMILES IDX 38 96 41 97 39 98 65 99 66 100 74 101 67 102 68 103 72 104
REMARK SMILES IDX 75 105 69 106 70 107 73 108 71 109 50 110 51 111 59 112
REMARK SMILES IDX 52 113 53 114 57 115 60 116 54 117 55 118 58 119 56 120
REMARK H PARENT 17 2 17 3 16 5 16 6 15 8 15 9 14 13 3 15 3 16 5 21 13 23 6 25
REMARK H PARENT 8 30 18 32 18 33 19 35 19 36 20 38 20 39 21 42 25 48 86 50
REMARK H PARENT 26 52 85 53 84 63 78 65 80 67 83 69 77 70 45 79 48 81 81 84
REMARK H PARENT 46 85 82 87
REMARK Flexibility Score: inf
ROOT
ATOM      1  C   UNL A   1      32.407  29.787  27.251  1.00  0.00    -0.052 C 
ATOM      2  H   UNL A   1      33.405  29.605  26.912  1.00  0.00     0.027 H 
ATOM      3  H   UNL A   1      32.352  30.360  28.153  1.00  0.00     0.027 H 
ENDROOT
BRANCH   1   4
ATOM      4  C   UNL A   1      31.765  28.432  27.576  1.00  0.00    -0.036 C 
ATOM      5  H   UNL A   1      31.836  28.276  28.632  1.00  0.00     0.028 H 
ATOM      6  H   UNL A   1      30.755  28.486  27.223  1.00  0.00     0.028 H 
BRANCH   4   7
ATOM      7  C   UNL A   1      32.400  27.235  26.874  1.00  0.00     0.017 C 
ATOM      8  H   UNL A   1      33.446  27.422  26.746  1.00  0.00     0.049 H 
ATOM      9  H   UNL A   1      32.237  26.368  27.480  1.00  0.00     0.049 H 
BRANCH   7  10
ATOM     10  N   UNL A   1      31.805  26.997  25.576  1.00  0.00    -0.356 N 
ATOM     11  O   UNL A   1      30.065  25.700  26.330  1.00  0.00    -0.275 OA
ATOM     12  C   UNL A   1      30.667  26.240  25.408  1.00  0.00     0.224 C 
ATOM     13  H   UNL A   1      32.231  27.392  24.781  1.00  0.00     0.163 HD
BRANCH  12  14
ATOM     14  C   UNL A   1      30.197  26.148  23.959  1.00  0.00     0.052 C 
ATOM     15  H   UNL A   1      29.436  25.397  23.908  1.00  0.00     0.042 H 
ATOM     16  H   UNL A   1      31.071  25.923  23.385  1.00  0.00     0.042 H 
BRANCH  14  17
ATOM     17  C   UNL A   1      29.634  27.420  23.366  1.00  0.00    -0.032 A 
ATOM     18  C   UNL A   1      30.469  28.369  22.653  1.00  0.00    -0.042 A 
ATOM     19  C   UNL A   1      28.324  27.695  23.502  1.00  0.00     0.007 A 
ATOM     20  C   UNL A   1      29.941  29.482  22.129  1.00  0.00     0.013 A 
ATOM     21  H   UNL A   1      31.480  28.184  22.549  1.00  0.00     0.064 H 
ATOM     22  C   UNL A   1      27.725  28.941  22.948  1.00  0.00     0.255 A 
ATOM     23  H   UNL A   1      27.719  27.025  24.003  1.00  0.00     0.068 H 
ATOM     24  N   UNL A   1      28.597  29.770  22.263  1.00  0.00    -0.258 N 
ATOM     25  H   UNL A   1      30.550  30.137  21.615  1.00  0.00     0.082 H 
ATOM     26  O   UNL A   1      26.529  29.145  23.126  1.00  0.00    -0.269 OA
BRANCH  24  27
ATOM     27  C   UNL A   1      28.056  30.999  21.741  1.00  0.00     0.321 C 
ATOM     28  F   UNL A   1      28.974  31.995  21.775  1.00  0.00    -0.185 F 
ATOM     29  F   UNL A   1      27.654  30.841  20.457  1.00  0.00    -0.185 F 
ATOM     30  H   UNL A   1      27.223  31.258  22.359  1.00  0.00     0.131 H 
ENDBRANCH  24  27
ENDBRANCH  14  17
ENDBRANCH  12  14
ENDBRANCH   7  10
ENDBRANCH   4   7
ENDBRANCH   1   4
BRANCH   1  31
ATOM     31  C   UNL A   1      31.692  30.621  26.183  1.00  0.00    -0.052 C 
ATOM     32  H   UNL A   1      30.743  30.164  25.989  1.00  0.00     0.027 H 
ATOM     33  H   UNL A   1      32.344  30.634  25.335  1.00  0.00     0.027 H 
BRANCH  31  34
ATOM     34  C   UNL A   1      31.445  32.084  26.548  1.00  0.00    -0.036 C 
ATOM     35  H   UNL A   1      30.575  32.128  27.169  1.00  0.00     0.028 H 
ATOM     36  H   UNL A   1      31.335  32.606  25.620  1.00  0.00     0.028 H 
BRANCH  34  37
ATOM     37  C   UNL A   1      32.589  32.771  27.287  1.00  0.00     0.018 C 
ATOM     38  H   UNL A   1      33.459  32.744  26.664  1.00  0.00     0.049 H 
ATOM     39  H   UNL A   1      32.736  32.243  28.205  1.00  0.00     0.049 H 
BRANCH  37  40
ATOM     40  N   UNL A   1      32.304  34.157  27.625  1.00  0.00    -0.352 N 
ATOM     41  C   UNL A   1      32.924  34.972  28.543  1.00  0.00     0.251 C 
ATOM     42  H   UNL A   1      31.564  34.570  27.126  1.00  0.00     0.163 HD
ATOM     43  O   UNL A   1      32.474  36.089  28.783  1.00  0.00    -0.269 OA
BRANCH  41  44
ATOM     44  C   UNL A   1      34.114  34.485  29.277  1.00  0.00     0.039 A 
ATOM     45  C   UNL A   1      35.392  34.601  28.726  1.00  0.00    -0.049 A 
ATOM     46  C   UNL A   1      33.944  33.881  30.527  1.00  0.00    -0.049 A 
ATOM     47  C   UNL A   1      36.466  33.964  29.339  1.00  0.00    -0.053 A 
ATOM     48  H   UNL A   1      35.538  35.156  27.869  1.00  0.00     0.063 H 
ATOM     49  C   UNL A   1      35.042  33.317  31.183  1.00  0.00    -0.053 A 
ATOM     50  H   UNL A   1      33.008  33.852  30.964  1.00  0.00     0.063 H 
ATOM     51  C   UNL A   1      36.303  33.309  30.570  1.00  0.00    -0.014 A 
ATOM     52  H   UNL A   1      37.392  33.974  28.882  1.00  0.00     0.063 H 
ATOM     53  H   UNL A   1      34.924  32.905  32.122  1.00  0.00     0.063 H 
BRANCH  51  54
ATOM     54  C   UNL A   1      37.471  32.626  31.188  1.00  0.00     0.031 A 
ATOM     55  C   UNL A   1      37.921  32.973  32.581  1.00  0.00     0.074 A 
ATOM     56  C   UNL A   1      38.082  31.635  30.511  1.00  0.00     0.049 A 
ATOM     57  N   UNL A   1      38.877  32.434  33.297  1.00  0.00    -0.248 NA
ATOM     58  C   UNL A   1      37.213  34.068  33.261  1.00  0.00    -0.034 C 
ATOM     59  C   UNL A   1      37.734  31.205  29.157  1.00  0.00    -0.036 A 
ATOM     60  N   UNL A   1      39.098  30.787  30.879  1.00  0.00    -0.354 N 
ATOM     61  C   UNL A   1      38.891  33.127  34.500  1.00  0.00     0.074 A 
ATOM     62  C   UNL A   1      37.873  34.150  34.409  1.00  0.00    -0.034 C 
ATOM     63  H   UNL A   1      36.411  34.627  32.932  1.00  0.00     0.065 H 
ATOM     64  C   UNL A   1      38.475  30.136  28.831  1.00  0.00    -0.036 A 
ATOM     65  H   UNL A   1      37.029  31.653  28.549  1.00  0.00     0.065 H 
ATOM     66  C   UNL A   1      39.391  29.841  29.928  1.00  0.00     0.049 A 
ATOM     67  H   UNL A   1      39.569  30.853  31.740  1.00  0.00     0.167 HD
ATOM     68  C   UNL A   1      39.672  32.918  35.587  1.00  0.00     0.037 A 
ATOM     69  H   UNL A   1      37.684  34.853  35.142  1.00  0.00     0.065 H 
ATOM     70  H   UNL A   1      38.408  29.608  27.947  1.00  0.00     0.065 H 
ATOM     71  C   UNL A   1      40.298  28.846  29.935  1.00  0.00     0.037 A 
ATOM     72  C   UNL A   1      40.670  31.885  35.685  1.00  0.00     0.049 A 
ATOM     73  C   UNL A   1      41.176  28.661  31.139  1.00  0.00     0.074 A 
ATOM     74  C   UNL A   1      41.493  31.581  36.757  1.00  0.00    -0.036 A 
ATOM     75  N   UNL A   1      40.980  30.985  34.676  1.00  0.00    -0.354 N 
ATOM     76  N   UNL A   1      41.167  29.314  32.275  1.00  0.00    -0.248 NA
ATOM     77  C   UNL A   1      42.198  27.607  31.059  1.00  0.00    -0.034 C 
ATOM     78  C   UNL A   1      42.328  30.525  36.381  1.00  0.00    -0.036 A 
ATOM     79  H   UNL A   1      41.488  32.052  37.675  1.00  0.00     0.065 H 
ATOM     80  C   UNL A   1      41.996  30.141  35.092  1.00  0.00     0.049 A 
ATOM     81  H   UNL A   1      40.543  30.953  33.794  1.00  0.00     0.167 HD
ATOM     82  C   UNL A   1      42.170  28.747  33.048  1.00  0.00     0.074 A 
ATOM     83  C   UNL A   1      42.756  27.683  32.260  1.00  0.00    -0.034 C 
ATOM     84  H   UNL A   1      42.422  26.975  30.275  1.00  0.00     0.065 H 
ATOM     85  H   UNL A   1      43.067  30.103  36.966  1.00  0.00     0.065 H 
ATOM     86  C   UNL A   1      42.569  29.085  34.298  1.00  0.00     0.037 A 
ATOM     87  H   UNL A   1      43.511  27.062  32.591  1.00  0.00     0.065 H 
BRANCH  68  88
ATOM     88  C   UNL A   1      39.488  33.825  36.769  1.00  0.00     0.064 A 
ATOM     89  C   UNL A   1      38.694  33.450  37.863  1.00  0.00     0.173 A 
ATOM     90  C   UNL A   1      40.174  35.047  36.843  1.00  0.00     0.173 A 
ATOM     91  F   UNL A   1      38.010  32.297  37.837  1.00  0.00    -0.203 F 
ATOM     92  C   UNL A   1      38.581  34.273  38.981  1.00  0.00     0.198 A 
ATOM     93  C   UNL A   1      40.078  35.855  37.974  1.00  0.00     0.198 A 
ATOM     94  F   UNL A   1      40.952  35.448  35.828  1.00  0.00    -0.203 F 
ATOM     95  F   UNL A   1      37.792  33.909  40.002  1.00  0.00    -0.200 F 
ATOM     96  C   UNL A   1      39.280  35.470  39.039  1.00  0.00     0.200 A 
ATOM     97  F   UNL A   1      40.765  37.004  38.033  1.00  0.00    -0.200 F 
ATOM     98  F   UNL A   1      39.182  36.252  40.123  1.00  0.00    -0.200 F 
ENDBRANCH  68  88
BRANCH  71  99
ATOM     99  C   UNL A   1      40.398  27.941  28.762  1.00  0.00     0.064 A 
ATOM    100  C   UNL A   1      39.688  26.734  28.724  1.00  0.00     0.173 A 
ATOM    101  C   UNL A   1      41.168  28.283  27.641  1.00  0.00     0.173 A 
ATOM    102  F   UNL A   1      38.953  26.356  29.781  1.00  0.00    -0.203 F 
ATOM    103  C   UNL A   1      39.745  25.902  27.608  1.00  0.00     0.198 A 
ATOM    104  C   UNL A   1      41.202  27.464  26.515  1.00  0.00     0.198 A 
ATOM    105  F   UNL A   1      41.863  29.430  27.628  1.00  0.00    -0.203 F 
ATOM    106  F   UNL A   1      39.076  24.741  27.606  1.00  0.00    -0.200 F 
ATOM    107  C   UNL A   1      40.493  26.272  26.501  1.00  0.00     0.200 A 
ATOM    108  F   UNL A   1      41.914  27.834  25.442  1.00  0.00    -0.200 F 
ATOM    109  F   UNL A   1      40.533  25.481  25.421  1.00  0.00    -0.200 F 
ENDBRANCH  71  99
BRANCH  86 110
ATOM    110  C   UNL A   1      43.689  28.293  34.906  1.00  0.00     0.064 A 
ATOM    111  C   UNL A   1      43.445  27.099  35.599  1.00  0.00     0.173 A 
ATOM    112  C   UNL A   1      45.022  28.691  34.725  1.00  0.00     0.173 A 
ATOM    113  F   UNL A   1      42.186  26.685  35.808  1.00  0.00    -0.203 F 
ATOM    114  C   UNL A   1      44.496  26.336  36.097  1.00  0.00     0.198 A 
ATOM    115  C   UNL A   1      46.071  27.912  35.204  1.00  0.00     0.198 A 
ATOM    116  F   UNL A   1      45.306  29.822  34.064  1.00  0.00    -0.203 F 
ATOM    117  F   UNL A   1      44.240  25.211  36.781  1.00  0.00    -0.200 F 
ATOM    118  C   UNL A   1      45.808  26.737  35.891  1.00  0.00     0.200 A 
ATOM    119  F   UNL A   1      47.339  28.295  34.992  1.00  0.00    -0.200 F 
ATOM    120  F   UNL A   1      46.819  25.991  36.357  1.00  0.00    -0.200 F 
ENDBRANCH  86 110
ENDBRANCH  51  54
ENDBRANCH  41  44
ENDBRANCH  37  40
ENDBRANCH  34  37
ENDBRANCH  31  34
ENDBRANCH   1  31
TORSDOF 15
ENDMDL
MODEL 2
REMARK VINA RESULT:     -12.0      0.742      1.801
REMARK SMILES O=C(Cc1ccn(C(F)F)c(=O)c1)NCCCCCCNC(=O)c1ccc(-c2c3nc(c(-c4c(F)c(F)c(F)c(F)c4F)c4ccc([nH]4)c(-c4c(F)c(F)c(F)c(F)c4F)c4nc(c(-c5c(F)c(F)c(F)c(F)c5F)c5ccc2[nH]5)C=C4)C=C3)cc1
REMARK SMILES IDX 17 1 16 4 15 7 14 10 1 11 2 12 3 14 4 17 5 18 13 19 6 20
REMARK SMILES IDX 11 22 7 24 12 26 8 27 9 28 10 29 18 31 19 34 20 37 21 40
REMARK SMILES IDX 22 41 23 43 24 44 25 45 86 46 26 47 85 49 27 51 28 54 29 55
REMARK SMILES IDX 79 56 30 57 84 58 78 59 80 60 31 61 83 62 77 64 76 66 32 68
REMARK SMILES IDX 64 71 44 72 63 73 45 74 48 75 62 76 81 77 46 78 47 80 61 82
REMARK SMILES IDX 82 83 49 86 33 88 34 89 42 90 35 91 36 92 40 93 43 94 37 95
REMARK SMILES IDX 38 96 41 97 39 98 65 99 66 100 74 101 67 102 68 103 72 104
REMARK SMILES IDX 75 105 69 106 70 107 73 108 71 109 50 110 51 111 59 112
REMARK SMILES IDX 52 113 53 114 57 115 60 116 54 117 55 118 58 119 56 120
REMARK H PARENT 17 2 17 3 16 5 16 6 15 8 15 9 14 13 3 15 3 16 5 21 13 23 6 25
REMARK H PARENT 8 30 18 32 18 33 19 35 19 36 20 38 20 39 21 42 25 48 86 50
REMARK H PARENT 26 52 85 53 84 63 78 65 80 67 83 69 77 70 45 79 48 81 81 84
REMARK H PARENT 46 85 82 87
REMARK Flexibility Score: inf
ROOT
ATOM      1  C   UNL A   1      32.706  30.008  25.728  1.00  0.00    -0.052 C 
ATOM      2  H   UNL A   1      32.336  29.605  24.809  1.00  0.00     0.027 H 
ATOM      3  H   UNL A   1      33.410  30.804  25.601  1.00  0.00     0.027 H 
ENDROOT
BRANCH   1   4
ATOM      4  C   UNL A   1      33.461  28.893  26.463  1.00  0.00    -0.036 C 
ATOM      5  H   UNL A   1      34.466  29.222  26.623  1.00  0.00     0.028 H 
ATOM      6  H   UNL A   1      32.925  28.715  27.372  1.00  0.00     0.028 H 
BRANCH   4   7
ATOM      7  C   UNL A   1      33.510  27.556  25.727  1.00  0.00     0.017 C 
ATOM      8  H   UNL A   1      34.324  27.573  25.032  1.00  0.00     0.049 H 
ATOM      9  H   UNL A   1      33.641  26.781  26.453  1.00  0.00     0.049 H 
BRANCH   7  10
ATOM     10  N   UNL A   1      32.283  27.297  25.005  1.00  0.00    -0.356 N 
ATOM     11  O   UNL A   1      33.278  26.699  23.022  1.00  0.00    -0.275 OA
ATOM     12  C   UNL A   1      32.266  26.880  23.692  1.00  0.00     0.224 C 
ATOM     13  H   UNL A   1      31.424  27.424  25.471  1.00  0.00     0.163 HD
BRANCH  12  14
ATOM     14  C   UNL A   1      30.865  26.636  23.142  1.00  0.00     0.052 C 
ATOM     15  H   UNL A   1      30.346  26.005  23.834  1.00  0.00     0.042 H 
ATOM     16  H   UNL A   1      31.006  26.198  22.175  1.00  0.00     0.042 H 
BRANCH  14  17
ATOM     17  C   UNL A   1      30.020  27.868  22.913  1.00  0.00    -0.032 A 
ATOM     18  C   UNL A   1      30.580  29.092  22.372  1.00  0.00    -0.042 A 
ATOM     19  C   UNL A   1      28.711  27.845  23.224  1.00  0.00     0.007 A 
ATOM     20  C   UNL A   1      29.805  30.166  22.171  1.00  0.00     0.013 A 
ATOM     21  H   UNL A   1      31.585  29.137  22.140  1.00  0.00     0.064 H 
ATOM     22  C   UNL A   1      27.840  29.038  23.032  1.00  0.00     0.255 A 
ATOM     23  H   UNL A   1      28.300  26.978  23.606  1.00  0.00     0.068 H 
ATOM     24  N   UNL A   1      28.460  30.149  22.486  1.00  0.00    -0.258 N 
ATOM     25  H   UNL A   1      30.221  31.023  21.774  1.00  0.00     0.082 H 
ATOM     26  O   UNL A   1      26.660  28.959  23.356  1.00  0.00    -0.269 OA
BRANCH  24  27
ATOM     27  C   UNL A   1      27.654  31.330  22.315  1.00  0.00     0.321 C 
ATOM     28  F   UNL A   1      27.392  31.925  23.504  1.00  0.00    -0.185 F 
ATOM     29  F   UNL A   1      28.281  32.231  21.522  1.00  0.00    -0.185 F 
ATOM     30  H   UNL A   1      26.737  31.015  21.862  1.00  0.00     0.131 H 
ENDBRANCH  24  27
ENDBRANCH  14  17
ENDBRANCH  12  14
ENDBRANCH   7  10
ENDBRANCH   4   7
ENDBRANCH   1   4
BRANCH   1  31
ATOM     31  C   UNL A   1      31.521  30.617  26.485  1.00  0.00    -0.052 C 
ATOM     32  H   UNL A   1      31.567  30.276  27.499  1.00  0.00     0.027 H 
ATOM     33  H   UNL A   1      30.644  30.297  25.964  1.00  0.00     0.027 H 
BRANCH  31  34
ATOM     34  C   UNL A   1      31.468  32.144  26.503  1.00  0.00    -0.036 C 
ATOM     35  H   UNL A   1      30.541  32.437  26.950  1.00  0.00     0.028 H 
ATOM     36  H   UNL A   1      31.568  32.455  25.484  1.00  0.00     0.028 H 
BRANCH  34  37
ATOM     37  C   UNL A   1      32.598  32.825  27.266  1.00  0.00     0.018 C 
ATOM     38  H   UNL A   1      33.475  32.816  26.653  1.00  0.00     0.049 H 
ATOM     39  H   UNL A   1      32.738  32.281  28.177  1.00  0.00     0.049 H 
BRANCH  37  40
ATOM     40  N   UNL A   1      32.300  34.203  27.626  1.00  0.00    -0.352 N 
ATOM     41  C   UNL A   1      32.913  35.010  28.556  1.00  0.00     0.251 C 
ATOM     42  H   UNL A   1      31.554  34.616  27.135  1.00  0.00     0.163 HD
ATOM     43  O   UNL A   1      32.452  36.119  28.814  1.00  0.00    -0.269 OA
BRANCH  41  44
ATOM     44  C   UNL A   1      34.109  34.524  29.280  1.00  0.00     0.039 A 
ATOM     45  C   UNL A   1      35.386  34.674  28.736  1.00  0.00    -0.049 A 
ATOM     46  C   UNL A   1      33.946  33.886  30.514  1.00  0.00    -0.049 A 
ATOM     47  C   UNL A   1      36.469  34.040  29.335  1.00  0.00    -0.053 A 
ATOM     48  H   UNL A   1      35.525  35.253  27.893  1.00  0.00     0.063 H 
ATOM     49  C   UNL A   1      35.052  33.324  31.159  1.00  0.00    -0.053 A 
ATOM     50  H   UNL A   1      33.010  33.831  30.947  1.00  0.00     0.063 H 
ATOM     51  C   UNL A   1      36.315  33.351  30.549  1.00  0.00    -0.014 A 
ATOM     52  H   UNL A   1      37.395  34.076  28.881  1.00  0.00     0.063 H 
ATOM     53  H   UNL A   1      34.938  32.886  32.087  1.00  0.00     0.063 H 
BRANCH  51  54
ATOM     54  C   UNL A   1      37.491  32.671  31.153  1.00  0.00     0.031 A 
ATOM     55  C   UNL A   1      37.940  32.999  32.551  1.00  0.00     0.074 A 
ATOM     56  C   UNL A   1      38.114  31.701  30.457  1.00  0.00     0.049 A 
ATOM     57  N   UNL A   1      38.903  32.459  33.256  1.00  0.00    -0.248 NA
ATOM     58  C   UNL A   1      37.219  34.072  33.252  1.00  0.00    -0.034 C 
ATOM     59  C   UNL A   1      37.769  31.291  29.095  1.00  0.00    -0.036 A 
ATOM     60  N   UNL A   1      39.141  30.860  30.807  1.00  0.00    -0.354 N 
ATOM     61  C   UNL A   1      38.911  33.130  34.471  1.00  0.00     0.074 A 
ATOM     62  C   UNL A   1      37.880  34.142  34.401  1.00  0.00    -0.034 C 
ATOM     63  H   UNL A   1      36.409  34.627  32.935  1.00  0.00     0.065 H 
ATOM     64  C   UNL A   1      38.523  30.239  28.749  1.00  0.00    -0.036 A 
ATOM     65  H   UNL A   1      37.058  31.741  28.497  1.00  0.00     0.065 H 
ATOM     66  C   UNL A   1      39.444  29.934  29.839  1.00  0.00     0.049 A 
ATOM     67  H   UNL A   1      39.613  30.916  31.668  1.00  0.00     0.167 HD
ATOM     68  C   UNL A   1      39.697  32.911  35.552  1.00  0.00     0.037 A 
ATOM     69  H   UNL A   1      37.683  34.828  35.146  1.00  0.00     0.065 H 
ATOM     70  H   UNL A   1      38.461  29.725  27.855  1.00  0.00     0.065 H 
ATOM     71  C   UNL A   1      40.364  28.951  29.826  1.00  0.00     0.037 A 
ATOM     72  C   UNL A   1      40.707  31.889  35.631  1.00  0.00     0.049 A 
ATOM     73  C   UNL A   1      41.246  28.755  31.026  1.00  0.00     0.074 A 
ATOM     74  C   UNL A   1      41.536  31.576  36.695  1.00  0.00    -0.036 A 
ATOM     75  N   UNL A   1      41.027  31.012  34.604  1.00  0.00    -0.354 N 
ATOM     76  N   UNL A   1      41.231  29.388  32.173  1.00  0.00    -0.248 NA
ATOM     77  C   UNL A   1      42.281  27.716  30.925  1.00  0.00    -0.034 C 
ATOM     78  C   UNL A   1      42.384  30.538  36.299  1.00  0.00    -0.036 A 
ATOM     79  H   UNL A   1      41.527  32.030  37.622  1.00  0.00     0.065 H 
ATOM     80  C   UNL A   1      42.055  30.173  35.004  1.00  0.00     0.049 A 
ATOM     81  H   UNL A   1      40.589  30.990  33.723  1.00  0.00     0.167 HD
ATOM     82  C   UNL A   1      42.242  28.819  32.934  1.00  0.00     0.074 A 
ATOM     83  C   UNL A   1      42.840  27.777  32.126  1.00  0.00    -0.034 C 
ATOM     84  H   UNL A   1      42.512  27.101  30.128  1.00  0.00     0.065 H 
ATOM     85  H   UNL A   1      43.129  30.114  36.875  1.00  0.00     0.065 H 
ATOM     86  C   UNL A   1      42.640  29.139  34.190  1.00  0.00     0.037 A 
ATOM     87  H   UNL A   1      43.604  27.159  32.444  1.00  0.00     0.065 H 
BRANCH  68  88
ATOM     88  C   UNL A   1      39.503  33.793  36.751  1.00  0.00     0.064 A 
ATOM     89  C   UNL A   1      38.680  33.408  37.820  1.00  0.00     0.173 A 
ATOM     90  C   UNL A   1      40.208  35.002  36.868  1.00  0.00     0.173 A 
ATOM     91  F   UNL A   1      37.978  32.267  37.753  1.00  0.00    -0.203 F 
ATOM     92  C   UNL A   1      38.558  34.207  38.954  1.00  0.00     0.198 A 
ATOM     93  C   UNL A   1      40.102  35.785  38.015  1.00  0.00     0.198 A 
ATOM     94  F   UNL A   1      41.014  35.412  35.878  1.00  0.00    -0.203 F 
ATOM     95  F   UNL A   1      37.742  33.834  39.950  1.00  0.00    -0.200 F 
ATOM     96  C   UNL A   1      39.276  35.390  39.055  1.00  0.00     0.200 A 
ATOM     97  F   UNL A   1      40.807  36.921  38.115  1.00  0.00    -0.200 F 
ATOM     98  F   UNL A   1      39.168  36.148  40.154  1.00  0.00    -0.200 F 
ENDBRANCH  68  88
BRANCH  71  99
ATOM     99  C   UNL A   1      40.473  28.069  28.637  1.00  0.00     0.064 A 
ATOM    100  C   UNL A   1      41.274  28.432  27.546  1.00  0.00     0.173 A 
ATOM    101  C   UNL A   1      39.817  26.831  28.584  1.00  0.00     0.173 A 
ATOM    102  F   UNL A   1      41.905  29.616  27.543  1.00  0.00    -0.203 F 
ATOM    103  C   UNL A   1      41.413  27.589  26.445  1.00  0.00     0.198 A 
ATOM    104  C   UNL A   1      39.979  25.977  27.496  1.00  0.00     0.198 A 
ATOM    105  F   UNL A   1      39.042  26.438  29.606  1.00  0.00    -0.203 F 
ATOM    106  F   UNL A   1      42.165  27.969  25.404  1.00  0.00    -0.200 F 
ATOM    107  C   UNL A   1      40.774  26.358  26.426  1.00  0.00     0.200 A 
ATOM    108  F   UNL A   1      39.373  24.782  27.489  1.00  0.00    -0.200 F 
ATOM    109  F   UNL A   1      40.924  25.540  25.376  1.00  0.00    -0.200 F 
ENDBRANCH  71  99
BRANCH  86 110
ATOM    110  C   UNL A   1      43.770  28.350  34.781  1.00  0.00     0.064 A 
ATOM    111  C   UNL A   1      45.095  28.797  34.693  1.00  0.00     0.173 A 
ATOM    112  C   UNL A   1      43.516  27.178  35.508  1.00  0.00     0.173 A 
ATOM    113  F   UNL A   1      45.389  29.906  33.997  1.00  0.00    -0.203 F 
ATOM    114  C   UNL A   1      46.128  28.095  35.306  1.00  0.00     0.198 A 
ATOM    115  C   UNL A   1      44.548  26.490  36.140  1.00  0.00     0.198 A 
ATOM    116  F   UNL A   1      42.263  26.712  35.625  1.00  0.00    -0.203 F 
ATOM    117  F   UNL A   1      47.392  28.525  35.187  1.00  0.00    -0.200 F 
ATOM    118  C   UNL A   1      45.853  26.948  36.037  1.00  0.00     0.200 A 
ATOM    119  F   UNL A   1      44.278  25.390  36.856  1.00  0.00    -0.200 F 
ATOM    120  F   UNL A   1      46.847  26.282  36.640  1.00  0.00    -0.200 F 
ENDBRANCH  86 110
ENDBRANCH  51  54
ENDBRANCH  41  44
ENDBRANCH  37  40
ENDBRANCH  34  37
ENDBRANCH  31  34
ENDBRANCH   1  31
TORSDOF 15
ENDMDL
MODEL 3
REMARK VINA RESULT:     -11.9      6.540     11.875
REMARK SMILES O=C(Cc1ccn(C(F)F)c(=O)c1)NCCCCCCNC(=O)c1ccc(-c2c3nc(c(-c4c(F)c(F)c(F)c(F)c4F)c4ccc([nH]4)c(-c4c(F)c(F)c(F)c(F)c4F)c4nc(c(-c5c(F)c(F)c(F)c(F)c5F)c5ccc2[nH]5)C=C4)C=C3)cc1
REMARK SMILES IDX 17 1 16 4 15 7 14 10 1 11 2 12 3 14 4 17 5 18 13 19 6 20
REMARK SMILES IDX 11 22 7 24 12 26 8 27 9 28 10 29 18 31 19 34 20 37 21 40
REMARK SMILES IDX 22 41 23 43 24 44 25 45 86 46 26 47 85 49 27 51 28 54 29 55
REMARK SMILES IDX 79 56 30 57 84 58 78 59 80 60 31 61 83 62 77 64 76 66 32 68
REMARK SMILES IDX 64 71 44 72 63 73 45 74 48 75 62 76 81 77 46 78 47 80 61 82
REMARK SMILES IDX 82 83 49 86 33 88 34 89 42 90 35 91 36 92 40 93 43 94 37 95
REMARK SMILES IDX 38 96 41 97 39 98 65 99 66 100 74 101 67 102 68 103 72 104
REMARK SMILES IDX 75 105 69 106 70 107 73 108 71 109 50 110 51 111 59 112
REMARK SMILES IDX 52 113 53 114 57 115 60 116 54 117 55 118 58 119 56 120
REMARK H PARENT 17 2 17 3 16 5 16 6 15 8 15 9 14 13 3 15 3 16 5 21 13 23 6 25
REMARK H PARENT 8 30 18 32 18 33 19 35 19 36 20 38 20 39 21 42 25 48 86 50
REMARK H PARENT 26 52 85 53 84 63 78 65 80 67 83 69 77 70 45 79 48 81 81 84
REMARK H PARENT 46 85 82 87
REMARK Flexibility Score: inf
ROOT
ATOM      1  C   UNL A   1      36.465  21.933  25.464  1.00  0.00    -0.052 C 
ATOM      2  H   UNL A   1      35.418  21.740  25.352  1.00  0.00     0.027 H 
ATOM      3  H   UNL A   1      36.867  21.619  26.405  1.00  0.00     0.027 H 
ENDROOT
BRANCH   1   4
ATOM      4  C   UNL A   1      36.672  23.452  25.407  1.00  0.00    -0.036 C 
ATOM      5  H   UNL A   1      36.893  23.795  26.396  1.00  0.00     0.028 H 
ATOM      6  H   UNL A   1      37.470  23.621  24.713  1.00  0.00     0.028 H 
BRANCH   4   7
ATOM      7  C   UNL A   1      35.477  24.246  24.885  1.00  0.00     0.017 C 
ATOM      8  H   UNL A   1      35.299  25.075  25.538  1.00  0.00     0.049 H 
ATOM      9  H   UNL A   1      35.705  24.579  23.894  1.00  0.00     0.049 H 
BRANCH   7  10
ATOM     10  N   UNL A   1      34.280  23.433  24.824  1.00  0.00    -0.356 N 
ATOM     11  O   UNL A   1      34.183  23.299  22.533  1.00  0.00    -0.275 OA
ATOM     12  C   UNL A   1      33.724  23.017  23.635  1.00  0.00     0.224 C 
ATOM     13  H   UNL A   1      33.846  23.168  25.667  1.00  0.00     0.163 HD
BRANCH  12  14
ATOM     14  C   UNL A   1      32.485  22.144  23.807  1.00  0.00     0.052 C 
ATOM     15  H   UNL A   1      31.813  22.366  23.004  1.00  0.00     0.042 H 
ATOM     16  H   UNL A   1      32.098  22.377  24.777  1.00  0.00     0.042 H 
BRANCH  14  17
ATOM     17  C   UNL A   1      32.725  20.651  23.811  1.00  0.00    -0.032 A 
ATOM     18  C   UNL A   1      33.419  19.989  24.900  1.00  0.00    -0.042 A 
ATOM     19  C   UNL A   1      32.294  19.904  22.778  1.00  0.00     0.007 A 
ATOM     20  C   UNL A   1      33.608  18.664  24.882  1.00  0.00     0.013 A 
ATOM     21  H   UNL A   1      33.770  20.545  25.696  1.00  0.00     0.064 H 
ATOM     22  C   UNL A   1      32.519  18.433  22.729  1.00  0.00     0.255 A 
ATOM     23  H   UNL A   1      31.795  20.364  22.000  1.00  0.00     0.068 H 
ATOM     24  N   UNL A   1      33.167  17.890  23.826  1.00  0.00    -0.258 N 
ATOM     25  H   UNL A   1      34.093  18.211  25.673  1.00  0.00     0.082 H 
ATOM     26  O   UNL A   1      32.122  17.812  21.748  1.00  0.00    -0.269 OA
BRANCH  24  27
ATOM     27  C   UNL A   1      33.428  16.474  23.797  1.00  0.00     0.321 C 
ATOM     28  F   UNL A   1      34.739  16.209  24.015  1.00  0.00    -0.185 F 
ATOM     29  F   UNL A   1      32.706  15.831  24.745  1.00  0.00    -0.185 F 
ATOM     30  H   UNL A   1      33.149  16.128  22.824  1.00  0.00     0.131 H 
ENDBRANCH  24  27
ENDBRANCH  14  17
ENDBRANCH  12  14
ENDBRANCH   7  10
ENDBRANCH   4   7
ENDBRANCH   1   4
BRANCH   1  31
ATOM     31  C   UNL A   1      37.210  21.122  24.400  1.00  0.00    -0.052 C 
ATOM     32  H   UNL A   1      37.921  21.769  23.930  1.00  0.00     0.027 H 
ATOM     33  H   UNL A   1      36.459  20.753  23.732  1.00  0.00     0.027 H 
BRANCH  31  34
ATOM     34  C   UNL A   1      37.957  19.893  24.914  1.00  0.00    -0.036 C 
ATOM     35  H   UNL A   1      38.301  19.336  24.068  1.00  0.00     0.028 H 
ATOM     36  H   UNL A   1      37.261  19.357  25.525  1.00  0.00     0.028 H 
BRANCH  34  37
ATOM     37  C   UNL A   1      39.159  20.189  25.805  1.00  0.00     0.018 C 
ATOM     38  H   UNL A   1      38.811  20.339  26.806  1.00  0.00     0.049 H 
ATOM     39  H   UNL A   1      39.638  21.061  25.411  1.00  0.00     0.049 H 
BRANCH  37  40
ATOM     40  N   UNL A   1      40.146  19.120  25.813  1.00  0.00    -0.352 N 
ATOM     41  C   UNL A   1      41.502  19.191  26.035  1.00  0.00     0.251 C 
ATOM     42  H   UNL A   1      39.794  18.219  25.635  1.00  0.00     0.163 HD
ATOM     43  O   UNL A   1      42.206  18.196  25.888  1.00  0.00    -0.269 OA
BRANCH  41  44
ATOM     44  C   UNL A   1      42.121  20.482  26.412  1.00  0.00     0.039 A 
ATOM     45  C   UNL A   1      42.096  20.929  27.734  1.00  0.00    -0.049 A 
ATOM     46  C   UNL A   1      42.716  21.268  25.419  1.00  0.00    -0.049 A 
ATOM     47  C   UNL A   1      42.506  22.225  28.031  1.00  0.00    -0.053 A 
ATOM     48  H   UNL A   1      41.775  20.301  28.487  1.00  0.00     0.063 H 
ATOM     49  C   UNL A   1      43.207  22.537  25.737  1.00  0.00    -0.053 A 
ATOM     50  H   UNL A   1      42.791  20.910  24.453  1.00  0.00     0.063 H 
ATOM     51  C   UNL A   1      43.059  23.047  27.035  1.00  0.00    -0.014 A 
ATOM     52  H   UNL A   1      42.401  22.585  28.992  1.00  0.00     0.063 H 
ATOM     53  H   UNL A   1      43.679  23.102  25.013  1.00  0.00     0.063 H 
BRANCH  51  54
ATOM     54  C   UNL A   1      43.471  24.433  27.385  1.00  0.00     0.031 A 
ATOM     55  C   UNL A   1      44.869  24.916  27.108  1.00  0.00     0.074 A 
ATOM     56  C   UNL A   1      42.555  25.280  27.890  1.00  0.00     0.049 A 
ATOM     57  N   UNL A   1      45.380  26.109  27.289  1.00  0.00    -0.248 NA
ATOM     58  C   UNL A   1      45.820  23.937  26.560  1.00  0.00    -0.034 C 
ATOM     59  C   UNL A   1      41.168  24.929  28.199  1.00  0.00    -0.036 A 
ATOM     60  N   UNL A   1      42.638  26.614  28.202  1.00  0.00    -0.354 N 
ATOM     61  C   UNL A   1      46.707  26.021  26.890  1.00  0.00     0.074 A 
ATOM     62  C   UNL A   1      46.937  24.651  26.488  1.00  0.00    -0.034 C 
ATOM     63  H   UNL A   1      45.662  22.952  26.298  1.00  0.00     0.065 H 
ATOM     64  C   UNL A   1      40.514  26.031  28.593  1.00  0.00    -0.036 A 
ATOM     65  H   UNL A   1      40.759  23.984  28.125  1.00  0.00     0.065 H 
ATOM     66  C   UNL A   1      41.446  27.153  28.621  1.00  0.00     0.049 A 
ATOM     67  H   UNL A   1      43.470  27.133  28.131  1.00  0.00     0.167 HD
ATOM     68  C   UNL A   1      47.643  26.999  26.848  1.00  0.00     0.037 A 
ATOM     69  H   UNL A   1      47.850  24.277  26.184  1.00  0.00     0.065 H 
ATOM     70  H   UNL A   1      39.512  26.078  28.836  1.00  0.00     0.065 H 
ATOM     71  C   UNL A   1      41.136  28.410  28.990  1.00  0.00     0.037 A 
ATOM     72  C   UNL A   1      47.407  28.368  27.226  1.00  0.00     0.049 A 
ATOM     73  C   UNL A   1      42.204  29.466  28.969  1.00  0.00     0.074 A 
ATOM     74  C   UNL A   1      48.289  29.435  27.193  1.00  0.00    -0.036 A 
ATOM     75  N   UNL A   1      46.202  28.860  27.705  1.00  0.00    -0.354 N 
ATOM     76  N   UNL A   1      43.450  29.372  28.574  1.00  0.00    -0.248 NA
ATOM     77  C   UNL A   1      41.827  30.801  29.454  1.00  0.00    -0.034 C 
ATOM     78  C   UNL A   1      47.630  30.563  27.690  1.00  0.00    -0.036 A 
ATOM     79  H   UNL A   1      49.264  29.404  26.856  1.00  0.00     0.065 H 
ATOM     80  C   UNL A   1      46.325  30.211  27.991  1.00  0.00     0.049 A 
ATOM     81  H   UNL A   1      45.382  28.329  27.825  1.00  0.00     0.167 HD
ATOM     82  C   UNL A   1      44.002  30.632  28.752  1.00  0.00     0.074 A 
ATOM     83  C   UNL A   1      42.951  31.481  29.273  1.00  0.00    -0.034 C 
ATOM     84  H   UNL A   1      40.923  31.125  29.836  1.00  0.00     0.065 H 
ATOM     85  H   UNL A   1      48.046  31.500  27.812  1.00  0.00     0.065 H 
ATOM     86  C   UNL A   1      45.270  31.044  28.508  1.00  0.00     0.037 A 
ATOM     87  H   UNL A   1      43.062  32.487  29.476  1.00  0.00     0.065 H 
BRANCH  68  88
ATOM     88  C   UNL A   1      49.020  26.633  26.376  1.00  0.00     0.064 A 
ATOM     89  C   UNL A   1      49.414  26.824  25.044  1.00  0.00     0.173 A 
ATOM     90  C   UNL A   1      49.981  26.158  27.282  1.00  0.00     0.173 A 
ATOM     91  F   UNL A   1      48.531  27.266  24.136  1.00  0.00    -0.203 F 
ATOM     92  C   UNL A   1      50.714  26.539  24.633  1.00  0.00     0.198 A 
ATOM     93  C   UNL A   1      51.287  25.899  26.873  1.00  0.00     0.198 A 
ATOM     94  F   UNL A   1      49.659  25.966  28.570  1.00  0.00    -0.203 F 
ATOM     95  F   UNL A   1      51.059  26.700  23.347  1.00  0.00    -0.200 F 
ATOM     96  C   UNL A   1      51.651  26.086  25.549  1.00  0.00     0.200 A 
ATOM     97  F   UNL A   1      52.194  25.474  27.763  1.00  0.00    -0.200 F 
ATOM     98  F   UNL A   1      52.905  25.827  25.154  1.00  0.00    -0.200 F 
ENDBRANCH  68  88
BRANCH  71  99
ATOM     99  C   UNL A   1      39.744  28.731  29.392  1.00  0.00     0.064 A 
ATOM    100  C   UNL A   1      38.816  29.200  28.453  1.00  0.00     0.173 A 
ATOM    101  C   UNL A   1      39.301  28.534  30.708  1.00  0.00     0.173 A 
ATOM    102  F   UNL A   1      39.199  29.421  27.186  1.00  0.00    -0.203 F 
ATOM    103  C   UNL A   1      37.496  29.462  28.816  1.00  0.00     0.198 A 
ATOM    104  C   UNL A   1      37.975  28.770  31.063  1.00  0.00     0.198 A 
ATOM    105  F   UNL A   1      40.151  28.083  31.642  1.00  0.00    -0.203 F 
ATOM    106  F   UNL A   1      36.635  29.933  27.905  1.00  0.00    -0.200 F 
ATOM    107  C   UNL A   1      37.074  29.237  30.118  1.00  0.00     0.200 A 
ATOM    108  F   UNL A   1      37.568  28.536  32.318  1.00  0.00    -0.200 F 
ATOM    109  F   UNL A   1      35.801  29.471  30.461  1.00  0.00    -0.200 F 
ENDBRANCH  71  99
BRANCH  86 110
ATOM    110  C   UNL A   1      45.598  32.480  28.790  1.00  0.00     0.064 A 
ATOM    111  C   UNL A   1      45.386  33.478  27.830  1.00  0.00     0.173 A 
ATOM    112  C   UNL A   1      46.056  32.869  30.058  1.00  0.00     0.173 A 
ATOM    113  F   UNL A   1      44.961  33.153  26.600  1.00  0.00    -0.203 F 
ATOM    114  C   UNL A   1      45.627  34.816  28.126  1.00  0.00     0.198 A 
ATOM    115  C   UNL A   1      46.273  34.211  30.358  1.00  0.00     0.198 A 
ATOM    116  F   UNL A   1      46.269  31.951  31.012  1.00  0.00    -0.203 F 
ATOM    117  F   UNL A   1      45.443  35.753  27.185  1.00  0.00    -0.200 F 
ATOM    118  C   UNL A   1      46.061  35.183  29.392  1.00  0.00     0.200 A 
ATOM    119  F   UNL A   1      46.680  34.564  31.586  1.00  0.00    -0.200 F 
ATOM    120  F   UNL A   1      46.277  36.474  29.680  1.00  0.00    -0.200 F 
ENDBRANCH  86 110
ENDBRANCH  51  54
ENDBRANCH  41  44
ENDBRANCH  37  40
ENDBRANCH  34  37
ENDBRANCH  31  34
ENDBRANCH   1  31
TORSDOF 15
ENDMDL
MODEL 4
REMARK VINA RESULT:     -11.9      6.601     10.860
REMARK SMILES O=C(Cc1ccn(C(F)F)c(=O)c1)NCCCCCCNC(=O)c1ccc(-c2c3nc(c(-c4c(F)c(F)c(F)c(F)c4F)c4ccc([nH]4)c(-c4c(F)c(F)c(F)c(F)c4F)c4nc(c(-c5c(F)c(F)c(F)c(F)c5F)c5ccc2[nH]5)C=C4)C=C3)cc1
REMARK SMILES IDX 17 1 16 4 15 7 14 10 1 11 2 12 3 14 4 17 5 18 13 19 6 20
REMARK SMILES IDX 11 22 7 24 12 26 8 27 9 28 10 29 18 31 19 34 20 37 21 40
REMARK SMILES IDX 22 41 23 43 24 44 25 45 86 46 26 47 85 49 27 51 28 54 29 55
REMARK SMILES IDX 79 56 30 57 84 58 78 59 80 60 31 61 83 62 77 64 76 66 32 68
REMARK SMILES IDX 64 71 44 72 63 73 45 74 48 75 62 76 81 77 46 78 47 80 61 82
REMARK SMILES IDX 82 83 49 86 33 88 34 89 42 90 35 91 36 92 40 93 43 94 37 95
REMARK SMILES IDX 38 96 41 97 39 98 65 99 66 100 74 101 67 102 68 103 72 104
REMARK SMILES IDX 75 105 69 106 70 107 73 108 71 109 50 110 51 111 59 112
REMARK SMILES IDX 52 113 53 114 57 115 60 116 54 117 55 118 58 119 56 120
REMARK H PARENT 17 2 17 3 16 5 16 6 15 8 15 9 14 13 3 15 3 16 5 21 13 23 6 25
REMARK H PARENT 8 30 18 32 18 33 19 35 19 36 20 38 20 39 21 42 25 48 86 50
REMARK H PARENT 26 52 85 53 84 63 78 65 80 67 83 69 77 70 45 79 48 81 81 84
REMARK H PARENT 46 85 82 87
REMARK Flexibility Score: inf
ROOT
ATOM      1  C   UNL A   1      36.601  22.036  25.654  1.00  0.00    -0.052 C 
ATOM      2  H   UNL A   1      35.560  21.791  25.609  1.00  0.00     0.027 H 
ATOM      3  H   UNL A   1      37.083  21.722  26.556  1.00  0.00     0.027 H 
ENDROOT
BRANCH   1   4
ATOM      4  C   UNL A   1      36.727  23.565  25.623  1.00  0.00    -0.036 C 
ATOM      5  H   UNL A   1      36.807  23.912  26.632  1.00  0.00     0.028 H 
ATOM      6  H   UNL A   1      37.592  23.783  25.030  1.00  0.00     0.028 H 
BRANCH   4   7
ATOM      7  C   UNL A   1      35.560  24.294  24.961  1.00  0.00     0.017 C 
ATOM      8  H   UNL A   1      35.324  25.165  25.537  1.00  0.00     0.049 H 
ATOM      9  H   UNL A   1      35.854  24.559  23.967  1.00  0.00     0.049 H 
BRANCH   7  10
ATOM     10  N   UNL A   1      34.384  23.455  24.877  1.00  0.00    -0.356 N 
ATOM     11  O   UNL A   1      34.401  23.226  22.591  1.00  0.00    -0.275 OA
ATOM     12  C   UNL A   1      33.894  22.980  23.680  1.00  0.00     0.224 C 
ATOM     13  H   UNL A   1      33.914  23.215  25.709  1.00  0.00     0.163 HD
BRANCH  12  14
ATOM     14  C   UNL A   1      32.665  22.088  23.829  1.00  0.00     0.052 C 
ATOM     15  H   UNL A   1      31.993  22.321  23.029  1.00  0.00     0.042 H 
ATOM     16  H   UNL A   1      32.273  22.295  24.803  1.00  0.00     0.042 H 
BRANCH  14  17
ATOM     17  C   UNL A   1      32.922  20.598  23.800  1.00  0.00    -0.032 A 
ATOM     18  C   UNL A   1      33.811  19.955  24.749  1.00  0.00    -0.042 A 
ATOM     19  C   UNL A   1      32.322  19.837  22.866  1.00  0.00     0.007 A 
ATOM     20  C   UNL A   1      34.011  18.632  24.706  1.00  0.00     0.013 A 
ATOM     21  H   UNL A   1      34.292  20.522  25.465  1.00  0.00     0.064 H 
ATOM     22  C   UNL A   1      32.555  18.368  22.787  1.00  0.00     0.255 A 
ATOM     23  H   UNL A   1      31.684  20.283  22.188  1.00  0.00     0.068 H 
ATOM     24  N   UNL A   1      33.397  17.844  23.752  1.00  0.00    -0.258 N 
ATOM     25  H   UNL A   1      34.638  18.192  25.399  1.00  0.00     0.082 H 
ATOM     26  O   UNL A   1      31.995  17.734  21.899  1.00  0.00    -0.269 OA
BRANCH  24  27
ATOM     27  C   UNL A   1      33.668  16.430  23.686  1.00  0.00     0.321 C 
ATOM     28  F   UNL A   1      34.497  16.134  22.655  1.00  0.00    -0.185 F 
ATOM     29  F   UNL A   1      34.248  15.996  24.830  1.00  0.00    -0.185 F 
ATOM     30  H   UNL A   1      32.727  15.942  23.541  1.00  0.00     0.131 H 
ENDBRANCH  24  27
ENDBRANCH  14  17
ENDBRANCH  12  14
ENDBRANCH   7  10
ENDBRANCH   4   7
ENDBRANCH   1   4
BRANCH   1  31
ATOM     31  C   UNL A   1      37.309  21.289  24.520  1.00  0.00    -0.052 C 
ATOM     32  H   UNL A   1      38.001  21.966  24.061  1.00  0.00     0.027 H 
ATOM     33  H   UNL A   1      36.537  20.953  23.861  1.00  0.00     0.027 H 
BRANCH  31  34
ATOM     34  C   UNL A   1      38.080  20.038  24.939  1.00  0.00    -0.036 C 
ATOM     35  H   UNL A   1      38.522  19.613  24.062  1.00  0.00     0.028 H 
ATOM     36  H   UNL A   1      37.368  19.396  25.412  1.00  0.00     0.028 H 
BRANCH  34  37
ATOM     37  C   UNL A   1      39.187  20.269  25.962  1.00  0.00     0.018 C 
ATOM     38  H   UNL A   1      38.742  20.332  26.934  1.00  0.00     0.049 H 
ATOM     39  H   UNL A   1      39.687  21.174  25.690  1.00  0.00     0.049 H 
BRANCH  37  40
ATOM     40  N   UNL A   1      40.185  19.210  25.978  1.00  0.00    -0.352 N 
ATOM     41  C   UNL A   1      41.552  19.307  26.092  1.00  0.00     0.251 C 
ATOM     42  H   UNL A   1      39.832  18.296  25.895  1.00  0.00     0.163 HD
ATOM     43  O   UNL A   1      42.257  18.309  25.969  1.00  0.00    -0.269 OA
BRANCH  41  44
ATOM     44  C   UNL A   1      42.181  20.628  26.324  1.00  0.00     0.039 A 
ATOM     45  C   UNL A   1      42.375  21.111  27.619  1.00  0.00    -0.049 A 
ATOM     46  C   UNL A   1      42.561  21.403  25.224  1.00  0.00    -0.049 A 
ATOM     47  C   UNL A   1      42.783  22.427  27.809  1.00  0.00    -0.053 A 
ATOM     48  H   UNL A   1      42.216  20.495  28.432  1.00  0.00     0.063 H 
ATOM     49  C   UNL A   1      43.055  22.697  25.421  1.00  0.00    -0.053 A 
ATOM     50  H   UNL A   1      42.478  21.021  24.268  1.00  0.00     0.063 H 
ATOM     51  C   UNL A   1      43.121  23.238  26.713  1.00  0.00    -0.014 A 
ATOM     52  H   UNL A   1      42.838  22.811  28.765  1.00  0.00     0.063 H 
ATOM     53  H   UNL A   1      43.370  23.255  24.612  1.00  0.00     0.063 H 
BRANCH  51  54
ATOM     54  C   UNL A   1      43.538  24.645  26.953  1.00  0.00     0.031 A 
ATOM     55  C   UNL A   1      42.583  25.644  27.546  1.00  0.00     0.074 A 
ATOM     56  C   UNL A   1      44.811  25.002  26.697  1.00  0.00     0.049 A 
ATOM     57  N   UNL A   1      42.798  26.893  27.881  1.00  0.00    -0.248 NA
ATOM     58  C   UNL A   1      41.206  25.189  27.796  1.00  0.00    -0.034 C 
ATOM     59  C   UNL A   1      45.831  24.122  26.125  1.00  0.00    -0.036 A 
ATOM     60  N   UNL A   1      45.476  26.183  26.916  1.00  0.00    -0.354 N 
ATOM     61  C   UNL A   1      41.588  27.372  28.367  1.00  0.00     0.074 A 
ATOM     62  C   UNL A   1      40.631  26.294  28.255  1.00  0.00    -0.034 C 
ATOM     63  H   UNL A   1      40.795  24.254  27.653  1.00  0.00     0.065 H 
ATOM     64  C   UNL A   1      47.004  24.770  26.098  1.00  0.00    -0.036 A 
ATOM     65  H   UNL A   1      45.672  23.156  25.796  1.00  0.00     0.065 H 
ATOM     66  C   UNL A   1      46.810  26.128  26.594  1.00  0.00     0.049 A 
ATOM     67  H   UNL A   1      45.038  26.991  27.269  1.00  0.00     0.167 HD
ATOM     68  C   UNL A   1      41.308  28.596  28.875  1.00  0.00     0.037 A 
ATOM     69  H   UNL A   1      39.631  26.373  28.499  1.00  0.00     0.065 H 
ATOM     70  H   UNL A   1      47.901  24.371  25.777  1.00  0.00     0.065 H 
ATOM     71  C   UNL A   1      47.772  27.066  26.686  1.00  0.00     0.037 A 
ATOM     72  C   UNL A   1      42.266  29.661  29.009  1.00  0.00     0.049 A 
ATOM     73  C   UNL A   1      47.423  28.426  27.219  1.00  0.00     0.074 A 
ATOM     74  C   UNL A   1      42.079  30.928  29.536  1.00  0.00    -0.036 A 
ATOM     75  N   UNL A   1      43.594  29.586  28.613  1.00  0.00    -0.354 N 
ATOM     76  N   UNL A   1      46.279  28.859  27.689  1.00  0.00    -0.248 NA
ATOM     77  C   UNL A   1      48.495  29.431  27.224  1.00  0.00    -0.034 C 
ATOM     78  C   UNL A   1      43.281  31.632  29.422  1.00  0.00    -0.036 A 
ATOM     79  H   UNL A   1      41.203  31.290  29.945  1.00  0.00     0.065 H 
ATOM     80  C   UNL A   1      44.231  30.790  28.864  1.00  0.00     0.049 A 
ATOM     81  H   UNL A   1      44.019  28.794  28.211  1.00  0.00     0.167 HD
ATOM     82  C   UNL A   1      46.494  30.180  28.057  1.00  0.00     0.074 A 
ATOM     83  C   UNL A   1      47.884  30.473  27.772  1.00  0.00    -0.034 C 
ATOM     84  H   UNL A   1      49.468  29.348  26.890  1.00  0.00     0.065 H 
ATOM     85  H   UNL A   1      43.436  32.613  29.704  1.00  0.00     0.065 H 
ATOM     86  C   UNL A   1      45.614  31.068  28.578  1.00  0.00     0.037 A 
ATOM     87  H   UNL A   1      48.340  31.377  27.971  1.00  0.00     0.065 H 
BRANCH  68  88
ATOM     88  C   UNL A   1      39.902  28.861  29.330  1.00  0.00     0.064 A 
ATOM     89  C   UNL A   1      38.921  29.332  28.445  1.00  0.00     0.173 A 
ATOM     90  C   UNL A   1      39.512  28.568  30.646  1.00  0.00     0.173 A 
ATOM     91  F   UNL A   1      39.245  29.637  27.179  1.00  0.00    -0.203 F 
ATOM     92  C   UNL A   1      37.606  29.514  28.865  1.00  0.00     0.198 A 
ATOM     93  C   UNL A   1      38.190  28.727  31.054  1.00  0.00     0.198 A 
ATOM     94  F   UNL A   1      40.409  28.107  31.531  1.00  0.00    -0.203 F 
ATOM     95  F   UNL A   1      36.692  29.995  28.009  1.00  0.00    -0.200 F 
ATOM     96  C   UNL A   1      37.239  29.203  30.166  1.00  0.00     0.200 A 
ATOM     97  F   UNL A   1      37.835  28.413  32.308  1.00  0.00    -0.200 F 
ATOM     98  F   UNL A   1      35.969  29.364  30.561  1.00  0.00    -0.200 F 
ENDBRANCH  68  88
BRANCH  71  99
ATOM     99  C   UNL A   1      49.158  26.731  26.276  1.00  0.00     0.064 A 
ATOM    100  C   UNL A   1      49.589  26.941  24.960  1.00  0.00     0.173 A 
ATOM    101  C   UNL A   1      50.092  26.238  27.199  1.00  0.00     0.173 A 
ATOM    102  F   UNL A   1      48.726  27.394  24.038  1.00  0.00    -0.203 F 
ATOM    103  C   UNL A   1      50.901  26.668  24.581  1.00  0.00     0.198 A 
ATOM    104  C   UNL A   1      51.411  25.992  26.826  1.00  0.00     0.198 A 
ATOM    105  F   UNL A   1      49.729  26.024  28.472  1.00  0.00    -0.203 F 
ATOM    106  F   UNL A   1      51.281  26.854  23.310  1.00  0.00    -0.200 F 
ATOM    107  C   UNL A   1      51.814  26.204  25.516  1.00  0.00     0.200 A 
ATOM    108  F   UNL A   1      52.293  25.558  27.737  1.00  0.00    -0.200 F 
ATOM    109  F   UNL A   1      53.081  25.959  25.155  1.00  0.00    -0.200 F 
ENDBRANCH  71  99
BRANCH  86 110
ATOM    110  C   UNL A   1      46.121  32.445  28.889  1.00  0.00     0.064 A 
ATOM    111  C   UNL A   1      46.034  33.483  27.951  1.00  0.00     0.173 A 
ATOM    112  C   UNL A   1      46.627  32.746  30.162  1.00  0.00     0.173 A 
ATOM    113  F   UNL A   1      45.570  33.240  26.716  1.00  0.00    -0.203 F 
ATOM    114  C   UNL A   1      46.443  34.773  28.274  1.00  0.00     0.198 A 
ATOM    115  C   UNL A   1      47.012  34.043  30.490  1.00  0.00     0.198 A 
ATOM    116  F   UNL A   1      46.725  31.788  31.095  1.00  0.00    -0.203 F 
ATOM    117  F   UNL A   1      46.376  35.746  27.354  1.00  0.00    -0.200 F 
ATOM    118  C   UNL A   1      46.922  35.054  29.546  1.00  0.00     0.200 A 
ATOM    119  F   UNL A   1      47.463  34.315  31.723  1.00  0.00    -0.200 F 
ATOM    120  F   UNL A   1      47.299  36.302  29.860  1.00  0.00    -0.200 F 
ENDBRANCH  86 110
ENDBRANCH  51  54
ENDBRANCH  41  44
ENDBRANCH  37  40
ENDBRANCH  34  37
ENDBRANCH  31  34
ENDBRANCH   1  31
TORSDOF 15
ENDMDL
MODEL 5
REMARK VINA RESULT:     -11.9      6.465     12.186
REMARK SMILES O=C(Cc1ccn(C(F)F)c(=O)c1)NCCCCCCNC(=O)c1ccc(-c2c3nc(c(-c4c(F)c(F)c(F)c(F)c4F)c4ccc([nH]4)c(-c4c(F)c(F)c(F)c(F)c4F)c4nc(c(-c5c(F)c(F)c(F)c(F)c5F)c5ccc2[nH]5)C=C4)C=C3)cc1
REMARK SMILES IDX 17 1 16 4 15 7 14 10 1 11 2 12 3 14 4 17 5 18 13 19 6 20
REMARK SMILES IDX 11 22 7 24 12 26 8 27 9 28 10 29 18 31 19 34 20 37 21 40
REMARK SMILES IDX 22 41 23 43 24 44 25 45 86 46 26 47 85 49 27 51 28 54 29 55
REMARK SMILES IDX 79 56 30 57 84 58 78 59 80 60 31 61 83 62 77 64 76 66 32 68
REMARK SMILES IDX 64 71 44 72 63 73 45 74 48 75 62 76 81 77 46 78 47 80 61 82
REMARK SMILES IDX 82 83 49 86 33 88 34 89 42 90 35 91 36 92 40 93 43 94 37 95
REMARK SMILES IDX 38 96 41 97 39 98 65 99 66 100 74 101 67 102 68 103 72 104
REMARK SMILES IDX 75 105 69 106 70 107 73 108 71 109 50 110 51 111 59 112
REMARK SMILES IDX 52 113 53 114 57 115 60 116 54 117 55 118 58 119 56 120
REMARK H PARENT 17 2 17 3 16 5 16 6 15 8 15 9 14 13 3 15 3 16 5 21 13 23 6 25
REMARK H PARENT 8 30 18 32 18 33 19 35 19 36 20 38 20 39 21 42 25 48 86 50
REMARK H PARENT 26 52 85 53 84 63 78 65 80 67 83 69 77 70 45 79 48 81 81 84
REMARK H PARENT 46 85 82 87
REMARK Flexibility Score: inf
ROOT
ATOM      1  C   UNL A   1      44.987  20.548  24.616  1.00  0.00    -0.052 C 
ATOM      2  H   UNL A   1      45.500  20.516  23.678  1.00  0.00     0.027 H 
ATOM      3  H   UNL A   1      43.926  20.660  24.528  1.00  0.00     0.027 H 
ENDROOT
BRANCH   1   4
ATOM      4  C   UNL A   1      45.476  21.786  25.379  1.00  0.00    -0.036 C 
ATOM      5  H   UNL A   1      44.619  22.348  25.685  1.00  0.00     0.028 H 
ATOM      6  H   UNL A   1      46.059  21.423  26.200  1.00  0.00     0.028 H 
BRANCH   4   7
ATOM      7  C   UNL A   1      46.392  22.712  24.582  1.00  0.00     0.017 C 
ATOM      8  H   UNL A   1      47.368  22.275  24.530  1.00  0.00     0.049 H 
ATOM      9  H   UNL A   1      45.974  22.835  23.605  1.00  0.00     0.049 H 
BRANCH   7  10
ATOM     10  N   UNL A   1      46.498  24.019  25.196  1.00  0.00    -0.356 N 
ATOM     11  O   UNL A   1      47.814  24.959  23.564  1.00  0.00    -0.275 OA
ATOM     12  C   UNL A   1      47.209  25.052  24.627  1.00  0.00     0.224 C 
ATOM     13  H   UNL A   1      46.043  24.175  26.056  1.00  0.00     0.163 HD
BRANCH  12  14
ATOM     14  C   UNL A   1      47.158  26.349  25.428  1.00  0.00     0.052 C 
ATOM     15  H   UNL A   1      47.761  27.073  24.920  1.00  0.00     0.042 H 
ATOM     16  H   UNL A   1      47.509  26.099  26.408  1.00  0.00     0.042 H 
BRANCH  14  17
ATOM     17  C   UNL A   1      45.784  26.949  25.629  1.00  0.00    -0.032 A 
ATOM     18  C   UNL A   1      44.585  26.302  25.131  1.00  0.00    -0.042 A 
ATOM     19  C   UNL A   1      45.658  28.121  26.278  1.00  0.00     0.007 A 
ATOM     20  C   UNL A   1      43.381  26.852  25.332  1.00  0.00     0.013 A 
ATOM     21  H   UNL A   1      44.660  25.409  24.618  1.00  0.00     0.064 H 
ATOM     22  C   UNL A   1      44.329  28.760  26.487  1.00  0.00     0.255 A 
ATOM     23  H   UNL A   1      46.504  28.589  26.640  1.00  0.00     0.068 H 
ATOM     24  N   UNL A   1      43.243  28.053  25.999  1.00  0.00    -0.258 N 
ATOM     25  H   UNL A   1      42.539  26.369  24.981  1.00  0.00     0.082 H 
ATOM     26  O   UNL A   1      44.283  29.840  27.067  1.00  0.00    -0.269 OA
BRANCH  24  27
ATOM     27  C   UNL A   1      41.945  28.658  26.158  1.00  0.00     0.321 C 
ATOM     28  F   UNL A   1      41.775  29.695  25.302  1.00  0.00    -0.185 F 
ATOM     29  F   UNL A   1      40.961  27.756  25.926  1.00  0.00    -0.185 F 
ATOM     30  H   UNL A   1      41.890  29.012  27.166  1.00  0.00     0.131 H 
ENDBRANCH  24  27
ENDBRANCH  14  17
ENDBRANCH  12  14
ENDBRANCH   7  10
ENDBRANCH   4   7
ENDBRANCH   1   4
BRANCH   1  31
ATOM     31  C   UNL A   1      45.208  19.206  25.320  1.00  0.00    -0.052 C 
ATOM     32  H   UNL A   1      45.519  19.407  26.324  1.00  0.00     0.027 H 
ATOM     33  H   UNL A   1      45.941  18.687  24.740  1.00  0.00     0.027 H 
BRANCH  31  34
ATOM     34  C   UNL A   1      43.989  18.287  25.379  1.00  0.00    -0.036 C 
ATOM     35  H   UNL A   1      44.338  17.280  25.477  1.00  0.00     0.028 H 
ATOM     36  H   UNL A   1      43.441  18.463  24.476  1.00  0.00     0.028 H 
BRANCH  34  37
ATOM     37  C   UNL A   1      43.020  18.565  26.522  1.00  0.00     0.018 C 
ATOM     38  H   UNL A   1      43.351  19.440  27.043  1.00  0.00     0.049 H 
ATOM     39  H   UNL A   1      43.016  17.700  27.152  1.00  0.00     0.049 H 
BRANCH  37  40
ATOM     40  N   UNL A   1      41.652  18.781  26.077  1.00  0.00    -0.352 N 
ATOM     41  C   UNL A   1      40.866  19.904  26.200  1.00  0.00     0.251 C 
ATOM     42  H   UNL A   1      41.229  18.018  25.624  1.00  0.00     0.163 HD
ATOM     43  O   UNL A   1      39.684  19.871  25.867  1.00  0.00    -0.269 OA
BRANCH  41  44
ATOM     44  C   UNL A   1      41.435  21.144  26.775  1.00  0.00     0.039 A 
ATOM     45  C   UNL A   1      41.554  21.303  28.157  1.00  0.00    -0.049 A 
ATOM     46  C   UNL A   1      41.833  22.173  25.916  1.00  0.00    -0.049 A 
ATOM     47  C   UNL A   1      41.905  22.543  28.680  1.00  0.00    -0.053 A 
ATOM     48  H   UNL A   1      41.383  20.504  28.787  1.00  0.00     0.063 H 
ATOM     49  C   UNL A   1      42.269  23.391  26.444  1.00  0.00    -0.053 A 
ATOM     50  H   UNL A   1      41.805  22.032  24.893  1.00  0.00     0.063 H 
ATOM     51  C   UNL A   1      42.259  23.604  27.831  1.00  0.00    -0.014 A 
ATOM     52  H   UNL A   1      41.904  22.684  29.702  1.00  0.00     0.063 H 
ATOM     53  H   UNL A   1      42.598  24.138  25.812  1.00  0.00     0.063 H 
BRANCH  51  54
ATOM     54  C   UNL A   1      42.614  24.921  28.424  1.00  0.00     0.031 A 
ATOM     55  C   UNL A   1      44.048  25.285  28.696  1.00  0.00     0.074 A 
ATOM     56  C   UNL A   1      41.637  25.820  28.651  1.00  0.00     0.049 A 
ATOM     57  N   UNL A   1      44.541  26.412  29.150  1.00  0.00    -0.248 NA
ATOM     58  C   UNL A   1      45.063  24.255  28.430  1.00  0.00    -0.034 C 
ATOM     59  C   UNL A   1      40.211  25.584  28.423  1.00  0.00    -0.036 A 
ATOM     60  N   UNL A   1      41.694  27.120  29.088  1.00  0.00    -0.354 N 
ATOM     61  C   UNL A   1      45.913  26.222  29.233  1.00  0.00     0.074 A 
ATOM     62  C   UNL A   1      46.178  24.863  28.816  1.00  0.00    -0.034 C 
ATOM     63  H   UNL A   1      44.942  23.306  28.043  1.00  0.00     0.065 H 
ATOM     64  C   UNL A   1      39.536  26.718  28.660  1.00  0.00    -0.036 A 
ATOM     65  H   UNL A   1      39.791  24.688  28.127  1.00  0.00     0.065 H 
ATOM     66  C   UNL A   1      40.471  27.743  29.111  1.00  0.00     0.049 A 
ATOM     67  H   UNL A   1      42.531  27.561  29.359  1.00  0.00     0.167 HD
ATOM     68  C   UNL A   1      46.867  27.108  29.608  1.00  0.00     0.037 A 
ATOM     69  H   UNL A   1      47.112  24.422  28.819  1.00  0.00     0.065 H 
ATOM     70  H   UNL A   1      38.518  26.845  28.541  1.00  0.00     0.065 H 
ATOM     71  C   UNL A   1      40.136  29.000  29.460  1.00  0.00     0.037 A 
ATOM     72  C   UNL A   1      46.606  28.468  30.000  1.00  0.00     0.049 A 
ATOM     73  C   UNL A   1      41.210  29.949  29.906  1.00  0.00     0.074 A 
ATOM     74  C   UNL A   1      47.512  29.447  30.371  1.00  0.00    -0.036 A 
ATOM     75  N   UNL A   1      45.346  29.043  30.070  1.00  0.00    -0.354 N 
ATOM     76  N   UNL A   1      42.506  29.761  29.964  1.00  0.00    -0.248 NA
ATOM     77  C   UNL A   1      40.776  31.283  30.346  1.00  0.00    -0.034 C 
ATOM     78  C   UNL A   1      46.798  30.601  30.705  1.00  0.00    -0.036 A 
ATOM     79  H   UNL A   1      48.539  29.343  30.396  1.00  0.00     0.065 H 
ATOM     80  C   UNL A   1      45.450  30.356  30.500  1.00  0.00     0.049 A 
ATOM     81  H   UNL A   1      44.503  28.586  29.848  1.00  0.00     0.167 HD
ATOM     82  C   UNL A   1      43.043  30.951  30.435  1.00  0.00     0.074 A 
ATOM     83  C   UNL A   1      41.935  31.863  30.629  1.00  0.00    -0.034 C 
ATOM     84  H   UNL A   1      39.821  31.668  30.415  1.00  0.00     0.065 H 
ATOM     85  H   UNL A   1      47.206  31.485  31.048  1.00  0.00     0.065 H 
ATOM     86  C   UNL A   1      44.339  31.254  30.687  1.00  0.00     0.037 A 
ATOM     87  H   UNL A   1      42.035  32.840  30.947  1.00  0.00     0.065 H 
BRANCH  68  88
ATOM     88  C   UNL A   1      48.294  26.641  29.616  1.00  0.00     0.064 A 
ATOM     89  C   UNL A   1      49.197  27.025  28.614  1.00  0.00     0.173 A 
ATOM     90  C   UNL A   1      48.784  25.866  30.678  1.00  0.00     0.173 A 
ATOM     91  F   UNL A   1      48.777  27.758  27.572  1.00  0.00    -0.203 F 
ATOM     92  C   UNL A   1      50.533  26.637  28.667  1.00  0.00     0.198 A 
ATOM     93  C   UNL A   1      50.127  25.501  30.741  1.00  0.00     0.198 A 
ATOM     94  F   UNL A   1      47.964  25.479  31.667  1.00  0.00    -0.203 F 
ATOM     95  F   UNL A   1      51.371  26.989  27.681  1.00  0.00    -0.200 F 
ATOM     96  C   UNL A   1      50.999  25.883  29.734  1.00  0.00     0.200 A 
ATOM     97  F   UNL A   1      50.577  24.785  31.780  1.00  0.00    -0.200 F 
ATOM     98  F   UNL A   1      52.289  25.525  29.790  1.00  0.00    -0.200 F 
ENDBRANCH  68  88
BRANCH  71  99
ATOM     99  C   UNL A   1      38.717  29.427  29.376  1.00  0.00     0.064 A 
ATOM    100  C   UNL A   1      37.938  29.560  30.533  1.00  0.00     0.173 A 
ATOM    101  C   UNL A   1      38.123  29.752  28.147  1.00  0.00     0.173 A 
ATOM    102  F   UNL A   1      38.456  29.242  31.729  1.00  0.00    -0.203 F 
ATOM    103  C   UNL A   1      36.618  30.000  30.464  1.00  0.00     0.198 A 
ATOM    104  C   UNL A   1      36.813  30.218  28.083  1.00  0.00     0.198 A 
ATOM    105  F   UNL A   1      38.829  29.644  27.012  1.00  0.00    -0.203 F 
ATOM    106  F   UNL A   1      35.887  30.096  31.583  1.00  0.00    -0.200 F 
ATOM    107  C   UNL A   1      36.060  30.339  29.241  1.00  0.00     0.200 A 
ATOM    108  F   UNL A   1      36.284  30.560  26.900  1.00  0.00    -0.200 F 
ATOM    109  F   UNL A   1      34.797  30.781  29.177  1.00  0.00    -0.200 F 
ENDBRANCH  71  99
BRANCH  86 110
ATOM    110  C   UNL A   1      44.642  32.633  31.192  1.00  0.00     0.064 A 
ATOM    111  C   UNL A   1      44.726  32.904  32.565  1.00  0.00     0.173 A 
ATOM    112  C   UNL A   1      44.928  33.673  30.295  1.00  0.00     0.173 A 
ATOM    113  F   UNL A   1      44.448  31.945  33.461  1.00  0.00    -0.203 F 
ATOM    114  C   UNL A   1      45.078  34.170  33.022  1.00  0.00     0.198 A 
ATOM    115  C   UNL A   1      45.303  34.931  30.756  1.00  0.00     0.198 A 
ATOM    116  F   UNL A   1      44.868  33.461  28.972  1.00  0.00    -0.203 F 
ATOM    117  F   UNL A   1      45.126  34.416  34.339  1.00  0.00    -0.200 F 
ATOM    118  C   UNL A   1      45.375  35.180  32.118  1.00  0.00     0.200 A 
ATOM    119  F   UNL A   1      45.604  35.902  29.881  1.00  0.00    -0.200 F 
ATOM    120  F   UNL A   1      45.730  36.394  32.561  1.00  0.00    -0.200 F 
ENDBRANCH  86 110
ENDBRANCH  51  54
ENDBRANCH  41  44
ENDBRANCH  37  40
ENDBRANCH  34  37
ENDBRANCH  31  34
ENDBRANCH   1  31
TORSDOF 15
ENDMDL
MODEL 6
REMARK VINA RESULT:     -11.8      6.499     11.782
REMARK SMILES O=C(Cc1ccn(C(F)F)c(=O)c1)NCCCCCCNC(=O)c1ccc(-c2c3nc(c(-c4c(F)c(F)c(F)c(F)c4F)c4ccc([nH]4)c(-c4c(F)c(F)c(F)c(F)c4F)c4nc(c(-c5c(F)c(F)c(F)c(F)c5F)c5ccc2[nH]5)C=C4)C=C3)cc1
REMARK SMILES IDX 17 1 16 4 15 7 14 10 1 11 2 12 3 14 4 17 5 18 13 19 6 20
REMARK SMILES IDX 11 22 7 24 12 26 8 27 9 28 10 29 18 31 19 34 20 37 21 40
REMARK SMILES IDX 22 41 23 43 24 44 25 45 86 46 26 47 85 49 27 51 28 54 29 55
REMARK SMILES IDX 79 56 30 57 84 58 78 59 80 60 31 61 83 62 77 64 76 66 32 68
REMARK SMILES IDX 64 71 44 72 63 73 45 74 48 75 62 76 81 77 46 78 47 80 61 82
REMARK SMILES IDX 82 83 49 86 33 88 34 89 42 90 35 91 36 92 40 93 43 94 37 95
REMARK SMILES IDX 38 96 41 97 39 98 65 99 66 100 74 101 67 102 68 103 72 104
REMARK SMILES IDX 75 105 69 106 70 107 73 108 71 109 50 110 51 111 59 112
REMARK SMILES IDX 52 113 53 114 57 115 60 116 54 117 55 118 58 119 56 120
REMARK H PARENT 17 2 17 3 16 5 16 6 15 8 15 9 14 13 3 15 3 16 5 21 13 23 6 25
REMARK H PARENT 8 30 18 32 18 33 19 35 19 36 20 38 20 39 21 42 25 48 86 50
REMARK H PARENT 26 52 85 53 84 63 78 65 80 67 83 69 77 70 45 79 48 81 81 84
REMARK H PARENT 46 85 82 87
REMARK Flexibility Score: inf
ROOT
ATOM      1  C   UNL A   1      36.206  21.720  25.356  1.00  0.00    -0.052 C 
ATOM      2  H   UNL A   1      35.207  21.507  25.038  1.00  0.00     0.027 H 
ATOM      3  H   UNL A   1      36.432  21.369  26.342  1.00  0.00     0.027 H 
ENDROOT
BRANCH   1   4
ATOM      4  C   UNL A   1      36.371  23.245  25.407  1.00  0.00    -0.036 C 
ATOM      5  H   UNL A   1      37.005  23.483  26.234  1.00  0.00     0.028 H 
ATOM      6  H   UNL A   1      36.781  23.534  24.461  1.00  0.00     0.028 H 
BRANCH   4   7
ATOM      7  C   UNL A   1      35.069  24.027  25.564  1.00  0.00     0.017 C 
ATOM      8  H   UNL A   1      35.058  24.491  26.529  1.00  0.00     0.049 H 
ATOM      9  H   UNL A   1      35.024  24.759  24.786  1.00  0.00     0.049 H 
BRANCH   7  10
ATOM     10  N   UNL A   1      33.910  23.168  25.444  1.00  0.00    -0.356 N 
ATOM     11  O   UNL A   1      33.656  23.403  23.173  1.00  0.00    -0.275 OA
ATOM     12  C   UNL A   1      33.290  22.920  24.240  1.00  0.00     0.224 C 
ATOM     13  H   UNL A   1      33.550  22.745  26.257  1.00  0.00     0.163 HD
BRANCH  12  14
ATOM     14  C   UNL A   1      32.109  21.961  24.342  1.00  0.00     0.052 C 
ATOM     15  H   UNL A   1      31.415  22.211  23.565  1.00  0.00     0.042 H 
ATOM     16  H   UNL A   1      31.719  22.085  25.330  1.00  0.00     0.042 H 
BRANCH  14  17
ATOM     17  C   UNL A   1      32.438  20.491  24.214  1.00  0.00    -0.032 A 
ATOM     18  C   UNL A   1      33.042  19.743  25.301  1.00  0.00    -0.042 A 
ATOM     19  C   UNL A   1      32.176  19.847  23.062  1.00  0.00     0.007 A 
ATOM     20  C   UNL A   1      33.313  18.440  25.164  1.00  0.00     0.013 A 
ATOM     21  H   UNL A   1      33.264  20.221  26.190  1.00  0.00     0.064 H 
ATOM     22  C   UNL A   1      32.496  18.404  22.883  1.00  0.00     0.255 A 
ATOM     23  H   UNL A   1      31.742  20.368  22.283  1.00  0.00     0.068 H 
ATOM     24  N   UNL A   1      33.046  17.772  23.985  1.00  0.00    -0.258 N 
ATOM     25  H   UNL A   1      33.732  17.924  25.954  1.00  0.00     0.082 H 
ATOM     26  O   UNL A   1      32.253  17.881  21.800  1.00  0.00    -0.269 OA
BRANCH  24  27
ATOM     27  C   UNL A   1      33.395  16.382  23.835  1.00  0.00     0.321 C 
ATOM     28  F   UNL A   1      34.396  16.219  22.936  1.00  0.00    -0.185 F 
ATOM     29  F   UNL A   1      33.800  15.857  25.016  1.00  0.00    -0.185 F 
ATOM     30  H   UNL A   1      32.517  15.878  23.489  1.00  0.00     0.131 H 
ENDBRANCH  24  27
ENDBRANCH  14  17
ENDBRANCH  12  14
ENDBRANCH   7  10
ENDBRANCH   4   7
ENDBRANCH   1   4
BRANCH   1  31
ATOM     31  C   UNL A   1      37.166  20.980  24.419  1.00  0.00    -0.052 C 
ATOM     32  H   UNL A   1      37.882  21.688  24.055  1.00  0.00     0.027 H 
ATOM     33  H   UNL A   1      36.557  20.553  23.651  1.00  0.00     0.027 H 
BRANCH  31  34
ATOM     34  C   UNL A   1      37.930  19.816  25.048  1.00  0.00    -0.036 C 
ATOM     35  H   UNL A   1      38.211  19.143  24.265  1.00  0.00     0.028 H 
ATOM     36  H   UNL A   1      37.269  19.382  25.769  1.00  0.00     0.028 H 
BRANCH  34  37
ATOM     37  C   UNL A   1      39.192  20.204  25.812  1.00  0.00     0.018 C 
ATOM     38  H   UNL A   1      38.918  20.440  26.820  1.00  0.00     0.049 H 
ATOM     39  H   UNL A   1      39.624  21.041  25.306  1.00  0.00     0.049 H 
BRANCH  37  40
ATOM     40  N   UNL A   1      40.194  19.150  25.839  1.00  0.00    -0.352 N 
ATOM     41  C   UNL A   1      41.548  19.244  26.065  1.00  0.00     0.251 C 
ATOM     42  H   UNL A   1      39.856  18.241  25.673  1.00  0.00     0.163 HD
ATOM     43  O   UNL A   1      42.267  18.258  25.935  1.00  0.00    -0.269 OA
BRANCH  41  44
ATOM     44  C   UNL A   1      42.146  20.549  26.426  1.00  0.00     0.039 A 
ATOM     45  C   UNL A   1      42.245  20.947  27.761  1.00  0.00    -0.049 A 
ATOM     46  C   UNL A   1      42.594  21.398  25.409  1.00  0.00    -0.049 A 
ATOM     47  C   UNL A   1      42.627  22.250  28.065  1.00  0.00    -0.053 A 
ATOM     48  H   UNL A   1      42.037  20.278  28.518  1.00  0.00     0.063 H 
ATOM     49  C   UNL A   1      43.060  22.678  25.724  1.00  0.00    -0.053 A 
ATOM     50  H   UNL A   1      42.580  21.079  24.426  1.00  0.00     0.063 H 
ATOM     51  C   UNL A   1      43.031  23.133  27.051  1.00  0.00    -0.014 A 
ATOM     52  H   UNL A   1      42.611  22.570  29.046  1.00  0.00     0.063 H 
ATOM     53  H   UNL A   1      43.425  23.290  24.978  1.00  0.00     0.063 H 
BRANCH  51  54
ATOM     54  C   UNL A   1      43.417  24.523  27.410  1.00  0.00     0.031 A 
ATOM     55  C   UNL A   1      44.799  25.042  27.117  1.00  0.00     0.074 A 
ATOM     56  C   UNL A   1      42.489  25.343  27.940  1.00  0.00     0.049 A 
ATOM     57  N   UNL A   1      45.285  26.245  27.305  1.00  0.00    -0.248 NA
ATOM     58  C   UNL A   1      45.764  24.093  26.542  1.00  0.00    -0.034 C 
ATOM     59  C   UNL A   1      41.116  24.957  28.266  1.00  0.00    -0.036 A 
ATOM     60  N   UNL A   1      42.547  26.676  28.266  1.00  0.00    -0.354 N 
ATOM     61  C   UNL A   1      46.607  26.193  26.884  1.00  0.00     0.074 A 
ATOM     62  C   UNL A   1      46.862  24.833  26.462  1.00  0.00    -0.034 C 
ATOM     63  H   UNL A   1      45.624  23.107  26.272  1.00  0.00     0.065 H 
ATOM     64  C   UNL A   1      40.443  26.038  28.683  1.00  0.00    -0.036 A 
ATOM     65  H   UNL A   1      40.728  24.003  28.188  1.00  0.00     0.065 H 
ATOM     66  C   UNL A   1      41.350  27.181  28.710  1.00  0.00     0.049 A 
ATOM     67  H   UNL A   1      43.366  27.214  28.189  1.00  0.00     0.167 HD
ATOM     68  C   UNL A   1      47.520  27.193  26.839  1.00  0.00     0.037 A 
ATOM     69  H   UNL A   1      47.779  24.484  26.140  1.00  0.00     0.065 H 
ATOM     70  H   UNL A   1      39.444  26.059  28.943  1.00  0.00     0.065 H 
ATOM     71  C   UNL A   1      41.017  28.427  29.100  1.00  0.00     0.037 A 
ATOM     72  C   UNL A   1      47.258  28.551  27.237  1.00  0.00     0.049 A 
ATOM     73  C   UNL A   1      42.060  29.507  29.074  1.00  0.00     0.074 A 
ATOM     74  C   UNL A   1      48.115  29.639  27.203  1.00  0.00    -0.036 A 
ATOM     75  N   UNL A   1      46.050  29.009  27.741  1.00  0.00    -0.354 N 
ATOM     76  N   UNL A   1      43.301  29.446  28.659  1.00  0.00    -0.248 NA
ATOM     77  C   UNL A   1      41.659  30.827  29.582  1.00  0.00    -0.034 C 
ATOM     78  C   UNL A   1      47.438  30.745  27.724  1.00  0.00    -0.036 A 
ATOM     79  H   UNL A   1      49.085  29.634  26.851  1.00  0.00     0.065 H 
ATOM     80  C   UNL A   1      46.146  30.359  28.042  1.00  0.00     0.049 A 
ATOM     81  H   UNL A   1      45.245  28.458  27.868  1.00  0.00     0.167 HD
ATOM     82  C   UNL A   1      43.826  30.717  28.843  1.00  0.00     0.074 A 
ATOM     83  C   UNL A   1      42.764  31.535  29.391  1.00  0.00    -0.034 C 
ATOM     84  H   UNL A   1      40.755  31.125  29.981  1.00  0.00     0.065 H 
ATOM     85  H   UNL A   1      47.834  31.690  27.851  1.00  0.00     0.065 H 
ATOM     86  C   UNL A   1      45.081  31.161  28.585  1.00  0.00     0.037 A 
ATOM     87  H   UNL A   1      42.856  32.541  29.604  1.00  0.00     0.065 H 
BRANCH  68  88
ATOM     88  C   UNL A   1      48.897  26.864  26.341  1.00  0.00     0.064 A 
ATOM     89  C   UNL A   1      49.861  26.287  27.181  1.00  0.00     0.173 A 
ATOM     90  C   UNL A   1      49.232  27.055  24.992  1.00  0.00     0.173 A 
ATOM     91  F   UNL A   1      49.595  26.092  28.481  1.00  0.00    -0.203 F 
ATOM     92  C   UNL A   1      51.115  25.929  26.691  1.00  0.00     0.198 A 
ATOM     93  C   UNL A   1      50.477  26.672  24.501  1.00  0.00     0.198 A 
ATOM     94  F   UNL A   1      48.343  27.595  24.145  1.00  0.00    -0.203 F 
ATOM     95  F   UNL A   1      52.032  25.408  27.519  1.00  0.00    -0.200 F 
ATOM     96  C   UNL A   1      51.419  26.113  25.350  1.00  0.00     0.200 A 
ATOM     97  F   UNL A   1      50.763  26.838  23.202  1.00  0.00    -0.200 F 
ATOM     98  F   UNL A   1      52.620  25.752  24.879  1.00  0.00    -0.200 F 
ENDBRANCH  68  88
BRANCH  71  99
ATOM     99  C   UNL A   1      39.624  28.710  29.527  1.00  0.00     0.064 A 
ATOM    100  C   UNL A   1      39.233  28.534  30.861  1.00  0.00     0.173 A 
ATOM    101  C   UNL A   1      38.670  29.202  28.624  1.00  0.00     0.173 A 
ATOM    102  F   UNL A   1      40.105  28.048  31.756  1.00  0.00    -0.203 F 
ATOM    103  C   UNL A   1      37.938  28.839  31.275  1.00  0.00     0.198 A 
ATOM    104  C   UNL A   1      37.384  29.532  29.045  1.00  0.00     0.198 A 
ATOM    105  F   UNL A   1      38.998  29.391  27.338  1.00  0.00    -0.203 F 
ATOM    106  F   UNL A   1      37.581  28.639  32.551  1.00  0.00    -0.200 F 
ATOM    107  C   UNL A   1      37.018  29.347  30.370  1.00  0.00     0.200 A 
ATOM    108  F   UNL A   1      36.504  30.038  28.171  1.00  0.00    -0.200 F 
ATOM    109  F   UNL A   1      35.779  29.657  30.773  1.00  0.00    -0.200 F 
ENDBRANCH  71  99
BRANCH  86 110
ATOM    110  C   UNL A   1      45.380  32.601  28.879  1.00  0.00     0.064 A 
ATOM    111  C   UNL A   1      45.962  32.991  30.093  1.00  0.00     0.173 A 
ATOM    112  C   UNL A   1      45.155  33.587  27.907  1.00  0.00     0.173 A 
ATOM    113  F   UNL A   1      46.184  32.085  31.057  1.00  0.00    -0.203 F 
ATOM    114  C   UNL A   1      46.301  34.320  30.328  1.00  0.00     0.198 A 
ATOM    115  C   UNL A   1      45.518  34.912  28.136  1.00  0.00     0.198 A 
ATOM    116  F   UNL A   1      44.606  33.262  26.728  1.00  0.00    -0.203 F 
ATOM    117  F   UNL A   1      46.832  34.677  31.506  1.00  0.00    -0.200 F 
ATOM    118  C   UNL A   1      46.088  35.277  29.346  1.00  0.00     0.200 A 
ATOM    119  F   UNL A   1      45.323  35.833  27.181  1.00  0.00    -0.200 F 
ATOM    120  F   UNL A   1      46.431  36.554  29.568  1.00  0.00    -0.200 F 
ENDBRANCH  86 110
ENDBRANCH  51  54
ENDBRANCH  41  44
ENDBRANCH  37  40
ENDBRANCH  34  37
ENDBRANCH  31  34
ENDBRANCH   1  31
TORSDOF 15
ENDMDL
MODEL 7
REMARK VINA RESULT:     -11.7      4.683      6.964
REMARK SMILES O=C(Cc1ccn(C(F)F)c(=O)c1)NCCCCCCNC(=O)c1ccc(-c2c3nc(c(-c4c(F)c(F)c(F)c(F)c4F)c4ccc([nH]4)c(-c4c(F)c(F)c(F)c(F)c4F)c4nc(c(-c5c(F)c(F)c(F)c(F)c5F)c5ccc2[nH]5)C=C4)C=C3)cc1
REMARK SMILES IDX 17 1 16 4 15 7 14 10 1 11 2 12 3 14 4 17 5 18 13 19 6 20
REMARK SMILES IDX 11 22 7 24 12 26 8 27 9 28 10 29 18 31 19 34 20 37 21 40
REMARK SMILES IDX 22 41 23 43 24 44 25 45 86 46 26 47 85 49 27 51 28 54 29 55
REMARK SMILES IDX 79 56 30 57 84 58 78 59 80 60 31 61 83 62 77 64 76 66 32 68
REMARK SMILES IDX 64 71 44 72 63 73 45 74 48 75 62 76 81 77 46 78 47 80 61 82
REMARK SMILES IDX 82 83 49 86 33 88 34 89 42 90 35 91 36 92 40 93 43 94 37 95
REMARK SMILES IDX 38 96 41 97 39 98 65 99 66 100 74 101 67 102 68 103 72 104
REMARK SMILES IDX 75 105 69 106 70 107 73 108 71 109 50 110 51 111 59 112
REMARK SMILES IDX 52 113 53 114 57 115 60 116 54 117 55 118 58 119 56 120
REMARK H PARENT 17 2 17 3 16 5 16 6 15 8 15 9 14 13 3 15 3 16 5 21 13 23 6 25
REMARK H PARENT 8 30 18 32 18 33 19 35 19 36 20 38 20 39 21 42 25 48 86 50
REMARK H PARENT 26 52 85 53 84 63 78 65 80 67 83 69 77 70 45 79 48 81 81 84
REMARK H PARENT 46 85 82 87
REMARK Flexibility Score: inf
ROOT
ATOM      1  C   UNL A   1      34.373  35.355  32.469  1.00  0.00    -0.052 C 
ATOM      2  H   UNL A   1      34.430  34.929  31.490  1.00  0.00     0.027 H 
ATOM      3  H   UNL A   1      35.174  36.026  32.699  1.00  0.00     0.027 H 
ENDROOT
BRANCH   1   4
ATOM      4  C   UNL A   1      34.479  34.213  33.488  1.00  0.00    -0.036 C 
ATOM      5  H   UNL A   1      33.489  33.934  33.779  1.00  0.00     0.028 H 
ATOM      6  H   UNL A   1      35.015  33.424  33.000  1.00  0.00     0.028 H 
BRANCH   4   7
ATOM      7  C   UNL A   1      35.269  34.548  34.750  1.00  0.00     0.017 C 
ATOM      8  H   UNL A   1      35.324  35.612  34.852  1.00  0.00     0.049 H 
ATOM      9  H   UNL A   1      34.765  34.108  35.585  1.00  0.00     0.049 H 
BRANCH   7  10
ATOM     10  N   UNL A   1      36.613  34.012  34.700  1.00  0.00    -0.356 N 
ATOM     11  O   UNL A   1      36.580  33.051  36.787  1.00  0.00    -0.275 OA
ATOM     12  C   UNL A   1      37.166  33.294  35.737  1.00  0.00     0.224 C 
ATOM     13  H   UNL A   1      37.154  34.168  33.891  1.00  0.00     0.163 HD
BRANCH  12  14
ATOM     14  C   UNL A   1      38.581  32.797  35.455  1.00  0.00     0.052 C 
ATOM     15  H   UNL A   1      39.057  32.614  36.396  1.00  0.00     0.042 H 
ATOM     16  H   UNL A   1      39.047  33.565  34.874  1.00  0.00     0.042 H 
BRANCH  14  17
ATOM     17  C   UNL A   1      38.687  31.537  34.628  1.00  0.00    -0.032 A 
ATOM     18  C   UNL A   1      39.895  30.734  34.605  1.00  0.00    -0.042 A 
ATOM     19  C   UNL A   1      37.641  31.141  33.880  1.00  0.00     0.007 A 
ATOM     20  C   UNL A   1      39.957  29.616  33.870  1.00  0.00     0.013 A 
ATOM     21  H   UNL A   1      40.715  31.027  35.160  1.00  0.00     0.064 H 
ATOM     22  C   UNL A   1      37.701  29.915  33.036  1.00  0.00     0.255 A 
ATOM     23  H   UNL A   1      36.774  31.702  33.892  1.00  0.00     0.068 H 
ATOM     24  N   UNL A   1      38.887  29.203  33.101  1.00  0.00    -0.258 N 
ATOM     25  H   UNL A   1      40.823  29.053  33.877  1.00  0.00     0.082 H 
ATOM     26  O   UNL A   1      36.721  29.621  32.360  1.00  0.00    -0.269 OA
BRANCH  24  27
ATOM     27  C   UNL A   1      38.990  28.028  32.274  1.00  0.00     0.321 C 
ATOM     28  F   UNL A   1      40.269  27.583  32.208  1.00  0.00    -0.185 F 
ATOM     29  F   UNL A   1      38.220  27.026  32.761  1.00  0.00    -0.185 F 
ATOM     30  H   UNL A   1      38.656  28.308  31.297  1.00  0.00     0.131 H 
ENDBRANCH  24  27
ENDBRANCH  14  17
ENDBRANCH  12  14
ENDBRANCH   7  10
ENDBRANCH   4   7
ENDBRANCH   1   4
BRANCH   1  31
ATOM     31  C   UNL A   1      33.093  36.192  32.544  1.00  0.00    -0.052 C 
ATOM     32  H   UNL A   1      33.341  37.136  32.984  1.00  0.00     0.027 H 
ATOM     33  H   UNL A   1      32.399  35.619  33.122  1.00  0.00     0.027 H 
BRANCH  31  34
ATOM     34  C   UNL A   1      32.405  36.462  31.206  1.00  0.00    -0.036 C 
ATOM     35  H   UNL A   1      32.051  37.471  31.214  1.00  0.00     0.028 H 
ATOM     36  H   UNL A   1      31.623  35.735  31.123  1.00  0.00     0.028 H 
BRANCH  34  37
ATOM     37  C   UNL A   1      33.285  36.278  29.975  1.00  0.00     0.018 C 
ATOM     38  H   UNL A   1      34.257  35.965  30.296  1.00  0.00     0.049 H 
ATOM     39  H   UNL A   1      33.313  37.217  29.463  1.00  0.00     0.049 H 
BRANCH  37  40
ATOM     40  N   UNL A   1      32.766  35.291  29.040  1.00  0.00    -0.352 N 
ATOM     41  C   UNL A   1      33.373  34.160  28.546  1.00  0.00     0.251 C 
ATOM     42  H   UNL A   1      31.852  35.456  28.715  1.00  0.00     0.163 HD
ATOM     43  O   UNL A   1      32.827  33.497  27.668  1.00  0.00    -0.269 OA
BRANCH  41  44
ATOM     44  C   UNL A   1      34.709  33.762  29.045  1.00  0.00     0.039 A 
ATOM     45  C   UNL A   1      35.871  34.279  28.469  1.00  0.00    -0.049 A 
ATOM     46  C   UNL A   1      34.798  32.837  30.090  1.00  0.00    -0.049 A 
ATOM     47  C   UNL A   1      37.108  33.747  28.818  1.00  0.00    -0.053 A 
ATOM     48  H   UNL A   1      35.813  35.053  27.789  1.00  0.00     0.063 H 
ATOM     49  C   UNL A   1      36.049  32.367  30.499  1.00  0.00    -0.053 A 
ATOM     50  H   UNL A   1      33.940  32.502  30.558  1.00  0.00     0.063 H 
ATOM     51  C   UNL A   1      37.212  32.780  29.831  1.00  0.00    -0.014 A 
ATOM     52  H   UNL A   1      37.957  34.066  28.327  1.00  0.00     0.063 H 
ATOM     53  H   UNL A   1      36.118  31.713  31.295  1.00  0.00     0.063 H 
BRANCH  51  54
ATOM     54  C   UNL A   1      38.549  32.221  30.167  1.00  0.00     0.031 A 
ATOM     55  C   UNL A   1      39.428  32.884  31.192  1.00  0.00     0.074 A 
ATOM     56  C   UNL A   1      38.938  31.067  29.593  1.00  0.00     0.049 A 
ATOM     57  N   UNL A   1      40.593  32.499  31.652  1.00  0.00    -0.248 NA
ATOM     58  C   UNL A   1      38.944  34.144  31.776  1.00  0.00    -0.034 C 
ATOM     59  C   UNL A   1      38.171  30.329  28.589  1.00  0.00    -0.036 A 
ATOM     60  N   UNL A   1      40.055  30.294  29.793  1.00  0.00    -0.354 N 
ATOM     61  C   UNL A   1      40.983  33.469  32.566  1.00  0.00     0.074 A 
ATOM     62  C   UNL A   1      39.950  34.480  32.574  1.00  0.00    -0.034 C 
ATOM     63  H   UNL A   1      38.054  34.638  31.610  1.00  0.00     0.065 H 
ATOM     64  C   UNL A   1      38.805  29.182  28.308  1.00  0.00    -0.036 A 
ATOM     65  H   UNL A   1      37.283  30.642  28.164  1.00  0.00     0.065 H 
ATOM     66  C   UNL A   1      40.050  29.128  29.067  1.00  0.00     0.049 A 
ATOM     67  H   UNL A   1      40.787  30.551  30.398  1.00  0.00     0.167 HD
ATOM     68  C   UNL A   1      42.095  33.503  33.340  1.00  0.00     0.037 A 
ATOM     69  H   UNL A   1      39.989  35.351  33.128  1.00  0.00     0.065 H 
ATOM     70  H   UNL A   1      38.466  28.453  27.660  1.00  0.00     0.065 H 
ATOM     71  C   UNL A   1      40.950  28.127  29.013  1.00  0.00     0.037 A 
ATOM     72  C   UNL A   1      43.111  32.483  33.348  1.00  0.00     0.049 A 
ATOM     73  C   UNL A   1      42.191  28.210  29.855  1.00  0.00     0.074 A 
ATOM     74  C   UNL A   1      44.261  32.420  34.117  1.00  0.00    -0.036 A 
ATOM     75  N   UNL A   1      43.101  31.348  32.551  1.00  0.00    -0.354 N 
ATOM     76  N   UNL A   1      42.538  29.125  30.726  1.00  0.00    -0.248 NA
ATOM     77  C   UNL A   1      43.171  27.126  29.698  1.00  0.00    -0.034 C 
ATOM     78  C   UNL A   1      44.966  31.268  33.757  1.00  0.00    -0.036 A 
ATOM     79  H   UNL A   1      44.547  33.104  34.835  1.00  0.00     0.065 H 
ATOM     80  C   UNL A   1      44.235  30.590  32.795  1.00  0.00     0.049 A 
ATOM     81  H   UNL A   1      42.393  31.116  31.907  1.00  0.00     0.167 HD
ATOM     82  C   UNL A   1      43.767  28.725  31.229  1.00  0.00     0.074 A 
ATOM     83  C   UNL A   1      44.099  27.473  30.580  1.00  0.00    -0.034 C 
ATOM     84  H   UNL A   1      43.144  26.308  29.068  1.00  0.00     0.065 H 
ATOM     85  H   UNL A   1      45.877  30.973  34.142  1.00  0.00     0.065 H 
ATOM     86  C   UNL A   1      44.551  29.345  32.144  1.00  0.00     0.037 A 
ATOM     87  H   UNL A   1      44.948  26.921  30.779  1.00  0.00     0.065 H 
BRANCH  68  88
ATOM     88  C   UNL A   1      42.281  34.682  34.249  1.00  0.00     0.064 A 
ATOM     89  C   UNL A   1      42.053  34.587  35.629  1.00  0.00     0.173 A 
ATOM     90  C   UNL A   1      42.768  35.899  33.747  1.00  0.00     0.173 A 
ATOM     91  F   UNL A   1      41.579  33.449  36.158  1.00  0.00    -0.203 F 
ATOM     92  C   UNL A   1      42.290  35.671  36.471  1.00  0.00     0.198 A 
ATOM     93  C   UNL A   1      43.028  36.972  34.595  1.00  0.00     0.198 A 
ATOM     94  F   UNL A   1      43.010  36.040  32.435  1.00  0.00    -0.203 F 
ATOM     95  F   UNL A   1      42.035  35.566  37.783  1.00  0.00    -0.200 F 
ATOM     96  C   UNL A   1      42.786  36.859  35.955  1.00  0.00     0.200 A 
ATOM     97  F   UNL A   1      43.519  38.115  34.096  1.00  0.00    -0.200 F 
ATOM     98  F   UNL A   1      43.028  37.895  36.770  1.00  0.00    -0.200 F 
ENDBRANCH  68  88
BRANCH  71  99
ATOM     99  C   UNL A   1      40.686  26.956  28.141  1.00  0.00     0.064 A 
ATOM    100  C   UNL A   1      41.384  26.786  26.938  1.00  0.00     0.173 A 
ATOM    101  C   UNL A   1      39.767  25.963  28.510  1.00  0.00     0.173 A 
ATOM    102  F   UNL A   1      42.259  27.719  26.534  1.00  0.00    -0.203 F 
ATOM    103  C   UNL A   1      41.171  25.667  26.136  1.00  0.00     0.198 A 
ATOM    104  C   UNL A   1      39.576  24.831  27.721  1.00  0.00     0.198 A 
ATOM    105  F   UNL A   1      39.078  26.079  29.655  1.00  0.00    -0.203 F 
ATOM    106  F   UNL A   1      41.833  25.540  24.978  1.00  0.00    -0.200 F 
ATOM    107  C   UNL A   1      40.275  24.685  26.533  1.00  0.00     0.200 A 
ATOM    108  F   UNL A   1      38.721  23.878  28.118  1.00  0.00    -0.200 F 
ATOM    109  F   UNL A   1      40.085  23.601  25.771  1.00  0.00    -0.200 F 
ENDBRANCH  71  99
BRANCH  86 110
ATOM    110  C   UNL A   1      45.844  28.681  32.513  1.00  0.00     0.064 A 
ATOM    111  C   UNL A   1      45.906  27.725  33.536  1.00  0.00     0.173 A 
ATOM    112  C   UNL A   1      47.014  28.947  31.785  1.00  0.00     0.173 A 
ATOM    113  F   UNL A   1      44.817  27.448  34.268  1.00  0.00    -0.203 F 
ATOM    114  C   UNL A   1      47.096  27.063  33.823  1.00  0.00     0.198 A 
ATOM    115  C   UNL A   1      48.196  28.265  32.059  1.00  0.00     0.198 A 
ATOM    116  F   UNL A   1      47.003  29.849  30.793  1.00  0.00    -0.203 F 
ATOM    117  F   UNL A   1      47.141  26.172  34.823  1.00  0.00    -0.200 F 
ATOM    118  C   UNL A   1      48.237  27.326  33.078  1.00  0.00     0.200 A 
ATOM    119  F   UNL A   1      49.294  28.511  31.330  1.00  0.00    -0.200 F 
ATOM    120  F   UNL A   1      49.378  26.675  33.346  1.00  0.00    -0.200 F 
ENDBRANCH  86 110
ENDBRANCH  51  54
ENDBRANCH  41  44
ENDBRANCH  37  40
ENDBRANCH  34  37
ENDBRANCH  31  34
ENDBRANCH   1  31
TORSDOF 15
ENDMDL
MODEL 8
REMARK VINA RESULT:     -11.7      0.483      7.449
REMARK SMILES O=C(Cc1ccn(C(F)F)c(=O)c1)NCCCCCCNC(=O)c1ccc(-c2c3nc(c(-c4c(F)c(F)c(F)c(F)c4F)c4ccc([nH]4)c(-c4c(F)c(F)c(F)c(F)c4F)c4nc(c(-c5c(F)c(F)c(F)c(F)c5F)c5ccc2[nH]5)C=C4)C=C3)cc1
REMARK SMILES IDX 17 1 16 4 15 7 14 10 1 11 2 12 3 14 4 17 5 18 13 19 6 20
REMARK SMILES IDX 11 22 7 24 12 26 8 27 9 28 10 29 18 31 19 34 20 37 21 40
REMARK SMILES IDX 22 41 23 43 24 44 25 45 86 46 26 47 85 49 27 51 28 54 29 55
REMARK SMILES IDX 79 56 30 57 84 58 78 59 80 60 31 61 83 62 77 64 76 66 32 68
REMARK SMILES IDX 64 71 44 72 63 73 45 74 48 75 62 76 81 77 46 78 47 80 61 82
REMARK SMILES IDX 82 83 49 86 33 88 34 89 42 90 35 91 36 92 40 93 43 94 37 95
REMARK SMILES IDX 38 96 41 97 39 98 65 99 66 100 74 101 67 102 68 103 72 104
REMARK SMILES IDX 75 105 69 106 70 107 73 108 71 109 50 110 51 111 59 112
REMARK SMILES IDX 52 113 53 114 57 115 60 116 54 117 55 118 58 119 56 120
REMARK H PARENT 17 2 17 3 16 5 16 6 15 8 15 9 14 13 3 15 3 16 5 21 13 23 6 25
REMARK H PARENT 8 30 18 32 18 33 19 35 19 36 20 38 20 39 21 42 25 48 86 50
REMARK H PARENT 26 52 85 53 84 63 78 65 80 67 83 69 77 70 45 79 48 81 81 84
REMARK H PARENT 46 85 82 87
REMARK Flexibility Score: inf
ROOT
ATOM      1  C   UNL A   1      32.435  29.875  25.965  1.00  0.00    -0.052 C 
ATOM      2  H   UNL A   1      32.069  29.278  25.156  1.00  0.00     0.027 H 
ATOM      3  H   UNL A   1      33.202  30.566  25.684  1.00  0.00     0.027 H 
ENDROOT
BRANCH   1   4
ATOM      4  C   UNL A   1      33.077  28.934  26.993  1.00  0.00    -0.036 C 
ATOM      5  H   UNL A   1      34.008  29.362  27.300  1.00  0.00     0.028 H 
ATOM      6  H   UNL A   1      32.372  28.836  27.793  1.00  0.00     0.028 H 
BRANCH   4   7
ATOM      7  C   UNL A   1      33.348  27.519  26.487  1.00  0.00     0.017 C 
ATOM      8  H   UNL A   1      34.386  27.432  26.241  1.00  0.00     0.049 H 
ATOM      9  H   UNL A   1      33.079  26.831  27.261  1.00  0.00     0.049 H 
BRANCH   7  10
ATOM     10  N   UNL A   1      32.561  27.209  25.313  1.00  0.00    -0.356 N 
ATOM     11  O   UNL A   1      30.789  26.273  26.437  1.00  0.00    -0.275 OA
ATOM     12  C   UNL A   1      31.325  26.605  25.385  1.00  0.00     0.224 C 
ATOM     13  H   UNL A   1      32.924  27.440  24.427  1.00  0.00     0.163 HD
BRANCH  12  14
ATOM     14  C   UNL A   1      30.659  26.403  24.027  1.00  0.00     0.052 C 
ATOM     15  H   UNL A   1      29.966  25.593  24.120  1.00  0.00     0.042 H 
ATOM     16  H   UNL A   1      31.456  26.218  23.338  1.00  0.00     0.042 H 
BRANCH  14  17
ATOM     17  C   UNL A   1      29.910  27.595  23.475  1.00  0.00    -0.032 A 
ATOM     18  C   UNL A   1      30.596  28.706  22.844  1.00  0.00    -0.042 A 
ATOM     19  C   UNL A   1      28.569  27.641  23.572  1.00  0.00     0.007 A 
ATOM     20  C   UNL A   1      29.906  29.744  22.354  1.00  0.00     0.013 A 
ATOM     21  H   UNL A   1      31.627  28.697  22.771  1.00  0.00     0.064 H 
ATOM     22  C   UNL A   1      27.788  28.800  23.056  1.00  0.00     0.255 A 
ATOM     23  H   UNL A   1      28.069  26.854  24.015  1.00  0.00     0.068 H 
ATOM     24  N   UNL A   1      28.529  29.798  22.449  1.00  0.00    -0.258 N 
ATOM     25  H   UNL A   1      30.413  30.519  21.898  1.00  0.00     0.082 H 
ATOM     26  O   UNL A   1      26.569  28.793  23.196  1.00  0.00    -0.269 OA
BRANCH  24  27
ATOM     27  C   UNL A   1      27.808  30.948  21.966  1.00  0.00     0.321 C 
ATOM     28  F   UNL A   1      27.489  31.791  22.978  1.00  0.00    -0.185 F 
ATOM     29  F   UNL A   1      28.545  31.635  21.061  1.00  0.00    -0.185 F 
ATOM     30  H   UNL A   1      26.912  30.581  21.509  1.00  0.00     0.131 H 
ENDBRANCH  24  27
ENDBRANCH  14  17
ENDBRANCH  12  14
ENDBRANCH   7  10
ENDBRANCH   4   7
ENDBRANCH   1   4
BRANCH   1  31
ATOM     31  C   UNL A   1      31.273  30.729  26.483  1.00  0.00    -0.052 C 
ATOM     32  H   UNL A   1      31.119  30.485  27.514  1.00  0.00     0.027 H 
ATOM     33  H   UNL A   1      30.437  30.498  25.858  1.00  0.00     0.027 H 
BRANCH  31  34
ATOM     34  C   UNL A   1      31.472  32.240  26.380  1.00  0.00    -0.036 C 
ATOM     35  H   UNL A   1      30.537  32.713  26.599  1.00  0.00     0.028 H 
ATOM     36  H   UNL A   1      31.823  32.426  25.386  1.00  0.00     0.028 H 
BRANCH  34  37
ATOM     37  C   UNL A   1      32.526  32.822  27.316  1.00  0.00     0.018 C 
ATOM     38  H   UNL A   1      33.485  32.726  26.848  1.00  0.00     0.049 H 
ATOM     39  H   UNL A   1      32.471  32.277  28.234  1.00  0.00     0.049 H 
BRANCH  37  40
ATOM     40  N   UNL A   1      32.304  34.225  27.631  1.00  0.00    -0.352 N 
ATOM     41  C   UNL A   1      32.933  35.016  28.564  1.00  0.00     0.251 C 
ATOM     42  H   UNL A   1      31.605  34.671  27.102  1.00  0.00     0.163 HD
ATOM     43  O   UNL A   1      32.535  36.158  28.777  1.00  0.00    -0.269 OA
BRANCH  41  44
ATOM     44  C   UNL A   1      34.068  34.475  29.345  1.00  0.00     0.039 A 
ATOM     45  C   UNL A   1      35.367  34.505  28.834  1.00  0.00    -0.049 A 
ATOM     46  C   UNL A   1      33.823  33.906  30.599  1.00  0.00    -0.049 A 
ATOM     47  C   UNL A   1      36.382  33.819  29.493  1.00  0.00    -0.053 A 
ATOM     48  H   UNL A   1      35.573  35.034  27.973  1.00  0.00     0.063 H 
ATOM     49  C   UNL A   1      34.864  33.292  31.301  1.00  0.00    -0.053 A 
ATOM     50  H   UNL A   1      32.874  33.941  31.005  1.00  0.00     0.063 H 
ATOM     51  C   UNL A   1      36.142  33.199  30.730  1.00  0.00    -0.014 A 
ATOM     52  H   UNL A   1      37.321  33.765  29.068  1.00  0.00     0.063 H 
ATOM     53  H   UNL A   1      34.692  32.906  32.243  1.00  0.00     0.063 H 
BRANCH  51  54
ATOM     54  C   UNL A   1      37.247  32.460  31.398  1.00  0.00     0.031 A 
ATOM     55  C   UNL A   1      37.998  31.374  30.677  1.00  0.00     0.074 A 
ATOM     56  C   UNL A   1      37.618  32.824  32.640  1.00  0.00     0.049 A 
ATOM     57  N   UNL A   1      39.027  30.673  31.085  1.00  0.00    -0.248 NA
ATOM     58  C   UNL A   1      37.536  31.024  29.325  1.00  0.00    -0.034 C 
ATOM     59  C   UNL A   1      36.970  33.864  33.440  1.00  0.00    -0.036 A 
ATOM     60  N   UNL A   1      38.649  32.388  33.435  1.00  0.00    -0.354 N 
ATOM     61  C   UNL A   1      39.327  29.797  30.050  1.00  0.00     0.074 A 
ATOM     62  C   UNL A   1      38.352  30.027  29.007  1.00  0.00    -0.034 C 
ATOM     63  H   UNL A   1      36.776  31.444  28.768  1.00  0.00     0.065 H 
ATOM     64  C   UNL A   1      37.654  34.032  34.580  1.00  0.00    -0.036 A 
ATOM     65  H   UNL A   1      36.121  34.386  33.168  1.00  0.00     0.065 H 
ATOM     66  C   UNL A   1      38.753  33.073  34.621  1.00  0.00     0.049 A 
ATOM     67  H   UNL A   1      39.254  31.656  33.179  1.00  0.00     0.167 HD
ATOM     68  C   UNL A   1      40.334  28.895  29.972  1.00  0.00     0.037 A 
ATOM     69  H   UNL A   1      38.298  29.487  28.129  1.00  0.00     0.065 H 
ATOM     70  H   UNL A   1      37.438  34.727  35.312  1.00  0.00     0.065 H 
ATOM     71  C   UNL A   1      39.633  32.943  35.632  1.00  0.00     0.037 A 
ATOM     72  C   UNL A   1      41.318  28.682  31.001  1.00  0.00     0.049 A 
ATOM     73  C   UNL A   1      40.717  31.909  35.534  1.00  0.00     0.074 A 
ATOM     74  C   UNL A   1      42.391  27.807  31.000  1.00  0.00    -0.036 A 
ATOM     75  N   UNL A   1      41.351  29.353  32.215  1.00  0.00    -0.354 N 
ATOM     76  N   UNL A   1      40.998  31.099  34.543  1.00  0.00    -0.248 NA
ATOM     77  C   UNL A   1      41.601  31.762  36.699  1.00  0.00    -0.034 C 
ATOM     78  C   UNL A   1      43.048  27.918  32.228  1.00  0.00    -0.036 A 
ATOM     79  H   UNL A   1      42.660  27.181  30.225  1.00  0.00     0.065 H 
ATOM     80  C   UNL A   1      42.413  28.895  32.978  1.00  0.00     0.049 A 
ATOM     81  H   UNL A   1      40.714  30.050  32.493  1.00  0.00     0.167 HD
ATOM     82  C   UNL A   1      42.093  30.355  34.957  1.00  0.00     0.074 A 
ATOM     83  C   UNL A   1      42.440  30.823  36.283  1.00  0.00    -0.034 C 
ATOM     84  H   UNL A   1      41.576  32.260  37.603  1.00  0.00     0.065 H 
ATOM     85  H   UNL A   1      43.868  27.366  32.526  1.00  0.00     0.065 H 
ATOM     86  C   UNL A   1      42.748  29.370  34.296  1.00  0.00     0.037 A 
ATOM     87  H   UNL A   1      43.239  30.470  36.834  1.00  0.00     0.065 H 
BRANCH  68  88
ATOM     88  C   UNL A   1      40.432  28.058  28.730  1.00  0.00     0.064 A 
ATOM     89  C   UNL A   1      41.219  28.454  27.639  1.00  0.00     0.173 A 
ATOM     90  C   UNL A   1      39.794  26.809  28.660  1.00  0.00     0.173 A 
ATOM     91  F   UNL A   1      41.841  29.642  27.652  1.00  0.00    -0.203 F 
ATOM     92  C   UNL A   1      41.351  27.638  26.518  1.00  0.00     0.198 A 
ATOM     93  C   UNL A   1      39.950  25.986  27.547  1.00  0.00     0.198 A 
ATOM     94  F   UNL A   1      39.036  26.379  29.679  1.00  0.00    -0.203 F 
ATOM     95  F   UNL A   1      42.084  28.052  25.474  1.00  0.00    -0.200 F 
ATOM     96  C   UNL A   1      40.724  26.402  26.476  1.00  0.00     0.200 A 
ATOM     97  F   UNL A   1      39.354  24.786  27.516  1.00  0.00    -0.200 F 
ATOM     98  F   UNL A   1      40.867  25.613  25.403  1.00  0.00    -0.200 F 
ENDBRANCH  68  88
BRANCH  71  99
ATOM     99  C   UNL A   1      39.526  33.838  36.812  1.00  0.00     0.064 A 
ATOM    100  C   UNL A   1      38.818  33.439  37.953  1.00  0.00     0.173 A 
ATOM    101  C   UNL A   1      40.163  35.087  36.840  1.00  0.00     0.173 A 
ATOM    102  F   UNL A   1      38.177  32.260  37.965  1.00  0.00    -0.203 F 
ATOM    103  C   UNL A   1      38.750  34.257  39.079  1.00  0.00     0.198 A 
ATOM    104  C   UNL A   1      40.117  35.892  37.976  1.00  0.00     0.198 A 
ATOM    105  F   UNL A   1      40.856  35.511  35.774  1.00  0.00    -0.203 F 
ATOM    106  F   UNL A   1      38.046  33.863  40.148  1.00  0.00    -0.200 F 
ATOM    107  C   UNL A   1      39.408  35.478  39.094  1.00  0.00     0.200 A 
ATOM    108  F   UNL A   1      40.768  37.063  37.991  1.00  0.00    -0.200 F 
ATOM    109  F   UNL A   1      39.357  36.255  40.183  1.00  0.00    -0.200 F 
ENDBRANCH  71  99
BRANCH  86 110
ATOM    110  C   UNL A   1      43.916  28.730  34.985  1.00  0.00     0.064 A 
ATOM    111  C   UNL A   1      43.759  27.575  35.763  1.00  0.00     0.173 A 
ATOM    112  C   UNL A   1      45.213  29.232  34.802  1.00  0.00     0.173 A 
ATOM    113  F   UNL A   1      42.537  27.065  35.978  1.00  0.00    -0.203 F 
ATOM    114  C   UNL A   1      44.860  26.949  36.341  1.00  0.00     0.198 A 
ATOM    115  C   UNL A   1      46.314  28.590  35.361  1.00  0.00     0.198 A 
ATOM    116  F   UNL A   1      45.414  30.332  34.061  1.00  0.00    -0.203 F 
ATOM    117  F   UNL A   1      44.686  25.860  37.103  1.00  0.00    -0.200 F 
ATOM    118  C   UNL A   1      46.137  27.450  36.131  1.00  0.00     0.200 A 
ATOM    119  F   UNL A   1      47.547  29.068  35.146  1.00  0.00    -0.200 F 
ATOM    120  F   UNL A   1      47.196  26.836  36.674  1.00  0.00    -0.200 F 
ENDBRANCH  86 110
ENDBRANCH  51  54
ENDBRANCH  41  44
ENDBRANCH  37  40
ENDBRANCH  34  37
ENDBRANCH  31  34
ENDBRANCH   1  31
TORSDOF 15
ENDMDL
MODEL 9
REMARK VINA RESULT:     -11.6      3.477      5.076
REMARK SMILES O=C(Cc1ccn(C(F)F)c(=O)c1)NCCCCCCNC(=O)c1ccc(-c2c3nc(c(-c4c(F)c(F)c(F)c(F)c4F)c4ccc([nH]4)c(-c4c(F)c(F)c(F)c(F)c4F)c4nc(c(-c5c(F)c(F)c(F)c(F)c5F)c5ccc2[nH]5)C=C4)C=C3)cc1
REMARK SMILES IDX 17 1 16 4 15 7 14 10 1 11 2 12 3 14 4 17 5 18 13 19 6 20
REMARK SMILES IDX 11 22 7 24 12 26 8 27 9 28 10 29 18 31 19 34 20 37 21 40
REMARK SMILES IDX 22 41 23 43 24 44 25 45 86 46 26 47 85 49 27 51 28 54 29 55
REMARK SMILES IDX 79 56 30 57 84 58 78 59 80 60 31 61 83 62 77 64 76 66 32 68
REMARK SMILES IDX 64 71 44 72 63 73 45 74 48 75 62 76 81 77 46 78 47 80 61 82
REMARK SMILES IDX 82 83 49 86 33 88 34 89 42 90 35 91 36 92 40 93 43 94 37 95
REMARK SMILES IDX 38 96 41 97 39 98 65 99 66 100 74 101 67 102 68 103 72 104
REMARK SMILES IDX 75 105 69 106 70 107 73 108 71 109 50 110 51 111 59 112
REMARK SMILES IDX 52 113 53 114 57 115 60 116 54 117 55 118 58 119 56 120
REMARK H PARENT 17 2 17 3 16 5 16 6 15 8 15 9 14 13 3 15 3 16 5 21 13 23 6 25
REMARK H PARENT 8 30 18 32 18 33 19 35 19 36 20 38 20 39 21 42 25 48 86 50
REMARK H PARENT 26 52 85 53 84 63 78 65 80 67 83 69 77 70 45 79 48 81 81 84
REMARK H PARENT 46 85 82 87
REMARK Flexibility Score: inf
ROOT
ATOM      1  C   UNL A   1      33.796  27.110  26.127  1.00  0.00    -0.052 C 
ATOM      2  H   UNL A   1      34.063  27.875  25.429  1.00  0.00     0.027 H 
ATOM      3  H   UNL A   1      34.365  27.131  27.033  1.00  0.00     0.027 H 
ENDROOT
BRANCH   1   4
ATOM      4  C   UNL A   1      34.097  25.753  25.476  1.00  0.00    -0.036 C 
ATOM      5  H   UNL A   1      35.142  25.555  25.589  1.00  0.00     0.028 H 
ATOM      6  H   UNL A   1      33.474  25.038  25.972  1.00  0.00     0.028 H 
BRANCH   4   7
ATOM      7  C   UNL A   1      33.753  25.662  23.991  1.00  0.00     0.017 C 
ATOM      8  H   UNL A   1      33.296  26.580  23.684  1.00  0.00     0.049 H 
ATOM      9  H   UNL A   1      34.658  25.483  23.450  1.00  0.00     0.049 H 
BRANCH   7  10
ATOM     10  N   UNL A   1      32.841  24.571  23.719  1.00  0.00    -0.356 N 
ATOM     11  O   UNL A   1      34.303  23.329  22.455  1.00  0.00    -0.275 OA
ATOM     12  C   UNL A   1      33.197  23.476  22.964  1.00  0.00     0.224 C 
ATOM     13  H   UNL A   1      31.929  24.614  24.089  1.00  0.00     0.163 HD
BRANCH  12  14
ATOM     14  C   UNL A   1      32.091  22.433  22.833  1.00  0.00     0.052 C 
ATOM     15  H   UNL A   1      31.793  22.398  21.806  1.00  0.00     0.042 H 
ATOM     16  H   UNL A   1      31.317  22.746  23.501  1.00  0.00     0.042 H 
BRANCH  14  17
ATOM     17  C   UNL A   1      32.454  21.028  23.258  1.00  0.00    -0.032 A 
ATOM     18  C   UNL A   1      33.153  20.759  24.501  1.00  0.00    -0.042 A 
ATOM     19  C   UNL A   1      32.132  19.988  22.467  1.00  0.00     0.007 A 
ATOM     20  C   UNL A   1      33.453  19.504  24.857  1.00  0.00     0.013 A 
ATOM     21  H   UNL A   1      33.422  21.544  25.117  1.00  0.00     0.064 H 
ATOM     22  C   UNL A   1      32.481  18.588  22.835  1.00  0.00     0.255 A 
ATOM     23  H   UNL A   1      31.630  20.167  21.582  1.00  0.00     0.068 H 
ATOM     24  N   UNL A   1      33.124  18.432  24.051  1.00  0.00    -0.258 N 
ATOM     25  H   UNL A   1      33.940  19.334  25.751  1.00  0.00     0.082 H 
ATOM     26  O   UNL A   1      32.179  17.687  22.059  1.00  0.00    -0.269 OA
BRANCH  24  27
ATOM     27  C   UNL A   1      33.503  17.093  24.423  1.00  0.00     0.321 C 
ATOM     28  F   UNL A   1      34.748  16.792  23.982  1.00  0.00    -0.185 F 
ATOM     29  F   UNL A   1      33.485  16.943  25.769  1.00  0.00    -0.185 F 
ATOM     30  H   UNL A   1      32.792  16.433  23.970  1.00  0.00     0.131 H 
ENDBRANCH  24  27
ENDBRANCH  14  17
ENDBRANCH  12  14
ENDBRANCH   7  10
ENDBRANCH   4   7
ENDBRANCH   1   4
BRANCH   1  31
ATOM     31  C   UNL A   1      32.340  27.338  26.542  1.00  0.00    -0.052 C 
ATOM     32  H   UNL A   1      32.265  27.158  27.595  1.00  0.00     0.027 H 
ATOM     33  H   UNL A   1      31.756  26.666  25.949  1.00  0.00     0.027 H 
BRANCH  31  34
ATOM     34  C   UNL A   1      31.788  28.735  26.262  1.00  0.00    -0.036 C 
ATOM     35  H   UNL A   1      31.289  29.077  27.145  1.00  0.00     0.028 H 
ATOM     36  H   UNL A   1      31.139  28.633  25.417  1.00  0.00     0.028 H 
BRANCH  34  37
ATOM     37  C   UNL A   1      32.829  29.779  25.873  1.00  0.00     0.018 C 
ATOM     38  H   UNL A   1      32.906  29.799  24.805  1.00  0.00     0.049 H 
ATOM     39  H   UNL A   1      33.750  29.496  26.337  1.00  0.00     0.049 H 
BRANCH  37  40
ATOM     40  N   UNL A   1      32.502  31.118  26.339  1.00  0.00    -0.352 N 
ATOM     41  C   UNL A   1      33.191  31.925  27.214  1.00  0.00     0.251 C 
ATOM     42  H   UNL A   1      31.671  31.500  25.976  1.00  0.00     0.163 HD
ATOM     43  O   UNL A   1      32.705  32.989  27.588  1.00  0.00    -0.269 OA
BRANCH  41  44
ATOM     44  C   UNL A   1      34.505  31.490  27.741  1.00  0.00     0.039 A 
ATOM     45  C   UNL A   1      34.735  30.155  28.076  1.00  0.00    -0.049 A 
ATOM     46  C   UNL A   1      35.514  32.441  27.923  1.00  0.00    -0.049 A 
ATOM     47  C   UNL A   1      35.901  29.805  28.748  1.00  0.00    -0.053 A 
ATOM     48  H   UNL A   1      34.044  29.431  27.825  1.00  0.00     0.063 H 
ATOM     49  C   UNL A   1      36.721  32.069  28.521  1.00  0.00    -0.053 A 
ATOM     50  H   UNL A   1      35.367  33.416  27.617  1.00  0.00     0.063 H 
ATOM     51  C   UNL A   1      36.905  30.758  28.986  1.00  0.00    -0.014 A 
ATOM     52  H   UNL A   1      36.029  28.835  29.076  1.00  0.00     0.063 H 
ATOM     53  H   UNL A   1      37.480  32.761  28.622  1.00  0.00     0.063 H 
BRANCH  51  54
ATOM     54  C   UNL A   1      38.131  30.352  29.722  1.00  0.00     0.031 A 
ATOM     55  C   UNL A   1      38.363  30.794  31.141  1.00  0.00     0.074 A 
ATOM     56  C   UNL A   1      39.006  29.519  29.126  1.00  0.00     0.049 A 
ATOM     57  N   UNL A   1      39.343  30.482  31.953  1.00  0.00    -0.248 NA
ATOM     58  C   UNL A   1      37.370  31.706  31.730  1.00  0.00    -0.034 C 
ATOM     59  C   UNL A   1      38.889  29.019  27.756  1.00  0.00    -0.036 A 
ATOM     60  N   UNL A   1      40.145  28.919  29.603  1.00  0.00    -0.354 N 
ATOM     61  C   UNL A   1      39.093  31.165  33.136  1.00  0.00     0.074 A 
ATOM     62  C   UNL A   1      37.887  31.936  32.930  1.00  0.00    -0.034 C 
ATOM     63  H   UNL A   1      36.499  32.073  31.317  1.00  0.00     0.065 H 
ATOM     64  C   UNL A   1      39.874  28.141  27.524  1.00  0.00    -0.036 A 
ATOM     65  H   UNL A   1      38.162  29.298  27.077  1.00  0.00     0.065 H 
ATOM     66  C   UNL A   1      40.727  28.059  28.705  1.00  0.00     0.049 A 
ATOM     67  H   UNL A   1      40.509  29.090  30.501  1.00  0.00     0.167 HD
ATOM     68  C   UNL A   1      39.797  31.137  34.293  1.00  0.00     0.037 A 
ATOM     69  H   UNL A   1      37.481  32.581  33.626  1.00  0.00     0.065 H 
ATOM     70  H   UNL A   1      40.008  27.608  26.649  1.00  0.00     0.065 H 
ATOM     71  C   UNL A   1      41.827  27.290  28.816  1.00  0.00     0.037 A 
ATOM     72  C   UNL A   1      40.984  30.351  34.505  1.00  0.00     0.049 A 
ATOM     73  C   UNL A   1      42.608  27.307  30.098  1.00  0.00     0.074 A 
ATOM     74  C   UNL A   1      41.751  30.240  35.652  1.00  0.00    -0.036 A 
ATOM     75  N   UNL A   1      41.577  29.540  33.548  1.00  0.00    -0.354 N 
ATOM     76  N   UNL A   1      42.350  27.946  31.213  1.00  0.00    -0.248 NA
ATOM     77  C   UNL A   1      43.840  26.507  30.135  1.00  0.00    -0.034 C 
ATOM     78  C   UNL A   1      42.829  29.395  35.378  1.00  0.00    -0.036 A 
ATOM     79  H   UNL A   1      41.557  30.701  36.555  1.00  0.00     0.065 H 
ATOM     80  C   UNL A   1      42.712  28.943  34.074  1.00  0.00     0.049 A 
ATOM     81  H   UNL A   1      41.242  29.409  32.632  1.00  0.00     0.167 HD
ATOM     82  C   UNL A   1      43.377  27.617  32.086  1.00  0.00     0.074 A 
ATOM     83  C   UNL A   1      44.254  26.707  31.379  1.00  0.00    -0.034 C 
ATOM     84  H   UNL A   1      44.270  25.937  29.389  1.00  0.00     0.065 H 
ATOM     85  H   UNL A   1      43.586  29.149  36.036  1.00  0.00     0.065 H 
ATOM     86  C   UNL A   1      43.575  28.038  33.359  1.00  0.00     0.037 A 
ATOM     87  H   UNL A   1      45.094  26.270  31.791  1.00  0.00     0.065 H 
BRANCH  68  88
ATOM     88  C   UNL A   1      39.308  31.984  35.432  1.00  0.00     0.064 A 
ATOM     89  C   UNL A   1      38.444  31.469  36.410  1.00  0.00     0.173 A 
ATOM     90  C   UNL A   1      39.769  33.299  35.591  1.00  0.00     0.173 A 
ATOM     91  F   UNL A   1      37.967  30.220  36.299  1.00  0.00    -0.203 F 
ATOM     92  C   UNL A   1      38.048  32.245  37.496  1.00  0.00     0.198 A 
ATOM     93  C   UNL A   1      39.391  34.064  36.693  1.00  0.00     0.198 A 
ATOM     94  F   UNL A   1      40.603  33.837  34.689  1.00  0.00    -0.203 F 
ATOM     95  F   UNL A   1      37.197  31.742  38.402  1.00  0.00    -0.200 F 
ATOM     96  C   UNL A   1      38.528  33.538  37.641  1.00  0.00     0.200 A 
ATOM     97  F   UNL A   1      39.867  35.308  36.838  1.00  0.00    -0.200 F 
ATOM     98  F   UNL A   1      38.158  34.277  38.696  1.00  0.00    -0.200 F 
ENDBRANCH  68  88
BRANCH  71  99
ATOM     99  C   UNL A   1      42.232  26.427  27.679  1.00  0.00     0.064 A 
ATOM    100  C   UNL A   1      43.216  26.847  26.774  1.00  0.00     0.173 A 
ATOM    101  C   UNL A   1      41.678  25.151  27.497  1.00  0.00     0.173 A 
ATOM    102  F   UNL A   1      43.761  28.067  26.896  1.00  0.00    -0.203 F 
ATOM    103  C   UNL A   1      43.630  26.023  25.729  1.00  0.00     0.198 A 
ATOM    104  C   UNL A   1      42.112  24.318  26.469  1.00  0.00     0.198 A 
ATOM    105  F   UNL A   1      40.736  24.703  28.339  1.00  0.00    -0.203 F 
ATOM    106  F   UNL A   1      44.555  26.458  24.863  1.00  0.00    -0.200 F 
ATOM    107  C   UNL A   1      43.086  24.756  25.583  1.00  0.00     0.200 A 
ATOM    108  F   UNL A   1      41.595  23.088  26.342  1.00  0.00    -0.200 F 
ATOM    109  F   UNL A   1      43.498  23.957  24.590  1.00  0.00    -0.200 F 
ENDBRANCH  71  99
BRANCH  86 110
ATOM    110  C   UNL A   1      44.780  27.516  34.083  1.00  0.00     0.064 A 
ATOM    111  C   UNL A   1      44.752  26.283  34.749  1.00  0.00     0.173 A 
ATOM    112  C   UNL A   1      45.994  28.218  34.043  1.00  0.00     0.173 A 
ATOM    113  F   UNL A   1      43.612  25.582  34.825  1.00  0.00    -0.203 F 
ATOM    114  C   UNL A   1      45.896  25.775  35.357  1.00  0.00     0.198 A 
ATOM    115  C   UNL A   1      47.142  27.696  34.631  1.00  0.00     0.198 A 
ATOM    116  F   UNL A   1      46.071  29.400  33.412  1.00  0.00    -0.203 F 
ATOM    117  F   UNL A   1      45.842  24.607  36.012  1.00  0.00    -0.200 F 
ATOM    118  C   UNL A   1      47.092  26.476  35.289  1.00  0.00     0.200 A 
ATOM    119  F   UNL A   1      48.299  28.368  34.553  1.00  0.00    -0.200 F 
ATOM    120  F   UNL A   1      48.196  25.977  35.861  1.00  0.00    -0.200 F 
ENDBRANCH  86 110
ENDBRANCH  51  54
ENDBRANCH  41  44
ENDBRANCH  37  40
ENDBRANCH  34  37
ENDBRANCH  31  34
ENDBRANCH   1  31
TORSDOF 15
ENDMDL
MODEL 10
REMARK VINA RESULT:     -11.6      2.658      3.951
REMARK SMILES O=C(Cc1ccn(C(F)F)c(=O)c1)NCCCCCCNC(=O)c1ccc(-c2c3nc(c(-c4c(F)c(F)c(F)c(F)c4F)c4ccc([nH]4)c(-c4c(F)c(F)c(F)c(F)c4F)c4nc(c(-c5c(F)c(F)c(F)c(F)c5F)c5ccc2[nH]5)C=C4)C=C3)cc1
REMARK SMILES IDX 17 1 16 4 15 7 14 10 1 11 2 12 3 14 4 17 5 18 13 19 6 20
REMARK SMILES IDX 11 22 7 24 12 26 8 27 9 28 10 29 18 31 19 34 20 37 21 40
REMARK SMILES IDX 22 41 23 43 24 44 25 45 86 46 26 47 85 49 27 51 28 54 29 55
REMARK SMILES IDX 79 56 30 57 84 58 78 59 80 60 31 61 83 62 77 64 76 66 32 68
REMARK SMILES IDX 64 71 44 72 63 73 45 74 48 75 62 76 81 77 46 78 47 80 61 82
REMARK SMILES IDX 82 83 49 86 33 88 34 89 42 90 35 91 36 92 40 93 43 94 37 95
REMARK SMILES IDX 38 96 41 97 39 98 65 99 66 100 74 101 67 102 68 103 72 104
REMARK SMILES IDX 75 105 69 106 70 107 73 108 71 109 50 110 51 111 59 112
REMARK SMILES IDX 52 113 53 114 57 115 60 116 54 117 55 118 58 119 56 120
REMARK H PARENT 17 2 17 3 16 5 16 6 15 8 15 9 14 13 3 15 3 16 5 21 13 23 6 25
REMARK H PARENT 8 30 18 32 18 33 19 35 19 36 20 38 20 39 21 42 25 48 86 50
REMARK H PARENT 26 52 85 53 84 63 78 65 80 67 83 69 77 70 45 79 48 81 81 84
REMARK H PARENT 46 85 82 87
REMARK Flexibility Score: inf
ROOT
ATOM      1  C   UNL A   1      32.405  29.584  27.272  1.00  0.00    -0.052 C 
ATOM      2  H   UNL A   1      33.372  29.284  26.925  1.00  0.00     0.027 H 
ATOM      3  H   UNL A   1      32.422  30.120  28.198  1.00  0.00     0.027 H 
ENDROOT
BRANCH   1   4
ATOM      4  C   UNL A   1      31.586  28.314  27.539  1.00  0.00    -0.036 C 
ATOM      5  H   UNL A   1      32.075  27.760  28.313  1.00  0.00     0.028 H 
ATOM      6  H   UNL A   1      30.604  28.641  27.810  1.00  0.00     0.028 H 
BRANCH   4   7
ATOM      7  C   UNL A   1      31.413  27.394  26.333  1.00  0.00     0.017 C 
ATOM      8  H   UNL A   1      30.435  27.540  25.923  1.00  0.00     0.049 H 
ATOM      9  H   UNL A   1      32.170  27.638  25.617  1.00  0.00     0.049 H 
BRANCH   7  10
ATOM     10  N   UNL A   1      31.566  26.001  26.695  1.00  0.00    -0.356 N 
ATOM     11  O   UNL A   1      31.092  25.146  24.616  1.00  0.00    -0.275 OA
ATOM     12  C   UNL A   1      31.393  24.975  25.793  1.00  0.00     0.224 C 
ATOM     13  H   UNL A   1      31.802  25.778  27.625  1.00  0.00     0.163 HD
BRANCH  12  14
ATOM     14  C   UNL A   1      31.635  23.589  26.382  1.00  0.00     0.052 C 
ATOM     15  H   UNL A   1      30.907  22.924  25.965  1.00  0.00     0.042 H 
ATOM     16  H   UNL A   1      31.559  23.708  27.443  1.00  0.00     0.042 H 
BRANCH  14  17
ATOM     17  C   UNL A   1      33.003  22.995  26.134  1.00  0.00    -0.032 A 
ATOM     18  C   UNL A   1      34.221  23.740  26.392  1.00  0.00    -0.042 A 
ATOM     19  C   UNL A   1      33.108  21.743  25.653  1.00  0.00     0.007 A 
ATOM     20  C   UNL A   1      35.419  23.185  26.172  1.00  0.00     0.013 A 
ATOM     21  H   UNL A   1      34.163  24.708  26.748  1.00  0.00     0.064 H 
ATOM     22  C   UNL A   1      34.432  21.119  25.378  1.00  0.00     0.255 A 
ATOM     23  H   UNL A   1      32.248  21.201  25.470  1.00  0.00     0.068 H 
ATOM     24  N   UNL A   1      35.534  21.899  25.680  1.00  0.00    -0.258 N 
ATOM     25  H   UNL A   1      36.273  23.728  26.374  1.00  0.00     0.082 H 
ATOM     26  O   UNL A   1      34.459  19.982  24.919  1.00  0.00    -0.269 OA
BRANCH  24  27
ATOM     27  C   UNL A   1      36.830  21.338  25.398  1.00  0.00     0.321 C 
ATOM     28  F   UNL A   1      37.101  21.363  24.070  1.00  0.00    -0.185 F 
ATOM     29  F   UNL A   1      37.805  22.026  26.039  1.00  0.00    -0.185 F 
ATOM     30  H   UNL A   1      36.809  20.324  25.740  1.00  0.00     0.131 H 
ENDBRANCH  24  27
ENDBRANCH  14  17
ENDBRANCH  12  14
ENDBRANCH   7  10
ENDBRANCH   4   7
ENDBRANCH   1   4
BRANCH   1  31
ATOM     31  C   UNL A   1      31.813  30.549  26.241  1.00  0.00    -0.052 C 
ATOM     32  H   UNL A   1      30.900  30.125  25.877  1.00  0.00     0.027 H 
ATOM     33  H   UNL A   1      32.561  30.669  25.487  1.00  0.00     0.027 H 
BRANCH  31  34
ATOM     34  C   UNL A   1      31.506  31.954  26.758  1.00  0.00    -0.036 C 
ATOM     35  H   UNL A   1      30.790  31.868  27.547  1.00  0.00     0.028 H 
ATOM     36  H   UNL A   1      31.149  32.509  25.915  1.00  0.00     0.028 H 
BRANCH  34  37
ATOM     37  C   UNL A   1      32.708  32.726  27.293  1.00  0.00     0.018 C 
ATOM     38  H   UNL A   1      33.464  32.744  26.535  1.00  0.00     0.049 H 
ATOM     39  H   UNL A   1      33.038  32.225  28.178  1.00  0.00     0.049 H 
BRANCH  37  40
ATOM     40  N   UNL A   1      32.391  34.097  27.663  1.00  0.00    -0.352 N 
ATOM     41  C   UNL A   1      32.995  34.906  28.598  1.00  0.00     0.251 C 
ATOM     42  H   UNL A   1      31.640  34.504  27.175  1.00  0.00     0.163 HD
ATOM     43  O   UNL A   1      32.519  36.006  28.865  1.00  0.00    -0.269 OA
BRANCH  41  44
ATOM     44  C   UNL A   1      34.198  34.430  29.318  1.00  0.00     0.039 A 
ATOM     45  C   UNL A   1      35.474  34.623  28.784  1.00  0.00    -0.049 A 
ATOM     46  C   UNL A   1      34.043  33.760  30.536  1.00  0.00    -0.049 A 
ATOM     47  C   UNL A   1      36.568  34.000  29.375  1.00  0.00    -0.053 A 
ATOM     48  H   UNL A   1      35.604  35.224  27.956  1.00  0.00     0.063 H 
ATOM     49  C   UNL A   1      35.158  33.208  31.174  1.00  0.00    -0.053 A 
ATOM     50  H   UNL A   1      33.107  33.673  30.962  1.00  0.00     0.063 H 
ATOM     51  C   UNL A   1      36.423  33.279  30.571  1.00  0.00    -0.014 A 
ATOM     52  H   UNL A   1      37.496  34.068  28.928  1.00  0.00     0.063 H 
ATOM     53  H   UNL A   1      35.050  32.747  32.090  1.00  0.00     0.063 H 
BRANCH  51  54
ATOM     54  C   UNL A   1      37.612  32.613  31.166  1.00  0.00     0.031 A 
ATOM     55  C   UNL A   1      38.071  32.949  32.559  1.00  0.00     0.074 A 
ATOM     56  C   UNL A   1      38.237  31.646  30.468  1.00  0.00     0.049 A 
ATOM     57  N   UNL A   1      39.047  32.420  33.256  1.00  0.00    -0.248 NA
ATOM     58  C   UNL A   1      37.346  34.018  33.264  1.00  0.00    -0.034 C 
ATOM     59  C   UNL A   1      37.883  31.229  29.111  1.00  0.00    -0.036 A 
ATOM     60  N   UNL A   1      39.276  30.816  30.810  1.00  0.00    -0.354 N 
ATOM     61  C   UNL A   1      39.060  33.096  34.469  1.00  0.00     0.074 A 
ATOM     62  C   UNL A   1      38.018  34.097  34.405  1.00  0.00    -0.034 C 
ATOM     63  H   UNL A   1      36.529  34.564  32.952  1.00  0.00     0.065 H 
ATOM     64  C   UNL A   1      38.644  30.182  28.761  1.00  0.00    -0.036 A 
ATOM     65  H   UNL A   1      37.162  31.670  28.517  1.00  0.00     0.065 H 
ATOM     66  C   UNL A   1      39.578  29.890  29.842  1.00  0.00     0.049 A 
ATOM     67  H   UNL A   1      39.755  30.879  31.667  1.00  0.00     0.167 HD
ATOM     68  C   UNL A   1      39.858  32.888  35.544  1.00  0.00     0.037 A 
ATOM     69  H   UNL A   1      37.822  34.784  35.151  1.00  0.00     0.065 H 
ATOM     70  H   UNL A   1      38.578  29.665  27.869  1.00  0.00     0.065 H 
ATOM     71  C   UNL A   1      40.507  28.915  29.824  1.00  0.00     0.037 A 
ATOM     72  C   UNL A   1      40.879  31.876  35.615  1.00  0.00     0.049 A 
ATOM     73  C   UNL A   1      41.403  28.732  31.015  1.00  0.00     0.074 A 
ATOM     74  C   UNL A   1      41.721  31.574  36.672  1.00  0.00    -0.036 A 
ATOM     75  N   UNL A   1      41.197  30.999  34.589  1.00  0.00    -0.354 N 
ATOM     76  N   UNL A   1      41.393  29.368  32.161  1.00  0.00    -0.248 NA
ATOM     77  C   UNL A   1      42.447  27.703  30.908  1.00  0.00    -0.034 C 
ATOM     78  C   UNL A   1      42.574  30.543  36.272  1.00  0.00    -0.036 A 
ATOM     79  H   UNL A   1      41.716  32.031  37.598  1.00  0.00     0.065 H 
ATOM     80  C   UNL A   1      42.236  30.171  34.981  1.00  0.00     0.049 A 
ATOM     81  H   UNL A   1      40.751  30.970  33.712  1.00  0.00     0.167 HD
ATOM     82  C   UNL A   1      42.417  28.812  32.914  1.00  0.00     0.074 A 
ATOM     83  C   UNL A   1      43.017  27.773  32.103  1.00  0.00    -0.034 C 
ATOM     84  H   UNL A   1      42.676  27.087  30.111  1.00  0.00     0.065 H 
ATOM     85  H   UNL A   1      43.329  30.129  36.842  1.00  0.00     0.065 H 
ATOM     86  C   UNL A   1      42.823  29.139  34.164  1.00  0.00     0.037 A 
ATOM     87  H   UNL A   1      43.789  27.163  32.416  1.00  0.00     0.065 H 
BRANCH  68  88
ATOM     88  C   UNL A   1      39.667  33.772  36.741  1.00  0.00     0.064 A 
ATOM     89  C   UNL A   1      40.242  35.050  36.809  1.00  0.00     0.173 A 
ATOM     90  C   UNL A   1      38.836  33.371  37.799  1.00  0.00     0.173 A 
ATOM     91  F   UNL A   1      41.052  35.478  35.829  1.00  0.00    -0.203 F 
ATOM     92  C   UNL A   1      40.006  35.885  37.898  1.00  0.00     0.198 A 
ATOM     93  C   UNL A   1      38.582  34.219  38.873  1.00  0.00     0.198 A 
ATOM     94  F   UNL A   1      38.254  32.162  37.780  1.00  0.00    -0.203 F 
ATOM     95  F   UNL A   1      40.592  37.090  37.955  1.00  0.00    -0.200 F 
ATOM     96  C   UNL A   1      39.169  35.473  38.924  1.00  0.00     0.200 A 
ATOM     97  F   UNL A   1      37.762  33.824  39.858  1.00  0.00    -0.200 F 
ATOM     98  F   UNL A   1      38.931  36.286  39.963  1.00  0.00    -0.200 F 
ENDBRANCH  68  88
BRANCH  71  99
ATOM     99  C   UNL A   1      40.614  28.031  28.637  1.00  0.00     0.064 A 
ATOM    100  C   UNL A   1      39.928  26.811  28.587  1.00  0.00     0.173 A 
ATOM    101  C   UNL A   1      41.365  28.406  27.513  1.00  0.00     0.173 A 
ATOM    102  F   UNL A   1      39.212  26.401  29.645  1.00  0.00    -0.203 F 
ATOM    103  C   UNL A   1      39.990  25.997  27.458  1.00  0.00     0.198 A 
ATOM    104  C   UNL A   1      41.404  27.605  26.374  1.00  0.00     0.198 A 
ATOM    105  F   UNL A   1      42.035  29.567  27.511  1.00  0.00    -0.203 F 
ATOM    106  F   UNL A   1      39.345  24.823  27.445  1.00  0.00    -0.200 F 
ATOM    107  C   UNL A   1      40.720  26.399  26.349  1.00  0.00     0.200 A 
ATOM    108  F   UNL A   1      42.097  28.006  25.299  1.00  0.00    -0.200 F 
ATOM    109  F   UNL A   1      40.764  25.625  25.257  1.00  0.00    -0.200 F 
ENDBRANCH  71  99
BRANCH  86 110
ATOM    110  C   UNL A   1      43.966  28.364  34.747  1.00  0.00     0.064 A 
ATOM    111  C   UNL A   1      43.760  27.139  35.397  1.00  0.00     0.173 A 
ATOM    112  C   UNL A   1      45.286  28.811  34.585  1.00  0.00     0.173 A 
ATOM    113  F   UNL A   1      42.516  26.676  35.587  1.00  0.00    -0.203 F 
ATOM    114  C   UNL A   1      44.835  26.393  35.871  1.00  0.00     0.198 A 
ATOM    115  C   UNL A   1      46.360  28.051  35.039  1.00  0.00     0.198 A 
ATOM    116  F   UNL A   1      45.535  29.974  33.965  1.00  0.00    -0.203 F 
ATOM    117  F   UNL A   1      44.615  25.237  36.514  1.00  0.00    -0.200 F 
ATOM    118  C   UNL A   1      46.134  26.844  35.684  1.00  0.00     0.200 A 
ATOM    119  F   UNL A   1      47.614  28.482  34.846  1.00  0.00    -0.200 F 
ATOM    120  F   UNL A   1      47.168  26.116  36.127  1.00  0.00    -0.200 F 
ENDBRANCH  86 110
ENDBRANCH  51  54
ENDBRANCH  41  44
ENDBRANCH  37  40
ENDBRANCH  34  37
ENDBRANCH  31  34
ENDBRANCH   1  31
TORSDOF 15
ENDMDL
