MODEL 1
REMARK VINA RESULT:     -13.0      0.000      0.000
REMARK SMILES CS(=O)(=O)c1ccc(-n2nc(C(F)(F)F)cc2-c2ccc(CC(=O)NCCCCCCNC(=O)c3ccc(-c4c5nc(c(-c6c(F)c(F)c(F)c(F)c6F)c6ccc([nH]6)c(-c6c(F)c(F)c(F)c(F)c6F)c6nc(c(-c7c(F)c(F)c(F)c(F)c7F)c7ccc4[nH]7)C=C6)C=C5)cc3)cc2)cc1
REMARK SMILES IDX 27 1 26 4 25 7 23 8 24 9 22 11 21 14 18 15 19 16 99 17 20 18
REMARK SMILES IDX 98 20 17 24 9 25 10 26 11 27 16 28 8 30 5 31 6 32 101 33
REMARK SMILES IDX 7 34 100 36 2 40 3 41 4 42 1 43 12 47 13 48 14 49 15 50
REMARK SMILES IDX 28 51 29 54 30 57 31 60 32 63 33 64 34 66 35 67 36 68 97 69
REMARK SMILES IDX 37 70 96 72 38 74 39 77 40 78 90 79 41 80 95 81 89 82 91 83
REMARK SMILES IDX 42 84 94 85 88 87 87 89 43 91 75 94 55 95 74 96 56 97 59 98
REMARK SMILES IDX 73 99 92 100 57 101 58 103 72 105 93 106 60 109 44 111
REMARK SMILES IDX 45 112 53 113 46 114 47 115 51 116 54 117 48 118 49 119
REMARK SMILES IDX 52 120 50 121 76 122 77 123 85 124 78 125 79 126 83 127
REMARK SMILES IDX 86 128 80 129 81 130 84 131 82 132 61 133 62 134 70 135
REMARK SMILES IDX 63 136 64 137 68 138 71 139 65 140 66 141 69 142 67 143
REMARK H PARENT 27 2 27 3 26 5 26 6 25 10 22 12 22 13 19 19 99 21 20 22 98 23
REMARK H PARENT 16 29 6 35 101 37 7 38 100 39 1 44 1 45 1 46 28 52 28 53 29 55
REMARK H PARENT 29 56 30 58 30 59 31 61 31 62 32 65 36 71 97 73 37 75 96 76
REMARK H PARENT 95 86 89 88 91 90 94 92 88 93 56 102 59 104 92 107 57 108
REMARK H PARENT 93 110
REMARK Flexibility Score: inf
ROOT
ATOM      1  C   UNL A   1      34.540  21.188  25.943  1.00  0.00    -0.036 C 
ATOM      2  H   UNL A   1      34.028  20.249  25.904  1.00  0.00     0.028 H 
ATOM      3  H   UNL A   1      35.501  21.112  26.409  1.00  0.00     0.028 H 
ENDROOT
BRANCH   1   4
ATOM      4  C   UNL A   1      33.710  22.154  26.792  1.00  0.00     0.017 C 
ATOM      5  H   UNL A   1      34.054  22.112  27.804  1.00  0.00     0.049 H 
ATOM      6  H   UNL A   1      33.828  23.139  26.390  1.00  0.00     0.049 H 
BRANCH   4   7
ATOM      7  N   UNL A   1      32.302  21.814  26.756  1.00  0.00    -0.356 N 
ATOM      8  C   UNL A   1      31.324  22.274  25.924  1.00  0.00     0.224 C 
ATOM      9  O   UNL A   1      30.162  21.915  26.125  1.00  0.00    -0.275 OA
ATOM     10  H   UNL A   1      32.009  21.156  27.428  1.00  0.00     0.163 HD
BRANCH   8  11
ATOM     11  C   UNL A   1      31.681  23.170  24.749  1.00  0.00     0.052 C 
ATOM     12  H   UNL A   1      32.483  22.712  24.208  1.00  0.00     0.042 H 
ATOM     13  H   UNL A   1      30.795  23.275  24.159  1.00  0.00     0.042 H 
BRANCH  11  14
ATOM     14  C   UNL A   1      32.109  24.560  25.148  1.00  0.00    -0.039 A 
ATOM     15  C   UNL A   1      32.999  27.080  25.995  1.00  0.00     0.000 A 
ATOM     16  C   UNL A   1      31.815  26.536  26.509  1.00  0.00    -0.053 A 
ATOM     17  C   UNL A   1      33.705  26.386  25.012  1.00  0.00    -0.053 A 
ATOM     18  C   UNL A   1      31.377  25.280  26.097  1.00  0.00    -0.058 A 
ATOM     19  H   UNL A   1      31.263  27.069  27.200  1.00  0.00     0.063 H 
ATOM     20  C   UNL A   1      33.253  25.141  24.580  1.00  0.00    -0.058 A 
ATOM     21  H   UNL A   1      34.561  26.794  24.607  1.00  0.00     0.063 H 
ATOM     22  H   UNL A   1      30.511  24.881  26.493  1.00  0.00     0.063 H 
ATOM     23  H   UNL A   1      33.764  24.641  23.836  1.00  0.00     0.063 H 
BRANCH  15  24
ATOM     24  C   UNL A   1      33.478  28.375  26.454  1.00  0.00     0.075 A 
ATOM     25  N   UNL A   1      32.970  29.598  26.055  1.00  0.00    -0.233 N 
ATOM     26  N   UNL A   1      33.686  30.642  26.547  1.00  0.00    -0.163 NA
ATOM     27  C   UNL A   1      34.655  30.075  27.295  1.00  0.00     0.167 A 
ATOM     28  C   UNL A   1      34.545  28.664  27.278  1.00  0.00    -0.003 A 
ATOM     29  H   UNL A   1      35.142  27.989  27.780  1.00  0.00     0.067 H 
BRANCH  25  30
ATOM     30  C   UNL A   1      31.853  29.823  25.218  1.00  0.00     0.065 A 
ATOM     31  C   UNL A   1      29.653  30.323  23.590  1.00  0.00     0.067 A 
ATOM     32  C   UNL A   1      30.478  29.220  23.329  1.00  0.00    -0.041 A 
ATOM     33  C   UNL A   1      29.942  31.192  24.643  1.00  0.00    -0.041 A 
ATOM     34  C   UNL A   1      31.586  28.964  24.147  1.00  0.00    -0.035 A 
ATOM     35  H   UNL A   1      30.268  28.596  22.534  1.00  0.00     0.064 H 
ATOM     36  C   UNL A   1      31.056  30.949  25.448  1.00  0.00    -0.035 A 
ATOM     37  H   UNL A   1      29.338  32.009  24.827  1.00  0.00     0.064 H 
ATOM     38  H   UNL A   1      32.196  28.153  23.962  1.00  0.00     0.065 H 
ATOM     39  H   UNL A   1      31.292  31.600  26.213  1.00  0.00     0.065 H 
BRANCH  31  40
ATOM     40  S   UNL A   1      28.297  30.706  22.501  1.00  0.00     0.175 S 
ATOM     41  O   UNL A   1      27.082  30.349  23.224  1.00  0.00    -0.224 OA
ATOM     42  O   UNL A   1      28.594  30.147  21.205  1.00  0.00    -0.224 OA
BRANCH  40  43
ATOM     43  C   UNL A   1      28.312  32.460  22.326  1.00  0.00     0.043 C 
ATOM     44  H   UNL A   1      27.312  32.813  22.187  1.00  0.00     0.040 H 
ATOM     45  H   UNL A   1      28.906  32.729  21.477  1.00  0.00     0.040 H 
ATOM     46  H   UNL A   1      28.727  32.903  23.207  1.00  0.00     0.040 H 
ENDBRANCH  40  43
ENDBRANCH  31  40
ENDBRANCH  25  30
BRANCH  27  47
ATOM     47  C   UNL A   1      35.712  30.864  28.024  1.00  0.00     0.435 C 
ATOM     48  F   UNL A   1      36.972  30.455  27.721  1.00  0.00    -0.164 F 
ATOM     49  F   UNL A   1      35.647  32.193  27.743  1.00  0.00    -0.164 F 
ATOM     50  F   UNL A   1      35.583  30.751  29.375  1.00  0.00    -0.164 F 
ENDBRANCH  27  47
ENDBRANCH  15  24
ENDBRANCH  11  14
ENDBRANCH   8  11
ENDBRANCH   4   7
ENDBRANCH   1   4
BRANCH   1  51
ATOM     51  C   UNL A   1      34.778  21.669  24.506  1.00  0.00    -0.052 C 
ATOM     52  H   UNL A   1      34.234  22.580  24.371  1.00  0.00     0.027 H 
ATOM     53  H   UNL A   1      34.453  20.871  23.873  1.00  0.00     0.027 H 
BRANCH  51  54
ATOM     54  C   UNL A   1      36.245  21.934  24.129  1.00  0.00    -0.052 C 
ATOM     55  H   UNL A   1      36.342  21.788  23.074  1.00  0.00     0.027 H 
ATOM     56  H   UNL A   1      36.820  21.256  24.724  1.00  0.00     0.027 H 
BRANCH  54  57
ATOM     57  C   UNL A   1      36.789  23.332  24.459  1.00  0.00    -0.036 C 
ATOM     58  H   UNL A   1      36.028  24.052  24.241  1.00  0.00     0.028 H 
ATOM     59  H   UNL A   1      37.668  23.474  23.864  1.00  0.00     0.028 H 
BRANCH  57  60
ATOM     60  C   UNL A   1      37.207  23.500  25.911  1.00  0.00     0.018 C 
ATOM     61  H   UNL A   1      36.348  23.355  26.534  1.00  0.00     0.049 H 
ATOM     62  H   UNL A   1      37.611  24.484  26.022  1.00  0.00     0.049 H 
BRANCH  60  63
ATOM     63  N   UNL A   1      38.242  22.545  26.311  1.00  0.00    -0.352 N 
ATOM     64  C   UNL A   1      39.552  22.790  26.680  1.00  0.00     0.251 C 
ATOM     65  H   UNL A   1      37.969  21.599  26.318  1.00  0.00     0.163 HD
ATOM     66  O   UNL A   1      40.404  21.914  26.611  1.00  0.00    -0.269 OA
BRANCH  64  67
ATOM     67  C   UNL A   1      39.904  24.127  27.190  1.00  0.00     0.039 A 
ATOM     68  C   UNL A   1      39.032  25.218  27.102  1.00  0.00    -0.049 A 
ATOM     69  C   UNL A   1      41.158  24.269  27.775  1.00  0.00    -0.049 A 
ATOM     70  C   UNL A   1      39.422  26.436  27.659  1.00  0.00    -0.053 A 
ATOM     71  H   UNL A   1      38.117  25.123  26.634  1.00  0.00     0.063 H 
ATOM     72  C   UNL A   1      41.444  25.389  28.501  1.00  0.00    -0.053 A 
ATOM     73  H   UNL A   1      41.869  23.531  27.661  1.00  0.00     0.063 H 
ATOM     74  C   UNL A   1      40.633  26.506  28.360  1.00  0.00    -0.014 A 
ATOM     75  H   UNL A   1      38.828  27.274  27.557  1.00  0.00     0.063 H 
ATOM     76  H   UNL A   1      42.250  25.405  29.145  1.00  0.00     0.063 H 
BRANCH  74  77
ATOM     77  C   UNL A   1      41.063  27.687  29.098  1.00  0.00     0.031 A 
ATOM     78  C   UNL A   1      42.289  28.313  28.551  1.00  0.00     0.074 A 
ATOM     79  C   UNL A   1      40.250  28.317  29.976  1.00  0.00     0.049 A 
ATOM     80  N   UNL A   1      43.440  28.398  29.129  1.00  0.00    -0.248 NA
ATOM     81  C   UNL A   1      42.294  28.749  27.145  1.00  0.00    -0.034 C 
ATOM     82  C   UNL A   1      38.894  27.950  30.382  1.00  0.00    -0.036 A 
ATOM     83  N   UNL A   1      40.428  29.501  30.624  1.00  0.00    -0.354 N 
ATOM     84  C   UNL A   1      44.246  29.114  28.251  1.00  0.00     0.074 A 
ATOM     85  C   UNL A   1      43.577  29.081  26.980  1.00  0.00    -0.034 C 
ATOM     86  H   UNL A   1      41.516  28.788  26.468  1.00  0.00     0.065 H 
ATOM     87  C   UNL A   1      38.291  28.998  30.992  1.00  0.00    -0.036 A 
ATOM     88  H   UNL A   1      38.460  27.026  30.226  1.00  0.00     0.065 H 
ATOM     89  C   UNL A   1      39.266  30.051  31.176  1.00  0.00     0.049 A 
ATOM     90  H   UNL A   1      41.307  29.938  30.698  1.00  0.00     0.167 HD
ATOM     91  C   UNL A   1      45.228  29.927  28.732  1.00  0.00     0.037 A 
ATOM     92  H   UNL A   1      44.022  29.284  26.071  1.00  0.00     0.065 H 
ATOM     93  H   UNL A   1      37.300  29.038  31.279  1.00  0.00     0.065 H 
ATOM     94  C   UNL A   1      39.140  31.282  31.743  1.00  0.00     0.037 A 
ATOM     95  C   UNL A   1      45.535  29.593  30.106  1.00  0.00     0.049 A 
ATOM     96  C   UNL A   1      40.514  31.734  32.067  1.00  0.00     0.074 A 
ATOM     97  C   UNL A   1      45.912  28.432  30.757  1.00  0.00    -0.036 A 
ATOM     98  N   UNL A   1      45.065  30.425  31.095  1.00  0.00    -0.354 N 
ATOM     99  N   UNL A   1      41.234  31.192  33.008  1.00  0.00    -0.248 NA
ATOM    100  C   UNL A   1      41.247  32.418  31.012  1.00  0.00    -0.034 C 
ATOM    101  C   UNL A   1      45.161  28.430  31.971  1.00  0.00    -0.036 A 
ATOM    102  H   UNL A   1      46.587  27.722  30.435  1.00  0.00     0.065 H 
ATOM    103  C   UNL A   1      44.463  29.634  32.041  1.00  0.00     0.049 A 
ATOM    104  H   UNL A   1      45.147  31.406  31.122  1.00  0.00     0.167 HD
ATOM    105  C   UNL A   1      42.493  31.073  32.447  1.00  0.00     0.074 A 
ATOM    106  C   UNL A   1      42.456  31.895  31.234  1.00  0.00    -0.034 C 
ATOM    107  H   UNL A   1      40.929  33.101  30.307  1.00  0.00     0.065 H 
ATOM    108  H   UNL A   1      45.139  27.673  32.672  1.00  0.00     0.065 H 
ATOM    109  C   UNL A   1      43.340  30.075  32.829  1.00  0.00     0.037 A 
ATOM    110  H   UNL A   1      43.271  32.051  30.621  1.00  0.00     0.065 H 
BRANCH  91 111
ATOM    111  C   UNL A   1      45.605  31.262  28.120  1.00  0.00     0.064 A 
ATOM    112  C   UNL A   1      44.574  32.178  27.823  1.00  0.00     0.173 A 
ATOM    113  C   UNL A   1      46.861  31.569  27.551  1.00  0.00     0.173 A 
ATOM    114  F   UNL A   1      43.336  31.994  28.304  1.00  0.00    -0.203 F 
ATOM    115  C   UNL A   1      44.763  33.248  26.943  1.00  0.00     0.198 A 
ATOM    116  C   UNL A   1      47.059  32.669  26.718  1.00  0.00     0.198 A 
ATOM    117  F   UNL A   1      47.928  30.775  27.676  1.00  0.00    -0.203 F 
ATOM    118  F   UNL A   1      43.717  34.003  26.585  1.00  0.00    -0.200 F 
ATOM    119  C   UNL A   1      46.003  33.487  26.385  1.00  0.00     0.200 A 
ATOM    120  F   UNL A   1      48.269  32.876  26.181  1.00  0.00    -0.200 F 
ATOM    121  F   UNL A   1      46.172  34.472  25.493  1.00  0.00    -0.200 F 
ENDBRANCH  91 111
BRANCH  94 122
ATOM    122  C   UNL A   1      38.001  32.233  31.813  1.00  0.00     0.064 A 
ATOM    123  C   UNL A   1      37.614  32.991  30.693  1.00  0.00     0.173 A 
ATOM    124  C   UNL A   1      37.075  32.168  32.865  1.00  0.00     0.173 A 
ATOM    125  F   UNL A   1      38.431  33.092  29.636  1.00  0.00    -0.203 F 
ATOM    126  C   UNL A   1      36.355  33.597  30.606  1.00  0.00     0.198 A 
ATOM    127  C   UNL A   1      35.818  32.779  32.774  1.00  0.00     0.198 A 
ATOM    128  F   UNL A   1      37.356  31.439  33.951  1.00  0.00    -0.203 F 
ATOM    129  F   UNL A   1      36.000  34.256  29.494  1.00  0.00    -0.200 F 
ATOM    130  C   UNL A   1      35.449  33.472  31.639  1.00  0.00     0.200 A 
ATOM    131  F   UNL A   1      34.924  32.669  33.762  1.00  0.00    -0.200 F 
ATOM    132  F   UNL A   1      34.217  33.993  31.540  1.00  0.00    -0.200 F 
ENDBRANCH  94 122
BRANCH 109 133
ATOM    133  C   UNL A   1      42.975  29.249  34.032  1.00  0.00     0.064 A 
ATOM    134  C   UNL A   1      42.160  28.101  33.999  1.00  0.00     0.173 A 
ATOM    135  C   UNL A   1      43.593  29.559  35.248  1.00  0.00     0.173 A 
ATOM    136  F   UNL A   1      41.614  27.672  32.855  1.00  0.00    -0.203 F 
ATOM    137  C   UNL A   1      41.942  27.334  35.144  1.00  0.00     0.198 A 
ATOM    138  C   UNL A   1      43.404  28.772  36.381  1.00  0.00     0.198 A 
ATOM    139  F   UNL A   1      44.423  30.612  35.329  1.00  0.00    -0.203 F 
ATOM    140  F   UNL A   1      41.152  26.251  35.090  1.00  0.00    -0.200 F 
ATOM    141  C   UNL A   1      42.570  27.668  36.333  1.00  0.00     0.200 A 
ATOM    142  F   UNL A   1      44.056  29.072  37.512  1.00  0.00    -0.200 F 
ATOM    143  F   UNL A   1      42.394  26.911  37.425  1.00  0.00    -0.200 F 
ENDBRANCH 109 133
ENDBRANCH  74  77
ENDBRANCH  64  67
ENDBRANCH  60  63
ENDBRANCH  57  60
ENDBRANCH  54  57
ENDBRANCH  51  54
ENDBRANCH   1  51
TORSDOF 19
ENDMDL
MODEL 2
REMARK VINA RESULT:     -12.6      3.529      9.107
REMARK SMILES CS(=O)(=O)c1ccc(-n2nc(C(F)(F)F)cc2-c2ccc(CC(=O)NCCCCCCNC(=O)c3ccc(-c4c5nc(c(-c6c(F)c(F)c(F)c(F)c6F)c6ccc([nH]6)c(-c6c(F)c(F)c(F)c(F)c6F)c6nc(c(-c7c(F)c(F)c(F)c(F)c7F)c7ccc4[nH]7)C=C6)C=C5)cc3)cc2)cc1
REMARK SMILES IDX 27 1 26 4 25 7 23 8 24 9 22 11 21 14 18 15 19 16 99 17 20 18
REMARK SMILES IDX 98 20 17 24 9 25 10 26 11 27 16 28 8 30 5 31 6 32 101 33
REMARK SMILES IDX 7 34 100 36 2 40 3 41 4 42 1 43 12 47 13 48 14 49 15 50
REMARK SMILES IDX 28 51 29 54 30 57 31 60 32 63 33 64 34 66 35 67 36 68 97 69
REMARK SMILES IDX 37 70 96 72 38 74 39 77 40 78 90 79 41 80 95 81 89 82 91 83
REMARK SMILES IDX 42 84 94 85 88 87 87 89 43 91 75 94 55 95 74 96 56 97 59 98
REMARK SMILES IDX 73 99 92 100 57 101 58 103 72 105 93 106 60 109 44 111
REMARK SMILES IDX 45 112 53 113 46 114 47 115 51 116 54 117 48 118 49 119
REMARK SMILES IDX 52 120 50 121 76 122 77 123 85 124 78 125 79 126 83 127
REMARK SMILES IDX 86 128 80 129 81 130 84 131 82 132 61 133 62 134 70 135
REMARK SMILES IDX 63 136 64 137 68 138 71 139 65 140 66 141 69 142 67 143
REMARK H PARENT 27 2 27 3 26 5 26 6 25 10 22 12 22 13 19 19 99 21 20 22 98 23
REMARK H PARENT 16 29 6 35 101 37 7 38 100 39 1 44 1 45 1 46 28 52 28 53 29 55
REMARK H PARENT 29 56 30 58 30 59 31 61 31 62 32 65 36 71 97 73 37 75 96 76
REMARK H PARENT 95 86 89 88 91 90 94 92 88 93 56 102 59 104 92 107 57 108
REMARK H PARENT 93 110
REMARK Flexibility Score: inf
ROOT
ATOM      1  C   UNL A   1      31.191  28.135  23.923  1.00  0.00    -0.036 C 
ATOM      2  H   UNL A   1      30.865  29.148  24.043  1.00  0.00     0.028 H 
ATOM      3  H   UNL A   1      32.239  28.064  23.719  1.00  0.00     0.028 H 
ENDROOT
BRANCH   1   4
ATOM      4  C   UNL A   1      30.461  27.534  22.720  1.00  0.00     0.017 C 
ATOM      5  H   UNL A   1      29.928  26.662  23.036  1.00  0.00     0.049 H 
ATOM      6  H   UNL A   1      29.788  28.272  22.333  1.00  0.00     0.049 H 
BRANCH   4   7
ATOM      7  N   UNL A   1      31.387  27.167  21.668  1.00  0.00    -0.356 N 
ATOM      8  C   UNL A   1      32.085  26.006  21.499  1.00  0.00     0.224 C 
ATOM      9  O   UNL A   1      32.893  25.934  20.572  1.00  0.00    -0.275 OA
ATOM     10  H   UNL A   1      31.533  27.852  20.976  1.00  0.00     0.163 HD
BRANCH   8  11
ATOM     11  C   UNL A   1      31.824  24.819  22.412  1.00  0.00     0.052 C 
ATOM     12  H   UNL A   1      31.097  25.110  23.143  1.00  0.00     0.042 H 
ATOM     13  H   UNL A   1      31.483  24.018  21.790  1.00  0.00     0.042 H 
BRANCH  11  14
ATOM     14  C   UNL A   1      33.051  24.322  23.134  1.00  0.00    -0.039 A 
ATOM     15  C   UNL A   1      35.408  23.523  24.425  1.00  0.00     0.000 A 
ATOM     16  C   UNL A   1      35.092  23.027  23.154  1.00  0.00    -0.053 A 
ATOM     17  C   UNL A   1      34.512  24.374  25.073  1.00  0.00    -0.053 A 
ATOM     18  C   UNL A   1      33.928  23.431  22.507  1.00  0.00    -0.058 A 
ATOM     19  H   UNL A   1      35.729  22.358  22.692  1.00  0.00     0.063 H 
ATOM     20  C   UNL A   1      33.333  24.757  24.437  1.00  0.00    -0.058 A 
ATOM     21  H   UNL A   1      34.723  24.719  26.022  1.00  0.00     0.063 H 
ATOM     22  H   UNL A   1      33.710  23.072  21.564  1.00  0.00     0.063 H 
ATOM     23  H   UNL A   1      32.662  25.367  24.930  1.00  0.00     0.063 H 
BRANCH  15  24
ATOM     24  C   UNL A   1      36.644  23.132  25.085  1.00  0.00     0.075 A 
ATOM     25  N   UNL A   1      36.981  21.839  25.444  1.00  0.00    -0.233 N 
ATOM     26  N   UNL A   1      38.136  21.782  26.154  1.00  0.00    -0.163 NA
ATOM     27  C   UNL A   1      38.560  23.061  26.229  1.00  0.00     0.167 A 
ATOM     28  C   UNL A   1      37.666  23.928  25.556  1.00  0.00    -0.003 A 
ATOM     29  H   UNL A   1      37.761  24.949  25.441  1.00  0.00     0.067 H 
BRANCH  25  30
ATOM     30  C   UNL A   1      36.251  20.662  25.162  1.00  0.00     0.065 A 
ATOM     31  C   UNL A   1      34.765  18.379  24.593  1.00  0.00     0.067 A 
ATOM     32  C   UNL A   1      36.166  18.321  24.584  1.00  0.00    -0.041 A 
ATOM     33  C   UNL A   1      34.107  19.582  24.855  1.00  0.00    -0.041 A 
ATOM     34  C   UNL A   1      36.917  19.467  24.871  1.00  0.00    -0.035 A 
ATOM     35  H   UNL A   1      36.643  17.431  24.366  1.00  0.00     0.064 H 
ATOM     36  C   UNL A   1      34.854  20.729  25.123  1.00  0.00    -0.035 A 
ATOM     37  H   UNL A   1      33.075  19.623  24.852  1.00  0.00     0.064 H 
ATOM     38  H   UNL A   1      37.948  19.431  24.868  1.00  0.00     0.065 H 
ATOM     39  H   UNL A   1      34.377  21.628  25.294  1.00  0.00     0.065 H 
BRANCH  31  40
ATOM     40  S   UNL A   1      33.804  16.949  24.140  1.00  0.00     0.175 S 
ATOM     41  O   UNL A   1      34.661  15.793  24.378  1.00  0.00    -0.224 OA
ATOM     42  O   UNL A   1      33.217  17.198  22.847  1.00  0.00    -0.224 OA
BRANCH  40  43
ATOM     43  C   UNL A   1      32.484  16.878  25.306  1.00  0.00     0.043 C 
ATOM     44  H   UNL A   1      31.832  17.712  25.158  1.00  0.00     0.040 H 
ATOM     45  H   UNL A   1      32.883  16.908  26.299  1.00  0.00     0.040 H 
ATOM     46  H   UNL A   1      31.936  15.969  25.169  1.00  0.00     0.040 H 
ENDBRANCH  40  43
ENDBRANCH  31  40
ENDBRANCH  25  30
BRANCH  27  47
ATOM     47  C   UNL A   1      39.812  23.481  26.955  1.00  0.00     0.435 C 
ATOM     48  F   UNL A   1      40.636  22.435  27.225  1.00  0.00    -0.164 F 
ATOM     49  F   UNL A   1      40.538  24.388  26.247  1.00  0.00    -0.164 F 
ATOM     50  F   UNL A   1      39.528  24.068  28.151  1.00  0.00    -0.164 F 
ENDBRANCH  27  47
ENDBRANCH  15  24
ENDBRANCH  11  14
ENDBRANCH   8  11
ENDBRANCH   4   7
ENDBRANCH   1   4
BRANCH   1  51
ATOM     51  C   UNL A   1      30.941  27.388  25.239  1.00  0.00    -0.052 C 
ATOM     52  H   UNL A   1      31.118  26.347  25.065  1.00  0.00     0.027 H 
ATOM     53  H   UNL A   1      29.933  27.615  25.518  1.00  0.00     0.027 H 
BRANCH  51  54
ATOM     54  C   UNL A   1      31.814  27.823  26.427  1.00  0.00    -0.052 C 
ATOM     55  H   UNL A   1      31.977  26.966  27.045  1.00  0.00     0.027 H 
ATOM     56  H   UNL A   1      31.274  28.615  26.904  1.00  0.00     0.027 H 
BRANCH  54  57
ATOM     57  C   UNL A   1      33.188  28.417  26.079  1.00  0.00    -0.036 C 
ATOM     58  H   UNL A   1      33.054  29.153  25.314  1.00  0.00     0.028 H 
ATOM     59  H   UNL A   1      33.807  27.604  25.759  1.00  0.00     0.028 H 
BRANCH  57  60
ATOM     60  C   UNL A   1      33.890  29.070  27.258  1.00  0.00     0.018 C 
ATOM     61  H   UNL A   1      34.850  28.614  27.381  1.00  0.00     0.049 H 
ATOM     62  H   UNL A   1      33.274  28.930  28.122  1.00  0.00     0.049 H 
BRANCH  60  63
ATOM     63  N   UNL A   1      34.075  30.511  27.072  1.00  0.00    -0.352 N 
ATOM     64  C   UNL A   1      35.058  31.333  27.591  1.00  0.00     0.251 C 
ATOM     65  H   UNL A   1      33.409  30.955  26.499  1.00  0.00     0.163 HD
ATOM     66  O   UNL A   1      34.889  32.542  27.686  1.00  0.00    -0.269 OA
BRANCH  64  67
ATOM     67  C   UNL A   1      36.338  30.730  28.005  1.00  0.00     0.039 A 
ATOM     68  C   UNL A   1      36.697  29.421  27.661  1.00  0.00    -0.049 A 
ATOM     69  C   UNL A   1      37.193  31.522  28.762  1.00  0.00    -0.049 A 
ATOM     70  C   UNL A   1      37.951  28.946  28.047  1.00  0.00    -0.053 A 
ATOM     71  H   UNL A   1      36.047  28.820  27.131  1.00  0.00     0.063 H 
ATOM     72  C   UNL A   1      38.489  31.135  28.949  1.00  0.00    -0.053 A 
ATOM     73  H   UNL A   1      36.850  32.400  29.181  1.00  0.00     0.063 H 
ATOM     74  C   UNL A   1      38.840  29.818  28.690  1.00  0.00    -0.014 A 
ATOM     75  H   UNL A   1      38.220  27.967  27.861  1.00  0.00     0.063 H 
ATOM     76  H   UNL A   1      39.196  31.810  29.277  1.00  0.00     0.063 H 
BRANCH  74  77
ATOM     77  C   UNL A   1      40.218  29.465  29.005  1.00  0.00     0.031 A 
ATOM     78  C   UNL A   1      40.500  29.420  30.458  1.00  0.00     0.074 A 
ATOM     79  C   UNL A   1      41.048  28.928  28.082  1.00  0.00     0.049 A 
ATOM     80  N   UNL A   1      41.289  30.198  31.119  1.00  0.00    -0.248 NA
ATOM     81  C   UNL A   1      39.699  28.521  31.306  1.00  0.00    -0.034 C 
ATOM     82  C   UNL A   1      40.780  28.655  26.670  1.00  0.00    -0.036 A 
ATOM     83  N   UNL A   1      42.294  28.404  28.240  1.00  0.00    -0.354 N 
ATOM     84  C   UNL A   1      41.265  29.728  32.428  1.00  0.00     0.074 A 
ATOM     85  C   UNL A   1      40.109  28.880  32.525  1.00  0.00    -0.034 C 
ATOM     86  H   UNL A   1      39.007  27.806  31.033  1.00  0.00     0.065 H 
ATOM     87  C   UNL A   1      41.713  27.806  26.175  1.00  0.00    -0.036 A 
ATOM     88  H   UNL A   1      39.996  29.051  26.130  1.00  0.00     0.065 H 
ATOM     89  C   UNL A   1      42.738  27.609  27.177  1.00  0.00     0.049 A 
ATOM     90  H   UNL A   1      42.842  28.570  29.040  1.00  0.00     0.167 HD
ATOM     91  C   UNL A   1      42.373  29.835  33.214  1.00  0.00     0.037 A 
ATOM     92  H   UNL A   1      39.660  28.591  33.408  1.00  0.00     0.065 H 
ATOM     93  H   UNL A   1      41.695  27.372  25.239  1.00  0.00     0.065 H 
ATOM     94  C   UNL A   1      43.872  26.857  27.144  1.00  0.00     0.037 A 
ATOM     95  C   UNL A   1      43.292  30.808  32.665  1.00  0.00     0.049 A 
ATOM     96  C   UNL A   1      44.747  27.375  28.222  1.00  0.00     0.074 A 
ATOM     97  C   UNL A   1      43.188  32.138  32.300  1.00  0.00    -0.036 A 
ATOM     98  N   UNL A   1      44.417  30.346  32.022  1.00  0.00    -0.354 N 
ATOM     99  N   UNL A   1      45.322  28.542  28.168  1.00  0.00    -0.248 NA
ATOM    100  C   UNL A   1      44.552  26.818  29.553  1.00  0.00    -0.034 C 
ATOM    101  C   UNL A   1      43.908  32.242  31.072  1.00  0.00    -0.036 A 
ATOM    102  H   UNL A   1      42.695  32.892  32.804  1.00  0.00     0.065 H 
ATOM    103  C   UNL A   1      44.500  31.006  30.822  1.00  0.00     0.049 A 
ATOM    104  H   UNL A   1      45.046  29.668  32.359  1.00  0.00     0.167 HD
ATOM    105  C   UNL A   1      45.156  29.063  29.439  1.00  0.00     0.074 A 
ATOM    106  C   UNL A   1      44.721  27.935  30.266  1.00  0.00    -0.034 C 
ATOM    107  H   UNL A   1      44.344  25.853  29.854  1.00  0.00     0.065 H 
ATOM    108  H   UNL A   1      43.979  33.082  30.477  1.00  0.00     0.065 H 
ATOM    109  C   UNL A   1      45.068  30.410  29.639  1.00  0.00     0.037 A 
ATOM    110  H   UNL A   1      44.563  27.996  31.284  1.00  0.00     0.065 H 
BRANCH  91 111
ATOM    111  C   UNL A   1      42.809  28.788  34.219  1.00  0.00     0.064 A 
ATOM    112  C   UNL A   1      43.142  29.208  35.524  1.00  0.00     0.173 A 
ATOM    113  C   UNL A   1      43.195  27.466  33.900  1.00  0.00     0.173 A 
ATOM    114  F   UNL A   1      42.831  30.443  35.945  1.00  0.00    -0.203 F 
ATOM    115  C   UNL A   1      43.890  28.409  36.393  1.00  0.00     0.198 A 
ATOM    116  C   UNL A   1      43.893  26.652  34.790  1.00  0.00     0.198 A 
ATOM    117  F   UNL A   1      43.017  26.931  32.689  1.00  0.00    -0.203 F 
ATOM    118  F   UNL A   1      44.300  28.910  37.566  1.00  0.00    -0.200 F 
ATOM    119  C   UNL A   1      44.273  27.135  36.022  1.00  0.00     0.200 A 
ATOM    120  F   UNL A   1      44.261  25.422  34.404  1.00  0.00    -0.200 F 
ATOM    121  F   UNL A   1      45.043  26.392  36.826  1.00  0.00    -0.200 F 
ENDBRANCH  91 111
BRANCH  94 122
ATOM    122  C   UNL A   1      44.198  25.578  26.463  1.00  0.00     0.064 A 
ATOM    123  C   UNL A   1      45.221  25.505  25.500  1.00  0.00     0.173 A 
ATOM    124  C   UNL A   1      43.750  24.353  26.980  1.00  0.00     0.173 A 
ATOM    125  F   UNL A   1      45.722  26.628  24.966  1.00  0.00    -0.203 F 
ATOM    126  C   UNL A   1      45.800  24.287  25.121  1.00  0.00     0.198 A 
ATOM    127  C   UNL A   1      44.329  23.137  26.596  1.00  0.00     0.198 A 
ATOM    128  F   UNL A   1      42.802  24.341  27.925  1.00  0.00    -0.203 F 
ATOM    129  F   UNL A   1      46.816  24.267  24.249  1.00  0.00    -0.200 F 
ATOM    130  C   UNL A   1      45.367  23.105  25.686  1.00  0.00     0.200 A 
ATOM    131  F   UNL A   1      43.928  21.981  27.132  1.00  0.00    -0.200 F 
ATOM    132  F   UNL A   1      45.957  21.941  25.380  1.00  0.00    -0.200 F 
ENDBRANCH  94 122
BRANCH 109 133
ATOM    133  C   UNL A   1      45.387  31.326  28.490  1.00  0.00     0.064 A 
ATOM    134  C   UNL A   1      44.481  31.681  27.472  1.00  0.00     0.173 A 
ATOM    135  C   UNL A   1      46.625  31.979  28.500  1.00  0.00     0.173 A 
ATOM    136  F   UNL A   1      43.238  31.184  27.446  1.00  0.00    -0.203 F 
ATOM    137  C   UNL A   1      44.823  32.611  26.489  1.00  0.00     0.198 A 
ATOM    138  C   UNL A   1      46.950  32.933  27.541  1.00  0.00     0.198 A 
ATOM    139  F   UNL A   1      47.510  31.720  29.476  1.00  0.00    -0.203 F 
ATOM    140  F   UNL A   1      43.947  32.924  25.523  1.00  0.00    -0.200 F 
ATOM    141  C   UNL A   1      46.056  33.240  26.529  1.00  0.00     0.200 A 
ATOM    142  F   UNL A   1      48.124  33.574  27.617  1.00  0.00    -0.200 F 
ATOM    143  F   UNL A   1      46.374  34.162  25.610  1.00  0.00    -0.200 F 
ENDBRANCH 109 133
ENDBRANCH  74  77
ENDBRANCH  64  67
ENDBRANCH  60  63
ENDBRANCH  57  60
ENDBRANCH  54  57
ENDBRANCH  51  54
ENDBRANCH   1  51
TORSDOF 19
ENDMDL
MODEL 3
REMARK VINA RESULT:     -12.2      2.560      3.705
REMARK SMILES CS(=O)(=O)c1ccc(-n2nc(C(F)(F)F)cc2-c2ccc(CC(=O)NCCCCCCNC(=O)c3ccc(-c4c5nc(c(-c6c(F)c(F)c(F)c(F)c6F)c6ccc([nH]6)c(-c6c(F)c(F)c(F)c(F)c6F)c6nc(c(-c7c(F)c(F)c(F)c(F)c7F)c7ccc4[nH]7)C=C6)C=C5)cc3)cc2)cc1
REMARK SMILES IDX 27 1 26 4 25 7 23 8 24 9 22 11 21 14 18 15 19 16 99 17 20 18
REMARK SMILES IDX 98 20 17 24 9 25 10 26 11 27 16 28 8 30 5 31 6 32 101 33
REMARK SMILES IDX 7 34 100 36 2 40 3 41 4 42 1 43 12 47 13 48 14 49 15 50
REMARK SMILES IDX 28 51 29 54 30 57 31 60 32 63 33 64 34 66 35 67 36 68 97 69
REMARK SMILES IDX 37 70 96 72 38 74 39 77 40 78 90 79 41 80 95 81 89 82 91 83
REMARK SMILES IDX 42 84 94 85 88 87 87 89 43 91 75 94 55 95 74 96 56 97 59 98
REMARK SMILES IDX 73 99 92 100 57 101 58 103 72 105 93 106 60 109 44 111
REMARK SMILES IDX 45 112 53 113 46 114 47 115 51 116 54 117 48 118 49 119
REMARK SMILES IDX 52 120 50 121 76 122 77 123 85 124 78 125 79 126 83 127
REMARK SMILES IDX 86 128 80 129 81 130 84 131 82 132 61 133 62 134 70 135
REMARK SMILES IDX 63 136 64 137 68 138 71 139 65 140 66 141 69 142 67 143
REMARK H PARENT 27 2 27 3 26 5 26 6 25 10 22 12 22 13 19 19 99 21 20 22 98 23
REMARK H PARENT 16 29 6 35 101 37 7 38 100 39 1 44 1 45 1 46 28 52 28 53 29 55
REMARK H PARENT 29 56 30 58 30 59 31 61 31 62 32 65 36 71 97 73 37 75 96 76
REMARK H PARENT 95 86 89 88 91 90 94 92 88 93 56 102 59 104 92 107 57 108
REMARK H PARENT 93 110
REMARK Flexibility Score: inf
ROOT
ATOM      1  C   UNL A   1      34.434  21.474  26.469  1.00  0.00    -0.036 C 
ATOM      2  H   UNL A   1      33.611  20.797  26.566  1.00  0.00     0.028 H 
ATOM      3  H   UNL A   1      35.304  21.140  26.996  1.00  0.00     0.028 H 
ENDROOT
BRANCH   1   4
ATOM      4  C   UNL A   1      34.030  22.816  27.083  1.00  0.00     0.017 C 
ATOM      5  H   UNL A   1      34.710  23.057  27.873  1.00  0.00     0.049 H 
ATOM      6  H   UNL A   1      34.061  23.560  26.314  1.00  0.00     0.049 H 
BRANCH   4   7
ATOM      7  N   UNL A   1      32.684  22.770  27.617  1.00  0.00    -0.356 N 
ATOM      8  C   UNL A   1      31.492  22.901  26.965  1.00  0.00     0.224 C 
ATOM      9  O   UNL A   1      30.455  22.917  27.631  1.00  0.00    -0.275 OA
ATOM     10  H   UNL A   1      32.619  22.621  28.588  1.00  0.00     0.163 HD
BRANCH   8  11
ATOM     11  C   UNL A   1      31.456  22.976  25.448  1.00  0.00     0.052 C 
ATOM     12  H   UNL A   1      32.439  22.766  25.077  1.00  0.00     0.042 H 
ATOM     13  H   UNL A   1      30.731  22.262  25.119  1.00  0.00     0.042 H 
BRANCH  11  14
ATOM     14  C   UNL A   1      31.024  24.318  24.911  1.00  0.00    -0.039 A 
ATOM     15  C   UNL A   1      30.360  26.869  23.955  1.00  0.00     0.000 A 
ATOM     16  C   UNL A   1      29.981  26.473  25.245  1.00  0.00    -0.053 A 
ATOM     17  C   UNL A   1      31.020  25.963  23.125  1.00  0.00    -0.053 A 
ATOM     18  C   UNL A   1      30.319  25.211  25.724  1.00  0.00    -0.058 A 
ATOM     19  H   UNL A   1      29.448  27.123  25.844  1.00  0.00     0.063 H 
ATOM     20  C   UNL A   1      31.335  24.690  23.595  1.00  0.00    -0.058 A 
ATOM     21  H   UNL A   1      31.276  26.237  22.163  1.00  0.00     0.063 H 
ATOM     22  H   UNL A   1      30.049  24.933  26.681  1.00  0.00     0.063 H 
ATOM     23  H   UNL A   1      31.802  24.015  22.970  1.00  0.00     0.063 H 
BRANCH  15  24
ATOM     24  C   UNL A   1      30.041  28.201  23.467  1.00  0.00     0.075 A 
ATOM     25  N   UNL A   1      30.639  29.372  23.898  1.00  0.00    -0.233 N 
ATOM     26  N   UNL A   1      30.062  30.477  23.361  1.00  0.00    -0.163 NA
ATOM     27  C   UNL A   1      29.092  30.004  22.552  1.00  0.00     0.167 A 
ATOM     28  C   UNL A   1      29.063  28.588  22.576  1.00  0.00    -0.003 A 
ATOM     29  H   UNL A   1      28.436  27.972  22.036  1.00  0.00     0.067 H 
BRANCH  25  30
ATOM     30  C   UNL A   1      31.717  29.491  24.806  1.00  0.00     0.065 A 
ATOM     31  C   UNL A   1      33.875  29.708  26.548  1.00  0.00     0.067 A 
ATOM     32  C   UNL A   1      32.684  30.392  26.824  1.00  0.00    -0.041 A 
ATOM     33  C   UNL A   1      34.000  28.940  25.388  1.00  0.00    -0.041 A 
ATOM     34  C   UNL A   1      31.594  30.285  25.951  1.00  0.00    -0.035 A 
ATOM     35  H   UNL A   1      32.610  30.975  27.673  1.00  0.00     0.064 H 
ATOM     36  C   UNL A   1      32.922  28.847  24.507  1.00  0.00    -0.035 A 
ATOM     37  H   UNL A   1      34.882  28.445  25.183  1.00  0.00     0.064 H 
ATOM     38  H   UNL A   1      30.714  30.784  26.149  1.00  0.00     0.065 H 
ATOM     39  H   UNL A   1      33.013  28.304  23.635  1.00  0.00     0.065 H 
BRANCH  31  40
ATOM     40  S   UNL A   1      35.294  29.912  27.606  1.00  0.00     0.175 S 
ATOM     41  O   UNL A   1      36.452  29.525  26.809  1.00  0.00    -0.224 OA
ATOM     42  O   UNL A   1      35.002  29.279  28.868  1.00  0.00    -0.224 OA
BRANCH  40  43
ATOM     43  C   UNL A   1      35.414  31.644  27.907  1.00  0.00     0.043 C 
ATOM     44  H   UNL A   1      35.010  32.180  27.075  1.00  0.00     0.040 H 
ATOM     45  H   UNL A   1      36.441  31.913  28.040  1.00  0.00     0.040 H 
ATOM     46  H   UNL A   1      34.864  31.891  28.792  1.00  0.00     0.040 H 
ENDBRANCH  40  43
ENDBRANCH  31  40
ENDBRANCH  25  30
BRANCH  27  47
ATOM     47  C   UNL A   1      28.167  30.887  21.756  1.00  0.00     0.435 C 
ATOM     48  F   UNL A   1      27.046  31.226  22.445  1.00  0.00    -0.164 F 
ATOM     49  F   UNL A   1      28.766  32.048  21.375  1.00  0.00    -0.164 F 
ATOM     50  F   UNL A   1      27.749  30.278  20.612  1.00  0.00    -0.164 F 
ENDBRANCH  27  47
ENDBRANCH  15  24
ENDBRANCH  11  14
ENDBRANCH   8  11
ENDBRANCH   4   7
ENDBRANCH   1   4
BRANCH   1  51
ATOM     51  C   UNL A   1      34.817  21.560  24.985  1.00  0.00    -0.052 C 
ATOM     52  H   UNL A   1      34.028  21.114  24.417  1.00  0.00     0.027 H 
ATOM     53  H   UNL A   1      35.756  21.053  24.896  1.00  0.00     0.027 H 
BRANCH  51  54
ATOM     54  C   UNL A   1      35.051  22.977  24.440  1.00  0.00    -0.052 C 
ATOM     55  H   UNL A   1      34.765  23.672  25.201  1.00  0.00     0.027 H 
ATOM     56  H   UNL A   1      34.468  23.039  23.545  1.00  0.00     0.027 H 
BRANCH  54  57
ATOM     57  C   UNL A   1      36.489  23.313  24.016  1.00  0.00    -0.036 C 
ATOM     58  H   UNL A   1      36.467  24.201  23.419  1.00  0.00     0.028 H 
ATOM     59  H   UNL A   1      36.861  22.467  23.475  1.00  0.00     0.028 H 
BRANCH  57  60
ATOM     60  C   UNL A   1      37.435  23.542  25.183  1.00  0.00     0.018 C 
ATOM     61  H   UNL A   1      36.871  23.916  26.013  1.00  0.00     0.049 H 
ATOM     62  H   UNL A   1      38.179  24.243  24.867  1.00  0.00     0.049 H 
BRANCH  60  63
ATOM     63  N   UNL A   1      38.122  22.317  25.597  1.00  0.00    -0.352 N 
ATOM     64  C   UNL A   1      39.330  22.181  26.256  1.00  0.00     0.251 C 
ATOM     65  H   UNL A   1      37.662  21.475  25.375  1.00  0.00     0.163 HD
ATOM     66  O   UNL A   1      39.970  21.139  26.197  1.00  0.00    -0.269 OA
BRANCH  64  67
ATOM     67  C   UNL A   1      39.826  23.310  27.063  1.00  0.00     0.039 A 
ATOM     68  C   UNL A   1      41.082  23.297  27.680  1.00  0.00    -0.049 A 
ATOM     69  C   UNL A   1      38.987  24.412  27.190  1.00  0.00    -0.049 A 
ATOM     70  C   UNL A   1      41.498  24.431  28.381  1.00  0.00    -0.053 A 
ATOM     71  H   UNL A   1      41.689  22.466  27.618  1.00  0.00     0.063 H 
ATOM     72  C   UNL A   1      39.478  25.585  27.687  1.00  0.00    -0.053 A 
ATOM     73  H   UNL A   1      37.996  24.343  26.910  1.00  0.00     0.063 H 
ATOM     74  C   UNL A   1      40.684  25.571  28.373  1.00  0.00    -0.014 A 
ATOM     75  H   UNL A   1      42.391  24.429  28.897  1.00  0.00     0.063 H 
ATOM     76  H   UNL A   1      38.962  26.468  27.553  1.00  0.00     0.063 H 
BRANCH  74  77
ATOM     77  C   UNL A   1      41.089  26.846  28.950  1.00  0.00     0.031 A 
ATOM     78  C   UNL A   1      42.244  27.467  28.262  1.00  0.00     0.074 A 
ATOM     79  C   UNL A   1      40.294  27.529  29.806  1.00  0.00     0.049 A 
ATOM     80  N   UNL A   1      43.420  27.672  28.753  1.00  0.00    -0.248 NA
ATOM     81  C   UNL A   1      42.143  27.744  26.820  1.00  0.00    -0.034 C 
ATOM     82  C   UNL A   1      38.987  27.142  30.334  1.00  0.00    -0.036 A 
ATOM     83  N   UNL A   1      40.443  28.784  30.310  1.00  0.00    -0.354 N 
ATOM     84  C   UNL A   1      44.132  28.325  27.754  1.00  0.00     0.074 A 
ATOM     85  C   UNL A   1      43.393  28.119  26.539  1.00  0.00    -0.034 C 
ATOM     86  H   UNL A   1      41.326  27.670  26.194  1.00  0.00     0.065 H 
ATOM     87  C   UNL A   1      38.362  28.220  30.866  1.00  0.00    -0.036 A 
ATOM     88  H   UNL A   1      38.597  26.187  30.307  1.00  0.00     0.065 H 
ATOM     89  C   UNL A   1      39.287  29.334  30.873  1.00  0.00     0.049 A 
ATOM     90  H   UNL A   1      41.299  29.269  30.280  1.00  0.00     0.167 HD
ATOM     91  C   UNL A   1      45.094  29.234  28.081  1.00  0.00     0.037 A 
ATOM     92  H   UNL A   1      43.774  28.242  25.587  1.00  0.00     0.065 H 
ATOM     93  H   UNL A   1      37.389  28.243  31.209  1.00  0.00     0.065 H 
ATOM     94  C   UNL A   1      39.124  30.612  31.311  1.00  0.00     0.037 A 
ATOM     95  C   UNL A   1      45.499  29.070  29.460  1.00  0.00     0.049 A 
ATOM     96  C   UNL A   1      40.488  31.164  31.497  1.00  0.00     0.074 A 
ATOM     97  C   UNL A   1      45.976  28.008  30.207  1.00  0.00    -0.036 A 
ATOM     98  N   UNL A   1      45.041  29.982  30.383  1.00  0.00    -0.354 N 
ATOM     99  N   UNL A   1      41.290  30.766  32.442  1.00  0.00    -0.248 NA
ATOM    100  C   UNL A   1      41.119  31.763  30.330  1.00  0.00    -0.034 C 
ATOM    101  C   UNL A   1      45.299  28.103  31.460  1.00  0.00    -0.036 A 
ATOM    102  H   UNL A   1      46.671  27.300  29.921  1.00  0.00     0.065 H 
ATOM    103  C   UNL A   1      44.540  29.271  31.444  1.00  0.00     0.049 A 
ATOM    104  H   UNL A   1      45.069  30.962  30.298  1.00  0.00     0.167 HD
ATOM    105  C   UNL A   1      42.520  30.648  31.818  1.00  0.00     0.074 A 
ATOM    106  C   UNL A   1      42.367  31.328  30.529  1.00  0.00    -0.034 C 
ATOM    107  H   UNL A   1      40.723  32.347  29.576  1.00  0.00     0.065 H 
ATOM    108  H   UNL A   1      45.360  27.428  32.238  1.00  0.00     0.065 H 
ATOM    109  C   UNL A   1      43.442  29.741  32.251  1.00  0.00     0.037 A 
ATOM    110  H   UNL A   1      43.134  31.454  29.851  1.00  0.00     0.065 H 
BRANCH  91 111
ATOM    111  C   UNL A   1      45.360  30.510  27.307  1.00  0.00     0.064 A 
ATOM    112  C   UNL A   1      46.697  30.850  27.012  1.00  0.00     0.173 A 
ATOM    113  C   UNL A   1      44.420  31.544  27.099  1.00  0.00     0.173 A 
ATOM    114  F   UNL A   1      47.681  29.953  27.172  1.00  0.00    -0.203 F 
ATOM    115  C   UNL A   1      47.070  32.146  26.645  1.00  0.00     0.198 A 
ATOM    116  C   UNL A   1      44.790  32.821  26.679  1.00  0.00     0.198 A 
ATOM    117  F   UNL A   1      43.122  31.416  27.389  1.00  0.00    -0.203 F 
ATOM    118  F   UNL A   1      48.368  32.449  26.516  1.00  0.00    -0.200 F 
ATOM    119  C   UNL A   1      46.117  33.133  26.488  1.00  0.00     0.200 A 
ATOM    120  F   UNL A   1      43.848  33.765  26.541  1.00  0.00    -0.200 F 
ATOM    121  F   UNL A   1      46.477  34.389  26.199  1.00  0.00    -0.200 F 
ENDBRANCH  91 111
BRANCH  94 122
ATOM    122  C   UNL A   1      37.941  31.508  31.352  1.00  0.00     0.064 A 
ATOM    123  C   UNL A   1      37.207  31.693  32.538  1.00  0.00     0.173 A 
ATOM    124  C   UNL A   1      37.714  32.447  30.333  1.00  0.00     0.173 A 
ATOM    125  F   UNL A   1      37.374  30.853  33.568  1.00  0.00    -0.203 F 
ATOM    126  C   UNL A   1      36.344  32.781  32.715  1.00  0.00     0.198 A 
ATOM    127  C   UNL A   1      36.848  33.532  30.515  1.00  0.00     0.198 A 
ATOM    128  F   UNL A   1      38.401  32.359  29.188  1.00  0.00    -0.203 F 
ATOM    129  F   UNL A   1      35.712  32.957  33.884  1.00  0.00    -0.200 F 
ATOM    130  C   UNL A   1      36.182  33.712  31.710  1.00  0.00     0.200 A 
ATOM    131  F   UNL A   1      36.678  34.448  29.556  1.00  0.00    -0.200 F 
ATOM    132  F   UNL A   1      35.410  34.793  31.893  1.00  0.00    -0.200 F 
ENDBRANCH  94 122
BRANCH 109 133
ATOM    133  C   UNL A   1      43.194  29.036  33.556  1.00  0.00     0.064 A 
ATOM    134  C   UNL A   1      42.430  27.863  33.701  1.00  0.00     0.173 A 
ATOM    135  C   UNL A   1      43.877  29.498  34.687  1.00  0.00     0.173 A 
ATOM    136  F   UNL A   1      41.828  27.293  32.649  1.00  0.00    -0.203 F 
ATOM    137  C   UNL A   1      42.322  27.215  34.933  1.00  0.00     0.198 A 
ATOM    138  C   UNL A   1      43.798  28.830  35.905  1.00  0.00     0.198 A 
ATOM    139  F   UNL A   1      44.664  30.582  34.597  1.00  0.00    -0.203 F 
ATOM    140  F   UNL A   1      41.578  26.105  35.048  1.00  0.00    -0.200 F 
ATOM    141  C   UNL A   1      43.012  27.698  36.032  1.00  0.00     0.200 A 
ATOM    142  F   UNL A   1      44.510  29.274  36.951  1.00  0.00    -0.200 F 
ATOM    143  F   UNL A   1      42.942  27.057  37.207  1.00  0.00    -0.200 F 
ENDBRANCH 109 133
ENDBRANCH  74  77
ENDBRANCH  64  67
ENDBRANCH  60  63
ENDBRANCH  57  60
ENDBRANCH  54  57
ENDBRANCH  51  54
ENDBRANCH   1  51
TORSDOF 19
ENDMDL
MODEL 4
REMARK VINA RESULT:     -12.1      1.712      2.486
REMARK SMILES CS(=O)(=O)c1ccc(-n2nc(C(F)(F)F)cc2-c2ccc(CC(=O)NCCCCCCNC(=O)c3ccc(-c4c5nc(c(-c6c(F)c(F)c(F)c(F)c6F)c6ccc([nH]6)c(-c6c(F)c(F)c(F)c(F)c6F)c6nc(c(-c7c(F)c(F)c(F)c(F)c7F)c7ccc4[nH]7)C=C6)C=C5)cc3)cc2)cc1
REMARK SMILES IDX 27 1 26 4 25 7 23 8 24 9 22 11 21 14 18 15 19 16 99 17 20 18
REMARK SMILES IDX 98 20 17 24 9 25 10 26 11 27 16 28 8 30 5 31 6 32 101 33
REMARK SMILES IDX 7 34 100 36 2 40 3 41 4 42 1 43 12 47 13 48 14 49 15 50
REMARK SMILES IDX 28 51 29 54 30 57 31 60 32 63 33 64 34 66 35 67 36 68 97 69
REMARK SMILES IDX 37 70 96 72 38 74 39 77 40 78 90 79 41 80 95 81 89 82 91 83
REMARK SMILES IDX 42 84 94 85 88 87 87 89 43 91 75 94 55 95 74 96 56 97 59 98
REMARK SMILES IDX 73 99 92 100 57 101 58 103 72 105 93 106 60 109 44 111
REMARK SMILES IDX 45 112 53 113 46 114 47 115 51 116 54 117 48 118 49 119
REMARK SMILES IDX 52 120 50 121 76 122 77 123 85 124 78 125 79 126 83 127
REMARK SMILES IDX 86 128 80 129 81 130 84 131 82 132 61 133 62 134 70 135
REMARK SMILES IDX 63 136 64 137 68 138 71 139 65 140 66 141 69 142 67 143
REMARK H PARENT 27 2 27 3 26 5 26 6 25 10 22 12 22 13 19 19 99 21 20 22 98 23
REMARK H PARENT 16 29 6 35 101 37 7 38 100 39 1 44 1 45 1 46 28 52 28 53 29 55
REMARK H PARENT 29 56 30 58 30 59 31 61 31 62 32 65 36 71 97 73 37 75 96 76
REMARK H PARENT 95 86 89 88 91 90 94 92 88 93 56 102 59 104 92 107 57 108
REMARK H PARENT 93 110
REMARK Flexibility Score: inf
ROOT
ATOM      1  C   UNL A   1      36.384  22.121  23.811  1.00  0.00    -0.036 C 
ATOM      2  H   UNL A   1      36.835  22.961  23.325  1.00  0.00     0.028 H 
ATOM      3  H   UNL A   1      36.096  21.355  23.120  1.00  0.00     0.028 H 
ENDROOT
BRANCH   1   4
ATOM      4  C   UNL A   1      35.107  22.594  24.508  1.00  0.00     0.017 C 
ATOM      5  H   UNL A   1      35.330  22.812  25.532  1.00  0.00     0.049 H 
ATOM      6  H   UNL A   1      34.753  23.468  24.002  1.00  0.00     0.049 H 
BRANCH   4   7
ATOM      7  N   UNL A   1      34.069  21.586  24.454  1.00  0.00    -0.356 N 
ATOM      8  C   UNL A   1      32.827  21.654  23.891  1.00  0.00     0.224 C 
ATOM      9  O   UNL A   1      32.061  20.700  24.036  1.00  0.00    -0.275 OA
ATOM     10  H   UNL A   1      34.290  20.728  24.884  1.00  0.00     0.163 HD
BRANCH   8  11
ATOM     11  C   UNL A   1      32.431  22.866  23.064  1.00  0.00     0.052 C 
ATOM     12  H   UNL A   1      33.020  22.871  22.170  1.00  0.00     0.042 H 
ATOM     13  H   UNL A   1      31.383  22.776  22.865  1.00  0.00     0.042 H 
BRANCH  11  14
ATOM     14  C   UNL A   1      32.630  24.182  23.773  1.00  0.00    -0.039 A 
ATOM     15  C   UNL A   1      33.128  26.568  25.159  1.00  0.00     0.000 A 
ATOM     16  C   UNL A   1      32.221  25.629  25.666  1.00  0.00    -0.053 A 
ATOM     17  C   UNL A   1      33.741  26.337  23.927  1.00  0.00    -0.053 A 
ATOM     18  C   UNL A   1      31.981  24.439  24.984  1.00  0.00    -0.058 A 
ATOM     19  H   UNL A   1      31.728  25.820  26.552  1.00  0.00     0.063 H 
ATOM     20  C   UNL A   1      33.480  25.158  23.231  1.00  0.00    -0.058 A 
ATOM     21  H   UNL A   1      34.387  27.038  23.532  1.00  0.00     0.063 H 
ATOM     22  H   UNL A   1      31.322  23.746  25.373  1.00  0.00     0.063 H 
ATOM     23  H   UNL A   1      33.916  25.002  22.309  1.00  0.00     0.063 H 
BRANCH  15  24
ATOM     24  C   UNL A   1      33.409  27.794  25.889  1.00  0.00     0.075 A 
ATOM     25  N   UNL A   1      32.722  28.985  25.740  1.00  0.00    -0.233 N 
ATOM     26  N   UNL A   1      33.275  29.997  26.457  1.00  0.00    -0.163 NA
ATOM     27  C   UNL A   1      34.321  29.435  27.098  1.00  0.00     0.167 A 
ATOM     28  C   UNL A   1      34.424  28.058  26.785  1.00  0.00    -0.003 A 
ATOM     29  H   UNL A   1      35.117  27.388  27.152  1.00  0.00     0.067 H 
BRANCH  25  30
ATOM     30  C   UNL A   1      31.580  29.213  24.937  1.00  0.00     0.065 A 
ATOM     31  C   UNL A   1      29.342  29.721  23.365  1.00  0.00     0.067 A 
ATOM     32  C   UNL A   1      29.995  28.484  23.271  1.00  0.00    -0.041 A 
ATOM     33  C   UNL A   1      29.824  30.715  24.220  1.00  0.00    -0.041 A 
ATOM     34  C   UNL A   1      31.121  28.224  24.062  1.00  0.00    -0.035 A 
ATOM     35  H   UNL A   1      29.644  27.765  22.619  1.00  0.00     0.064 H 
ATOM     36  C   UNL A   1      30.957  30.464  24.995  1.00  0.00    -0.035 A 
ATOM     37  H   UNL A   1      29.346  31.628  24.279  1.00  0.00     0.064 H 
ATOM     38  H   UNL A   1      31.605  27.315  23.999  1.00  0.00     0.065 H 
ATOM     39  H   UNL A   1      31.335  31.200  25.610  1.00  0.00     0.065 H 
BRANCH  31  40
ATOM     40  S   UNL A   1      27.965  30.093  22.298  1.00  0.00     0.175 S 
ATOM     41  O   UNL A   1      26.829  29.349  22.828  1.00  0.00    -0.224 OA
ATOM     42  O   UNL A   1      28.402  29.930  20.934  1.00  0.00    -0.224 OA
BRANCH  40  43
ATOM     43  C   UNL A   1      27.632  31.807  22.535  1.00  0.00     0.043 C 
ATOM     44  H   UNL A   1      28.487  32.281  22.970  1.00  0.00     0.040 H 
ATOM     45  H   UNL A   1      26.791  31.921  23.188  1.00  0.00     0.040 H 
ATOM     46  H   UNL A   1      27.414  32.263  21.591  1.00  0.00     0.040 H 
ENDBRANCH  40  43
ENDBRANCH  31  40
ENDBRANCH  25  30
BRANCH  27  47
ATOM     47  C   UNL A   1      35.250  30.200  28.005  1.00  0.00     0.435 C 
ATOM     48  F   UNL A   1      36.332  30.695  27.347  1.00  0.00    -0.164 F 
ATOM     49  F   UNL A   1      34.633  31.253  28.604  1.00  0.00    -0.164 F 
ATOM     50  F   UNL A   1      35.734  29.417  29.008  1.00  0.00    -0.164 F 
ENDBRANCH  27  47
ENDBRANCH  15  24
ENDBRANCH  11  14
ENDBRANCH   8  11
ENDBRANCH   4   7
ENDBRANCH   1   4
BRANCH   1  51
ATOM     51  C   UNL A   1      37.417  21.499  24.759  1.00  0.00    -0.052 C 
ATOM     52  H   UNL A   1      38.149  20.995  24.164  1.00  0.00     0.027 H 
ATOM     53  H   UNL A   1      36.865  20.851  25.408  1.00  0.00     0.027 H 
BRANCH  51  54
ATOM     54  C   UNL A   1      38.154  22.486  25.679  1.00  0.00    -0.052 C 
ATOM     55  H   UNL A   1      37.454  22.842  26.404  1.00  0.00     0.027 H 
ATOM     56  H   UNL A   1      38.543  23.243  25.031  1.00  0.00     0.027 H 
BRANCH  54  57
ATOM     57  C   UNL A   1      39.370  21.930  26.436  1.00  0.00    -0.036 C 
ATOM     58  H   UNL A   1      39.868  21.224  25.805  1.00  0.00     0.028 H 
ATOM     59  H   UNL A   1      39.000  21.483  27.336  1.00  0.00     0.028 H 
BRANCH  57  60
ATOM     60  C   UNL A   1      40.372  22.995  26.852  1.00  0.00     0.018 C 
ATOM     61  H   UNL A   1      40.581  22.880  27.895  1.00  0.00     0.049 H 
ATOM     62  H   UNL A   1      39.939  23.950  26.640  1.00  0.00     0.049 H 
BRANCH  60  63
ATOM     63  N   UNL A   1      41.630  22.901  26.108  1.00  0.00    -0.352 N 
ATOM     64  C   UNL A   1      42.420  23.919  25.608  1.00  0.00     0.251 C 
ATOM     65  H   UNL A   1      41.959  21.988  25.942  1.00  0.00     0.163 HD
ATOM     66  O   UNL A   1      43.211  23.719  24.695  1.00  0.00    -0.269 OA
BRANCH  64  67
ATOM     67  C   UNL A   1      42.316  25.257  26.217  1.00  0.00     0.039 A 
ATOM     68  C   UNL A   1      41.394  26.214  25.776  1.00  0.00    -0.049 A 
ATOM     69  C   UNL A   1      43.183  25.543  27.267  1.00  0.00    -0.049 A 
ATOM     70  C   UNL A   1      41.324  27.437  26.443  1.00  0.00    -0.053 A 
ATOM     71  H   UNL A   1      40.777  26.017  24.973  1.00  0.00     0.063 H 
ATOM     72  C   UNL A   1      42.966  26.643  28.045  1.00  0.00    -0.053 A 
ATOM     73  H   UNL A   1      43.986  24.924  27.457  1.00  0.00     0.063 H 
ATOM     74  C   UNL A   1      42.116  27.637  27.581  1.00  0.00    -0.014 A 
ATOM     75  H   UNL A   1      40.697  28.184  26.104  1.00  0.00     0.063 H 
ATOM     76  H   UNL A   1      43.426  26.734  28.964  1.00  0.00     0.063 H 
BRANCH  74  77
ATOM     77  C   UNL A   1      42.014  28.818  28.429  1.00  0.00     0.031 A 
ATOM     78  C   UNL A   1      43.091  29.808  28.196  1.00  0.00     0.074 A 
ATOM     79  C   UNL A   1      40.885  29.112  29.113  1.00  0.00     0.049 A 
ATOM     80  N   UNL A   1      44.015  30.157  29.026  1.00  0.00    -0.248 NA
ATOM     81  C   UNL A   1      43.267  30.356  26.841  1.00  0.00    -0.034 C 
ATOM     82  C   UNL A   1      39.642  28.345  29.185  1.00  0.00    -0.036 A 
ATOM     83  N   UNL A   1      40.567  30.233  29.815  1.00  0.00    -0.354 N 
ATOM     84  C   UNL A   1      44.744  31.148  28.377  1.00  0.00     0.074 A 
ATOM     85  C   UNL A   1      44.400  31.047  26.985  1.00  0.00    -0.034 C 
ATOM     86  H   UNL A   1      42.674  30.239  26.004  1.00  0.00     0.065 H 
ATOM     87  C   UNL A   1      38.643  29.122  29.668  1.00  0.00    -0.036 A 
ATOM     88  H   UNL A   1      39.541  27.356  28.909  1.00  0.00     0.065 H 
ATOM     89  C   UNL A   1      39.205  30.384  30.100  1.00  0.00     0.049 A 
ATOM     90  H   UNL A   1      41.242  30.890  30.101  1.00  0.00     0.167 HD
ATOM     91  C   UNL A   1      45.319  32.155  29.092  1.00  0.00     0.037 A 
ATOM     92  H   UNL A   1      44.950  31.449  26.210  1.00  0.00     0.065 H 
ATOM     93  H   UNL A   1      37.647  28.858  29.719  1.00  0.00     0.065 H 
ATOM     94  C   UNL A   1      38.606  31.473  30.654  1.00  0.00     0.037 A 
ATOM     95  C   UNL A   1      45.411  31.795  30.491  1.00  0.00     0.049 A 
ATOM     96  C   UNL A   1      39.686  32.258  31.298  1.00  0.00     0.074 A 
ATOM     97  C   UNL A   1      45.963  30.730  31.181  1.00  0.00    -0.036 A 
ATOM     98  N   UNL A   1      44.519  32.367  31.367  1.00  0.00    -0.354 N 
ATOM     99  N   UNL A   1      40.315  31.855  32.365  1.00  0.00    -0.248 NA
ATOM    100  C   UNL A   1      40.394  33.215  30.460  1.00  0.00    -0.034 C 
ATOM    101  C   UNL A   1      45.005  30.407  32.188  1.00  0.00    -0.036 A 
ATOM    102  H   UNL A   1      46.869  30.269  31.004  1.00  0.00     0.065 H 
ATOM    103  C   UNL A   1      43.987  31.356  32.127  1.00  0.00     0.049 A 
ATOM    104  H   UNL A   1      44.302  33.325  31.438  1.00  0.00     0.167 HD
ATOM    105  C   UNL A   1      41.644  32.145  32.106  1.00  0.00     0.074 A 
ATOM    106  C   UNL A   1      41.627  33.031  30.940  1.00  0.00    -0.034 C 
ATOM    107  H   UNL A   1      40.048  33.843  29.718  1.00  0.00     0.065 H 
ATOM    108  H   UNL A   1      45.057  29.612  32.845  1.00  0.00     0.065 H 
ATOM    109  C   UNL A   1      42.644  31.391  32.647  1.00  0.00     0.037 A 
ATOM    110  H   UNL A   1      42.471  33.464  30.535  1.00  0.00     0.065 H 
BRANCH  91 111
ATOM    111  C   UNL A   1      45.410  33.592  28.620  1.00  0.00     0.064 A 
ATOM    112  C   UNL A   1      46.650  34.257  28.729  1.00  0.00     0.173 A 
ATOM    113  C   UNL A   1      44.305  34.429  28.347  1.00  0.00     0.173 A 
ATOM    114  F   UNL A   1      47.772  33.571  28.989  1.00  0.00    -0.203 F 
ATOM    115  C   UNL A   1      46.752  35.650  28.676  1.00  0.00     0.198 A 
ATOM    116  C   UNL A   1      44.420  35.814  28.240  1.00  0.00     0.198 A 
ATOM    117  F   UNL A   1      43.050  33.975  28.278  1.00  0.00    -0.203 F 
ATOM    118  F   UNL A   1      47.930  36.237  28.927  1.00  0.00    -0.200 F 
ATOM    119  C   UNL A   1      45.636  36.428  28.440  1.00  0.00     0.200 A 
ATOM    120  F   UNL A   1      43.321  36.549  28.019  1.00  0.00    -0.200 F 
ATOM    121  F   UNL A   1      45.720  37.764  28.452  1.00  0.00    -0.200 F 
ENDBRANCH  91 111
BRANCH  94 122
ATOM    122  C   UNL A   1      37.252  32.058  30.486  1.00  0.00     0.064 A 
ATOM    123  C   UNL A   1      36.264  31.906  31.476  1.00  0.00     0.173 A 
ATOM    124  C   UNL A   1      37.011  33.048  29.521  1.00  0.00     0.173 A 
ATOM    125  F   UNL A   1      36.421  30.995  32.447  1.00  0.00    -0.203 F 
ATOM    126  C   UNL A   1      35.134  32.732  31.531  1.00  0.00     0.198 A 
ATOM    127  C   UNL A   1      35.878  33.869  29.579  1.00  0.00     0.198 A 
ATOM    128  F   UNL A   1      37.920  33.277  28.566  1.00  0.00    -0.203 F 
ATOM    129  F   UNL A   1      34.249  32.597  32.528  1.00  0.00    -0.200 F 
ATOM    130  C   UNL A   1      34.953  33.728  30.594  1.00  0.00     0.200 A 
ATOM    131  F   UNL A   1      35.684  34.842  28.683  1.00  0.00    -0.200 F 
ATOM    132  F   UNL A   1      33.910  34.566  30.675  1.00  0.00    -0.200 F 
ENDBRANCH  94 122
BRANCH 109 133
ATOM    133  C   UNL A   1      42.289  30.389  33.711  1.00  0.00     0.064 A 
ATOM    134  C   UNL A   1      41.865  29.070  33.460  1.00  0.00     0.173 A 
ATOM    135  C   UNL A   1      42.524  30.742  35.044  1.00  0.00     0.173 A 
ATOM    136  F   UNL A   1      41.716  28.616  32.209  1.00  0.00    -0.203 F 
ATOM    137  C   UNL A   1      41.642  28.170  34.503  1.00  0.00     0.198 A 
ATOM    138  C   UNL A   1      42.338  29.832  36.080  1.00  0.00     0.198 A 
ATOM    139  F   UNL A   1      42.980  31.970  35.341  1.00  0.00    -0.203 F 
ATOM    140  F   UNL A   1      41.227  26.922  34.239  1.00  0.00    -0.200 F 
ATOM    141  C   UNL A   1      41.886  28.551  35.812  1.00  0.00     0.200 A 
ATOM    142  F   UNL A   1      42.624  30.192  37.339  1.00  0.00    -0.200 F 
ATOM    143  F   UNL A   1      41.711  27.677  36.813  1.00  0.00    -0.200 F 
ENDBRANCH 109 133
ENDBRANCH  74  77
ENDBRANCH  64  67
ENDBRANCH  60  63
ENDBRANCH  57  60
ENDBRANCH  54  57
ENDBRANCH  51  54
ENDBRANCH   1  51
TORSDOF 19
ENDMDL
MODEL 5
REMARK VINA RESULT:     -12.0      3.537      8.534
REMARK SMILES CS(=O)(=O)c1ccc(-n2nc(C(F)(F)F)cc2-c2ccc(CC(=O)NCCCCCCNC(=O)c3ccc(-c4c5nc(c(-c6c(F)c(F)c(F)c(F)c6F)c6ccc([nH]6)c(-c6c(F)c(F)c(F)c(F)c6F)c6nc(c(-c7c(F)c(F)c(F)c(F)c7F)c7ccc4[nH]7)C=C6)C=C5)cc3)cc2)cc1
REMARK SMILES IDX 27 1 26 4 25 7 23 8 24 9 22 11 21 14 18 15 19 16 99 17 20 18
REMARK SMILES IDX 98 20 17 24 9 25 10 26 11 27 16 28 8 30 5 31 6 32 101 33
REMARK SMILES IDX 7 34 100 36 2 40 3 41 4 42 1 43 12 47 13 48 14 49 15 50
REMARK SMILES IDX 28 51 29 54 30 57 31 60 32 63 33 64 34 66 35 67 36 68 97 69
REMARK SMILES IDX 37 70 96 72 38 74 39 77 40 78 90 79 41 80 95 81 89 82 91 83
REMARK SMILES IDX 42 84 94 85 88 87 87 89 43 91 75 94 55 95 74 96 56 97 59 98
REMARK SMILES IDX 73 99 92 100 57 101 58 103 72 105 93 106 60 109 44 111
REMARK SMILES IDX 45 112 53 113 46 114 47 115 51 116 54 117 48 118 49 119
REMARK SMILES IDX 52 120 50 121 76 122 77 123 85 124 78 125 79 126 83 127
REMARK SMILES IDX 86 128 80 129 81 130 84 131 82 132 61 133 62 134 70 135
REMARK SMILES IDX 63 136 64 137 68 138 71 139 65 140 66 141 69 142 67 143
REMARK H PARENT 27 2 27 3 26 5 26 6 25 10 22 12 22 13 19 19 99 21 20 22 98 23
REMARK H PARENT 16 29 6 35 101 37 7 38 100 39 1 44 1 45 1 46 28 52 28 53 29 55
REMARK H PARENT 29 56 30 58 30 59 31 61 31 62 32 65 36 71 97 73 37 75 96 76
REMARK H PARENT 95 86 89 88 91 90 94 92 88 93 56 102 59 104 92 107 57 108
REMARK H PARENT 93 110
REMARK Flexibility Score: inf
ROOT
ATOM      1  C   UNL A   1      34.948  33.855  29.360  1.00  0.00    -0.036 C 
ATOM      2  H   UNL A   1      35.761  34.495  29.631  1.00  0.00     0.028 H 
ATOM      3  H   UNL A   1      34.754  33.104  30.097  1.00  0.00     0.028 H 
ENDROOT
BRANCH   1   4
ATOM      4  C   UNL A   1      35.321  33.124  28.068  1.00  0.00     0.017 C 
ATOM      5  H   UNL A   1      34.444  33.016  27.463  1.00  0.00     0.049 H 
ATOM      6  H   UNL A   1      36.066  33.700  27.559  1.00  0.00     0.049 H 
BRANCH   4   7
ATOM      7  N   UNL A   1      35.870  31.811  28.342  1.00  0.00    -0.356 N 
ATOM      8  C   UNL A   1      35.249  30.596  28.332  1.00  0.00     0.224 C 
ATOM      9  O   UNL A   1      35.889  29.604  28.683  1.00  0.00    -0.275 OA
ATOM     10  H   UNL A   1      36.829  31.793  28.566  1.00  0.00     0.163 HD
BRANCH   8  11
ATOM     11  C   UNL A   1      33.813  30.478  27.848  1.00  0.00     0.052 C 
ATOM     12  H   UNL A   1      33.166  30.527  28.700  1.00  0.00     0.042 H 
ATOM     13  H   UNL A   1      33.650  31.281  27.161  1.00  0.00     0.042 H 
BRANCH  11  14
ATOM     14  C   UNL A   1      33.521  29.198  27.104  1.00  0.00    -0.039 A 
ATOM     15  C   UNL A   1      32.893  26.904  25.621  1.00  0.00     0.000 A 
ATOM     16  C   UNL A   1      32.155  27.234  26.765  1.00  0.00    -0.053 A 
ATOM     17  C   UNL A   1      33.983  27.694  25.255  1.00  0.00    -0.053 A 
ATOM     18  C   UNL A   1      32.460  28.379  27.497  1.00  0.00    -0.058 A 
ATOM     19  H   UNL A   1      31.379  26.624  27.068  1.00  0.00     0.063 H 
ATOM     20  C   UNL A   1      34.305  28.825  26.002  1.00  0.00    -0.058 A 
ATOM     21  H   UNL A   1      34.550  27.440  24.431  1.00  0.00     0.063 H 
ATOM     22  H   UNL A   1      31.901  28.622  28.330  1.00  0.00     0.063 H 
ATOM     23  H   UNL A   1      35.126  29.393  25.742  1.00  0.00     0.063 H 
BRANCH  15  24
ATOM     24  C   UNL A   1      32.551  25.729  24.834  1.00  0.00     0.075 A 
ATOM     25  N   UNL A   1      31.539  25.668  23.893  1.00  0.00    -0.233 N 
ATOM     26  N   UNL A   1      31.364  24.415  23.400  1.00  0.00    -0.163 NA
ATOM     27  C   UNL A   1      32.300  23.666  24.019  1.00  0.00     0.167 A 
ATOM     28  C   UNL A   1      33.072  24.455  24.905  1.00  0.00    -0.003 A 
ATOM     29  H   UNL A   1      33.865  24.140  25.486  1.00  0.00     0.067 H 
BRANCH  25  30
ATOM     30  C   UNL A   1      30.721  26.735  23.454  1.00  0.00     0.065 A 
ATOM     31  C   UNL A   1      29.070  28.819  22.635  1.00  0.00     0.067 A 
ATOM     32  C   UNL A   1      30.431  28.835  22.303  1.00  0.00    -0.041 A 
ATOM     33  C   UNL A   1      28.539  27.779  23.401  1.00  0.00    -0.041 A 
ATOM     34  C   UNL A   1      31.266  27.787  22.712  1.00  0.00    -0.035 A 
ATOM     35  H   UNL A   1      30.819  29.620  21.755  1.00  0.00     0.064 H 
ATOM     36  C   UNL A   1      29.372  26.744  23.825  1.00  0.00    -0.035 A 
ATOM     37  H   UNL A   1      27.537  27.775  23.652  1.00  0.00     0.064 H 
ATOM     38  H   UNL A   1      32.268  27.792  22.470  1.00  0.00     0.065 H 
ATOM     39  H   UNL A   1      28.995  25.985  24.413  1.00  0.00     0.065 H 
BRANCH  31  40
ATOM     40  S   UNL A   1      28.022  30.191  22.196  1.00  0.00     0.175 S 
ATOM     41  O   UNL A   1      26.868  30.120  23.084  1.00  0.00    -0.224 OA
ATOM     42  O   UNL A   1      27.870  30.195  20.762  1.00  0.00    -0.224 OA
BRANCH  40  43
ATOM     43  C   UNL A   1      28.932  31.638  22.627  1.00  0.00     0.043 C 
ATOM     44  H   UNL A   1      29.979  31.446  22.521  1.00  0.00     0.040 H 
ATOM     45  H   UNL A   1      28.719  31.905  23.641  1.00  0.00     0.040 H 
ATOM     46  H   UNL A   1      28.650  32.442  21.980  1.00  0.00     0.040 H 
ENDBRANCH  40  43
ENDBRANCH  31  40
ENDBRANCH  25  30
BRANCH  27  47
ATOM     47  C   UNL A   1      32.464  22.185  23.792  1.00  0.00     0.435 C 
ATOM     48  F   UNL A   1      31.789  21.439  24.705  1.00  0.00    -0.164 F 
ATOM     49  F   UNL A   1      32.027  21.802  22.563  1.00  0.00    -0.164 F 
ATOM     50  F   UNL A   1      33.769  21.805  23.871  1.00  0.00    -0.164 F 
ENDBRANCH  27  47
ENDBRANCH  15  24
ENDBRANCH  11  14
ENDBRANCH   8  11
ENDBRANCH   4   7
ENDBRANCH   1   4
BRANCH   1  51
ATOM     51  C   UNL A   1      33.677  34.707  29.247  1.00  0.00    -0.052 C 
ATOM     52  H   UNL A   1      32.882  34.070  28.923  1.00  0.00     0.027 H 
ATOM     53  H   UNL A   1      33.912  35.492  28.559  1.00  0.00     0.027 H 
BRANCH  51  54
ATOM     54  C   UNL A   1      33.228  35.403  30.542  1.00  0.00    -0.052 C 
ATOM     55  H   UNL A   1      32.159  35.401  30.560  1.00  0.00     0.027 H 
ATOM     56  H   UNL A   1      33.666  36.379  30.509  1.00  0.00     0.027 H 
BRANCH  54  57
ATOM     57  C   UNL A   1      33.719  34.778  31.856  1.00  0.00    -0.036 C 
ATOM     58  H   UNL A   1      34.153  33.825  31.635  1.00  0.00     0.028 H 
ATOM     59  H   UNL A   1      32.869  34.699  32.502  1.00  0.00     0.028 H 
BRANCH  57  60
ATOM     60  C   UNL A   1      34.754  35.619  32.586  1.00  0.00     0.018 C 
ATOM     61  H   UNL A   1      34.508  36.652  32.457  1.00  0.00     0.049 H 
ATOM     62  H   UNL A   1      35.713  35.389  32.170  1.00  0.00     0.049 H 
BRANCH  60  63
ATOM     63  N   UNL A   1      34.807  35.324  34.019  1.00  0.00    -0.352 N 
ATOM     64  C   UNL A   1      35.512  34.333  34.675  1.00  0.00     0.251 C 
ATOM     65  H   UNL A   1      34.265  35.912  34.595  1.00  0.00     0.163 HD
ATOM     66  O   UNL A   1      35.179  33.948  35.789  1.00  0.00    -0.269 OA
BRANCH  64  67
ATOM     67  C   UNL A   1      36.701  33.760  34.020  1.00  0.00     0.039 A 
ATOM     68  C   UNL A   1      37.912  34.455  33.920  1.00  0.00    -0.049 A 
ATOM     69  C   UNL A   1      36.576  32.478  33.495  1.00  0.00    -0.049 A 
ATOM     70  C   UNL A   1      39.005  33.817  33.332  1.00  0.00    -0.053 A 
ATOM     71  H   UNL A   1      37.994  35.420  34.275  1.00  0.00     0.063 H 
ATOM     72  C   UNL A   1      37.692  31.787  33.120  1.00  0.00    -0.053 A 
ATOM     73  H   UNL A   1      35.643  32.050  33.390  1.00  0.00     0.063 H 
ATOM     74  C   UNL A   1      38.881  32.478  32.938  1.00  0.00    -0.014 A 
ATOM     75  H   UNL A   1      39.893  34.325  33.189  1.00  0.00     0.063 H 
ATOM     76  H   UNL A   1      37.653  30.766  32.976  1.00  0.00     0.063 H 
BRANCH  74  77
ATOM     77  C   UNL A   1      39.999  31.682  32.448  1.00  0.00     0.031 A 
ATOM     78  C   UNL A   1      40.896  31.198  33.522  1.00  0.00     0.074 A 
ATOM     79  C   UNL A   1      40.023  31.179  31.193  1.00  0.00     0.049 A 
ATOM     80  N   UNL A   1      42.129  31.530  33.711  1.00  0.00    -0.248 NA
ATOM     81  C   UNL A   1      40.325  30.382  34.607  1.00  0.00    -0.034 C 
ATOM     82  C   UNL A   1      39.038  31.355  30.126  1.00  0.00    -0.036 A 
ATOM     83  N   UNL A   1      40.897  30.302  30.630  1.00  0.00    -0.354 N 
ATOM     84  C   UNL A   1      42.556  30.775  34.798  1.00  0.00     0.074 A 
ATOM     85  C   UNL A   1      41.364  30.294  35.440  1.00  0.00    -0.034 C 
ATOM     86  H   UNL A   1      39.377  29.984  34.698  1.00  0.00     0.065 H 
ATOM     87  C   UNL A   1      39.231  30.428  29.157  1.00  0.00    -0.036 A 
ATOM     88  H   UNL A   1      38.303  32.079  30.113  1.00  0.00     0.065 H 
ATOM     89  C   UNL A   1      40.452  29.705  29.445  1.00  0.00     0.049 A 
ATOM     90  H   UNL A   1      41.776  30.101  31.025  1.00  0.00     0.167 HD
ATOM     91  C   UNL A   1      43.852  30.364  34.879  1.00  0.00     0.037 A 
ATOM     92  H   UNL A   1      41.317  29.933  36.406  1.00  0.00     0.065 H 
ATOM     93  H   UNL A   1      38.611  30.265  28.349  1.00  0.00     0.065 H 
ATOM     94  C   UNL A   1      41.060  28.695  28.765  1.00  0.00     0.037 A 
ATOM     95  C   UNL A   1      44.687  31.141  33.989  1.00  0.00     0.049 A 
ATOM     96  C   UNL A   1      42.463  28.658  29.243  1.00  0.00     0.074 A 
ATOM     97  C   UNL A   1      44.925  32.494  33.822  1.00  0.00    -0.036 A 
ATOM     98  N   UNL A   1      45.107  30.555  32.818  1.00  0.00    -0.354 N 
ATOM     99  N   UNL A   1      43.330  29.589  28.966  1.00  0.00    -0.248 NA
ATOM    100  C   UNL A   1      42.731  27.866  30.435  1.00  0.00    -0.034 C 
ATOM    101  C   UNL A   1      44.957  32.691  32.409  1.00  0.00    -0.036 A 
ATOM    102  H   UNL A   1      45.052  33.205  34.559  1.00  0.00     0.065 H 
ATOM    103  C   UNL A   1      44.850  31.442  31.803  1.00  0.00     0.049 A 
ATOM    104  H   UNL A   1      45.517  29.665  32.724  1.00  0.00     0.167 HD
ATOM    105  C   UNL A   1      43.994  29.802  30.161  1.00  0.00     0.074 A 
ATOM    106  C   UNL A   1      43.620  28.674  31.019  1.00  0.00    -0.034 C 
ATOM    107  H   UNL A   1      42.349  26.956  30.737  1.00  0.00     0.065 H 
ATOM    108  H   UNL A   1      45.043  33.598  31.923  1.00  0.00     0.065 H 
ATOM    109  C   UNL A   1      44.520  31.024  30.464  1.00  0.00     0.037 A 
ATOM    110  H   UNL A   1      44.000  28.521  31.966  1.00  0.00     0.065 H 
BRANCH  91 111
ATOM    111  C   UNL A   1      44.288  29.020  35.428  1.00  0.00     0.064 A 
ATOM    112  C   UNL A   1      45.380  28.981  36.320  1.00  0.00     0.173 A 
ATOM    113  C   UNL A   1      43.892  27.765  34.912  1.00  0.00     0.173 A 
ATOM    114  F   UNL A   1      45.850  30.108  36.874  1.00  0.00    -0.203 F 
ATOM    115  C   UNL A   1      46.081  27.801  36.585  1.00  0.00     0.198 A 
ATOM    116  C   UNL A   1      44.559  26.582  35.223  1.00  0.00     0.198 A 
ATOM    117  F   UNL A   1      42.920  27.626  34.006  1.00  0.00    -0.203 F 
ATOM    118  F   UNL A   1      47.196  27.845  37.326  1.00  0.00    -0.200 F 
ATOM    119  C   UNL A   1      45.675  26.604  36.029  1.00  0.00     0.200 A 
ATOM    120  F   UNL A   1      44.153  25.433  34.665  1.00  0.00    -0.200 F 
ATOM    121  F   UNL A   1      46.381  25.484  36.230  1.00  0.00    -0.200 F 
ENDBRANCH  91 111
BRANCH  94 122
ATOM    122  C   UNL A   1      40.521  27.588  27.934  1.00  0.00     0.064 A 
ATOM    123  C   UNL A   1      41.093  27.266  26.689  1.00  0.00     0.173 A 
ATOM    124  C   UNL A   1      39.666  26.623  28.488  1.00  0.00     0.173 A 
ATOM    125  F   UNL A   1      41.936  28.123  26.096  1.00  0.00    -0.203 F 
ATOM    126  C   UNL A   1      40.869  26.032  26.066  1.00  0.00     0.198 A 
ATOM    127  C   UNL A   1      39.444  25.392  27.860  1.00  0.00     0.198 A 
ATOM    128  F   UNL A   1      39.111  26.841  29.686  1.00  0.00    -0.203 F 
ATOM    129  F   UNL A   1      41.484  25.739  24.913  1.00  0.00    -0.200 F 
ATOM    130  C   UNL A   1      40.061  25.087  26.663  1.00  0.00     0.200 A 
ATOM    131  F   UNL A   1      38.666  24.461  28.421  1.00  0.00    -0.200 F 
ATOM    132  F   UNL A   1      39.892  23.878  26.109  1.00  0.00    -0.200 F 
ENDBRANCH  94 122
BRANCH 109 133
ATOM    133  C   UNL A   1      44.570  32.068  29.383  1.00  0.00     0.064 A 
ATOM    134  C   UNL A   1      43.536  32.980  29.100  1.00  0.00     0.173 A 
ATOM    135  C   UNL A   1      45.778  32.239  28.697  1.00  0.00     0.173 A 
ATOM    136  F   UNL A   1      42.384  32.955  29.783  1.00  0.00    -0.203 F 
ATOM    137  C   UNL A   1      43.693  33.981  28.141  1.00  0.00     0.198 A 
ATOM    138  C   UNL A   1      45.946  33.261  27.767  1.00  0.00     0.198 A 
ATOM    139  F   UNL A   1      46.818  31.433  28.962  1.00  0.00    -0.203 F 
ATOM    140  F   UNL A   1      42.688  34.831  27.882  1.00  0.00    -0.200 F 
ATOM    141  C   UNL A   1      44.902  34.124  27.480  1.00  0.00     0.200 A 
ATOM    142  F   UNL A   1      47.135  33.424  27.170  1.00  0.00    -0.200 F 
ATOM    143  F   UNL A   1      45.071  35.109  26.587  1.00  0.00    -0.200 F 
ENDBRANCH 109 133
ENDBRANCH  74  77
ENDBRANCH  64  67
ENDBRANCH  60  63
ENDBRANCH  57  60
ENDBRANCH  54  57
ENDBRANCH  51  54
ENDBRANCH   1  51
TORSDOF 19
ENDMDL
MODEL 6
REMARK VINA RESULT:     -11.9      4.026      8.188
REMARK SMILES CS(=O)(=O)c1ccc(-n2nc(C(F)(F)F)cc2-c2ccc(CC(=O)NCCCCCCNC(=O)c3ccc(-c4c5nc(c(-c6c(F)c(F)c(F)c(F)c6F)c6ccc([nH]6)c(-c6c(F)c(F)c(F)c(F)c6F)c6nc(c(-c7c(F)c(F)c(F)c(F)c7F)c7ccc4[nH]7)C=C6)C=C5)cc3)cc2)cc1
REMARK SMILES IDX 27 1 26 4 25 7 23 8 24 9 22 11 21 14 18 15 19 16 99 17 20 18
REMARK SMILES IDX 98 20 17 24 9 25 10 26 11 27 16 28 8 30 5 31 6 32 101 33
REMARK SMILES IDX 7 34 100 36 2 40 3 41 4 42 1 43 12 47 13 48 14 49 15 50
REMARK SMILES IDX 28 51 29 54 30 57 31 60 32 63 33 64 34 66 35 67 36 68 97 69
REMARK SMILES IDX 37 70 96 72 38 74 39 77 40 78 90 79 41 80 95 81 89 82 91 83
REMARK SMILES IDX 42 84 94 85 88 87 87 89 43 91 75 94 55 95 74 96 56 97 59 98
REMARK SMILES IDX 73 99 92 100 57 101 58 103 72 105 93 106 60 109 44 111
REMARK SMILES IDX 45 112 53 113 46 114 47 115 51 116 54 117 48 118 49 119
REMARK SMILES IDX 52 120 50 121 76 122 77 123 85 124 78 125 79 126 83 127
REMARK SMILES IDX 86 128 80 129 81 130 84 131 82 132 61 133 62 134 70 135
REMARK SMILES IDX 63 136 64 137 68 138 71 139 65 140 66 141 69 142 67 143
REMARK H PARENT 27 2 27 3 26 5 26 6 25 10 22 12 22 13 19 19 99 21 20 22 98 23
REMARK H PARENT 16 29 6 35 101 37 7 38 100 39 1 44 1 45 1 46 28 52 28 53 29 55
REMARK H PARENT 29 56 30 58 30 59 31 61 31 62 32 65 36 71 97 73 37 75 96 76
REMARK H PARENT 95 86 89 88 91 90 94 92 88 93 56 102 59 104 92 107 57 108
REMARK H PARENT 93 110
REMARK Flexibility Score: inf
ROOT
ATOM      1  C   UNL A   1      31.046  27.081  26.754  1.00  0.00    -0.036 C 
ATOM      2  H   UNL A   1      31.027  26.066  27.094  1.00  0.00     0.028 H 
ATOM      3  H   UNL A   1      30.223  27.653  27.129  1.00  0.00     0.028 H 
ENDROOT
BRANCH   1   4
ATOM      4  C   UNL A   1      30.929  27.079  25.228  1.00  0.00     0.017 C 
ATOM      5  H   UNL A   1      30.220  27.825  24.933  1.00  0.00     0.049 H 
ATOM      6  H   UNL A   1      31.895  27.288  24.817  1.00  0.00     0.049 H 
BRANCH   4   7
ATOM      7  N   UNL A   1      30.493  25.790  24.731  1.00  0.00    -0.356 N 
ATOM      8  C   UNL A   1      30.991  25.050  23.699  1.00  0.00     0.224 C 
ATOM      9  O   UNL A   1      30.409  24.010  23.386  1.00  0.00    -0.275 OA
ATOM     10  H   UNL A   1      29.729  25.391  25.207  1.00  0.00     0.163 HD
BRANCH   8  11
ATOM     11  C   UNL A   1      32.263  25.486  22.992  1.00  0.00     0.052 C 
ATOM     12  H   UNL A   1      32.182  25.220  21.958  1.00  0.00     0.042 H 
ATOM     13  H   UNL A   1      32.354  26.541  23.139  1.00  0.00     0.042 H 
BRANCH  11  14
ATOM     14  C   UNL A   1      33.517  24.857  23.546  1.00  0.00    -0.039 A 
ATOM     15  C   UNL A   1      35.762  23.566  24.620  1.00  0.00     0.000 A 
ATOM     16  C   UNL A   1      35.057  24.510  25.377  1.00  0.00    -0.053 A 
ATOM     17  C   UNL A   1      35.376  23.313  23.304  1.00  0.00    -0.053 A 
ATOM     18  C   UNL A   1      33.935  25.144  24.849  1.00  0.00    -0.058 A 
ATOM     19  H   UNL A   1      35.370  24.737  26.334  1.00  0.00     0.063 H 
ATOM     20  C   UNL A   1      34.270  23.967  22.765  1.00  0.00    -0.058 A 
ATOM     21  H   UNL A   1      35.908  22.641  22.730  1.00  0.00     0.063 H 
ATOM     22  H   UNL A   1      33.413  25.828  25.419  1.00  0.00     0.063 H 
ATOM     23  H   UNL A   1      34.002  23.796  21.784  1.00  0.00     0.063 H 
BRANCH  15  24
ATOM     24  C   UNL A   1      36.910  22.874  25.185  1.00  0.00     0.075 A 
ATOM     25  N   UNL A   1      36.969  21.519  25.456  1.00  0.00    -0.233 N 
ATOM     26  N   UNL A   1      38.116  21.167  26.093  1.00  0.00    -0.163 NA
ATOM     27  C   UNL A   1      38.815  22.315  26.208  1.00  0.00     0.167 A 
ATOM     28  C   UNL A   1      38.104  23.397  25.634  1.00  0.00    -0.003 A 
ATOM     29  H   UNL A   1      38.417  24.378  25.566  1.00  0.00     0.067 H 
BRANCH  25  30
ATOM     30  C   UNL A   1      35.984  20.549  25.159  1.00  0.00     0.065 A 
ATOM     31  C   UNL A   1      34.090  18.597  24.575  1.00  0.00     0.067 A 
ATOM     32  C   UNL A   1      33.681  19.832  25.096  1.00  0.00    -0.041 A 
ATOM     33  C   UNL A   1      35.444  18.325  24.373  1.00  0.00    -0.041 A 
ATOM     34  C   UNL A   1      34.632  20.818  25.391  1.00  0.00    -0.035 A 
ATOM     35  H   UNL A   1      32.679  20.015  25.263  1.00  0.00     0.064 H 
ATOM     36  C   UNL A   1      36.394  19.299  24.683  1.00  0.00    -0.035 A 
ATOM     37  H   UNL A   1      35.742  17.411  23.998  1.00  0.00     0.064 H 
ATOM     38  H   UNL A   1      34.338  21.730  25.773  1.00  0.00     0.065 H 
ATOM     39  H   UNL A   1      37.398  19.098  24.561  1.00  0.00     0.065 H 
BRANCH  31  40
ATOM     40  S   UNL A   1      32.896  17.307  24.283  1.00  0.00     0.175 S 
ATOM     41  O   UNL A   1      33.365  16.579  23.111  1.00  0.00    -0.224 OA
ATOM     42  O   UNL A   1      31.582  17.898  24.327  1.00  0.00    -0.224 OA
BRANCH  40  43
ATOM     43  C   UNL A   1      33.025  16.222  25.667  1.00  0.00     0.043 C 
ATOM     44  H   UNL A   1      33.629  15.379  25.404  1.00  0.00     0.040 H 
ATOM     45  H   UNL A   1      32.049  15.888  25.950  1.00  0.00     0.040 H 
ATOM     46  H   UNL A   1      33.476  16.742  26.487  1.00  0.00     0.040 H 
ENDBRANCH  40  43
ENDBRANCH  31  40
ENDBRANCH  25  30
BRANCH  27  47
ATOM     47  C   UNL A   1      40.161  22.406  26.878  1.00  0.00     0.435 C 
ATOM     48  F   UNL A   1      41.168  22.652  25.999  1.00  0.00    -0.164 F 
ATOM     49  F   UNL A   1      40.203  23.389  27.817  1.00  0.00    -0.164 F 
ATOM     50  F   UNL A   1      40.483  21.249  27.520  1.00  0.00    -0.164 F 
ENDBRANCH  27  47
ENDBRANCH  15  24
ENDBRANCH  11  14
ENDBRANCH   8  11
ENDBRANCH   4   7
ENDBRANCH   1   4
BRANCH   1  51
ATOM     51  C   UNL A   1      32.326  27.744  27.279  1.00  0.00    -0.052 C 
ATOM     52  H   UNL A   1      33.116  27.026  27.217  1.00  0.00     0.027 H 
ATOM     53  H   UNL A   1      32.103  28.059  28.277  1.00  0.00     0.027 H 
BRANCH  51  54
ATOM     54  C   UNL A   1      32.775  29.008  26.529  1.00  0.00    -0.052 C 
ATOM     55  H   UNL A   1      32.587  29.848  27.163  1.00  0.00     0.027 H 
ATOM     56  H   UNL A   1      32.219  29.011  25.615  1.00  0.00     0.027 H 
BRANCH  54  57
ATOM     57  C   UNL A   1      34.252  29.060  26.110  1.00  0.00    -0.036 C 
ATOM     58  H   UNL A   1      34.473  30.051  25.771  1.00  0.00     0.028 H 
ATOM     59  H   UNL A   1      34.384  28.327  25.340  1.00  0.00     0.028 H 
BRANCH  57  60
ATOM     60  C   UNL A   1      35.220  28.707  27.227  1.00  0.00     0.018 C 
ATOM     61  H   UNL A   1      36.206  28.640  26.818  1.00  0.00     0.049 H 
ATOM     62  H   UNL A   1      34.905  27.775  27.649  1.00  0.00     0.049 H 
BRANCH  60  63
ATOM     63  N   UNL A   1      35.224  29.703  28.301  1.00  0.00    -0.352 N 
ATOM     64  C   UNL A   1      36.161  29.899  29.298  1.00  0.00     0.251 C 
ATOM     65  H   UNL A   1      34.454  30.317  28.315  1.00  0.00     0.163 HD
ATOM     66  O   UNL A   1      35.870  30.481  30.335  1.00  0.00    -0.269 OA
BRANCH  64  67
ATOM     67  C   UNL A   1      37.536  29.417  29.081  1.00  0.00     0.039 A 
ATOM     68  C   UNL A   1      38.294  29.787  27.963  1.00  0.00    -0.049 A 
ATOM     69  C   UNL A   1      38.067  28.566  30.044  1.00  0.00    -0.049 A 
ATOM     70  C   UNL A   1      39.608  29.330  27.861  1.00  0.00    -0.053 A 
ATOM     71  H   UNL A   1      37.887  30.388  27.229  1.00  0.00     0.063 H 
ATOM     72  C   UNL A   1      39.406  28.300  30.050  1.00  0.00    -0.053 A 
ATOM     73  H   UNL A   1      37.451  28.138  30.752  1.00  0.00     0.063 H 
ATOM     74  C   UNL A   1      40.153  28.587  28.917  1.00  0.00    -0.014 A 
ATOM     75  H   UNL A   1      40.171  29.535  27.021  1.00  0.00     0.063 H 
ATOM     76  H   UNL A   1      39.856  27.893  30.885  1.00  0.00     0.063 H 
BRANCH  74  77
ATOM     77  C   UNL A   1      41.553  28.186  28.973  1.00  0.00     0.031 A 
ATOM     78  C   UNL A   1      41.879  27.050  28.082  1.00  0.00     0.074 A 
ATOM     79  C   UNL A   1      42.501  28.973  29.531  1.00  0.00     0.049 A 
ATOM     80  N   UNL A   1      42.255  25.868  28.438  1.00  0.00    -0.248 NA
ATOM     81  C   UNL A   1      41.602  27.179  26.641  1.00  0.00    -0.034 C 
ATOM     82  C   UNL A   1      42.332  30.267  30.192  1.00  0.00    -0.036 A 
ATOM     83  N   UNL A   1      43.854  28.829  29.532  1.00  0.00    -0.354 N 
ATOM     84  C   UNL A   1      42.495  25.180  27.254  1.00  0.00     0.074 A 
ATOM     85  C   UNL A   1      41.851  25.938  26.216  1.00  0.00    -0.034 C 
ATOM     86  H   UNL A   1      41.298  28.006  26.104  1.00  0.00     0.065 H 
ATOM     87  C   UNL A   1      43.528  30.894  30.299  1.00  0.00    -0.036 A 
ATOM     88  H   UNL A   1      41.434  30.647  30.528  1.00  0.00     0.065 H 
ATOM     89  C   UNL A   1      44.569  29.982  29.875  1.00  0.00     0.049 A 
ATOM     90  H   UNL A   1      44.297  27.979  29.307  1.00  0.00     0.167 HD
ATOM     91  C   UNL A   1      43.464  24.223  27.201  1.00  0.00     0.037 A 
ATOM     92  H   UNL A   1      41.614  25.576  25.279  1.00  0.00     0.065 H 
ATOM     93  H   UNL A   1      43.673  31.861  30.628  1.00  0.00     0.065 H 
ATOM     94  C   UNL A   1      45.918  30.151  29.812  1.00  0.00     0.037 A 
ATOM     95  C   UNL A   1      43.824  23.793  28.535  1.00  0.00     0.049 A 
ATOM     96  C   UNL A   1      46.505  28.790  29.752  1.00  0.00     0.074 A 
ATOM     97  C   UNL A   1      43.116  23.291  29.613  1.00  0.00    -0.036 A 
ATOM     98  N   UNL A   1      45.011  24.244  29.064  1.00  0.00    -0.354 N 
ATOM     99  N   UNL A   1      46.488  27.967  30.761  1.00  0.00    -0.248 NA
ATOM    100  C   UNL A   1      46.631  28.186  28.434  1.00  0.00    -0.034 C 
ATOM    101  C   UNL A   1      43.666  23.948  30.754  1.00  0.00    -0.036 A 
ATOM    102  H   UNL A   1      42.355  22.593  29.595  1.00  0.00     0.065 H 
ATOM    103  C   UNL A   1      44.742  24.720  30.322  1.00  0.00     0.049 A 
ATOM    104  H   UNL A   1      45.890  24.228  28.622  1.00  0.00     0.167 HD
ATOM    105  C   UNL A   1      46.152  26.748  30.200  1.00  0.00     0.074 A 
ATOM    106  C   UNL A   1      46.305  26.931  28.755  1.00  0.00    -0.034 C 
ATOM    107  H   UNL A   1      46.893  28.601  27.526  1.00  0.00     0.065 H 
ATOM    108  H   UNL A   1      43.327  23.866  31.726  1.00  0.00     0.065 H 
ATOM    109  C   UNL A   1      45.473  25.808  30.920  1.00  0.00     0.037 A 
ATOM    110  H   UNL A   1      46.175  26.176  28.063  1.00  0.00     0.065 H 
BRANCH  91 111
ATOM    111  C   UNL A   1      44.364  23.985  26.005  1.00  0.00     0.064 A 
ATOM    112  C   UNL A   1      44.505  22.666  25.524  1.00  0.00     0.173 A 
ATOM    113  C   UNL A   1      45.303  24.910  25.499  1.00  0.00     0.173 A 
ATOM    114  F   UNL A   1      43.674  21.697  25.934  1.00  0.00    -0.203 F 
ATOM    115  C   UNL A   1      45.563  22.289  24.693  1.00  0.00     0.198 A 
ATOM    116  C   UNL A   1      46.325  24.541  24.625  1.00  0.00     0.198 A 
ATOM    117  F   UNL A   1      45.355  26.184  25.897  1.00  0.00    -0.203 F 
ATOM    118  F   UNL A   1      45.732  20.997  24.381  1.00  0.00    -0.200 F 
ATOM    119  C   UNL A   1      46.477  23.224  24.251  1.00  0.00     0.200 A 
ATOM    120  F   UNL A   1      47.205  25.465  24.216  1.00  0.00    -0.200 F 
ATOM    121  F   UNL A   1      47.527  22.856  23.507  1.00  0.00    -0.200 F 
ENDBRANCH  91 111
BRANCH  94 122
ATOM    122  C   UNL A   1      46.761  31.343  29.541  1.00  0.00     0.064 A 
ATOM    123  C   UNL A   1      47.926  31.596  30.288  1.00  0.00     0.173 A 
ATOM    124  C   UNL A   1      46.628  32.061  28.343  1.00  0.00     0.173 A 
ATOM    125  F   UNL A   1      48.143  30.941  31.437  1.00  0.00    -0.203 F 
ATOM    126  C   UNL A   1      48.923  32.470  29.836  1.00  0.00     0.198 A 
ATOM    127  C   UNL A   1      47.627  32.935  27.897  1.00  0.00     0.198 A 
ATOM    128  F   UNL A   1      45.564  31.850  27.560  1.00  0.00    -0.203 F 
ATOM    129  F   UNL A   1      50.047  32.634  30.546  1.00  0.00    -0.200 F 
ATOM    130  C   UNL A   1      48.781  33.123  28.629  1.00  0.00     0.200 A 
ATOM    131  F   UNL A   1      47.512  33.577  26.730  1.00  0.00    -0.200 F 
ATOM    132  F   UNL A   1      49.758  33.910  28.155  1.00  0.00    -0.200 F 
ENDBRANCH  94 122
BRANCH 109 133
ATOM    133  C   UNL A   1      45.300  26.026  32.398  1.00  0.00     0.064 A 
ATOM    134  C   UNL A   1      44.182  26.638  32.993  1.00  0.00     0.173 A 
ATOM    135  C   UNL A   1      46.253  25.463  33.255  1.00  0.00     0.173 A 
ATOM    136  F   UNL A   1      43.173  27.111  32.250  1.00  0.00    -0.203 F 
ATOM    137  C   UNL A   1      44.053  26.721  34.380  1.00  0.00     0.198 A 
ATOM    138  C   UNL A   1      46.104  25.514  34.638  1.00  0.00     0.198 A 
ATOM    139  F   UNL A   1      47.315  24.819  32.746  1.00  0.00    -0.203 F 
ATOM    140  F   UNL A   1      42.982  27.320  34.923  1.00  0.00    -0.200 F 
ATOM    141  C   UNL A   1      45.012  26.153  35.201  1.00  0.00     0.200 A 
ATOM    142  F   UNL A   1      47.011  24.917  35.424  1.00  0.00    -0.200 F 
ATOM    143  F   UNL A   1      44.873  26.196  36.533  1.00  0.00    -0.200 F 
ENDBRANCH 109 133
ENDBRANCH  74  77
ENDBRANCH  64  67
ENDBRANCH  60  63
ENDBRANCH  57  60
ENDBRANCH  54  57
ENDBRANCH  51  54
ENDBRANCH   1  51
TORSDOF 19
ENDMDL
MODEL 7
REMARK VINA RESULT:     -11.8      3.945      9.139
REMARK SMILES CS(=O)(=O)c1ccc(-n2nc(C(F)(F)F)cc2-c2ccc(CC(=O)NCCCCCCNC(=O)c3ccc(-c4c5nc(c(-c6c(F)c(F)c(F)c(F)c6F)c6ccc([nH]6)c(-c6c(F)c(F)c(F)c(F)c6F)c6nc(c(-c7c(F)c(F)c(F)c(F)c7F)c7ccc4[nH]7)C=C6)C=C5)cc3)cc2)cc1
REMARK SMILES IDX 27 1 26 4 25 7 23 8 24 9 22 11 21 14 18 15 19 16 99 17 20 18
REMARK SMILES IDX 98 20 17 24 9 25 10 26 11 27 16 28 8 30 5 31 6 32 101 33
REMARK SMILES IDX 7 34 100 36 2 40 3 41 4 42 1 43 12 47 13 48 14 49 15 50
REMARK SMILES IDX 28 51 29 54 30 57 31 60 32 63 33 64 34 66 35 67 36 68 97 69
REMARK SMILES IDX 37 70 96 72 38 74 39 77 40 78 90 79 41 80 95 81 89 82 91 83
REMARK SMILES IDX 42 84 94 85 88 87 87 89 43 91 75 94 55 95 74 96 56 97 59 98
REMARK SMILES IDX 73 99 92 100 57 101 58 103 72 105 93 106 60 109 44 111
REMARK SMILES IDX 45 112 53 113 46 114 47 115 51 116 54 117 48 118 49 119
REMARK SMILES IDX 52 120 50 121 76 122 77 123 85 124 78 125 79 126 83 127
REMARK SMILES IDX 86 128 80 129 81 130 84 131 82 132 61 133 62 134 70 135
REMARK SMILES IDX 63 136 64 137 68 138 71 139 65 140 66 141 69 142 67 143
REMARK H PARENT 27 2 27 3 26 5 26 6 25 10 22 12 22 13 19 19 99 21 20 22 98 23
REMARK H PARENT 16 29 6 35 101 37 7 38 100 39 1 44 1 45 1 46 28 52 28 53 29 55
REMARK H PARENT 29 56 30 58 30 59 31 61 31 62 32 65 36 71 97 73 37 75 96 76
REMARK H PARENT 95 86 89 88 91 90 94 92 88 93 56 102 59 104 92 107 57 108
REMARK H PARENT 93 110
REMARK Flexibility Score: inf
ROOT
ATOM      1  C   UNL A   1      35.156  31.935  31.864  1.00  0.00    -0.036 C 
ATOM      2  H   UNL A   1      36.088  31.414  31.789  1.00  0.00     0.028 H 
ATOM      3  H   UNL A   1      34.355  31.299  32.177  1.00  0.00     0.028 H 
ENDROOT
BRANCH   1   4
ATOM      4  C   UNL A   1      34.788  32.465  30.476  1.00  0.00     0.017 C 
ATOM      5  H   UNL A   1      33.782  32.177  30.249  1.00  0.00     0.049 H 
ATOM      6  H   UNL A   1      34.886  33.531  30.487  1.00  0.00     0.049 H 
BRANCH   4   7
ATOM      7  N   UNL A   1      35.672  31.938  29.457  1.00  0.00    -0.356 N 
ATOM      8  C   UNL A   1      35.365  31.230  28.331  1.00  0.00     0.224 C 
ATOM      9  O   UNL A   1      36.288  30.799  27.637  1.00  0.00    -0.275 OA
ATOM     10  H   UNL A   1      36.630  32.117  29.595  1.00  0.00     0.163 HD
BRANCH   8  11
ATOM     11  C   UNL A   1      33.914  31.028  27.928  1.00  0.00     0.052 C 
ATOM     12  H   UNL A   1      33.306  31.116  28.805  1.00  0.00     0.042 H 
ATOM     13  H   UNL A   1      33.689  31.773  27.195  1.00  0.00     0.042 H 
BRANCH  11  14
ATOM     14  C   UNL A   1      33.637  29.689  27.291  1.00  0.00    -0.039 A 
ATOM     15  C   UNL A   1      33.066  27.276  25.981  1.00  0.00     0.000 A 
ATOM     16  C   UNL A   1      32.153  27.823  26.892  1.00  0.00    -0.053 A 
ATOM     17  C   UNL A   1      34.292  27.910  25.772  1.00  0.00    -0.053 A 
ATOM     18  C   UNL A   1      32.430  29.026  27.535  1.00  0.00    -0.058 A 
ATOM     19  H   UNL A   1      31.267  27.330  27.087  1.00  0.00     0.063 H 
ATOM     20  C   UNL A   1      34.581  29.101  26.436  1.00  0.00    -0.058 A 
ATOM     21  H   UNL A   1      34.982  27.498  25.126  1.00  0.00     0.063 H 
ATOM     22  H   UNL A   1      31.745  29.429  28.193  1.00  0.00     0.063 H 
ATOM     23  H   UNL A   1      35.498  29.554  26.298  1.00  0.00     0.063 H 
BRANCH  15  24
ATOM     24  C   UNL A   1      32.761  26.039  25.280  1.00  0.00     0.075 A 
ATOM     25  N   UNL A   1      31.755  25.883  24.343  1.00  0.00    -0.233 N 
ATOM     26  N   UNL A   1      31.617  24.593  23.941  1.00  0.00    -0.163 NA
ATOM     27  C   UNL A   1      32.571  23.916  24.614  1.00  0.00     0.167 A 
ATOM     28  C   UNL A   1      33.317  24.788  25.443  1.00  0.00    -0.003 A 
ATOM     29  H   UNL A   1      34.116  24.538  26.047  1.00  0.00     0.067 H 
BRANCH  25  30
ATOM     30  C   UNL A   1      30.909  26.892  23.828  1.00  0.00     0.065 A 
ATOM     31  C   UNL A   1      29.200  28.857  22.851  1.00  0.00     0.067 A 
ATOM     32  C   UNL A   1      30.586  29.005  22.709  1.00  0.00    -0.041 A 
ATOM     33  C   UNL A   1      28.668  27.745  23.506  1.00  0.00    -0.041 A 
ATOM     34  C   UNL A   1      31.451  28.017  23.199  1.00  0.00    -0.035 A 
ATOM     35  H   UNL A   1      30.970  29.843  22.244  1.00  0.00     0.064 H 
ATOM     36  C   UNL A   1      29.528  26.769  24.010  1.00  0.00    -0.035 A 
ATOM     37  H   UNL A   1      27.646  27.644  23.616  1.00  0.00     0.064 H 
ATOM     38  H   UNL A   1      32.472  28.119  23.097  1.00  0.00     0.065 H 
ATOM     39  H   UNL A   1      29.146  25.956  24.517  1.00  0.00     0.065 H 
BRANCH  31  40
ATOM     40  S   UNL A   1      28.100  30.151  22.312  1.00  0.00     0.175 S 
ATOM     41  O   UNL A   1      26.903  30.034  23.136  1.00  0.00    -0.224 OA
ATOM     42  O   UNL A   1      28.030  30.106  20.873  1.00  0.00    -0.224 OA
BRANCH  40  43
ATOM     43  C   UNL A   1      28.897  31.661  22.748  1.00  0.00     0.043 C 
ATOM     44  H   UNL A   1      29.643  31.471  23.490  1.00  0.00     0.040 H 
ATOM     45  H   UNL A   1      28.173  32.347  23.137  1.00  0.00     0.040 H 
ATOM     46  H   UNL A   1      29.357  32.085  21.879  1.00  0.00     0.040 H 
ENDBRANCH  40  43
ENDBRANCH  31  40
ENDBRANCH  25  30
BRANCH  27  47
ATOM     47  C   UNL A   1      32.777  22.429  24.495  1.00  0.00     0.435 C 
ATOM     48  F   UNL A   1      31.856  21.715  25.195  1.00  0.00    -0.164 F 
ATOM     49  F   UNL A   1      32.713  22.003  23.205  1.00  0.00    -0.164 F 
ATOM     50  F   UNL A   1      33.998  22.050  24.964  1.00  0.00    -0.164 F 
ENDBRANCH  27  47
ENDBRANCH  15  24
ENDBRANCH  11  14
ENDBRANCH   8  11
ENDBRANCH   4   7
ENDBRANCH   1   4
BRANCH   1  51
ATOM     51  C   UNL A   1      35.298  33.029  32.930  1.00  0.00    -0.052 C 
ATOM     52  H   UNL A   1      34.448  32.970  33.576  1.00  0.00     0.027 H 
ATOM     53  H   UNL A   1      35.372  33.952  32.394  1.00  0.00     0.027 H 
BRANCH  51  54
ATOM     54  C   UNL A   1      36.562  32.948  33.802  1.00  0.00    -0.052 C 
ATOM     55  H   UNL A   1      37.082  32.051  33.540  1.00  0.00     0.027 H 
ATOM     56  H   UNL A   1      36.213  32.978  34.813  1.00  0.00     0.027 H 
BRANCH  54  57
ATOM     57  C   UNL A   1      37.551  34.116  33.675  1.00  0.00    -0.036 C 
ATOM     58  H   UNL A   1      38.004  34.281  34.630  1.00  0.00     0.028 H 
ATOM     59  H   UNL A   1      36.991  34.964  33.337  1.00  0.00     0.028 H 
BRANCH  57  60
ATOM     60  C   UNL A   1      38.652  33.879  32.655  1.00  0.00     0.018 C 
ATOM     61  H   UNL A   1      39.115  32.937  32.864  1.00  0.00     0.049 H 
ATOM     62  H   UNL A   1      39.350  34.686  32.735  1.00  0.00     0.049 H 
BRANCH  60  63
ATOM     63  N   UNL A   1      38.149  33.860  31.280  1.00  0.00    -0.352 N 
ATOM     64  C   UNL A   1      38.638  33.169  30.187  1.00  0.00     0.251 C 
ATOM     65  H   UNL A   1      37.354  34.415  31.110  1.00  0.00     0.163 HD
ATOM     66  O   UNL A   1      38.385  33.528  29.044  1.00  0.00    -0.269 OA
BRANCH  64  67
ATOM     67  C   UNL A   1      39.454  31.964  30.420  1.00  0.00     0.039 A 
ATOM     68  C   UNL A   1      38.889  30.693  30.577  1.00  0.00    -0.049 A 
ATOM     69  C   UNL A   1      40.833  32.137  30.477  1.00  0.00    -0.049 A 
ATOM     70  C   UNL A   1      39.737  29.597  30.739  1.00  0.00    -0.053 A 
ATOM     71  H   UNL A   1      37.865  30.570  30.572  1.00  0.00     0.063 H 
ATOM     72  C   UNL A   1      41.656  31.049  30.420  1.00  0.00    -0.053 A 
ATOM     73  H   UNL A   1      41.233  33.084  30.563  1.00  0.00     0.063 H 
ATOM     74  C   UNL A   1      41.122  29.790  30.655  1.00  0.00    -0.014 A 
ATOM     75  H   UNL A   1      39.349  28.657  30.918  1.00  0.00     0.063 H 
ATOM     76  H   UNL A   1      42.658  31.161  30.204  1.00  0.00     0.063 H 
BRANCH  74  77
ATOM     77  C   UNL A   1      42.084  28.696  30.668  1.00  0.00     0.031 A 
ATOM     78  C   UNL A   1      42.474  28.266  32.030  1.00  0.00     0.074 A 
ATOM     79  C   UNL A   1      42.337  27.952  29.567  1.00  0.00     0.049 A 
ATOM     80  N   UNL A   1      43.642  28.367  32.570  1.00  0.00    -0.248 NA
ATOM     81  C   UNL A   1      41.421  27.827  32.962  1.00  0.00    -0.034 C 
ATOM     82  C   UNL A   1      41.783  28.106  28.222  1.00  0.00    -0.036 A 
ATOM     83  N   UNL A   1      43.074  26.816  29.441  1.00  0.00    -0.354 N 
ATOM     84  C   UNL A   1      43.524  27.779  33.825  1.00  0.00     0.074 A 
ATOM     85  C   UNL A   1      42.115  27.698  34.095  1.00  0.00    -0.034 C 
ATOM     86  H   UNL A   1      40.418  27.663  32.786  1.00  0.00     0.065 H 
ATOM     87  C   UNL A   1      41.997  26.980  27.499  1.00  0.00    -0.036 A 
ATOM     88  H   UNL A   1      41.300  28.949  27.873  1.00  0.00     0.065 H 
ATOM     89  C   UNL A   1      42.849  26.094  28.263  1.00  0.00     0.049 A 
ATOM     90  H   UNL A   1      43.717  26.522  30.126  1.00  0.00     0.167 HD
ATOM     91  C   UNL A   1      44.587  27.133  34.382  1.00  0.00     0.037 A 
ATOM     92  H   UNL A   1      41.699  27.562  35.030  1.00  0.00     0.065 H 
ATOM     93  H   UNL A   1      41.617  26.787  26.559  1.00  0.00     0.065 H 
ATOM     94  C   UNL A   1      43.341  24.863  27.958  1.00  0.00     0.037 A 
ATOM     95  C   UNL A   1      45.816  27.520  33.724  1.00  0.00     0.049 A 
ATOM     96  C   UNL A   1      44.485  24.633  28.873  1.00  0.00     0.074 A 
ATOM     97  C   UNL A   1      46.438  28.730  33.472  1.00  0.00    -0.036 A 
ATOM     98  N   UNL A   1      46.387  26.632  32.842  1.00  0.00    -0.354 N 
ATOM     99  N   UNL A   1      45.608  25.287  28.779  1.00  0.00    -0.248 NA
ATOM    100  C   UNL A   1      44.181  24.065  30.177  1.00  0.00    -0.034 C 
ATOM    101  C   UNL A   1      46.926  28.622  32.135  1.00  0.00    -0.036 A 
ATOM    102  H   UNL A   1      46.528  29.536  34.111  1.00  0.00     0.065 H 
ATOM    103  C   UNL A   1      46.675  27.325  31.694  1.00  0.00     0.049 A 
ATOM    104  H   UNL A   1      46.558  25.676  33.005  1.00  0.00     0.167 HD
ATOM    105  C   UNL A   1      45.930  25.598  30.088  1.00  0.00     0.074 A 
ATOM    106  C   UNL A   1      45.043  24.773  30.913  1.00  0.00    -0.034 C 
ATOM    107  H   UNL A   1      43.503  23.336  30.452  1.00  0.00     0.065 H 
ATOM    108  H   UNL A   1      47.383  29.371  31.591  1.00  0.00     0.065 H 
ATOM    109  C   UNL A   1      46.648  26.719  30.387  1.00  0.00     0.037 A 
ATOM    110  H   UNL A   1      45.080  24.742  31.943  1.00  0.00     0.065 H 
BRANCH  91 111
ATOM    111  C   UNL A   1      44.477  25.870  35.212  1.00  0.00     0.064 A 
ATOM    112  C   UNL A   1      45.152  25.820  36.450  1.00  0.00     0.173 A 
ATOM    113  C   UNL A   1      44.002  24.626  34.739  1.00  0.00     0.173 A 
ATOM    114  F   UNL A   1      45.652  26.935  37.001  1.00  0.00    -0.203 F 
ATOM    115  C   UNL A   1      45.420  24.613  37.101  1.00  0.00     0.198 A 
ATOM    116  C   UNL A   1      44.224  23.430  35.420  1.00  0.00     0.198 A 
ATOM    117  F   UNL A   1      43.400  24.481  33.555  1.00  0.00    -0.203 F 
ATOM    118  F   UNL A   1      46.187  24.609  38.199  1.00  0.00    -0.200 F 
ATOM    119  C   UNL A   1      44.963  23.418  36.581  1.00  0.00     0.200 A 
ATOM    120  F   UNL A   1      43.778  22.282  34.891  1.00  0.00    -0.200 F 
ATOM    121  F   UNL A   1      45.272  22.255  37.168  1.00  0.00    -0.200 F 
ENDBRANCH  91 111
BRANCH  94 122
ATOM    122  C   UNL A   1      42.794  23.745  27.146  1.00  0.00     0.064 A 
ATOM    123  C   UNL A   1      43.615  23.010  26.271  1.00  0.00     0.173 A 
ATOM    124  C   UNL A   1      41.554  23.168  27.460  1.00  0.00     0.173 A 
ATOM    125  F   UNL A   1      44.824  23.480  25.932  1.00  0.00    -0.203 F 
ATOM    126  C   UNL A   1      43.244  21.750  25.787  1.00  0.00     0.198 A 
ATOM    127  C   UNL A   1      41.187  21.908  26.971  1.00  0.00     0.198 A 
ATOM    128  F   UNL A   1      40.732  23.790  28.313  1.00  0.00    -0.203 F 
ATOM    129  F   UNL A   1      44.083  21.054  25.008  1.00  0.00    -0.200 F 
ATOM    130  C   UNL A   1      42.038  21.190  26.156  1.00  0.00     0.200 A 
ATOM    131  F   UNL A   1      40.024  21.346  27.317  1.00  0.00    -0.200 F 
ATOM    132  F   UNL A   1      41.701  19.957  25.752  1.00  0.00    -0.200 F 
ENDBRANCH  94 122
BRANCH 109 133
ATOM    133  C   UNL A   1      47.279  27.486  29.258  1.00  0.00     0.064 A 
ATOM    134  C   UNL A   1      46.656  28.533  28.552  1.00  0.00     0.173 A 
ATOM    135  C   UNL A   1      48.626  27.236  28.973  1.00  0.00     0.173 A 
ATOM    136  F   UNL A   1      45.402  28.908  28.833  1.00  0.00    -0.203 F 
ATOM    137  C   UNL A   1      47.342  29.258  27.577  1.00  0.00     0.198 A 
ATOM    138  C   UNL A   1      49.320  27.986  28.027  1.00  0.00     0.198 A 
ATOM    139  F   UNL A   1      49.289  26.285  29.651  1.00  0.00    -0.203 F 
ATOM    140  F   UNL A   1      46.723  30.244  26.910  1.00  0.00    -0.200 F 
ATOM    141  C   UNL A   1      48.676  28.987  27.320  1.00  0.00     0.200 A 
ATOM    142  F   UNL A   1      50.623  27.751  27.822  1.00  0.00    -0.200 F 
ATOM    143  F   UNL A   1      49.348  29.708  26.412  1.00  0.00    -0.200 F 
ENDBRANCH 109 133
ENDBRANCH  74  77
ENDBRANCH  64  67
ENDBRANCH  60  63
ENDBRANCH  57  60
ENDBRANCH  54  57
ENDBRANCH  51  54
ENDBRANCH   1  51
TORSDOF 19
ENDMDL
MODEL 8
REMARK VINA RESULT:     -11.8      3.812      6.568
REMARK SMILES CS(=O)(=O)c1ccc(-n2nc(C(F)(F)F)cc2-c2ccc(CC(=O)NCCCCCCNC(=O)c3ccc(-c4c5nc(c(-c6c(F)c(F)c(F)c(F)c6F)c6ccc([nH]6)c(-c6c(F)c(F)c(F)c(F)c6F)c6nc(c(-c7c(F)c(F)c(F)c(F)c7F)c7ccc4[nH]7)C=C6)C=C5)cc3)cc2)cc1
REMARK SMILES IDX 27 1 26 4 25 7 23 8 24 9 22 11 21 14 18 15 19 16 99 17 20 18
REMARK SMILES IDX 98 20 17 24 9 25 10 26 11 27 16 28 8 30 5 31 6 32 101 33
REMARK SMILES IDX 7 34 100 36 2 40 3 41 4 42 1 43 12 47 13 48 14 49 15 50
REMARK SMILES IDX 28 51 29 54 30 57 31 60 32 63 33 64 34 66 35 67 36 68 97 69
REMARK SMILES IDX 37 70 96 72 38 74 39 77 40 78 90 79 41 80 95 81 89 82 91 83
REMARK SMILES IDX 42 84 94 85 88 87 87 89 43 91 75 94 55 95 74 96 56 97 59 98
REMARK SMILES IDX 73 99 92 100 57 101 58 103 72 105 93 106 60 109 44 111
REMARK SMILES IDX 45 112 53 113 46 114 47 115 51 116 54 117 48 118 49 119
REMARK SMILES IDX 52 120 50 121 76 122 77 123 85 124 78 125 79 126 83 127
REMARK SMILES IDX 86 128 80 129 81 130 84 131 82 132 61 133 62 134 70 135
REMARK SMILES IDX 63 136 64 137 68 138 71 139 65 140 66 141 69 142 67 143
REMARK H PARENT 27 2 27 3 26 5 26 6 25 10 22 12 22 13 19 19 99 21 20 22 98 23
REMARK H PARENT 16 29 6 35 101 37 7 38 100 39 1 44 1 45 1 46 28 52 28 53 29 55
REMARK H PARENT 29 56 30 58 30 59 31 61 31 62 32 65 36 71 97 73 37 75 96 76
REMARK H PARENT 95 86 89 88 91 90 94 92 88 93 56 102 59 104 92 107 57 108
REMARK H PARENT 93 110
REMARK Flexibility Score: inf
ROOT
ATOM      1  C   UNL A   1      42.380  26.400  25.372  1.00  0.00    -0.036 C 
ATOM      2  H   UNL A   1      42.778  27.000  26.165  1.00  0.00     0.028 H 
ATOM      3  H   UNL A   1      42.313  26.935  24.448  1.00  0.00     0.028 H 
ENDROOT
BRANCH   1   4
ATOM      4  C   UNL A   1      40.957  25.986  25.751  1.00  0.00     0.017 C 
ATOM      5  H   UNL A   1      40.624  26.590  26.570  1.00  0.00     0.049 H 
ATOM      6  H   UNL A   1      40.328  26.124  24.896  1.00  0.00     0.049 H 
BRANCH   4   7
ATOM      7  N   UNL A   1      40.897  24.591  26.138  1.00  0.00    -0.356 N 
ATOM      8  C   UNL A   1      39.841  23.874  26.621  1.00  0.00     0.224 C 
ATOM      9  O   UNL A   1      40.032  22.708  26.972  1.00  0.00    -0.275 OA
ATOM     10  H   UNL A   1      41.737  24.088  26.037  1.00  0.00     0.163 HD
BRANCH   8  11
ATOM     11  C   UNL A   1      38.456  24.497  26.672  1.00  0.00     0.052 C 
ATOM     12  H   UNL A   1      38.219  24.709  27.695  1.00  0.00     0.042 H 
ATOM     13  H   UNL A   1      38.489  25.378  26.067  1.00  0.00     0.042 H 
BRANCH  11  14
ATOM     14  C   UNL A   1      37.368  23.618  26.106  1.00  0.00    -0.039 A 
ATOM     15  C   UNL A   1      35.415  21.862  25.124  1.00  0.00     0.000 A 
ATOM     16  C   UNL A   1      36.518  22.211  24.334  1.00  0.00    -0.053 A 
ATOM     17  C   UNL A   1      35.263  22.440  26.385  1.00  0.00    -0.053 A 
ATOM     18  C   UNL A   1      37.494  23.074  24.824  1.00  0.00    -0.058 A 
ATOM     19  H   UNL A   1      36.608  21.824  23.381  1.00  0.00     0.063 H 
ATOM     20  C   UNL A   1      36.225  23.326  26.865  1.00  0.00    -0.058 A 
ATOM     21  H   UNL A   1      34.438  22.212  26.960  1.00  0.00     0.063 H 
ATOM     22  H   UNL A   1      38.311  23.314  24.240  1.00  0.00     0.063 H 
ATOM     23  H   UNL A   1      36.097  23.770  27.788  1.00  0.00     0.063 H 
BRANCH  15  24
ATOM     24  C   UNL A   1      34.415  20.930  24.628  1.00  0.00     0.075 A 
ATOM     25  N   UNL A   1      33.176  21.285  24.126  1.00  0.00    -0.233 N 
ATOM     26  N   UNL A   1      32.400  20.205  23.849  1.00  0.00    -0.163 NA
ATOM     27  C   UNL A   1      33.168  19.139  24.156  1.00  0.00     0.167 A 
ATOM     28  C   UNL A   1      34.439  19.552  24.625  1.00  0.00    -0.003 A 
ATOM     29  H   UNL A   1      35.223  18.944  24.907  1.00  0.00     0.067 H 
BRANCH  25  30
ATOM     30  C   UNL A   1      32.688  22.595  23.915  1.00  0.00     0.065 A 
ATOM     31  C   UNL A   1      31.738  25.166  23.440  1.00  0.00     0.067 A 
ATOM     32  C   UNL A   1      31.375  24.494  24.614  1.00  0.00    -0.041 A 
ATOM     33  C   UNL A   1      32.550  24.544  22.488  1.00  0.00    -0.041 A 
ATOM     34  C   UNL A   1      31.851  23.200  24.858  1.00  0.00    -0.035 A 
ATOM     35  H   UNL A   1      30.755  24.954  25.300  1.00  0.00     0.064 H 
ATOM     36  C   UNL A   1      33.011  23.248  22.721  1.00  0.00    -0.035 A 
ATOM     37  H   UNL A   1      32.808  25.039  21.620  1.00  0.00     0.064 H 
ATOM     38  H   UNL A   1      31.589  22.700  25.721  1.00  0.00     0.065 H 
ATOM     39  H   UNL A   1      33.590  22.772  22.013  1.00  0.00     0.065 H 
BRANCH  31  40
ATOM     40  S   UNL A   1      31.063  26.775  23.080  1.00  0.00     0.175 S 
ATOM     41  O   UNL A   1      31.029  26.885  21.627  1.00  0.00    -0.224 OA
ATOM     42  O   UNL A   1      31.760  27.742  23.893  1.00  0.00    -0.224 OA
BRANCH  40  43
ATOM     43  C   UNL A   1      29.395  26.726  23.647  1.00  0.00     0.043 C 
ATOM     44  H   UNL A   1      28.764  27.229  22.945  1.00  0.00     0.040 H 
ATOM     45  H   UNL A   1      29.327  27.210  24.599  1.00  0.00     0.040 H 
ATOM     46  H   UNL A   1      29.080  25.707  23.742  1.00  0.00     0.040 H 
ENDBRANCH  40  43
ENDBRANCH  31  40
ENDBRANCH  25  30
BRANCH  27  47
ATOM     47  C   UNL A   1      32.702  17.712  24.025  1.00  0.00     0.435 C 
ATOM     48  F   UNL A   1      31.787  17.373  24.971  1.00  0.00    -0.164 F 
ATOM     49  F   UNL A   1      32.133  17.466  22.814  1.00  0.00    -0.164 F 
ATOM     50  F   UNL A   1      33.733  16.831  24.151  1.00  0.00    -0.164 F 
ENDBRANCH  27  47
ENDBRANCH  15  24
ENDBRANCH  11  14
ENDBRANCH   8  11
ENDBRANCH   4   7
ENDBRANCH   1   4
BRANCH   1  51
ATOM     51  C   UNL A   1      43.330  25.219  25.136  1.00  0.00    -0.052 C 
ATOM     52  H   UNL A   1      43.323  24.997  24.090  1.00  0.00     0.027 H 
ATOM     53  H   UNL A   1      42.966  24.423  25.751  1.00  0.00     0.027 H 
BRANCH  51  54
ATOM     54  C   UNL A   1      44.790  25.444  25.562  1.00  0.00    -0.052 C 
ATOM     55  H   UNL A   1      44.861  26.425  25.981  1.00  0.00     0.027 H 
ATOM     56  H   UNL A   1      45.372  25.300  24.675  1.00  0.00     0.027 H 
BRANCH  54  57
ATOM     57  C   UNL A   1      45.358  24.454  26.589  1.00  0.00    -0.036 C 
ATOM     58  H   UNL A   1      46.260  24.035  26.193  1.00  0.00     0.028 H 
ATOM     59  H   UNL A   1      44.605  23.713  26.759  1.00  0.00     0.028 H 
BRANCH  57  60
ATOM     60  C   UNL A   1      45.672  25.082  27.937  1.00  0.00     0.018 C 
ATOM     61  H   UNL A   1      45.335  26.098  27.929  1.00  0.00     0.049 H 
ATOM     62  H   UNL A   1      46.730  25.020  28.087  1.00  0.00     0.049 H 
BRANCH  60  63
ATOM     63  N   UNL A   1      45.023  24.382  29.048  1.00  0.00    -0.352 N 
ATOM     64  C   UNL A   1      44.298  24.909  30.100  1.00  0.00     0.251 C 
ATOM     65  H   UNL A   1      45.115  23.401  29.044  1.00  0.00     0.163 HD
ATOM     66  O   UNL A   1      44.148  24.284  31.142  1.00  0.00    -0.269 OA
BRANCH  64  67
ATOM     67  C   UNL A   1      43.679  26.236  29.937  1.00  0.00     0.039 A 
ATOM     68  C   UNL A   1      42.695  26.492  28.975  1.00  0.00    -0.049 A 
ATOM     69  C   UNL A   1      44.112  27.244  30.791  1.00  0.00    -0.049 A 
ATOM     70  C   UNL A   1      42.120  27.763  28.924  1.00  0.00    -0.053 A 
ATOM     71  H   UNL A   1      42.400  25.755  28.316  1.00  0.00     0.063 H 
ATOM     72  C   UNL A   1      43.404  28.408  30.880  1.00  0.00    -0.053 A 
ATOM     73  H   UNL A   1      44.966  27.113  31.355  1.00  0.00     0.063 H 
ATOM     74  C   UNL A   1      42.484  28.712  29.888  1.00  0.00    -0.014 A 
ATOM     75  H   UNL A   1      41.437  27.999  28.187  1.00  0.00     0.063 H 
ATOM     76  H   UNL A   1      43.550  29.051  31.674  1.00  0.00     0.063 H 
BRANCH  74  77
ATOM     77  C   UNL A   1      41.841  30.014  30.009  1.00  0.00     0.031 A 
ATOM     78  C   UNL A   1      42.744  31.150  29.711  1.00  0.00     0.074 A 
ATOM     79  C   UNL A   1      40.496  30.146  30.070  1.00  0.00     0.049 A 
ATOM     80  N   UNL A   1      43.148  32.056  30.536  1.00  0.00    -0.248 NA
ATOM     81  C   UNL A   1      43.406  31.200  28.397  1.00  0.00    -0.034 C 
ATOM     82  C   UNL A   1      39.482  29.093  30.079  1.00  0.00    -0.036 A 
ATOM     83  N   UNL A   1      39.735  31.272  30.029  1.00  0.00    -0.354 N 
ATOM     84  C   UNL A   1      43.923  32.928  29.780  1.00  0.00     0.074 A 
ATOM     85  C   UNL A   1      44.241  32.228  28.567  1.00  0.00    -0.034 C 
ATOM     86  H   UNL A   1      43.264  30.603  27.568  1.00  0.00     0.065 H 
ATOM     87  C   UNL A   1      38.265  29.616  29.793  1.00  0.00    -0.036 A 
ATOM     88  H   UNL A   1      39.665  28.096  30.275  1.00  0.00     0.065 H 
ATOM     89  C   UNL A   1      38.380  31.058  29.751  1.00  0.00     0.049 A 
ATOM     90  H   UNL A   1      40.107  32.171  30.182  1.00  0.00     0.167 HD
ATOM     91  C   UNL A   1      43.966  34.254  30.094  1.00  0.00     0.037 A 
ATOM     92  H   UNL A   1      45.005  32.482  27.920  1.00  0.00     0.065 H 
ATOM     93  H   UNL A   1      37.400  29.076  29.633  1.00  0.00     0.065 H 
ATOM     94  C   UNL A   1      37.439  32.012  29.511  1.00  0.00     0.037 A 
ATOM     95  C   UNL A   1      43.493  34.471  31.443  1.00  0.00     0.049 A 
ATOM     96  C   UNL A   1      37.994  33.284  30.031  1.00  0.00     0.074 A 
ATOM     97  C   UNL A   1      43.846  33.970  32.684  1.00  0.00    -0.036 A 
ATOM     98  N   UNL A   1      42.231  34.993  31.612  1.00  0.00    -0.354 N 
ATOM     99  N   UNL A   1      38.149  33.521  31.303  1.00  0.00    -0.248 NA
ATOM    100  C   UNL A   1      38.840  34.051  29.129  1.00  0.00    -0.034 C 
ATOM    101  C   UNL A   1      42.607  33.734  33.353  1.00  0.00    -0.036 A 
ATOM    102  H   UNL A   1      44.798  33.802  33.046  1.00  0.00     0.065 H 
ATOM    103  C   UNL A   1      41.585  34.207  32.532  1.00  0.00     0.049 A 
ATOM    104  H   UNL A   1      41.861  35.783  31.158  1.00  0.00     0.167 HD
ATOM    105  C   UNL A   1      39.395  34.118  31.388  1.00  0.00     0.074 A 
ATOM    106  C   UNL A   1      39.752  34.469  30.011  1.00  0.00    -0.034 C 
ATOM    107  H   UNL A   1      38.759  34.221  28.114  1.00  0.00     0.065 H 
ATOM    108  H   UNL A   1      42.489  33.293  34.278  1.00  0.00     0.065 H 
ATOM    109  C   UNL A   1      40.162  33.983  32.508  1.00  0.00     0.037 A 
ATOM    110  H   UNL A   1      40.610  34.979  29.752  1.00  0.00     0.065 H 
BRANCH  91 111
ATOM    111  C   UNL A   1      44.030  35.370  29.070  1.00  0.00     0.064 A 
ATOM    112  C   UNL A   1      45.018  36.366  29.225  1.00  0.00     0.173 A 
ATOM    113  C   UNL A   1      43.016  35.675  28.135  1.00  0.00     0.173 A 
ATOM    114  F   UNL A   1      46.032  36.195  30.085  1.00  0.00    -0.203 F 
ATOM    115  C   UNL A   1      44.934  37.602  28.577  1.00  0.00     0.198 A 
ATOM    116  C   UNL A   1      42.966  36.887  27.449  1.00  0.00     0.198 A 
ATOM    117  F   UNL A   1      41.969  34.875  27.913  1.00  0.00    -0.203 F 
ATOM    118  F   UNL A   1      45.821  38.563  28.868  1.00  0.00    -0.200 F 
ATOM    119  C   UNL A   1      43.904  37.865  27.697  1.00  0.00     0.200 A 
ATOM    120  F   UNL A   1      41.951  37.123  26.606  1.00  0.00    -0.200 F 
ATOM    121  F   UNL A   1      43.785  39.069  27.124  1.00  0.00    -0.200 F 
ENDBRANCH  91 111
BRANCH  94 122
ATOM    122  C   UNL A   1      36.221  32.017  28.661  1.00  0.00     0.064 A 
ATOM    123  C   UNL A   1      35.872  30.900  27.880  1.00  0.00     0.173 A 
ATOM    124  C   UNL A   1      35.213  32.973  28.856  1.00  0.00     0.173 A 
ATOM    125  F   UNL A   1      36.769  29.929  27.658  1.00  0.00    -0.203 F 
ATOM    126  C   UNL A   1      34.578  30.722  27.375  1.00  0.00     0.198 A 
ATOM    127  C   UNL A   1      33.921  32.792  28.346  1.00  0.00     0.198 A 
ATOM    128  F   UNL A   1      35.457  34.048  29.615  1.00  0.00    -0.203 F 
ATOM    129  F   UNL A   1      34.269  29.612  26.691  1.00  0.00    -0.200 F 
ATOM    130  C   UNL A   1      33.597  31.659  27.627  1.00  0.00     0.200 A 
ATOM    131  F   UNL A   1      32.955  33.685  28.580  1.00  0.00    -0.200 F 
ATOM    132  F   UNL A   1      32.339  31.467  27.205  1.00  0.00    -0.200 F 
ENDBRANCH  94 122
BRANCH 109 133
ATOM    133  C   UNL A   1      39.538  33.372  33.733  1.00  0.00     0.064 A 
ATOM    134  C   UNL A   1      39.391  31.990  33.953  1.00  0.00     0.173 A 
ATOM    135  C   UNL A   1      39.201  34.227  34.788  1.00  0.00     0.173 A 
ATOM    136  F   UNL A   1      39.786  31.096  33.037  1.00  0.00    -0.203 F 
ATOM    137  C   UNL A   1      38.886  31.497  35.157  1.00  0.00     0.198 A 
ATOM    138  C   UNL A   1      38.733  33.732  36.002  1.00  0.00     0.198 A 
ATOM    139  F   UNL A   1      39.370  35.552  34.657  1.00  0.00    -0.203 F 
ATOM    140  F   UNL A   1      38.744  30.175  35.338  1.00  0.00    -0.200 F 
ATOM    141  C   UNL A   1      38.563  32.370  36.182  1.00  0.00     0.200 A 
ATOM    142  F   UNL A   1      38.471  34.580  37.006  1.00  0.00    -0.200 F 
ATOM    143  F   UNL A   1      38.114  31.898  37.354  1.00  0.00    -0.200 F 
ENDBRANCH 109 133
ENDBRANCH  74  77
ENDBRANCH  64  67
ENDBRANCH  60  63
ENDBRANCH  57  60
ENDBRANCH  54  57
ENDBRANCH  51  54
ENDBRANCH   1  51
TORSDOF 19
ENDMDL
MODEL 9
REMARK VINA RESULT:     -11.8      4.285      9.240
REMARK SMILES CS(=O)(=O)c1ccc(-n2nc(C(F)(F)F)cc2-c2ccc(CC(=O)NCCCCCCNC(=O)c3ccc(-c4c5nc(c(-c6c(F)c(F)c(F)c(F)c6F)c6ccc([nH]6)c(-c6c(F)c(F)c(F)c(F)c6F)c6nc(c(-c7c(F)c(F)c(F)c(F)c7F)c7ccc4[nH]7)C=C6)C=C5)cc3)cc2)cc1
REMARK SMILES IDX 27 1 26 4 25 7 23 8 24 9 22 11 21 14 18 15 19 16 99 17 20 18
REMARK SMILES IDX 98 20 17 24 9 25 10 26 11 27 16 28 8 30 5 31 6 32 101 33
REMARK SMILES IDX 7 34 100 36 2 40 3 41 4 42 1 43 12 47 13 48 14 49 15 50
REMARK SMILES IDX 28 51 29 54 30 57 31 60 32 63 33 64 34 66 35 67 36 68 97 69
REMARK SMILES IDX 37 70 96 72 38 74 39 77 40 78 90 79 41 80 95 81 89 82 91 83
REMARK SMILES IDX 42 84 94 85 88 87 87 89 43 91 75 94 55 95 74 96 56 97 59 98
REMARK SMILES IDX 73 99 92 100 57 101 58 103 72 105 93 106 60 109 44 111
REMARK SMILES IDX 45 112 53 113 46 114 47 115 51 116 54 117 48 118 49 119
REMARK SMILES IDX 52 120 50 121 76 122 77 123 85 124 78 125 79 126 83 127
REMARK SMILES IDX 86 128 80 129 81 130 84 131 82 132 61 133 62 134 70 135
REMARK SMILES IDX 63 136 64 137 68 138 71 139 65 140 66 141 69 142 67 143
REMARK H PARENT 27 2 27 3 26 5 26 6 25 10 22 12 22 13 19 19 99 21 20 22 98 23
REMARK H PARENT 16 29 6 35 101 37 7 38 100 39 1 44 1 45 1 46 28 52 28 53 29 55
REMARK H PARENT 29 56 30 58 30 59 31 61 31 62 32 65 36 71 97 73 37 75 96 76
REMARK H PARENT 95 86 89 88 91 90 94 92 88 93 56 102 59 104 92 107 57 108
REMARK H PARENT 93 110
REMARK Flexibility Score: inf
ROOT
ATOM      1  C   UNL A   1      36.453  30.049  30.966  1.00  0.00    -0.036 C 
ATOM      2  H   UNL A   1      37.224  30.084  30.225  1.00  0.00     0.028 H 
ATOM      3  H   UNL A   1      35.814  29.198  30.853  1.00  0.00     0.028 H 
ENDROOT
BRANCH   1   4
ATOM      4  C   UNL A   1      35.572  31.290  30.803  1.00  0.00     0.017 C 
ATOM      5  H   UNL A   1      34.551  30.983  30.712  1.00  0.00     0.049 H 
ATOM      6  H   UNL A   1      35.707  31.913  31.663  1.00  0.00     0.049 H 
BRANCH   4   7
ATOM      7  N   UNL A   1      35.943  32.052  29.628  1.00  0.00    -0.356 N 
ATOM      8  C   UNL A   1      35.261  32.220  28.457  1.00  0.00     0.224 C 
ATOM      9  O   UNL A   1      35.804  32.845  27.545  1.00  0.00    -0.275 OA
ATOM     10  H   UNL A   1      36.810  32.516  29.682  1.00  0.00     0.163 HD
BRANCH   8  11
ATOM     11  C   UNL A   1      33.847  31.685  28.315  1.00  0.00     0.052 C 
ATOM     12  H   UNL A   1      33.473  31.456  29.292  1.00  0.00     0.042 H 
ATOM     13  H   UNL A   1      33.275  32.444  27.824  1.00  0.00     0.042 H 
BRANCH  11  14
ATOM     14  C   UNL A   1      33.745  30.443  27.465  1.00  0.00    -0.039 A 
ATOM     15  C   UNL A   1      33.534  28.052  26.016  1.00  0.00     0.000 A 
ATOM     16  C   UNL A   1      34.790  28.557  26.373  1.00  0.00    -0.053 A 
ATOM     17  C   UNL A   1      32.385  28.777  26.336  1.00  0.00    -0.053 A 
ATOM     18  C   UNL A   1      34.896  29.739  27.101  1.00  0.00    -0.058 A 
ATOM     19  H   UNL A   1      35.645  28.049  26.094  1.00  0.00     0.063 H 
ATOM     20  C   UNL A   1      32.492  29.974  27.042  1.00  0.00    -0.058 A 
ATOM     21  H   UNL A   1      31.458  28.426  26.051  1.00  0.00     0.063 H 
ATOM     22  H   UNL A   1      35.826  30.096  27.372  1.00  0.00     0.063 H 
ATOM     23  H   UNL A   1      31.643  30.519  27.255  1.00  0.00     0.063 H 
BRANCH  15  24
ATOM     24  C   UNL A   1      33.420  26.797  25.289  1.00  0.00     0.075 A 
ATOM     25  N   UNL A   1      32.421  26.489  24.384  1.00  0.00    -0.233 N 
ATOM     26  N   UNL A   1      32.493  25.205  23.948  1.00  0.00    -0.163 NA
ATOM     27  C   UNL A   1      33.576  24.690  24.567  1.00  0.00     0.167 A 
ATOM     28  C   UNL A   1      34.192  25.660  25.395  1.00  0.00    -0.003 A 
ATOM     29  H   UNL A   1      35.045  25.539  25.962  1.00  0.00     0.067 H 
BRANCH  25  30
ATOM     30  C   UNL A   1      31.392  27.346  23.929  1.00  0.00     0.065 A 
ATOM     31  C   UNL A   1      29.407  29.054  22.991  1.00  0.00     0.067 A 
ATOM     32  C   UNL A   1      29.059  27.941  23.768  1.00  0.00    -0.041 A 
ATOM     33  C   UNL A   1      30.740  29.298  22.656  1.00  0.00    -0.041 A 
ATOM     34  C   UNL A   1      30.056  27.079  24.244  1.00  0.00    -0.035 A 
ATOM     35  H   UNL A   1      28.068  27.756  23.990  1.00  0.00     0.064 H 
ATOM     36  C   UNL A   1      31.732  28.431  23.114  1.00  0.00    -0.035 A 
ATOM     37  H   UNL A   1      30.991  30.114  22.076  1.00  0.00     0.064 H 
ATOM     38  H   UNL A   1      29.808  26.259  24.818  1.00  0.00     0.065 H 
ATOM     39  H   UNL A   1      32.717  28.589  22.851  1.00  0.00     0.065 H 
BRANCH  31  40
ATOM     40  S   UNL A   1      28.138  30.102  22.308  1.00  0.00     0.175 S 
ATOM     41  O   UNL A   1      26.933  29.839  23.084  1.00  0.00    -0.224 OA
ATOM     42  O   UNL A   1      28.159  29.950  20.874  1.00  0.00    -0.224 OA
BRANCH  40  43
ATOM     43  C   UNL A   1      28.646  31.752  22.662  1.00  0.00     0.043 C 
ATOM     44  H   UNL A   1      28.964  32.230  21.760  1.00  0.00     0.040 H 
ATOM     45  H   UNL A   1      29.458  31.734  23.361  1.00  0.00     0.040 H 
ATOM     46  H   UNL A   1      27.826  32.295  23.084  1.00  0.00     0.040 H 
ENDBRANCH  40  43
ENDBRANCH  31  40
ENDBRANCH  25  30
BRANCH  27  47
ATOM     47  C   UNL A   1      34.033  23.265  24.395  1.00  0.00     0.435 C 
ATOM     48  F   UNL A   1      33.040  22.446  23.958  1.00  0.00    -0.164 F 
ATOM     49  F   UNL A   1      35.057  23.156  23.507  1.00  0.00    -0.164 F 
ATOM     50  F   UNL A   1      34.483  22.735  25.566  1.00  0.00    -0.164 F 
ENDBRANCH  27  47
ENDBRANCH  15  24
ENDBRANCH  11  14
ENDBRANCH   8  11
ENDBRANCH   4   7
ENDBRANCH   1   4
BRANCH   1  51
ATOM     51  C   UNL A   1      37.112  29.931  32.346  1.00  0.00    -0.052 C 
ATOM     52  H   UNL A   1      38.125  29.621  32.201  1.00  0.00     0.027 H 
ATOM     53  H   UNL A   1      36.518  29.231  32.895  1.00  0.00     0.027 H 
BRANCH  51  54
ATOM     54  C   UNL A   1      37.128  31.218  33.187  1.00  0.00    -0.052 C 
ATOM     55  H   UNL A   1      36.408  31.106  33.969  1.00  0.00     0.027 H 
ATOM     56  H   UNL A   1      36.915  32.011  32.500  1.00  0.00     0.027 H 
BRANCH  54  57
ATOM     57  C   UNL A   1      38.470  31.588  33.836  1.00  0.00    -0.036 C 
ATOM     58  H   UNL A   1      38.867  30.716  34.314  1.00  0.00     0.028 H 
ATOM     59  H   UNL A   1      38.274  32.380  34.530  1.00  0.00     0.028 H 
BRANCH  57  60
ATOM     60  C   UNL A   1      39.504  32.109  32.852  1.00  0.00     0.018 C 
ATOM     61  H   UNL A   1      40.190  31.319  32.625  1.00  0.00     0.049 H 
ATOM     62  H   UNL A   1      40.000  32.940  33.309  1.00  0.00     0.049 H 
BRANCH  60  63
ATOM     63  N   UNL A   1      38.902  32.582  31.603  1.00  0.00    -0.352 N 
ATOM     64  C   UNL A   1      39.384  32.473  30.312  1.00  0.00     0.251 C 
ATOM     65  H   UNL A   1      38.036  33.041  31.696  1.00  0.00     0.163 HD
ATOM     66  O   UNL A   1      39.002  33.227  29.427  1.00  0.00    -0.269 OA
BRANCH  64  67
ATOM     67  C   UNL A   1      40.353  31.405  30.008  1.00  0.00     0.039 A 
ATOM     68  C   UNL A   1      41.736  31.624  30.005  1.00  0.00    -0.049 A 
ATOM     69  C   UNL A   1      39.836  30.147  29.720  1.00  0.00    -0.049 A 
ATOM     70  C   UNL A   1      42.586  30.545  29.760  1.00  0.00    -0.053 A 
ATOM     71  H   UNL A   1      42.118  32.566  30.181  1.00  0.00     0.063 H 
ATOM     72  C   UNL A   1      40.665  29.062  29.695  1.00  0.00    -0.053 A 
ATOM     73  H   UNL A   1      38.829  30.033  29.525  1.00  0.00     0.063 H 
ATOM     74  C   UNL A   1      42.035  29.266  29.609  1.00  0.00    -0.014 A 
ATOM     75  H   UNL A   1      43.606  30.687  29.691  1.00  0.00     0.063 H 
ATOM     76  H   UNL A   1      40.280  28.107  29.740  1.00  0.00     0.063 H 
BRANCH  74  77
ATOM     77  C   UNL A   1      42.840  28.058  29.493  1.00  0.00     0.031 A 
ATOM     78  C   UNL A   1      43.518  27.674  30.753  1.00  0.00     0.074 A 
ATOM     79  C   UNL A   1      42.717  27.213  28.443  1.00  0.00     0.049 A 
ATOM     80  N   UNL A   1      44.789  27.655  30.975  1.00  0.00    -0.248 NA
ATOM     81  C   UNL A   1      42.699  27.443  31.954  1.00  0.00    -0.034 C 
ATOM     82  C   UNL A   1      41.856  27.347  27.268  1.00  0.00    -0.036 A 
ATOM     83  N   UNL A   1      43.266  25.983  28.253  1.00  0.00    -0.354 N 
ATOM     84  C   UNL A   1      44.934  27.176  32.272  1.00  0.00     0.074 A 
ATOM     85  C   UNL A   1      43.642  27.301  32.889  1.00  0.00    -0.034 C 
ATOM     86  H   UNL A   1      41.672  27.401  32.050  1.00  0.00     0.065 H 
ATOM     87  C   UNL A   1      41.751  26.156  26.631  1.00  0.00    -0.036 A 
ATOM     88  H   UNL A   1      41.396  28.220  26.968  1.00  0.00     0.065 H 
ATOM     89  C   UNL A   1      42.667  25.219  27.246  1.00  0.00     0.049 A 
ATOM     90  H   UNL A   1      44.027  25.654  28.784  1.00  0.00     0.167 HD
ATOM     91  C   UNL A   1      46.026  26.434  32.610  1.00  0.00     0.037 A 
ATOM     92  H   UNL A   1      43.468  27.285  33.906  1.00  0.00     0.065 H 
ATOM     93  H   UNL A   1      41.123  25.951  25.839  1.00  0.00     0.065 H 
ATOM     94  C   UNL A   1      42.924  23.915  26.953  1.00  0.00     0.037 A 
ATOM     95  C   UNL A   1      47.079  26.609  31.634  1.00  0.00     0.049 A 
ATOM     96  C   UNL A   1      44.233  23.599  27.575  1.00  0.00     0.074 A 
ATOM     97  C   UNL A   1      47.745  27.706  31.117  1.00  0.00    -0.036 A 
ATOM     98  N   UNL A   1      47.302  25.595  30.732  1.00  0.00    -0.354 N 
ATOM     99  N   UNL A   1      45.359  24.091  27.142  1.00  0.00    -0.248 NA
ATOM    100  C   UNL A   1      44.214  23.167  28.964  1.00  0.00    -0.034 C 
ATOM    101  C   UNL A   1      47.858  27.443  29.718  1.00  0.00    -0.036 A 
ATOM    102  H   UNL A   1      48.086  28.534  31.630  1.00  0.00     0.065 H 
ATOM    103  C   UNL A   1      47.359  26.164  29.485  1.00  0.00     0.049 A 
ATOM    104  H   UNL A   1      47.402  24.638  30.942  1.00  0.00     0.167 HD
ATOM    105  C   UNL A   1      46.040  24.444  28.294  1.00  0.00     0.074 A 
ATOM    106  C   UNL A   1      45.309  23.803  29.389  1.00  0.00    -0.034 C 
ATOM    107  H   UNL A   1      43.553  22.555  29.469  1.00  0.00     0.065 H 
ATOM    108  H   UNL A   1      48.240  28.086  29.007  1.00  0.00     0.065 H 
ATOM    109  C   UNL A   1      46.930  25.479  28.292  1.00  0.00     0.037 A 
ATOM    110  H   UNL A   1      45.606  23.838  30.376  1.00  0.00     0.065 H 
BRANCH  91 111
ATOM    111  C   UNL A   1      45.994  25.256  33.564  1.00  0.00     0.064 A 
ATOM    112  C   UNL A   1      45.037  24.242  33.346  1.00  0.00     0.173 A 
ATOM    113  C   UNL A   1      46.637  25.211  34.821  1.00  0.00     0.173 A 
ATOM    114  F   UNL A   1      44.358  24.181  32.191  1.00  0.00    -0.203 F 
ATOM    115  C   UNL A   1      44.682  23.330  34.343  1.00  0.00     0.198 A 
ATOM    116  C   UNL A   1      46.319  24.265  35.793  1.00  0.00     0.198 A 
ATOM    117  F   UNL A   1      47.521  26.132  35.218  1.00  0.00    -0.203 F 
ATOM    118  F   UNL A   1      43.669  22.480  34.132  1.00  0.00    -0.200 F 
ATOM    119  C   UNL A   1      45.317  23.348  35.569  1.00  0.00     0.200 A 
ATOM    120  F   UNL A   1      46.943  24.307  36.979  1.00  0.00    -0.200 F 
ATOM    121  F   UNL A   1      44.935  22.518  36.548  1.00  0.00    -0.200 F 
ENDBRANCH  91 111
BRANCH  94 122
ATOM    122  C   UNL A   1      42.067  22.827  26.417  1.00  0.00     0.064 A 
ATOM    123  C   UNL A   1      42.611  21.581  26.057  1.00  0.00     0.173 A 
ATOM    124  C   UNL A   1      40.672  22.872  26.564  1.00  0.00     0.173 A 
ATOM    125  F   UNL A   1      43.936  21.443  25.912  1.00  0.00    -0.203 F 
ATOM    126  C   UNL A   1      41.816  20.437  25.910  1.00  0.00     0.198 A 
ATOM    127  C   UNL A   1      39.881  21.727  26.414  1.00  0.00     0.198 A 
ATOM    128  F   UNL A   1      40.083  24.014  26.939  1.00  0.00    -0.203 F 
ATOM    129  F   UNL A   1      42.381  19.255  25.630  1.00  0.00    -0.200 F 
ATOM    130  C   UNL A   1      40.452  20.508  26.110  1.00  0.00     0.200 A 
ATOM    131  F   UNL A   1      38.559  21.771  26.605  1.00  0.00    -0.200 F 
ATOM    132  F   UNL A   1      39.690  19.407  26.037  1.00  0.00    -0.200 F 
ENDBRANCH  94 122
BRANCH 109 133
ATOM    133  C   UNL A   1      47.330  26.076  26.971  1.00  0.00     0.064 A 
ATOM    134  C   UNL A   1      46.631  27.104  26.311  1.00  0.00     0.173 A 
ATOM    135  C   UNL A   1      48.554  25.680  26.421  1.00  0.00     0.173 A 
ATOM    136  F   UNL A   1      45.504  27.616  26.823  1.00  0.00    -0.203 F 
ATOM    137  C   UNL A   1      47.117  27.670  25.132  1.00  0.00     0.198 A 
ATOM    138  C   UNL A   1      49.056  26.272  25.265  1.00  0.00     0.198 A 
ATOM    139  F   UNL A   1      49.292  24.741  27.035  1.00  0.00    -0.203 F 
ATOM    140  F   UNL A   1      46.426  28.641  24.515  1.00  0.00    -0.200 F 
ATOM    141  C   UNL A   1      48.333  27.256  24.614  1.00  0.00     0.200 A 
ATOM    142  F   UNL A   1      50.257  25.902  24.800  1.00  0.00    -0.200 F 
ATOM    143  F   UNL A   1      48.822  27.825  23.503  1.00  0.00    -0.200 F 
ENDBRANCH 109 133
ENDBRANCH  74  77
ENDBRANCH  64  67
ENDBRANCH  60  63
ENDBRANCH  57  60
ENDBRANCH  54  57
ENDBRANCH  51  54
ENDBRANCH   1  51
TORSDOF 19
ENDMDL
MODEL 10
REMARK VINA RESULT:     -11.8      5.319      9.901
REMARK SMILES CS(=O)(=O)c1ccc(-n2nc(C(F)(F)F)cc2-c2ccc(CC(=O)NCCCCCCNC(=O)c3ccc(-c4c5nc(c(-c6c(F)c(F)c(F)c(F)c6F)c6ccc([nH]6)c(-c6c(F)c(F)c(F)c(F)c6F)c6nc(c(-c7c(F)c(F)c(F)c(F)c7F)c7ccc4[nH]7)C=C6)C=C5)cc3)cc2)cc1
REMARK SMILES IDX 27 1 26 4 25 7 23 8 24 9 22 11 21 14 18 15 19 16 99 17 20 18
REMARK SMILES IDX 98 20 17 24 9 25 10 26 11 27 16 28 8 30 5 31 6 32 101 33
REMARK SMILES IDX 7 34 100 36 2 40 3 41 4 42 1 43 12 47 13 48 14 49 15 50
REMARK SMILES IDX 28 51 29 54 30 57 31 60 32 63 33 64 34 66 35 67 36 68 97 69
REMARK SMILES IDX 37 70 96 72 38 74 39 77 40 78 90 79 41 80 95 81 89 82 91 83
REMARK SMILES IDX 42 84 94 85 88 87 87 89 43 91 75 94 55 95 74 96 56 97 59 98
REMARK SMILES IDX 73 99 92 100 57 101 58 103 72 105 93 106 60 109 44 111
REMARK SMILES IDX 45 112 53 113 46 114 47 115 51 116 54 117 48 118 49 119
REMARK SMILES IDX 52 120 50 121 76 122 77 123 85 124 78 125 79 126 83 127
REMARK SMILES IDX 86 128 80 129 81 130 84 131 82 132 61 133 62 134 70 135
REMARK SMILES IDX 63 136 64 137 68 138 71 139 65 140 66 141 69 142 67 143
REMARK H PARENT 27 2 27 3 26 5 26 6 25 10 22 12 22 13 19 19 99 21 20 22 98 23
REMARK H PARENT 16 29 6 35 101 37 7 38 100 39 1 44 1 45 1 46 28 52 28 53 29 55
REMARK H PARENT 29 56 30 58 30 59 31 61 31 62 32 65 36 71 97 73 37 75 96 76
REMARK H PARENT 95 86 89 88 91 90 94 92 88 93 56 102 59 104 92 107 57 108
REMARK H PARENT 93 110
REMARK Flexibility Score: inf
ROOT
ATOM      1  C   UNL A   1      44.524  26.804  25.622  1.00  0.00    -0.036 C 
ATOM      2  H   UNL A   1      43.774  27.477  25.262  1.00  0.00     0.028 H 
ATOM      3  H   UNL A   1      44.618  26.826  26.688  1.00  0.00     0.028 H 
ENDROOT
BRANCH   1   4
ATOM      4  C   UNL A   1      45.875  27.237  25.048  1.00  0.00     0.017 C 
ATOM      5  H   UNL A   1      46.560  26.417  25.114  1.00  0.00     0.049 H 
ATOM      6  H   UNL A   1      45.729  27.529  24.029  1.00  0.00     0.049 H 
BRANCH   4   7
ATOM      7  N   UNL A   1      46.420  28.367  25.771  1.00  0.00    -0.356 N 
ATOM      8  C   UNL A   1      47.188  28.382  26.900  1.00  0.00     0.224 C 
ATOM      9  O   UNL A   1      47.474  29.469  27.404  1.00  0.00    -0.275 OA
ATOM     10  H   UNL A   1      46.207  29.252  25.395  1.00  0.00     0.163 HD
BRANCH   8  11
ATOM     11  C   UNL A   1      47.712  27.080  27.482  1.00  0.00     0.052 C 
ATOM     12  H   UNL A   1      47.492  26.290  26.793  1.00  0.00     0.042 H 
ATOM     13  H   UNL A   1      48.762  27.210  27.637  1.00  0.00     0.042 H 
BRANCH  11  14
ATOM     14  C   UNL A   1      47.112  26.723  28.820  1.00  0.00    -0.039 A 
ATOM     15  C   UNL A   1      46.004  25.909  31.263  1.00  0.00     0.000 A 
ATOM     16  C   UNL A   1      45.177  26.329  30.213  1.00  0.00    -0.053 A 
ATOM     17  C   UNL A   1      47.390  25.954  31.107  1.00  0.00    -0.053 A 
ATOM     18  C   UNL A   1      45.726  26.723  28.996  1.00  0.00    -0.058 A 
ATOM     19  H   UNL A   1      44.153  26.345  30.343  1.00  0.00     0.063 H 
ATOM     20  C   UNL A   1      47.940  26.375  29.898  1.00  0.00    -0.058 A 
ATOM     21  H   UNL A   1      48.006  25.676  31.886  1.00  0.00     0.063 H 
ATOM     22  H   UNL A   1      45.108  27.016  28.223  1.00  0.00     0.063 H 
ATOM     23  H   UNL A   1      48.965  26.430  29.794  1.00  0.00     0.063 H 
BRANCH  15  24
ATOM     24  C   UNL A   1      45.431  25.461  32.522  1.00  0.00     0.075 A 
ATOM     25  N   UNL A   1      45.778  25.942  33.772  1.00  0.00    -0.233 N 
ATOM     26  N   UNL A   1      45.173  25.258  34.777  1.00  0.00    -0.163 NA
ATOM     27  C   UNL A   1      44.405  24.338  34.158  1.00  0.00     0.167 A 
ATOM     28  C   UNL A   1      44.523  24.448  32.751  1.00  0.00    -0.003 A 
ATOM     29  H   UNL A   1      44.031  23.884  32.041  1.00  0.00     0.067 H 
BRANCH  25  30
ATOM     30  C   UNL A   1      46.667  27.004  34.057  1.00  0.00     0.065 A 
ATOM     31  C   UNL A   1      48.368  29.128  34.634  1.00  0.00     0.067 A 
ATOM     32  C   UNL A   1      48.876  27.823  34.576  1.00  0.00    -0.041 A 
ATOM     33  C   UNL A   1      47.008  29.370  34.434  1.00  0.00    -0.041 A 
ATOM     34  C   UNL A   1      48.023  26.750  34.285  1.00  0.00    -0.035 A 
ATOM     35  H   UNL A   1      49.879  27.652  34.749  1.00  0.00     0.064 H 
ATOM     36  C   UNL A   1      46.153  28.301  34.161  1.00  0.00    -0.035 A 
ATOM     37  H   UNL A   1      46.636  30.331  34.486  1.00  0.00     0.064 H 
ATOM     38  H   UNL A   1      48.390  25.788  34.240  1.00  0.00     0.065 H 
ATOM     39  H   UNL A   1      45.143  28.466  34.037  1.00  0.00     0.065 H 
BRANCH  31  40
ATOM     40  S   UNL A   1      49.429  30.484  35.093  1.00  0.00     0.175 S 
ATOM     41  O   UNL A   1      50.652  30.323  34.316  1.00  0.00    -0.224 OA
ATOM     42  O   UNL A   1      49.456  30.561  36.532  1.00  0.00    -0.224 OA
BRANCH  40  43
ATOM     43  C   UNL A   1      48.619  31.936  34.510  1.00  0.00     0.043 C 
ATOM     44  H   UNL A   1      47.849  32.217  35.198  1.00  0.00     0.040 H 
ATOM     45  H   UNL A   1      48.186  31.743  33.550  1.00  0.00     0.040 H 
ATOM     46  H   UNL A   1      49.329  32.732  34.426  1.00  0.00     0.040 H 
ENDBRANCH  40  43
ENDBRANCH  31  40
ENDBRANCH  25  30
BRANCH  27  47
ATOM     47  C   UNL A   1      43.559  23.330  34.891  1.00  0.00     0.435 C 
ATOM     48  F   UNL A   1      42.227  23.562  34.749  1.00  0.00    -0.164 F 
ATOM     49  F   UNL A   1      43.790  22.059  34.467  1.00  0.00    -0.164 F 
ATOM     50  F   UNL A   1      43.812  23.339  36.230  1.00  0.00    -0.164 F 
ENDBRANCH  27  47
ENDBRANCH  15  24
ENDBRANCH  11  14
ENDBRANCH   8  11
ENDBRANCH   4   7
ENDBRANCH   1   4
BRANCH   1  51
ATOM     51  C   UNL A   1      44.115  25.375  25.240  1.00  0.00    -0.052 C 
ATOM     52  H   UNL A   1      44.373  25.223  24.213  1.00  0.00     0.027 H 
ATOM     53  H   UNL A   1      43.066  25.309  25.437  1.00  0.00     0.027 H 
BRANCH  51  54
ATOM     54  C   UNL A   1      44.770  24.254  26.062  1.00  0.00    -0.052 C 
ATOM     55  H   UNL A   1      44.758  24.552  27.089  1.00  0.00     0.027 H 
ATOM     56  H   UNL A   1      45.749  24.131  25.649  1.00  0.00     0.027 H 
BRANCH  54  57
ATOM     57  C   UNL A   1      44.109  22.870  25.970  1.00  0.00    -0.036 C 
ATOM     58  H   UNL A   1      43.718  22.616  26.934  1.00  0.00     0.028 H 
ATOM     59  H   UNL A   1      44.864  22.185  25.643  1.00  0.00     0.028 H 
BRANCH  57  60
ATOM     60  C   UNL A   1      42.977  22.797  24.958  1.00  0.00     0.018 C 
ATOM     61  H   UNL A   1      43.302  22.212  24.123  1.00  0.00     0.049 H 
ATOM     62  H   UNL A   1      42.736  23.797  24.667  1.00  0.00     0.049 H 
BRANCH  60  63
ATOM     63  N   UNL A   1      41.766  22.190  25.514  1.00  0.00    -0.352 N 
ATOM     64  C   UNL A   1      41.023  22.585  26.610  1.00  0.00     0.251 C 
ATOM     65  H   UNL A   1      41.436  21.391  25.043  1.00  0.00     0.163 HD
ATOM     66  O   UNL A   1      40.287  21.799  27.194  1.00  0.00    -0.269 OA
BRANCH  64  67
ATOM     67  C   UNL A   1      41.107  23.988  27.053  1.00  0.00     0.039 A 
ATOM     68  C   UNL A   1      40.369  25.012  26.448  1.00  0.00    -0.049 A 
ATOM     69  C   UNL A   1      41.961  24.265  28.115  1.00  0.00    -0.049 A 
ATOM     70  C   UNL A   1      40.466  26.305  26.964  1.00  0.00    -0.053 A 
ATOM     71  H   UNL A   1      39.765  24.814  25.636  1.00  0.00     0.063 H 
ATOM     72  C   UNL A   1      41.889  25.473  28.747  1.00  0.00    -0.053 A 
ATOM     73  H   UNL A   1      42.646  23.559  28.426  1.00  0.00     0.063 H 
ATOM     74  C   UNL A   1      41.230  26.520  28.119  1.00  0.00    -0.014 A 
ATOM     75  H   UNL A   1      39.983  27.091  26.503  1.00  0.00     0.063 H 
ATOM     76  H   UNL A   1      42.316  25.605  29.676  1.00  0.00     0.063 H 
BRANCH  74  77
ATOM     77  C   UNL A   1      41.280  27.798  28.817  1.00  0.00     0.031 A 
ATOM     78  C   UNL A   1      42.222  28.767  28.211  1.00  0.00     0.074 A 
ATOM     79  C   UNL A   1      40.337  28.160  29.716  1.00  0.00     0.049 A 
ATOM     80  N   UNL A   1      43.302  29.233  28.741  1.00  0.00    -0.248 NA
ATOM     81  C   UNL A   1      42.041  29.139  26.798  1.00  0.00    -0.034 C 
ATOM     82  C   UNL A   1      39.185  27.389  30.182  1.00  0.00    -0.036 A 
ATOM     83  N   UNL A   1      40.145  29.357  30.334  1.00  0.00    -0.354 N 
ATOM     84  C   UNL A   1      43.806  30.144  27.819  1.00  0.00     0.074 A 
ATOM     85  C   UNL A   1      43.143  29.860  26.576  1.00  0.00    -0.034 C 
ATOM     86  H   UNL A   1      41.271  28.906  26.152  1.00  0.00     0.065 H 
ATOM     87  C   UNL A   1      38.296  28.207  30.797  1.00  0.00    -0.036 A 
ATOM     88  H   UNL A   1      39.065  26.372  30.061  1.00  0.00     0.065 H 
ATOM     89  C   UNL A   1      38.887  29.522  30.923  1.00  0.00     0.049 A 
ATOM     90  H   UNL A   1      40.839  30.055  30.365  1.00  0.00     0.167 HD
ATOM     91  C   UNL A   1      44.490  31.243  28.245  1.00  0.00     0.037 A 
ATOM     92  H   UNL A   1      43.470  30.168  25.647  1.00  0.00     0.065 H 
ATOM     93  H   UNL A   1      37.355  27.936  31.122  1.00  0.00     0.065 H 
ATOM     94  C   UNL A   1      38.389  30.663  31.472  1.00  0.00     0.037 A 
ATOM     95  C   UNL A   1      44.932  31.067  29.611  1.00  0.00     0.049 A 
ATOM     96  C   UNL A   1      39.555  31.542  31.733  1.00  0.00     0.074 A 
ATOM     97  C   UNL A   1      45.683  30.108  30.268  1.00  0.00    -0.036 A 
ATOM     98  N   UNL A   1      44.252  31.733  30.604  1.00  0.00    -0.354 N 
ATOM     99  N   UNL A   1      40.441  31.288  32.654  1.00  0.00    -0.248 NA
ATOM    100  C   UNL A   1      39.995  32.393  30.637  1.00  0.00    -0.034 C 
ATOM    101  C   UNL A   1      45.011  29.901  31.511  1.00  0.00    -0.036 A 
ATOM    102  H   UNL A   1      46.540  29.642  29.932  1.00  0.00     0.065 H 
ATOM    103  C   UNL A   1      43.966  30.819  31.586  1.00  0.00     0.049 A 
ATOM    104  H   UNL A   1      44.015  32.688  30.609  1.00  0.00     0.167 HD
ATOM    105  C   UNL A   1      41.653  31.563  32.045  1.00  0.00     0.074 A 
ATOM    106  C   UNL A   1      41.315  32.292  30.820  1.00  0.00    -0.034 C 
ATOM    107  H   UNL A   1      39.452  32.917  29.932  1.00  0.00     0.065 H 
ATOM    108  H   UNL A   1      45.256  29.199  32.226  1.00  0.00     0.065 H 
ATOM    109  C   UNL A   1      42.787  30.900  32.411  1.00  0.00     0.037 A 
ATOM    110  H   UNL A   1      42.016  32.682  30.172  1.00  0.00     0.065 H 
BRANCH  91 111
ATOM    111  C   UNL A   1      44.398  32.609  27.595  1.00  0.00     0.064 A 
ATOM    112  C   UNL A   1      45.375  32.966  26.642  1.00  0.00     0.173 A 
ATOM    113  C   UNL A   1      43.597  33.677  28.059  1.00  0.00     0.173 A 
ATOM    114  F   UNL A   1      46.199  32.040  26.128  1.00  0.00    -0.203 F 
ATOM    115  C   UNL A   1      45.598  34.294  26.269  1.00  0.00     0.198 A 
ATOM    116  C   UNL A   1      43.787  34.993  27.642  1.00  0.00     0.198 A 
ATOM    117  F   UNL A   1      42.670  33.530  29.009  1.00  0.00    -0.203 F 
ATOM    118  F   UNL A   1      46.631  34.593  25.469  1.00  0.00    -0.200 F 
ATOM    119  C   UNL A   1      44.810  35.308  26.776  1.00  0.00     0.200 A 
ATOM    120  F   UNL A   1      43.015  35.962  28.155  1.00  0.00    -0.200 F 
ATOM    121  F   UNL A   1      45.062  36.587  26.470  1.00  0.00    -0.200 F 
ENDBRANCH  91 111
BRANCH  94 122
ATOM    122  C   UNL A   1      37.008  31.201  31.571  1.00  0.00     0.064 A 
ATOM    123  C   UNL A   1      36.512  31.718  32.782  1.00  0.00     0.173 A 
ATOM    124  C   UNL A   1      36.279  31.525  30.417  1.00  0.00     0.173 A 
ATOM    125  F   UNL A   1      37.157  31.472  33.931  1.00  0.00    -0.203 F 
ATOM    126  C   UNL A   1      35.390  32.554  32.828  1.00  0.00     0.198 A 
ATOM    127  C   UNL A   1      35.155  32.359  30.469  1.00  0.00     0.198 A 
ATOM    128  F   UNL A   1      36.706  31.100  29.222  1.00  0.00    -0.203 F 
ATOM    129  F   UNL A   1      34.988  33.078  33.994  1.00  0.00    -0.200 F 
ATOM    130  C   UNL A   1      34.724  32.891  31.668  1.00  0.00     0.200 A 
ATOM    131  F   UNL A   1      34.497  32.702  29.357  1.00  0.00    -0.200 F 
ATOM    132  F   UNL A   1      33.690  33.743  31.692  1.00  0.00    -0.200 F 
ENDBRANCH  94 122
BRANCH 109 133
ATOM    133  C   UNL A   1      42.746  30.037  33.642  1.00  0.00     0.064 A 
ATOM    134  C   UNL A   1      42.398  28.673  33.654  1.00  0.00     0.173 A 
ATOM    135  C   UNL A   1      43.214  30.588  34.841  1.00  0.00     0.173 A 
ATOM    136  F   UNL A   1      42.039  28.040  32.530  1.00  0.00    -0.203 F 
ATOM    137  C   UNL A   1      42.472  27.916  34.824  1.00  0.00     0.198 A 
ATOM    138  C   UNL A   1      43.323  29.822  35.998  1.00  0.00     0.198 A 
ATOM    139  F   UNL A   1      43.611  31.870  34.879  1.00  0.00    -0.203 F 
ATOM    140  F   UNL A   1      42.124  26.620  34.812  1.00  0.00    -0.200 F 
ATOM    141  C   UNL A   1      42.941  28.491  35.993  1.00  0.00     0.200 A 
ATOM    142  F   UNL A   1      43.825  30.372  37.111  1.00  0.00    -0.200 F 
ATOM    143  F   UNL A   1      43.051  27.757  37.109  1.00  0.00    -0.200 F 
ENDBRANCH 109 133
ENDBRANCH  74  77
ENDBRANCH  64  67
ENDBRANCH  60  63
ENDBRANCH  57  60
ENDBRANCH  54  57
ENDBRANCH  51  54
ENDBRANCH   1  51
TORSDOF 19
ENDMDL
