MODEL 1
REMARK VINA RESULT:     -11.7      0.000      0.000
REMARK SMILES CC(C)c1ccc2c(c1)c(SC(C)(C)C)c(CC(C)(C)C(=O)NCCCCCCNC(=O)c1ccc(-c3c4nc(c(-c5c(F)c(F)c(F)c(F)c5F)c5ccc([nH]5)c(-c5c(F)c(F)c(F)c(F)c5F)c5nc(c(-c6c(F)c(F)c(F)c(F)c6F)c6ccc3[nH]6)C=C5)C=C4)cc1)n2Cc1ccc(Cl)cc1
REMARK SMILES IDX 25 1 24 4 23 7 21 8 22 9 18 11 17 12 16 15 4 16 5 17 9 18
REMARK SMILES IDX 6 19 8 21 7 23 10 25 96 26 2 27 1 29 3 33 11 37 12 38 13 39
REMARK SMILES IDX 14 43 15 47 97 51 98 54 99 55 104 56 100 57 103 59 101 61
REMARK SMILES IDX 102 64 19 65 20 69 26 73 27 76 28 79 29 82 30 85 31 86 32 88
REMARK SMILES IDX 33 89 34 90 95 91 35 92 94 94 36 96 37 99 38 100 88 101
REMARK SMILES IDX 39 102 93 103 87 104 89 105 40 106 92 107 86 109 85 111
REMARK SMILES IDX 41 113 73 116 53 117 72 118 54 119 57 120 71 121 90 122
REMARK SMILES IDX 55 123 56 125 70 127 91 128 58 131 42 133 43 134 51 135
REMARK SMILES IDX 44 136 45 137 49 138 52 139 46 140 47 141 50 142 48 143
REMARK SMILES IDX 74 144 75 145 83 146 76 147 77 148 81 149 84 150 78 151
REMARK SMILES IDX 79 152 82 153 80 154 59 155 60 156 68 157 61 158 62 159
REMARK SMILES IDX 66 160 69 161 63 162 64 163 67 164 65 165
REMARK H PARENT 25 2 25 3 24 5 24 6 23 10 17 13 17 14 5 20 9 22 6 24 2 28 1 30
REMARK H PARENT 1 31 1 32 3 34 3 35 3 36 13 40 13 41 13 42 14 44 14 45 14 46
REMARK H PARENT 15 48 15 49 15 50 97 52 97 53 99 58 104 60 100 62 103 63 19 66
REMARK H PARENT 19 67 19 68 20 70 20 71 20 72 26 74 26 75 27 77 27 78 28 80
REMARK H PARENT 28 81 29 83 29 84 30 87 34 93 95 95 35 97 94 98 93 108 87 110
REMARK H PARENT 89 112 92 114 86 115 54 124 57 126 90 129 55 130 91 132
REMARK Flexibility Score: inf
ROOT
ATOM      1  C   UNL A   1      33.289  27.771  25.905  1.00  0.00    -0.036 C 
ATOM      2  H   UNL A   1      33.541  27.698  24.867  1.00  0.00     0.028 H 
ATOM      3  H   UNL A   1      34.103  28.182  26.464  1.00  0.00     0.028 H 
ENDROOT
BRANCH   1   4
ATOM      4  C   UNL A   1      32.996  26.390  26.437  1.00  0.00     0.017 C 
ATOM      5  H   UNL A   1      33.507  25.671  25.831  1.00  0.00     0.049 H 
ATOM      6  H   UNL A   1      33.331  26.348  27.452  1.00  0.00     0.049 H 
BRANCH   4   7
ATOM      7  N   UNL A   1      31.579  26.093  26.419  1.00  0.00    -0.356 N 
ATOM      8  C   UNL A   1      30.960  24.873  26.509  1.00  0.00     0.226 C 
ATOM      9  O   UNL A   1      29.792  24.878  26.876  1.00  0.00    -0.275 OA
ATOM     10  H   UNL A   1      30.981  26.870  26.331  1.00  0.00     0.163 HD
BRANCH   8  11
ATOM     11  C   UNL A   1      31.810  23.602  26.390  1.00  0.00     0.049 C 
BRANCH  11  12
ATOM     12  C   UNL A   1      32.900  23.564  25.275  1.00  0.00     0.003 C 
ATOM     13  H   UNL A   1      32.560  24.182  24.470  1.00  0.00     0.034 H 
ATOM     14  H   UNL A   1      33.796  23.895  25.755  1.00  0.00     0.034 H 
BRANCH  12  15
ATOM     15  C   UNL A   1      33.239  22.250  24.708  1.00  0.00     0.034 A 
ATOM     16  C   UNL A   1      33.746  17.681  24.023  1.00  0.00    -0.045 A 
ATOM     17  C   UNL A   1      32.646  17.946  23.198  1.00  0.00    -0.057 A 
ATOM     18  C   UNL A   1      34.368  18.785  24.647  1.00  0.00    -0.048 A 
ATOM     19  C   UNL A   1      32.153  19.242  22.998  1.00  0.00    -0.037 A 
ATOM     20  H   UNL A   1      32.182  17.157  22.720  1.00  0.00     0.063 H 
ATOM     21  C   UNL A   1      33.890  20.115  24.485  1.00  0.00     0.014 A 
ATOM     22  H   UNL A   1      35.196  18.621  25.240  1.00  0.00     0.063 H 
ATOM     23  C   UNL A   1      32.765  20.307  23.676  1.00  0.00     0.050 A 
ATOM     24  H   UNL A   1      31.355  19.410  22.366  1.00  0.00     0.065 H 
ATOM     25  C   UNL A   1      34.282  21.394  25.033  1.00  0.00     0.037 A 
ATOM     26  N   UNL A   1      32.450  21.657  23.723  1.00  0.00    -0.339 N 
BRANCH  16  27
ATOM     27  C   UNL A   1      34.179  16.246  24.339  1.00  0.00    -0.022 C 
ATOM     28  H   UNL A   1      34.388  15.858  23.363  1.00  0.00     0.035 H 
BRANCH  27  29
ATOM     29  C   UNL A   1      35.450  16.138  25.198  1.00  0.00    -0.059 C 
ATOM     30  H   UNL A   1      35.553  17.021  25.793  1.00  0.00     0.024 H 
ATOM     31  H   UNL A   1      36.304  16.033  24.562  1.00  0.00     0.024 H 
ATOM     32  H   UNL A   1      35.375  15.284  25.839  1.00  0.00     0.024 H 
ENDBRANCH  27  29
BRANCH  27  33
ATOM     33  C   UNL A   1      33.086  15.396  25.003  1.00  0.00    -0.059 C 
ATOM     34  H   UNL A   1      33.505  14.856  25.826  1.00  0.00     0.024 H 
ATOM     35  H   UNL A   1      32.688  14.706  24.289  1.00  0.00     0.024 H 
ATOM     36  H   UNL A   1      32.303  16.034  25.357  1.00  0.00     0.024 H 
ENDBRANCH  27  33
ENDBRANCH  16  27
BRANCH  25  37
ATOM     37  S   UNL A   1      35.683  21.525  26.126  1.00  0.00    -0.118 SA
BRANCH  37  38
ATOM     38  C   UNL A   1      37.335  22.092  25.465  1.00  0.00     0.012 C 
BRANCH  38  39
ATOM     39  C   UNL A   1      37.770  23.403  26.126  1.00  0.00    -0.051 C 
ATOM     40  H   UNL A   1      38.405  23.189  26.960  1.00  0.00     0.024 H 
ATOM     41  H   UNL A   1      36.906  23.936  26.463  1.00  0.00     0.024 H 
ATOM     42  H   UNL A   1      38.303  24.000  25.416  1.00  0.00     0.024 H 
ENDBRANCH  38  39
BRANCH  38  43
ATOM     43  C   UNL A   1      38.564  21.157  25.377  1.00  0.00    -0.051 C 
ATOM     44  H   UNL A   1      39.458  21.732  25.496  1.00  0.00     0.024 H 
ATOM     45  H   UNL A   1      38.575  20.673  24.423  1.00  0.00     0.024 H 
ATOM     46  H   UNL A   1      38.507  20.421  26.151  1.00  0.00     0.024 H 
ENDBRANCH  38  43
BRANCH  38  47
ATOM     47  C   UNL A   1      37.025  22.346  23.964  1.00  0.00    -0.051 C 
ATOM     48  H   UNL A   1      35.969  22.450  23.831  1.00  0.00     0.024 H 
ATOM     49  H   UNL A   1      37.378  21.519  23.383  1.00  0.00     0.024 H 
ATOM     50  H   UNL A   1      37.515  23.242  23.645  1.00  0.00     0.024 H 
ENDBRANCH  38  47
ENDBRANCH  37  38
ENDBRANCH  25  37
BRANCH  26  51
ATOM     51  C   UNL A   1      31.583  22.340  22.725  1.00  0.00     0.048 C 
ATOM     52  H   UNL A   1      30.569  22.187  23.029  1.00  0.00     0.055 H 
ATOM     53  H   UNL A   1      31.861  21.903  21.789  1.00  0.00     0.055 H 
BRANCH  51  54
ATOM     54  C   UNL A   1      31.769  23.834  22.513  1.00  0.00    -0.028 A 
ATOM     55  C   UNL A   1      32.923  24.336  21.876  1.00  0.00    -0.056 A 
ATOM     56  C   UNL A   1      30.820  24.765  22.967  1.00  0.00    -0.056 A 
ATOM     57  C   UNL A   1      33.212  25.705  21.871  1.00  0.00    -0.043 A 
ATOM     58  H   UNL A   1      33.565  23.681  21.404  1.00  0.00     0.063 H 
ATOM     59  C   UNL A   1      31.085  26.143  22.915  1.00  0.00    -0.043 A 
ATOM     60  H   UNL A   1      29.918  24.431  23.344  1.00  0.00     0.063 H 
ATOM     61  C   UNL A   1      32.302  26.601  22.415  1.00  0.00     0.041 A 
ATOM     62  H   UNL A   1      34.098  26.046  21.465  1.00  0.00     0.064 H 
ATOM     63  H   UNL A   1      30.377  26.817  23.247  1.00  0.00     0.064 H 
ATOM     64  Cl  UNL A   1      32.702  28.273  22.504  1.00  0.00    -0.084 Cl
ENDBRANCH  51  54
ENDBRANCH  26  51
ENDBRANCH  12  15
ENDBRANCH  11  12
BRANCH  11  65
ATOM     65  C   UNL A   1      30.661  22.601  26.113  1.00  0.00    -0.051 C 
ATOM     66  H   UNL A   1      30.845  22.093  25.189  1.00  0.00     0.024 H 
ATOM     67  H   UNL A   1      29.734  23.131  26.050  1.00  0.00     0.024 H 
ATOM     68  H   UNL A   1      30.611  21.888  26.908  1.00  0.00     0.024 H 
ENDBRANCH  11  65
BRANCH  11  69
ATOM     69  C   UNL A   1      32.665  23.442  27.682  1.00  0.00    -0.051 C 
ATOM     70  H   UNL A   1      32.158  22.797  28.368  1.00  0.00     0.024 H 
ATOM     71  H   UNL A   1      32.810  24.402  28.135  1.00  0.00     0.024 H 
ATOM     72  H   UNL A   1      33.616  23.019  27.432  1.00  0.00     0.024 H 
ENDBRANCH  11  69
ENDBRANCH   8  11
ENDBRANCH   4   7
ENDBRANCH   1   4
BRANCH   1  73
ATOM     73  C   UNL A   1      32.089  28.692  26.059  1.00  0.00    -0.052 C 
ATOM     74  H   UNL A   1      31.300  28.141  26.529  1.00  0.00     0.027 H 
ATOM     75  H   UNL A   1      31.827  29.027  25.077  1.00  0.00     0.027 H 
BRANCH  73  76
ATOM     76  C   UNL A   1      32.369  29.945  26.898  1.00  0.00    -0.052 C 
ATOM     77  H   UNL A   1      31.678  29.959  27.715  1.00  0.00     0.027 H 
ATOM     78  H   UNL A   1      32.260  30.779  26.237  1.00  0.00     0.027 H 
BRANCH  76  79
ATOM     79  C   UNL A   1      33.789  30.033  27.472  1.00  0.00    -0.036 C 
ATOM     80  H   UNL A   1      34.451  29.502  26.821  1.00  0.00     0.028 H 
ATOM     81  H   UNL A   1      33.757  29.608  28.454  1.00  0.00     0.028 H 
BRANCH  79  82
ATOM     82  C   UNL A   1      34.305  31.465  27.622  1.00  0.00     0.018 C 
ATOM     83  H   UNL A   1      33.721  32.105  26.994  1.00  0.00     0.049 H 
ATOM     84  H   UNL A   1      35.338  31.465  27.341  1.00  0.00     0.049 H 
BRANCH  82  85
ATOM     85  N   UNL A   1      34.225  31.954  28.979  1.00  0.00    -0.352 N 
ATOM     86  C   UNL A   1      35.019  31.843  30.083  1.00  0.00     0.251 C 
ATOM     87  H   UNL A   1      33.414  32.488  29.145  1.00  0.00     0.163 HD
ATOM     88  O   UNL A   1      34.582  32.337  31.123  1.00  0.00    -0.269 OA
BRANCH  86  89
ATOM     89  C   UNL A   1      36.330  31.146  30.111  1.00  0.00     0.039 A 
ATOM     90  C   UNL A   1      37.579  31.758  30.005  1.00  0.00    -0.049 A 
ATOM     91  C   UNL A   1      36.279  29.749  30.265  1.00  0.00    -0.049 A 
ATOM     92  C   UNL A   1      38.741  30.999  29.971  1.00  0.00    -0.053 A 
ATOM     93  H   UNL A   1      37.640  32.787  29.953  1.00  0.00     0.063 H 
ATOM     94  C   UNL A   1      37.440  28.987  30.277  1.00  0.00    -0.053 A 
ATOM     95  H   UNL A   1      35.364  29.283  30.371  1.00  0.00     0.063 H 
ATOM     96  C   UNL A   1      38.670  29.613  30.090  1.00  0.00    -0.014 A 
ATOM     97  H   UNL A   1      39.657  31.461  29.858  1.00  0.00     0.063 H 
ATOM     98  H   UNL A   1      37.392  27.966  30.422  1.00  0.00     0.063 H 
BRANCH  96  99
ATOM     99  C   UNL A   1      39.931  28.877  30.106  1.00  0.00     0.031 A 
ATOM    100  C   UNL A   1      40.580  28.726  31.443  1.00  0.00     0.074 A 
ATOM    101  C   UNL A   1      40.427  28.264  29.015  1.00  0.00     0.049 A 
ATOM    102  N   UNL A   1      41.790  29.028  31.795  1.00  0.00    -0.248 NA
ATOM    103  C   UNL A   1      39.743  28.225  32.546  1.00  0.00    -0.034 C 
ATOM    104  C   UNL A   1      39.775  28.082  27.715  1.00  0.00    -0.036 A 
ATOM    105  N   UNL A   1      41.591  27.566  28.883  1.00  0.00    -0.354 N 
ATOM    106  C   UNL A   1      41.915  28.626  33.125  1.00  0.00     0.074 A 
ATOM    107  C   UNL A   1      40.604  28.225  33.564  1.00  0.00    -0.034 C 
ATOM    108  H   UNL A   1      38.750  27.947  32.536  1.00  0.00     0.065 H 
ATOM    109  C   UNL A   1      40.442  27.139  27.015  1.00  0.00    -0.036 A 
ATOM    110  H   UNL A   1      38.941  28.593  27.387  1.00  0.00     0.065 H 
ATOM    111  C   UNL A   1      41.631  26.758  27.758  1.00  0.00     0.049 A 
ATOM    112  H   UNL A   1      42.333  27.629  29.527  1.00  0.00     0.167 HD
ATOM    113  C   UNL A   1      43.122  28.481  33.736  1.00  0.00     0.037 A 
ATOM    114  H   UNL A   1      40.364  27.970  34.535  1.00  0.00     0.065 H 
ATOM    115  H   UNL A   1      40.153  26.751  26.104  1.00  0.00     0.065 H 
ATOM    116  C   UNL A   1      42.536  25.787  27.496  1.00  0.00     0.037 A 
ATOM    117  C   UNL A   1      44.171  29.173  33.047  1.00  0.00     0.049 A 
ATOM    118  C   UNL A   1      43.735  26.045  28.325  1.00  0.00     0.074 A 
ATOM    119  C   UNL A   1      44.488  30.494  32.816  1.00  0.00    -0.036 A 
ATOM    120  N   UNL A   1      44.963  28.436  32.208  1.00  0.00    -0.354 N 
ATOM    121  N   UNL A   1      44.550  27.048  28.157  1.00  0.00    -0.248 NA
ATOM    122  C   UNL A   1      43.870  25.339  29.592  1.00  0.00    -0.034 C 
ATOM    123  C   UNL A   1      45.152  30.508  31.554  1.00  0.00    -0.036 A 
ATOM    124  H   UNL A   1      44.287  31.301  33.427  1.00  0.00     0.065 H 
ATOM    125  C   UNL A   1      45.217  29.192  31.094  1.00  0.00     0.049 A 
ATOM    126  H   UNL A   1      45.293  27.524  32.376  1.00  0.00     0.167 HD
ATOM    127  C   UNL A   1      44.994  27.356  29.431  1.00  0.00     0.074 A 
ATOM    128  C   UNL A   1      44.673  26.187  30.238  1.00  0.00    -0.034 C 
ATOM    129  H   UNL A   1      43.462  24.444  29.900  1.00  0.00     0.065 H 
ATOM    130  H   UNL A   1      45.519  31.341  31.069  1.00  0.00     0.065 H 
ATOM    131  C   UNL A   1      45.321  28.638  29.764  1.00  0.00     0.037 A 
ATOM    132  H   UNL A   1      45.023  26.033  31.195  1.00  0.00     0.065 H 
BRANCH 113 133
ATOM    133  C   UNL A   1      43.409  27.436  34.781  1.00  0.00     0.064 A 
ATOM    134  C   UNL A   1      43.756  27.818  36.091  1.00  0.00     0.173 A 
ATOM    135  C   UNL A   1      43.641  26.082  34.455  1.00  0.00     0.173 A 
ATOM    136  F   UNL A   1      43.620  29.092  36.489  1.00  0.00    -0.203 F 
ATOM    137  C   UNL A   1      44.325  26.916  36.996  1.00  0.00     0.198 A 
ATOM    138  C   UNL A   1      44.162  25.173  35.373  1.00  0.00     0.198 A 
ATOM    139  F   UNL A   1      43.474  25.623  33.207  1.00  0.00    -0.203 F 
ATOM    140  F   UNL A   1      44.735  27.344  38.197  1.00  0.00    -0.200 F 
ATOM    141  C   UNL A   1      44.527  25.594  36.635  1.00  0.00     0.200 A 
ATOM    142  F   UNL A   1      44.377  23.904  34.998  1.00  0.00    -0.200 F 
ATOM    143  F   UNL A   1      45.116  24.740  37.483  1.00  0.00    -0.200 F 
ENDBRANCH 113 133
BRANCH 116 144
ATOM    144  C   UNL A   1      42.310  24.494  26.812  1.00  0.00     0.064 A 
ATOM    145  C   UNL A   1      43.009  24.172  25.638  1.00  0.00     0.173 A 
ATOM    146  C   UNL A   1      41.624  23.439  27.445  1.00  0.00     0.173 A 
ATOM    147  F   UNL A   1      43.722  25.110  24.998  1.00  0.00    -0.203 F 
ATOM    148  C   UNL A   1      43.049  22.864  25.147  1.00  0.00     0.198 A 
ATOM    149  C   UNL A   1      41.654  22.137  26.947  1.00  0.00     0.198 A 
ATOM    150  F   UNL A   1      40.994  23.628  28.613  1.00  0.00    -0.203 F 
ATOM    151  F   UNL A   1      43.788  22.580  24.065  1.00  0.00    -0.200 F 
ATOM    152  C   UNL A   1      42.381  21.846  25.808  1.00  0.00     0.200 A 
ATOM    153  F   UNL A   1      41.032  21.156  27.616  1.00  0.00    -0.200 F 
ATOM    154  F   UNL A   1      42.474  20.581  25.376  1.00  0.00    -0.200 F 
ENDBRANCH 116 144
BRANCH 131 155
ATOM    155  C   UNL A   1      45.557  29.604  28.639  1.00  0.00     0.064 A 
ATOM    156  C   UNL A   1      44.540  30.336  28.005  1.00  0.00     0.173 A 
ATOM    157  C   UNL A   1      46.881  29.884  28.273  1.00  0.00     0.173 A 
ATOM    158  F   UNL A   1      43.259  30.198  28.372  1.00  0.00    -0.203 F 
ATOM    159  C   UNL A   1      44.836  31.271  27.014  1.00  0.00     0.198 A 
ATOM    160  C   UNL A   1      47.175  30.847  27.312  1.00  0.00     0.198 A 
ATOM    161  F   UNL A   1      47.896  29.257  28.888  1.00  0.00    -0.203 F 
ATOM    162  F   UNL A   1      43.846  31.946  26.410  1.00  0.00    -0.200 F 
ATOM    163  C   UNL A   1      46.153  31.530  26.674  1.00  0.00     0.200 A 
ATOM    164  F   UNL A   1      48.453  31.131  27.023  1.00  0.00    -0.200 F 
ATOM    165  F   UNL A   1      46.439  32.459  25.751  1.00  0.00    -0.200 F 
ENDBRANCH 131 155
ENDBRANCH  96  99
ENDBRANCH  86  89
ENDBRANCH  82  85
ENDBRANCH  79  82
ENDBRANCH  76  79
ENDBRANCH  73  76
ENDBRANCH   1  73
TORSDOF 27
ENDMDL
MODEL 2
REMARK VINA RESULT:     -11.6      3.728      9.334
REMARK SMILES CC(C)c1ccc2c(c1)c(SC(C)(C)C)c(CC(C)(C)C(=O)NCCCCCCNC(=O)c1ccc(-c3c4nc(c(-c5c(F)c(F)c(F)c(F)c5F)c5ccc([nH]5)c(-c5c(F)c(F)c(F)c(F)c5F)c5nc(c(-c6c(F)c(F)c(F)c(F)c6F)c6ccc3[nH]6)C=C5)C=C4)cc1)n2Cc1ccc(Cl)cc1
REMARK SMILES IDX 25 1 24 4 23 7 21 8 22 9 18 11 17 12 16 15 4 16 5 17 9 18
REMARK SMILES IDX 6 19 8 21 7 23 10 25 96 26 2 27 1 29 3 33 11 37 12 38 13 39
REMARK SMILES IDX 14 43 15 47 97 51 98 54 99 55 104 56 100 57 103 59 101 61
REMARK SMILES IDX 102 64 19 65 20 69 26 73 27 76 28 79 29 82 30 85 31 86 32 88
REMARK SMILES IDX 33 89 34 90 95 91 35 92 94 94 36 96 37 99 38 100 88 101
REMARK SMILES IDX 39 102 93 103 87 104 89 105 40 106 92 107 86 109 85 111
REMARK SMILES IDX 41 113 73 116 53 117 72 118 54 119 57 120 71 121 90 122
REMARK SMILES IDX 55 123 56 125 70 127 91 128 58 131 42 133 43 134 51 135
REMARK SMILES IDX 44 136 45 137 49 138 52 139 46 140 47 141 50 142 48 143
REMARK SMILES IDX 74 144 75 145 83 146 76 147 77 148 81 149 84 150 78 151
REMARK SMILES IDX 79 152 82 153 80 154 59 155 60 156 68 157 61 158 62 159
REMARK SMILES IDX 66 160 69 161 63 162 64 163 67 164 65 165
REMARK H PARENT 25 2 25 3 24 5 24 6 23 10 17 13 17 14 5 20 9 22 6 24 2 28 1 30
REMARK H PARENT 1 31 1 32 3 34 3 35 3 36 13 40 13 41 13 42 14 44 14 45 14 46
REMARK H PARENT 15 48 15 49 15 50 97 52 97 53 99 58 104 60 100 62 103 63 19 66
REMARK H PARENT 19 67 19 68 20 70 20 71 20 72 26 74 26 75 27 77 27 78 28 80
REMARK H PARENT 28 81 29 83 29 84 30 87 34 93 95 95 35 97 94 98 93 108 87 110
REMARK H PARENT 89 112 92 114 86 115 54 124 57 126 90 129 55 130 91 132
REMARK Flexibility Score: inf
ROOT
ATOM      1  C   UNL A   1      35.853  23.747  25.902  1.00  0.00    -0.036 C 
ATOM      2  H   UNL A   1      35.299  22.843  26.046  1.00  0.00     0.028 H 
ATOM      3  H   UNL A   1      35.985  24.263  26.830  1.00  0.00     0.028 H 
ENDROOT
BRANCH   1   4
ATOM      4  C   UNL A   1      35.090  24.646  24.961  1.00  0.00     0.017 C 
ATOM      5  H   UNL A   1      34.255  25.064  25.485  1.00  0.00     0.049 H 
ATOM      6  H   UNL A   1      35.756  25.412  24.622  1.00  0.00     0.049 H 
BRANCH   4   7
ATOM      7  N   UNL A   1      34.603  23.929  23.802  1.00  0.00    -0.356 N 
ATOM      8  C   UNL A   1      33.839  24.397  22.765  1.00  0.00     0.226 C 
ATOM      9  O   UNL A   1      33.883  23.759  21.721  1.00  0.00    -0.275 OA
ATOM     10  H   UNL A   1      34.854  22.978  23.752  1.00  0.00     0.163 HD
BRANCH   8  11
ATOM     11  C   UNL A   1      33.193  25.783  22.890  1.00  0.00     0.049 C 
BRANCH  11  12
ATOM     12  C   UNL A   1      32.576  26.170  24.269  1.00  0.00     0.003 C 
ATOM     13  H   UNL A   1      32.209  25.273  24.721  1.00  0.00     0.034 H 
ATOM     14  H   UNL A   1      33.369  26.655  24.798  1.00  0.00     0.034 H 
BRANCH  12  15
ATOM     15  C   UNL A   1      31.475  27.145  24.264  1.00  0.00     0.034 A 
ATOM     16  C   UNL A   1      28.501  30.514  23.079  1.00  0.00    -0.045 A 
ATOM     17  C   UNL A   1      27.727  29.379  22.806  1.00  0.00    -0.057 A 
ATOM     18  C   UNL A   1      29.765  30.310  23.676  1.00  0.00    -0.048 A 
ATOM     19  C   UNL A   1      28.174  28.081  23.090  1.00  0.00    -0.037 A 
ATOM     20  H   UNL A   1      26.796  29.503  22.381  1.00  0.00     0.063 H 
ATOM     21  C   UNL A   1      30.263  29.009  23.966  1.00  0.00     0.014 A 
ATOM     22  H   UNL A   1      30.344  31.130  23.911  1.00  0.00     0.063 H 
ATOM     23  C   UNL A   1      29.455  27.914  23.637  1.00  0.00     0.050 A 
ATOM     24  H   UNL A   1      27.572  27.265  22.900  1.00  0.00     0.065 H 
ATOM     25  C   UNL A   1      31.508  28.511  24.507  1.00  0.00     0.037 A 
ATOM     26  N   UNL A   1      30.171  26.768  23.946  1.00  0.00    -0.339 N 
BRANCH  16  27
ATOM     27  C   UNL A   1      28.055  31.909  22.631  1.00  0.00    -0.022 C 
ATOM     28  H   UNL A   1      27.076  31.976  23.059  1.00  0.00     0.035 H 
BRANCH  27  29
ATOM     29  C   UNL A   1      28.916  33.060  23.177  1.00  0.00    -0.059 C 
ATOM     30  H   UNL A   1      29.612  32.676  23.893  1.00  0.00     0.024 H 
ATOM     31  H   UNL A   1      28.285  33.787  23.646  1.00  0.00     0.024 H 
ATOM     32  H   UNL A   1      29.450  33.519  22.372  1.00  0.00     0.024 H 
ENDBRANCH  27  29
BRANCH  27  33
ATOM     33  C   UNL A   1      27.957  32.075  21.106  1.00  0.00    -0.059 C 
ATOM     34  H   UNL A   1      28.018  33.113  20.856  1.00  0.00     0.024 H 
ATOM     35  H   UNL A   1      27.025  31.679  20.764  1.00  0.00     0.024 H 
ATOM     36  H   UNL A   1      28.763  31.548  20.638  1.00  0.00     0.024 H 
ENDBRANCH  27  33
ENDBRANCH  16  27
BRANCH  25  37
ATOM     37  S   UNL A   1      32.787  29.636  25.028  1.00  0.00    -0.118 SA
BRANCH  37  38
ATOM     38  C   UNL A   1      33.387  29.616  26.796  1.00  0.00     0.012 C 
BRANCH  38  39
ATOM     39  C   UNL A   1      32.672  28.532  27.607  1.00  0.00    -0.051 C 
ATOM     40  H   UNL A   1      31.689  28.382  27.213  1.00  0.00     0.024 H 
ATOM     41  H   UNL A   1      32.604  28.838  28.630  1.00  0.00     0.024 H 
ATOM     42  H   UNL A   1      33.224  27.617  27.544  1.00  0.00     0.024 H 
ENDBRANCH  38  39
BRANCH  38  43
ATOM     43  C   UNL A   1      34.888  29.596  27.168  1.00  0.00    -0.051 C 
ATOM     44  H   UNL A   1      35.237  30.599  27.296  1.00  0.00     0.024 H 
ATOM     45  H   UNL A   1      35.443  29.122  26.386  1.00  0.00     0.024 H 
ATOM     46  H   UNL A   1      35.021  29.053  28.080  1.00  0.00     0.024 H 
ENDBRANCH  38  43
BRANCH  38  47
ATOM     47  C   UNL A   1      32.956  31.017  27.311  1.00  0.00    -0.051 C 
ATOM     48  H   UNL A   1      31.909  31.008  27.533  1.00  0.00     0.024 H 
ATOM     49  H   UNL A   1      33.153  31.750  26.557  1.00  0.00     0.024 H 
ATOM     50  H   UNL A   1      33.506  31.258  28.196  1.00  0.00     0.024 H 
ENDBRANCH  38  47
ENDBRANCH  37  38
ENDBRANCH  25  37
BRANCH  26  51
ATOM     51  C   UNL A   1      29.550  25.426  24.113  1.00  0.00     0.048 C 
ATOM     52  H   UNL A   1      29.359  25.040  23.133  1.00  0.00     0.055 H 
ATOM     53  H   UNL A   1      28.689  25.605  24.722  1.00  0.00     0.055 H 
BRANCH  51  54
ATOM     54  C   UNL A   1      30.330  24.362  24.870  1.00  0.00    -0.028 A 
ATOM     55  C   UNL A   1      30.583  24.496  26.251  1.00  0.00    -0.056 A 
ATOM     56  C   UNL A   1      30.849  23.229  24.221  1.00  0.00    -0.056 A 
ATOM     57  C   UNL A   1      31.479  23.648  26.911  1.00  0.00    -0.043 A 
ATOM     58  H   UNL A   1      30.098  25.233  26.785  1.00  0.00     0.063 H 
ATOM     59  C   UNL A   1      31.707  22.346  24.897  1.00  0.00    -0.043 A 
ATOM     60  H   UNL A   1      30.597  23.045  23.237  1.00  0.00     0.063 H 
ATOM     61  C   UNL A   1      32.058  22.590  26.222  1.00  0.00     0.041 A 
ATOM     62  H   UNL A   1      31.708  23.809  27.905  1.00  0.00     0.064 H 
ATOM     63  H   UNL A   1      32.077  21.514  24.410  1.00  0.00     0.064 H 
ATOM     64  Cl  UNL A   1      33.238  21.610  27.003  1.00  0.00    -0.084 Cl
ENDBRANCH  51  54
ENDBRANCH  26  51
ENDBRANCH  12  15
ENDBRANCH  11  12
BRANCH  11  65
ATOM     65  C   UNL A   1      32.110  25.613  21.796  1.00  0.00    -0.051 C 
ATOM     66  H   UNL A   1      31.606  24.679  21.934  1.00  0.00     0.024 H 
ATOM     67  H   UNL A   1      32.572  25.630  20.831  1.00  0.00     0.024 H 
ATOM     68  H   UNL A   1      31.403  26.413  21.868  1.00  0.00     0.024 H 
ENDBRANCH  11  65
BRANCH  11  69
ATOM     69  C   UNL A   1      34.293  26.872  22.711  1.00  0.00    -0.051 C 
ATOM     70  H   UNL A   1      33.965  27.787  23.157  1.00  0.00     0.024 H 
ATOM     71  H   UNL A   1      34.475  27.028  21.668  1.00  0.00     0.024 H 
ATOM     72  H   UNL A   1      35.197  26.548  23.186  1.00  0.00     0.024 H 
ENDBRANCH  11  69
ENDBRANCH   8  11
ENDBRANCH   4   7
ENDBRANCH   1   4
BRANCH   1  73
ATOM     73  C   UNL A   1      37.227  23.401  25.347  1.00  0.00    -0.052 C 
ATOM     74  H   UNL A   1      37.963  23.687  26.069  1.00  0.00     0.027 H 
ATOM     75  H   UNL A   1      37.330  23.931  24.423  1.00  0.00     0.027 H 
BRANCH  73  76
ATOM     76  C   UNL A   1      37.413  21.912  25.031  1.00  0.00    -0.052 C 
ATOM     77  H   UNL A   1      37.542  21.810  23.973  1.00  0.00     0.027 H 
ATOM     78  H   UNL A   1      36.541  21.415  25.401  1.00  0.00     0.027 H 
BRANCH  76  79
ATOM     79  C   UNL A   1      38.612  21.250  25.724  1.00  0.00    -0.036 C 
ATOM     80  H   UNL A   1      39.186  20.733  24.983  1.00  0.00     0.028 H 
ATOM     81  H   UNL A   1      38.219  20.590  26.469  1.00  0.00     0.028 H 
BRANCH  79  82
ATOM     82  C   UNL A   1      39.530  22.239  26.443  1.00  0.00     0.018 C 
ATOM     83  H   UNL A   1      39.599  21.954  27.473  1.00  0.00     0.049 H 
ATOM     84  H   UNL A   1      39.105  23.214  26.328  1.00  0.00     0.049 H 
BRANCH  82  85
ATOM     85  N   UNL A   1      40.863  22.279  25.887  1.00  0.00    -0.352 N 
ATOM     86  C   UNL A   1      41.870  23.199  25.885  1.00  0.00     0.251 C 
ATOM     87  H   UNL A   1      41.097  21.457  25.399  1.00  0.00     0.163 HD
ATOM     88  O   UNL A   1      42.868  22.916  25.220  1.00  0.00    -0.269 OA
BRANCH  86  89
ATOM     89  C   UNL A   1      41.820  24.505  26.590  1.00  0.00     0.039 A 
ATOM     90  C   UNL A   1      42.431  24.794  27.811  1.00  0.00    -0.049 A 
ATOM     91  C   UNL A   1      41.093  25.521  25.946  1.00  0.00    -0.049 A 
ATOM     92  C   UNL A   1      42.258  26.032  28.415  1.00  0.00    -0.053 A 
ATOM     93  H   UNL A   1      43.019  24.081  28.268  1.00  0.00     0.063 H 
ATOM     94  C   UNL A   1      40.952  26.777  26.524  1.00  0.00    -0.053 A 
ATOM     95  H   UNL A   1      40.657  25.332  25.030  1.00  0.00     0.063 H 
ATOM     96  C   UNL A   1      41.505  27.017  27.780  1.00  0.00    -0.014 A 
ATOM     97  H   UNL A   1      42.686  26.222  29.335  1.00  0.00     0.063 H 
ATOM     98  H   UNL A   1      40.443  27.525  26.028  1.00  0.00     0.063 H 
BRANCH  96  99
ATOM     99  C   UNL A   1      41.409  28.315  28.440  1.00  0.00     0.031 A 
ATOM    100  C   UNL A   1      42.480  29.299  28.100  1.00  0.00     0.074 A 
ATOM    101  C   UNL A   1      40.363  28.662  29.213  1.00  0.00     0.049 A 
ATOM    102  N   UNL A   1      43.259  29.959  28.898  1.00  0.00    -0.248 NA
ATOM    103  C   UNL A   1      42.754  29.531  26.671  1.00  0.00    -0.034 C 
ATOM    104  C   UNL A   1      39.113  27.923  29.412  1.00  0.00    -0.036 A 
ATOM    105  N   UNL A   1      40.154  29.821  29.900  1.00  0.00    -0.354 N 
ATOM    106  C   UNL A   1      44.026  30.794  28.086  1.00  0.00     0.074 A 
ATOM    107  C   UNL A   1      43.741  30.425  26.724  1.00  0.00    -0.034 C 
ATOM    108  H   UNL A   1      42.302  29.110  25.845  1.00  0.00     0.065 H 
ATOM    109  C   UNL A   1      38.198  28.745  29.970  1.00  0.00    -0.036 A 
ATOM    110  H   UNL A   1      38.957  26.933  29.166  1.00  0.00     0.065 H 
ATOM    111  C   UNL A   1      38.837  30.010  30.287  1.00  0.00     0.049 A 
ATOM    112  H   UNL A   1      40.872  30.464  30.101  1.00  0.00     0.167 HD
ATOM    113  C   UNL A   1      44.718  31.858  28.575  1.00  0.00     0.037 A 
ATOM    114  H   UNL A   1      44.234  30.804  25.899  1.00  0.00     0.065 H 
ATOM    115  H   UNL A   1      37.207  28.513  30.141  1.00  0.00     0.065 H 
ATOM    116  C   UNL A   1      38.294  31.155  30.759  1.00  0.00     0.037 A 
ATOM    117  C   UNL A   1      44.926  31.772  29.990  1.00  0.00     0.049 A 
ATOM    118  C   UNL A   1      39.394  32.010  31.262  1.00  0.00     0.074 A 
ATOM    119  C   UNL A   1      45.658  30.957  30.827  1.00  0.00    -0.036 A 
ATOM    120  N   UNL A   1      44.070  32.477  30.793  1.00  0.00    -0.354 N 
ATOM    121  N   UNL A   1      40.113  31.747  32.316  1.00  0.00    -0.248 NA
ATOM    122  C   UNL A   1      39.929  33.041  30.384  1.00  0.00    -0.034 C 
ATOM    123  C   UNL A   1      44.918  30.905  32.045  1.00  0.00    -0.036 A 
ATOM    124  H   UNL A   1      46.551  30.485  30.616  1.00  0.00     0.065 H 
ATOM    125  C   UNL A   1      43.785  31.704  31.888  1.00  0.00     0.049 A 
ATOM    126  H   UNL A   1      43.722  33.380  30.617  1.00  0.00     0.167 HD
ATOM    127  C   UNL A   1      41.364  32.260  32.023  1.00  0.00     0.074 A 
ATOM    128  C   UNL A   1      41.150  33.171  30.908  1.00  0.00    -0.034 C 
ATOM    129  H   UNL A   1      39.492  33.529  29.587  1.00  0.00     0.065 H 
ATOM    130  H   UNL A   1      45.176  30.373  32.890  1.00  0.00     0.065 H 
ATOM    131  C   UNL A   1      42.491  31.682  32.530  1.00  0.00     0.037 A 
ATOM    132  H   UNL A   1      41.857  33.838  30.563  1.00  0.00     0.065 H 
BRANCH 113 133
ATOM    133  C   UNL A   1      44.923  33.142  27.816  1.00  0.00     0.064 A 
ATOM    134  C   UNL A   1      46.213  33.524  27.401  1.00  0.00     0.173 A 
ATOM    135  C   UNL A   1      43.933  34.146  27.745  1.00  0.00     0.173 A 
ATOM    136  F   UNL A   1      47.237  32.660  27.472  1.00  0.00    -0.203 F 
ATOM    137  C   UNL A   1      46.495  34.827  26.979  1.00  0.00     0.198 A 
ATOM    138  C   UNL A   1      44.206  35.429  27.278  1.00  0.00     0.198 A 
ATOM    139  F   UNL A   1      42.699  33.949  28.229  1.00  0.00    -0.203 F 
ATOM    140  F   UNL A   1      47.756  35.177  26.690  1.00  0.00    -0.200 F 
ATOM    141  C   UNL A   1      45.491  35.779  26.918  1.00  0.00     0.200 A 
ATOM    142  F   UNL A   1      43.227  36.345  27.252  1.00  0.00    -0.200 F 
ATOM    143  F   UNL A   1      45.769  37.039  26.560  1.00  0.00    -0.200 F 
ENDBRANCH 113 133
BRANCH 116 144
ATOM    144  C   UNL A   1      36.929  31.679  30.525  1.00  0.00     0.064 A 
ATOM    145  C   UNL A   1      36.036  31.856  31.592  1.00  0.00     0.173 A 
ATOM    146  C   UNL A   1      36.575  32.280  29.301  1.00  0.00     0.173 A 
ATOM    147  F   UNL A   1      36.320  31.350  32.802  1.00  0.00    -0.203 F 
ATOM    148  C   UNL A   1      34.873  32.620  31.453  1.00  0.00     0.198 A 
ATOM    149  C   UNL A   1      35.409  33.032  29.161  1.00  0.00     0.198 A 
ATOM    150  F   UNL A   1      37.400  32.236  28.245  1.00  0.00    -0.203 F 
ATOM    151  F   UNL A   1      34.082  32.830  32.515  1.00  0.00    -0.200 F 
ATOM    152  C   UNL A   1      34.568  33.217  30.241  1.00  0.00     0.200 A 
ATOM    153  F   UNL A   1      35.143  33.632  27.992  1.00  0.00    -0.200 F 
ATOM    154  F   UNL A   1      33.490  34.004  30.126  1.00  0.00    -0.200 F 
ENDBRANCH 116 144
BRANCH 131 155
ATOM    155  C   UNL A   1      42.322  30.746  33.693  1.00  0.00     0.064 A 
ATOM    156  C   UNL A   1      42.336  31.152  35.038  1.00  0.00     0.173 A 
ATOM    157  C   UNL A   1      42.016  29.405  33.425  1.00  0.00     0.173 A 
ATOM    158  F   UNL A   1      42.521  32.437  35.368  1.00  0.00    -0.203 F 
ATOM    159  C   UNL A   1      42.103  30.242  36.067  1.00  0.00     0.198 A 
ATOM    160  C   UNL A   1      41.743  28.508  34.454  1.00  0.00     0.198 A 
ATOM    161  F   UNL A   1      41.931  28.975  32.156  1.00  0.00    -0.203 F 
ATOM    162  F   UNL A   1      42.139  30.649  37.345  1.00  0.00    -0.200 F 
ATOM    163  C   UNL A   1      41.800  28.923  35.774  1.00  0.00     0.200 A 
ATOM    164  F   UNL A   1      41.400  27.245  34.163  1.00  0.00    -0.200 F 
ATOM    165  F   UNL A   1      41.534  28.058  36.762  1.00  0.00    -0.200 F 
ENDBRANCH 131 155
ENDBRANCH  96  99
ENDBRANCH  86  89
ENDBRANCH  82  85
ENDBRANCH  79  82
ENDBRANCH  76  79
ENDBRANCH  73  76
ENDBRANCH   1  73
TORSDOF 27
ENDMDL
MODEL 3
REMARK VINA RESULT:     -11.2      2.242      3.840
REMARK SMILES CC(C)c1ccc2c(c1)c(SC(C)(C)C)c(CC(C)(C)C(=O)NCCCCCCNC(=O)c1ccc(-c3c4nc(c(-c5c(F)c(F)c(F)c(F)c5F)c5ccc([nH]5)c(-c5c(F)c(F)c(F)c(F)c5F)c5nc(c(-c6c(F)c(F)c(F)c(F)c6F)c6ccc3[nH]6)C=C5)C=C4)cc1)n2Cc1ccc(Cl)cc1
REMARK SMILES IDX 25 1 24 4 23 7 21 8 22 9 18 11 17 12 16 15 4 16 5 17 9 18
REMARK SMILES IDX 6 19 8 21 7 23 10 25 96 26 2 27 1 29 3 33 11 37 12 38 13 39
REMARK SMILES IDX 14 43 15 47 97 51 98 54 99 55 104 56 100 57 103 59 101 61
REMARK SMILES IDX 102 64 19 65 20 69 26 73 27 76 28 79 29 82 30 85 31 86 32 88
REMARK SMILES IDX 33 89 34 90 95 91 35 92 94 94 36 96 37 99 38 100 88 101
REMARK SMILES IDX 39 102 93 103 87 104 89 105 40 106 92 107 86 109 85 111
REMARK SMILES IDX 41 113 73 116 53 117 72 118 54 119 57 120 71 121 90 122
REMARK SMILES IDX 55 123 56 125 70 127 91 128 58 131 42 133 43 134 51 135
REMARK SMILES IDX 44 136 45 137 49 138 52 139 46 140 47 141 50 142 48 143
REMARK SMILES IDX 74 144 75 145 83 146 76 147 77 148 81 149 84 150 78 151
REMARK SMILES IDX 79 152 82 153 80 154 59 155 60 156 68 157 61 158 62 159
REMARK SMILES IDX 66 160 69 161 63 162 64 163 67 164 65 165
REMARK H PARENT 25 2 25 3 24 5 24 6 23 10 17 13 17 14 5 20 9 22 6 24 2 28 1 30
REMARK H PARENT 1 31 1 32 3 34 3 35 3 36 13 40 13 41 13 42 14 44 14 45 14 46
REMARK H PARENT 15 48 15 49 15 50 97 52 97 53 99 58 104 60 100 62 103 63 19 66
REMARK H PARENT 19 67 19 68 20 70 20 71 20 72 26 74 26 75 27 77 27 78 28 80
REMARK H PARENT 28 81 29 83 29 84 30 87 34 93 95 95 35 97 94 98 93 108 87 110
REMARK H PARENT 89 112 92 114 86 115 54 124 57 126 90 129 55 130 91 132
REMARK Flexibility Score: inf
ROOT
ATOM      1  C   UNL A   1      33.356  27.919  24.073  1.00  0.00    -0.036 C 
ATOM      2  H   UNL A   1      34.317  27.864  23.604  1.00  0.00     0.028 H 
ATOM      3  H   UNL A   1      33.338  27.334  24.968  1.00  0.00     0.028 H 
ENDROOT
BRANCH   1   4
ATOM      4  C   UNL A   1      32.316  27.373  23.126  1.00  0.00     0.017 C 
ATOM      5  H   UNL A   1      31.817  26.552  23.598  1.00  0.00     0.049 H 
ATOM      6  H   UNL A   1      31.631  28.162  22.896  1.00  0.00     0.049 H 
BRANCH   4   7
ATOM      7  N   UNL A   1      32.902  26.911  21.885  1.00  0.00    -0.356 N 
ATOM      8  C   UNL A   1      33.057  25.624  21.439  1.00  0.00     0.226 C 
ATOM      9  O   UNL A   1      33.194  25.477  20.231  1.00  0.00    -0.275 OA
ATOM     10  H   UNL A   1      33.234  27.615  21.282  1.00  0.00     0.163 HD
BRANCH   8  11
ATOM     11  C   UNL A   1      32.807  24.468  22.415  1.00  0.00     0.049 C 
BRANCH  11  12
ATOM     12  C   UNL A   1      33.633  24.450  23.738  1.00  0.00     0.003 C 
ATOM     13  H   UNL A   1      34.546  24.977  23.556  1.00  0.00     0.034 H 
ATOM     14  H   UNL A   1      32.990  24.892  24.469  1.00  0.00     0.034 H 
BRANCH  12  15
ATOM     15  C   UNL A   1      33.987  23.135  24.293  1.00  0.00     0.034 A 
ATOM     16  C   UNL A   1      34.672  18.575  24.880  1.00  0.00    -0.045 A 
ATOM     17  C   UNL A   1      35.976  18.998  24.595  1.00  0.00    -0.057 A 
ATOM     18  C   UNL A   1      33.680  19.573  25.005  1.00  0.00    -0.048 A 
ATOM     19  C   UNL A   1      36.305  20.349  24.419  1.00  0.00    -0.037 A 
ATOM     20  H   UNL A   1      36.721  18.289  24.511  1.00  0.00     0.063 H 
ATOM     21  C   UNL A   1      33.968  20.954  24.818  1.00  0.00     0.014 A 
ATOM     22  H   UNL A   1      32.716  19.292  25.241  1.00  0.00     0.063 H 
ATOM     23  C   UNL A   1      35.284  21.307  24.500  1.00  0.00     0.050 A 
ATOM     24  H   UNL A   1      37.279  20.633  24.233  1.00  0.00     0.065 H 
ATOM     25  C   UNL A   1      33.162  22.155  24.828  1.00  0.00     0.037 A 
ATOM     26  N   UNL A   1      35.305  22.679  24.303  1.00  0.00    -0.339 N 
BRANCH  16  27
ATOM     27  C   UNL A   1      34.308  17.088  24.927  1.00  0.00    -0.022 C 
ATOM     28  H   UNL A   1      33.540  17.072  25.673  1.00  0.00     0.035 H 
BRANCH  27  29
ATOM     29  C   UNL A   1      33.737  16.529  23.614  1.00  0.00    -0.059 C 
ATOM     30  H   UNL A   1      32.837  17.052  23.365  1.00  0.00     0.024 H 
ATOM     31  H   UNL A   1      33.524  15.487  23.731  1.00  0.00     0.024 H 
ATOM     32  H   UNL A   1      34.453  16.660  22.830  1.00  0.00     0.024 H 
ENDBRANCH  27  29
BRANCH  27  33
ATOM     33  C   UNL A   1      35.464  16.176  25.366  1.00  0.00    -0.059 C 
ATOM     34  H   UNL A   1      35.076  15.357  25.935  1.00  0.00     0.024 H 
ATOM     35  H   UNL A   1      36.151  16.734  25.965  1.00  0.00     0.024 H 
ATOM     36  H   UNL A   1      35.970  15.800  24.501  1.00  0.00     0.024 H 
ENDBRANCH  27  33
ENDBRANCH  16  27
BRANCH  25  37
ATOM     37  S   UNL A   1      31.419  22.078  25.189  1.00  0.00    -0.118 SA
BRANCH  37  38
ATOM     38  C   UNL A   1      30.706  23.101  26.579  1.00  0.00     0.012 C 
BRANCH  38  39
ATOM     39  C   UNL A   1      30.519  24.558  26.149  1.00  0.00    -0.051 C 
ATOM     40  H   UNL A   1      31.366  25.134  26.459  1.00  0.00     0.024 H 
ATOM     41  H   UNL A   1      29.635  24.954  26.602  1.00  0.00     0.024 H 
ATOM     42  H   UNL A   1      30.427  24.607  25.084  1.00  0.00     0.024 H 
ENDBRANCH  38  39
BRANCH  38  43
ATOM     43  C   UNL A   1      29.459  22.664  27.382  1.00  0.00    -0.051 C 
ATOM     44  H   UNL A   1      28.839  23.515  27.569  1.00  0.00     0.024 H 
ATOM     45  H   UNL A   1      29.766  22.234  28.312  1.00  0.00     0.024 H 
ATOM     46  H   UNL A   1      28.909  21.940  26.819  1.00  0.00     0.024 H 
ENDBRANCH  38  43
BRANCH  38  47
ATOM     47  C   UNL A   1      31.819  23.019  27.660  1.00  0.00    -0.051 C 
ATOM     48  H   UNL A   1      32.022  21.993  27.886  1.00  0.00     0.024 H 
ATOM     49  H   UNL A   1      31.493  23.521  28.546  1.00  0.00     0.024 H 
ATOM     50  H   UNL A   1      32.709  23.485  27.292  1.00  0.00     0.024 H 
ENDBRANCH  38  47
ENDBRANCH  37  38
ENDBRANCH  25  37
BRANCH  26  51
ATOM     51  C   UNL A   1      36.546  23.500  24.329  1.00  0.00     0.048 C 
ATOM     52  H   UNL A   1      36.248  24.520  24.450  1.00  0.00     0.055 H 
ATOM     53  H   UNL A   1      37.040  23.263  23.410  1.00  0.00     0.055 H 
BRANCH  51  54
ATOM     54  C   UNL A   1      37.583  23.202  25.400  1.00  0.00    -0.028 A 
ATOM     55  C   UNL A   1      37.858  24.138  26.419  1.00  0.00    -0.056 A 
ATOM     56  C   UNL A   1      38.320  22.006  25.398  1.00  0.00    -0.056 A 
ATOM     57  C   UNL A   1      38.954  23.978  27.275  1.00  0.00    -0.043 A 
ATOM     58  H   UNL A   1      37.240  24.954  26.537  1.00  0.00     0.063 H 
ATOM     59  C   UNL A   1      39.388  21.821  26.292  1.00  0.00    -0.043 A 
ATOM     60  H   UNL A   1      38.074  21.257  24.732  1.00  0.00     0.063 H 
ATOM     61  C   UNL A   1      39.730  22.830  27.189  1.00  0.00     0.041 A 
ATOM     62  H   UNL A   1      39.183  24.710  27.965  1.00  0.00     0.064 H 
ATOM     63  H   UNL A   1      39.918  20.935  26.283  1.00  0.00     0.064 H 
ATOM     64  Cl  UNL A   1      41.139  22.679  28.167  1.00  0.00    -0.084 Cl
ENDBRANCH  51  54
ENDBRANCH  26  51
ENDBRANCH  12  15
ENDBRANCH  11  12
BRANCH  11  65
ATOM     65  C   UNL A   1      33.196  23.304  21.472  1.00  0.00    -0.051 C 
ATOM     66  H   UNL A   1      32.521  22.486  21.618  1.00  0.00     0.024 H 
ATOM     67  H   UNL A   1      34.194  22.985  21.689  1.00  0.00     0.024 H 
ATOM     68  H   UNL A   1      33.140  23.634  20.456  1.00  0.00     0.024 H 
ENDBRANCH  11  65
BRANCH  11  69
ATOM     69  C   UNL A   1      31.346  24.563  22.948  1.00  0.00    -0.051 C 
ATOM     70  H   UNL A   1      30.687  24.804  22.141  1.00  0.00     0.024 H 
ATOM     71  H   UNL A   1      31.288  25.325  23.697  1.00  0.00     0.024 H 
ATOM     72  H   UNL A   1      31.060  23.623  23.374  1.00  0.00     0.024 H 
ENDBRANCH  11  69
ENDBRANCH   8  11
ENDBRANCH   4   7
ENDBRANCH   1   4
BRANCH   1  73
ATOM     73  C   UNL A   1      33.068  29.367  24.439  1.00  0.00    -0.052 C 
ATOM     74  H   UNL A   1      32.841  29.902  23.540  1.00  0.00     0.027 H 
ATOM     75  H   UNL A   1      33.939  29.742  24.932  1.00  0.00     0.027 H 
BRANCH  73  76
ATOM     76  C   UNL A   1      31.895  29.540  25.412  1.00  0.00    -0.052 C 
ATOM     77  H   UNL A   1      31.001  29.225  24.915  1.00  0.00     0.027 H 
ATOM     78  H   UNL A   1      31.884  30.574  25.688  1.00  0.00     0.027 H 
BRANCH  76  79
ATOM     79  C   UNL A   1      32.018  28.746  26.720  1.00  0.00    -0.036 C 
ATOM     80  H   UNL A   1      32.022  27.703  26.483  1.00  0.00     0.028 H 
ATOM     81  H   UNL A   1      31.185  29.021  27.333  1.00  0.00     0.028 H 
BRANCH  79  82
ATOM     82  C   UNL A   1      33.284  29.066  27.517  1.00  0.00     0.018 C 
ATOM     83  H   UNL A   1      34.122  28.626  27.017  1.00  0.00     0.049 H 
ATOM     84  H   UNL A   1      33.152  28.668  28.501  1.00  0.00     0.049 H 
BRANCH  82  85
ATOM     85  N   UNL A   1      33.521  30.485  27.651  1.00  0.00    -0.352 N 
ATOM     86  C   UNL A   1      34.615  31.246  27.944  1.00  0.00     0.251 C 
ATOM     87  H   UNL A   1      32.712  31.023  27.497  1.00  0.00     0.163 HD
ATOM     88  O   UNL A   1      34.423  32.458  28.057  1.00  0.00    -0.269 OA
BRANCH  86  89
ATOM     89  C   UNL A   1      35.981  30.709  28.166  1.00  0.00     0.039 A 
ATOM     90  C   UNL A   1      36.428  29.440  27.793  1.00  0.00    -0.049 A 
ATOM     91  C   UNL A   1      36.885  31.577  28.803  1.00  0.00    -0.049 A 
ATOM     92  C   UNL A   1      37.709  29.015  28.116  1.00  0.00    -0.053 A 
ATOM     93  H   UNL A   1      35.798  28.812  27.271  1.00  0.00     0.063 H 
ATOM     94  C   UNL A   1      38.184  31.175  29.089  1.00  0.00    -0.053 A 
ATOM     95  H   UNL A   1      36.580  32.528  29.061  1.00  0.00     0.063 H 
ATOM     96  C   UNL A   1      38.581  29.876  28.779  1.00  0.00    -0.014 A 
ATOM     97  H   UNL A   1      38.016  28.062  27.865  1.00  0.00     0.063 H 
ATOM     98  H   UNL A   1      38.848  31.831  29.529  1.00  0.00     0.063 H 
BRANCH  96  99
ATOM     99  C   UNL A   1      39.933  29.390  29.037  1.00  0.00     0.031 A 
ATOM    100  C   UNL A   1      40.264  29.117  30.468  1.00  0.00     0.074 A 
ATOM    101  C   UNL A   1      40.797  29.087  28.051  1.00  0.00     0.049 A 
ATOM    102  N   UNL A   1      41.257  29.563  31.170  1.00  0.00    -0.248 NA
ATOM    103  C   UNL A   1      39.322  28.279  31.230  1.00  0.00    -0.034 C 
ATOM    104  C   UNL A   1      40.529  29.031  26.611  1.00  0.00    -0.036 A 
ATOM    105  N   UNL A   1      42.084  28.647  28.147  1.00  0.00    -0.354 N 
ATOM    106  C   UNL A   1      41.150  28.954  32.420  1.00  0.00     0.074 A 
ATOM    107  C   UNL A   1      39.895  28.248  32.433  1.00  0.00    -0.034 C 
ATOM    108  H   UNL A   1      38.446  27.833  30.916  1.00  0.00     0.065 H 
ATOM    109  C   UNL A   1      41.534  28.369  26.000  1.00  0.00    -0.036 A 
ATOM    110  H   UNL A   1      39.705  29.435  26.140  1.00  0.00     0.065 H 
ATOM    111  C   UNL A   1      42.568  28.080  26.979  1.00  0.00     0.049 A 
ATOM    112  H   UNL A   1      42.619  28.725  28.970  1.00  0.00     0.167 HD
ATOM    113  C   UNL A   1      42.179  28.919  33.310  1.00  0.00     0.037 A 
ATOM    114  H   UNL A   1      39.495  27.780  33.262  1.00  0.00     0.065 H 
ATOM    115  H   UNL A   1      41.564  28.109  25.002  1.00  0.00     0.065 H 
ATOM    116  C   UNL A   1      43.701  27.353  26.847  1.00  0.00     0.037 A 
ATOM    117  C   UNL A   1      43.181  29.904  33.026  1.00  0.00     0.049 A 
ATOM    118  C   UNL A   1      44.582  27.667  27.995  1.00  0.00     0.074 A 
ATOM    119  C   UNL A   1      43.242  31.280  33.063  1.00  0.00    -0.036 A 
ATOM    120  N   UNL A   1      44.292  29.488  32.343  1.00  0.00    -0.354 N 
ATOM    121  N   UNL A   1      45.169  28.815  28.185  1.00  0.00    -0.248 NA
ATOM    122  C   UNL A   1      44.566  26.778  29.148  1.00  0.00    -0.034 C 
ATOM    123  C   UNL A   1      44.166  31.645  32.040  1.00  0.00    -0.036 A 
ATOM    124  H   UNL A   1      42.728  31.912  33.697  1.00  0.00     0.065 H 
ATOM    125  C   UNL A   1      44.628  30.469  31.447  1.00  0.00     0.049 A 
ATOM    126  H   UNL A   1      44.767  28.636  32.473  1.00  0.00     0.167 HD
ATOM    127  C   UNL A   1      45.219  28.959  29.560  1.00  0.00     0.074 A 
ATOM    128  C   UNL A   1      44.984  27.624  30.091  1.00  0.00    -0.034 C 
ATOM    129  H   UNL A   1      44.305  25.782  29.216  1.00  0.00     0.065 H 
ATOM    130  H   UNL A   1      44.444  32.605  31.785  1.00  0.00     0.065 H 
ATOM    131  C   UNL A   1      45.166  30.196  30.134  1.00  0.00     0.037 A 
ATOM    132  H   UNL A   1      45.122  27.363  31.079  1.00  0.00     0.065 H 
BRANCH 113 133
ATOM    133  C   UNL A   1      42.435  27.770  34.248  1.00  0.00     0.064 A 
ATOM    134  C   UNL A   1      43.014  26.578  33.770  1.00  0.00     0.173 A 
ATOM    135  C   UNL A   1      41.857  27.699  35.534  1.00  0.00     0.173 A 
ATOM    136  F   UNL A   1      43.549  26.524  32.541  1.00  0.00    -0.203 F 
ATOM    137  C   UNL A   1      42.985  25.395  34.515  1.00  0.00     0.198 A 
ATOM    138  C   UNL A   1      41.874  26.532  36.295  1.00  0.00     0.198 A 
ATOM    139  F   UNL A   1      41.164  28.724  36.049  1.00  0.00    -0.203 F 
ATOM    140  F   UNL A   1      43.456  24.259  33.983  1.00  0.00    -0.200 F 
ATOM    141  C   UNL A   1      42.415  25.373  35.777  1.00  0.00     0.200 A 
ATOM    142  F   UNL A   1      41.292  26.523  37.503  1.00  0.00    -0.200 F 
ATOM    143  F   UNL A   1      42.343  24.230  36.472  1.00  0.00    -0.200 F 
ENDBRANCH 113 133
BRANCH 116 144
ATOM    144  C   UNL A   1      43.937  26.189  25.965  1.00  0.00     0.064 A 
ATOM    145  C   UNL A   1      45.213  25.931  25.442  1.00  0.00     0.173 A 
ATOM    146  C   UNL A   1      42.988  25.153  25.849  1.00  0.00     0.173 A 
ATOM    147  F   UNL A   1      46.185  26.850  25.549  1.00  0.00    -0.203 F 
ATOM    148  C   UNL A   1      45.534  24.696  24.869  1.00  0.00     0.198 A 
ATOM    149  C   UNL A   1      43.306  23.926  25.266  1.00  0.00     0.198 A 
ATOM    150  F   UNL A   1      41.767  25.272  26.387  1.00  0.00    -0.203 F 
ATOM    151  F   UNL A   1      46.784  24.461  24.448  1.00  0.00    -0.200 F 
ATOM    152  C   UNL A   1      44.583  23.692  24.792  1.00  0.00     0.200 A 
ATOM    153  F   UNL A   1      42.386  22.951  25.229  1.00  0.00    -0.200 F 
ATOM    154  F   UNL A   1      44.908  22.487  24.305  1.00  0.00    -0.200 F 
ENDBRANCH 116 144
BRANCH 131 155
ATOM    155  C   UNL A   1      45.441  31.378  29.250  1.00  0.00     0.064 A 
ATOM    156  C   UNL A   1      44.464  32.027  28.477  1.00  0.00     0.173 A 
ATOM    157  C   UNL A   1      46.722  31.946  29.284  1.00  0.00     0.173 A 
ATOM    158  F   UNL A   1      43.193  31.604  28.475  1.00  0.00    -0.203 F 
ATOM    159  C   UNL A   1      44.772  33.164  27.733  1.00  0.00     0.198 A 
ATOM    160  C   UNL A   1      47.016  33.105  28.571  1.00  0.00     0.198 A 
ATOM    161  F   UNL A   1      47.679  31.402  30.051  1.00  0.00    -0.203 F 
ATOM    162  F   UNL A   1      43.827  33.758  26.988  1.00  0.00    -0.200 F 
ATOM    163  C   UNL A   1      46.045  33.706  27.786  1.00  0.00     0.200 A 
ATOM    164  F   UNL A   1      48.235  33.655  28.667  1.00  0.00    -0.200 F 
ATOM    165  F   UNL A   1      46.330  34.824  27.104  1.00  0.00    -0.200 F 
ENDBRANCH 131 155
ENDBRANCH  96  99
ENDBRANCH  86  89
ENDBRANCH  82  85
ENDBRANCH  79  82
ENDBRANCH  76  79
ENDBRANCH  73  76
ENDBRANCH   1  73
TORSDOF 27
ENDMDL
MODEL 4
REMARK VINA RESULT:     -11.0      3.295      8.840
REMARK SMILES CC(C)c1ccc2c(c1)c(SC(C)(C)C)c(CC(C)(C)C(=O)NCCCCCCNC(=O)c1ccc(-c3c4nc(c(-c5c(F)c(F)c(F)c(F)c5F)c5ccc([nH]5)c(-c5c(F)c(F)c(F)c(F)c5F)c5nc(c(-c6c(F)c(F)c(F)c(F)c6F)c6ccc3[nH]6)C=C5)C=C4)cc1)n2Cc1ccc(Cl)cc1
REMARK SMILES IDX 25 1 24 4 23 7 21 8 22 9 18 11 17 12 16 15 4 16 5 17 9 18
REMARK SMILES IDX 6 19 8 21 7 23 10 25 96 26 2 27 1 29 3 33 11 37 12 38 13 39
REMARK SMILES IDX 14 43 15 47 97 51 98 54 99 55 104 56 100 57 103 59 101 61
REMARK SMILES IDX 102 64 19 65 20 69 26 73 27 76 28 79 29 82 30 85 31 86 32 88
REMARK SMILES IDX 33 89 34 90 95 91 35 92 94 94 36 96 37 99 38 100 88 101
REMARK SMILES IDX 39 102 93 103 87 104 89 105 40 106 92 107 86 109 85 111
REMARK SMILES IDX 41 113 73 116 53 117 72 118 54 119 57 120 71 121 90 122
REMARK SMILES IDX 55 123 56 125 70 127 91 128 58 131 42 133 43 134 51 135
REMARK SMILES IDX 44 136 45 137 49 138 52 139 46 140 47 141 50 142 48 143
REMARK SMILES IDX 74 144 75 145 83 146 76 147 77 148 81 149 84 150 78 151
REMARK SMILES IDX 79 152 82 153 80 154 59 155 60 156 68 157 61 158 62 159
REMARK SMILES IDX 66 160 69 161 63 162 64 163 67 164 65 165
REMARK H PARENT 25 2 25 3 24 5 24 6 23 10 17 13 17 14 5 20 9 22 6 24 2 28 1 30
REMARK H PARENT 1 31 1 32 3 34 3 35 3 36 13 40 13 41 13 42 14 44 14 45 14 46
REMARK H PARENT 15 48 15 49 15 50 97 52 97 53 99 58 104 60 100 62 103 63 19 66
REMARK H PARENT 19 67 19 68 20 70 20 71 20 72 26 74 26 75 27 77 27 78 28 80
REMARK H PARENT 28 81 29 83 29 84 30 87 34 93 95 95 35 97 94 98 93 108 87 110
REMARK H PARENT 89 112 92 114 86 115 54 124 57 126 90 129 55 130 91 132
REMARK Flexibility Score: inf
ROOT
ATOM      1  C   UNL A   1      36.198  22.909  23.550  1.00  0.00    -0.036 C 
ATOM      2  H   UNL A   1      36.660  23.727  24.063  1.00  0.00     0.028 H 
ATOM      3  H   UNL A   1      36.756  22.646  22.676  1.00  0.00     0.028 H 
ENDROOT
BRANCH   1   4
ATOM      4  C   UNL A   1      34.810  23.318  23.124  1.00  0.00     0.017 C 
ATOM      5  H   UNL A   1      34.483  22.667  22.340  1.00  0.00     0.049 H 
ATOM      6  H   UNL A   1      34.168  23.248  23.978  1.00  0.00     0.049 H 
BRANCH   4   7
ATOM      7  N   UNL A   1      34.770  24.684  22.645  1.00  0.00    -0.356 N 
ATOM      8  C   UNL A   1      33.682  25.426  22.265  1.00  0.00     0.226 C 
ATOM      9  O   UNL A   1      33.816  26.642  22.284  1.00  0.00    -0.275 OA
ATOM     10  H   UNL A   1      35.641  25.139  22.583  1.00  0.00     0.163 HD
BRANCH   8  11
ATOM     11  C   UNL A   1      32.332  24.720  22.086  1.00  0.00     0.049 C 
BRANCH  11  12
ATOM     12  C   UNL A   1      31.429  24.557  23.347  1.00  0.00     0.003 C 
ATOM     13  H   UNL A   1      30.411  24.579  23.018  1.00  0.00     0.034 H 
ATOM     14  H   UNL A   1      31.744  23.636  23.792  1.00  0.00     0.034 H 
BRANCH  12  15
ATOM     15  C   UNL A   1      31.571  25.560  24.412  1.00  0.00     0.034 A 
ATOM     16  C   UNL A   1      33.036  29.102  27.041  1.00  0.00    -0.045 A 
ATOM     17  C   UNL A   1      31.949  29.697  26.389  1.00  0.00    -0.057 A 
ATOM     18  C   UNL A   1      33.255  27.726  26.812  1.00  0.00    -0.048 A 
ATOM     19  C   UNL A   1      31.108  28.979  25.526  1.00  0.00    -0.037 A 
ATOM     20  H   UNL A   1      31.760  30.698  26.549  1.00  0.00     0.063 H 
ATOM     21  C   UNL A   1      32.436  26.965  25.932  1.00  0.00     0.014 A 
ATOM     22  H   UNL A   1      34.034  27.257  27.300  1.00  0.00     0.063 H 
ATOM     23  C   UNL A   1      31.387  27.627  25.284  1.00  0.00     0.050 A 
ATOM     24  H   UNL A   1      30.300  29.439  25.078  1.00  0.00     0.065 H 
ATOM     25  C   UNL A   1      32.461  25.593  25.477  1.00  0.00     0.037 A 
ATOM     26  N   UNL A   1      30.781  26.709  24.441  1.00  0.00    -0.339 N 
BRANCH  16  27
ATOM     27  C   UNL A   1      34.024  29.934  27.864  1.00  0.00    -0.022 C 
ATOM     28  H   UNL A   1      33.743  29.683  28.866  1.00  0.00     0.035 H 
BRANCH  27  29
ATOM     29  C   UNL A   1      35.501  29.564  27.654  1.00  0.00    -0.059 C 
ATOM     30  H   UNL A   1      35.652  29.267  26.637  1.00  0.00     0.024 H 
ATOM     31  H   UNL A   1      35.763  28.755  28.304  1.00  0.00     0.024 H 
ATOM     32  H   UNL A   1      36.116  30.411  27.873  1.00  0.00     0.024 H 
ENDBRANCH  27  29
BRANCH  27  33
ATOM     33  C   UNL A   1      33.884  31.451  27.661  1.00  0.00    -0.059 C 
ATOM     34  H   UNL A   1      34.829  31.861  27.372  1.00  0.00     0.024 H 
ATOM     35  H   UNL A   1      33.562  31.905  28.574  1.00  0.00     0.024 H 
ATOM     36  H   UNL A   1      33.163  31.644  26.894  1.00  0.00     0.024 H 
ENDBRANCH  27  33
ENDBRANCH  16  27
BRANCH  25  37
ATOM     37  S   UNL A   1      33.683  24.452  26.092  1.00  0.00    -0.118 SA
BRANCH  37  38
ATOM     38  C   UNL A   1      33.177  22.737  26.629  1.00  0.00     0.012 C 
BRANCH  38  39
ATOM     39  C   UNL A   1      32.733  21.895  25.429  1.00  0.00    -0.051 C 
ATOM     40  H   UNL A   1      33.560  21.755  24.765  1.00  0.00     0.024 H 
ATOM     41  H   UNL A   1      31.943  22.398  24.913  1.00  0.00     0.024 H 
ATOM     42  H   UNL A   1      32.386  20.942  25.771  1.00  0.00     0.024 H 
ENDBRANCH  38  39
BRANCH  38  43
ATOM     43  C   UNL A   1      34.055  21.856  27.547  1.00  0.00    -0.051 C 
ATOM     44  H   UNL A   1      33.438  21.152  28.063  1.00  0.00     0.024 H 
ATOM     45  H   UNL A   1      34.562  22.475  28.257  1.00  0.00     0.024 H 
ATOM     46  H   UNL A   1      34.774  21.331  26.954  1.00  0.00     0.024 H 
ENDBRANCH  38  43
BRANCH  38  47
ATOM     47  C   UNL A   1      31.954  23.020  27.543  1.00  0.00    -0.051 C 
ATOM     48  H   UNL A   1      31.055  22.745  27.033  1.00  0.00     0.024 H 
ATOM     49  H   UNL A   1      31.922  24.063  27.782  1.00  0.00     0.024 H 
ATOM     50  H   UNL A   1      32.041  22.450  28.444  1.00  0.00     0.024 H 
ENDBRANCH  38  47
ENDBRANCH  37  38
ENDBRANCH  25  37
BRANCH  26  51
ATOM     51  C   UNL A   1      29.418  26.883  23.871  1.00  0.00     0.048 C 
ATOM     52  H   UNL A   1      28.726  26.841  24.686  1.00  0.00     0.055 H 
ATOM     53  H   UNL A   1      29.332  26.103  23.144  1.00  0.00     0.055 H 
BRANCH  51  54
ATOM     54  C   UNL A   1      29.120  28.155  23.093  1.00  0.00    -0.028 A 
ATOM     55  C   UNL A   1      30.121  28.784  22.324  1.00  0.00    -0.056 A 
ATOM     56  C   UNL A   1      27.854  28.763  23.136  1.00  0.00    -0.056 A 
ATOM     57  C   UNL A   1      29.930  30.061  21.787  1.00  0.00    -0.043 A 
ATOM     58  H   UNL A   1      31.011  28.292  22.153  1.00  0.00     0.063 H 
ATOM     59  C   UNL A   1      27.644  30.023  22.551  1.00  0.00    -0.043 A 
ATOM     60  H   UNL A   1      27.071  28.279  23.601  1.00  0.00     0.063 H 
ATOM     61  C   UNL A   1      28.697  30.687  21.926  1.00  0.00     0.041 A 
ATOM     62  H   UNL A   1      30.701  30.536  21.291  1.00  0.00     0.064 H 
ATOM     63  H   UNL A   1      26.708  30.457  22.584  1.00  0.00     0.064 H 
ATOM     64  Cl  UNL A   1      28.492  32.299  21.358  1.00  0.00    -0.084 Cl
ENDBRANCH  51  54
ENDBRANCH  26  51
ENDBRANCH  12  15
ENDBRANCH  11  12
BRANCH  11  65
ATOM     65  C   UNL A   1      32.869  23.360  21.575  1.00  0.00    -0.051 C 
ATOM     66  H   UNL A   1      33.133  23.445  20.542  1.00  0.00     0.024 H 
ATOM     67  H   UNL A   1      32.112  22.612  21.689  1.00  0.00     0.024 H 
ATOM     68  H   UNL A   1      33.733  23.082  22.142  1.00  0.00     0.024 H 
ENDBRANCH  11  65
BRANCH  11  69
ATOM     69  C   UNL A   1      31.431  25.583  21.152  1.00  0.00    -0.051 C 
ATOM     70  H   UNL A   1      32.039  26.067  20.417  1.00  0.00     0.024 H 
ATOM     71  H   UNL A   1      30.918  26.320  21.734  1.00  0.00     0.024 H 
ATOM     72  H   UNL A   1      30.716  24.953  20.665  1.00  0.00     0.024 H 
ENDBRANCH  11  69
ENDBRANCH   8  11
ENDBRANCH   4   7
ENDBRANCH   1   4
BRANCH   1  73
ATOM     73  C   UNL A   1      36.162  21.703  24.476  1.00  0.00    -0.052 C 
ATOM     74  H   UNL A   1      35.752  20.875  23.935  1.00  0.00     0.027 H 
ATOM     75  H   UNL A   1      35.565  21.977  25.320  1.00  0.00     0.027 H 
BRANCH  73  76
ATOM     76  C   UNL A   1      37.537  21.292  25.017  1.00  0.00    -0.052 C 
ATOM     77  H   UNL A   1      38.138  20.974  24.190  1.00  0.00     0.027 H 
ATOM     78  H   UNL A   1      37.359  20.518  25.733  1.00  0.00     0.027 H 
BRANCH  76  79
ATOM     79  C   UNL A   1      38.296  22.400  25.760  1.00  0.00    -0.036 C 
ATOM     80  H   UNL A   1      37.610  22.903  26.410  1.00  0.00     0.028 H 
ATOM     81  H   UNL A   1      38.706  23.053  25.017  1.00  0.00     0.028 H 
BRANCH  79  82
ATOM     82  C   UNL A   1      39.468  21.888  26.599  1.00  0.00     0.018 C 
ATOM     83  H   UNL A   1      39.273  20.871  26.872  1.00  0.00     0.049 H 
ATOM     84  H   UNL A   1      39.550  22.522  27.457  1.00  0.00     0.049 H 
BRANCH  82  85
ATOM     85  N   UNL A   1      40.729  21.942  25.897  1.00  0.00    -0.352 N 
ATOM     86  C   UNL A   1      41.735  22.859  25.811  1.00  0.00     0.251 C 
ATOM     87  H   UNL A   1      40.903  21.135  25.361  1.00  0.00     0.163 HD
ATOM     88  O   UNL A   1      42.651  22.596  25.029  1.00  0.00    -0.269 OA
BRANCH  86  89
ATOM     89  C   UNL A   1      41.772  24.143  26.557  1.00  0.00     0.039 A 
ATOM     90  C   UNL A   1      42.463  24.372  27.748  1.00  0.00    -0.049 A 
ATOM     91  C   UNL A   1      41.045  25.203  25.990  1.00  0.00    -0.049 A 
ATOM     92  C   UNL A   1      42.369  25.594  28.399  1.00  0.00    -0.053 A 
ATOM     93  H   UNL A   1      43.052  23.625  28.147  1.00  0.00     0.063 H 
ATOM     94  C   UNL A   1      40.982  26.443  26.613  1.00  0.00    -0.053 A 
ATOM     95  H   UNL A   1      40.550  25.059  25.096  1.00  0.00     0.063 H 
ATOM     96  C   UNL A   1      41.615  26.624  27.841  1.00  0.00    -0.014 A 
ATOM     97  H   UNL A   1      42.857  25.740  29.297  1.00  0.00     0.063 H 
ATOM     98  H   UNL A   1      40.471  27.223  26.171  1.00  0.00     0.063 H 
BRANCH  96  99
ATOM     99  C   UNL A   1      41.603  27.902  28.545  1.00  0.00     0.031 A 
ATOM    100  C   UNL A   1      42.748  28.816  28.254  1.00  0.00     0.074 A 
ATOM    101  C   UNL A   1      40.573  28.298  29.315  1.00  0.00     0.049 A 
ATOM    102  N   UNL A   1      43.560  29.389  29.085  1.00  0.00    -0.248 NA
ATOM    103  C   UNL A   1      43.062  29.076  26.838  1.00  0.00    -0.034 C 
ATOM    104  C   UNL A   1      39.269  27.646  29.471  1.00  0.00    -0.036 A 
ATOM    105  N   UNL A   1      40.438  29.445  30.039  1.00  0.00    -0.354 N 
ATOM    106  C   UNL A   1      44.399  30.193  28.314  1.00  0.00     0.074 A 
ATOM    107  C   UNL A   1      44.110  29.893  26.936  1.00  0.00    -0.034 C 
ATOM    108  H   UNL A   1      42.593  28.717  25.991  1.00  0.00     0.065 H 
ATOM    109  C   UNL A   1      38.407  28.513  30.045  1.00  0.00    -0.036 A 
ATOM    110  H   UNL A   1      39.046  26.679  29.188  1.00  0.00     0.065 H 
ATOM    111  C   UNL A   1      39.132  29.717  30.415  1.00  0.00     0.049 A 
ATOM    112  H   UNL A   1      41.198  30.026  30.273  1.00  0.00     0.167 HD
ATOM    113  C   UNL A   1      45.159  31.186  28.849  1.00  0.00     0.037 A 
ATOM    114  H   UNL A   1      44.642  30.262  26.132  1.00  0.00     0.065 H 
ATOM    115  H   UNL A   1      37.400  28.349  30.195  1.00  0.00     0.065 H 
ATOM    116  C   UNL A   1      38.666  30.882  30.920  1.00  0.00     0.037 A 
ATOM    117  C   UNL A   1      45.337  31.037  30.264  1.00  0.00     0.049 A 
ATOM    118  C   UNL A   1      39.817  31.636  31.467  1.00  0.00     0.074 A 
ATOM    119  C   UNL A   1      45.994  30.142  31.081  1.00  0.00    -0.036 A 
ATOM    120  N   UNL A   1      44.522  31.774  31.079  1.00  0.00    -0.354 N 
ATOM    121  N   UNL A   1      40.498  31.285  32.521  1.00  0.00    -0.248 NA
ATOM    122  C   UNL A   1      40.441  32.654  30.634  1.00  0.00    -0.034 C 
ATOM    123  C   UNL A   1      45.233  30.103  32.286  1.00  0.00    -0.036 A 
ATOM    124  H   UNL A   1      46.854  29.613  30.865  1.00  0.00     0.065 H 
ATOM    125  C   UNL A   1      44.164  30.987  32.142  1.00  0.00     0.049 A 
ATOM    126  H   UNL A   1      44.243  32.706  30.930  1.00  0.00     0.167 HD
ATOM    127  C   UNL A   1      41.788  31.715  32.264  1.00  0.00     0.074 A 
ATOM    128  C   UNL A   1      41.659  32.677  31.179  1.00  0.00    -0.034 C 
ATOM    129  H   UNL A   1      40.053  33.200  29.849  1.00  0.00     0.065 H 
ATOM    130  H   UNL A   1      45.438  29.524  33.116  1.00  0.00     0.065 H 
ATOM    131  C   UNL A   1      42.861  31.038  32.765  1.00  0.00     0.037 A 
ATOM    132  H   UNL A   1      42.418  33.302  30.867  1.00  0.00     0.065 H 
BRANCH 113 133
ATOM    133  C   UNL A   1      45.469  32.477  28.139  1.00  0.00     0.064 A 
ATOM    134  C   UNL A   1      44.443  33.406  27.874  1.00  0.00     0.173 A 
ATOM    135  C   UNL A   1      46.683  32.691  27.454  1.00  0.00     0.173 A 
ATOM    136  F   UNL A   1      43.234  33.266  28.438  1.00  0.00    -0.203 F 
ATOM    137  C   UNL A   1      44.615  34.452  26.962  1.00  0.00     0.198 A 
ATOM    138  C   UNL A   1      46.868  33.764  26.583  1.00  0.00     0.198 A 
ATOM    139  F   UNL A   1      47.691  31.810  27.519  1.00  0.00    -0.203 F 
ATOM    140  F   UNL A   1      43.584  35.252  26.662  1.00  0.00    -0.200 F 
ATOM    141  C   UNL A   1      45.828  34.630  26.318  1.00  0.00     0.200 A 
ATOM    142  F   UNL A   1      48.040  33.903  25.947  1.00  0.00    -0.200 F 
ATOM    143  F   UNL A   1      45.979  35.602  25.409  1.00  0.00    -0.200 F 
ENDBRANCH 113 133
BRANCH 116 144
ATOM    144  C   UNL A   1      37.348  31.512  30.686  1.00  0.00     0.064 A 
ATOM    145  C   UNL A   1      36.369  31.524  31.692  1.00  0.00     0.173 A 
ATOM    146  C   UNL A   1      37.125  32.357  29.581  1.00  0.00     0.173 A 
ATOM    147  F   UNL A   1      36.527  30.779  32.796  1.00  0.00    -0.203 F 
ATOM    148  C   UNL A   1      35.252  32.361  31.615  1.00  0.00     0.198 A 
ATOM    149  C   UNL A   1      36.004  33.182  29.500  1.00  0.00     0.198 A 
ATOM    150  F   UNL A   1      38.038  32.476  28.607  1.00  0.00    -0.203 F 
ATOM    151  F   UNL A   1      34.377  32.401  32.630  1.00  0.00    -0.200 F 
ATOM    152  C   UNL A   1      35.077  33.197  30.525  1.00  0.00     0.200 A 
ATOM    153  F   UNL A   1      35.864  34.011  28.455  1.00  0.00    -0.200 F 
ATOM    154  F   UNL A   1      34.042  34.048  30.482  1.00  0.00    -0.200 F 
ENDBRANCH 116 144
BRANCH 131 155
ATOM    155  C   UNL A   1      42.606  30.078  33.892  1.00  0.00     0.064 A 
ATOM    156  C   UNL A   1      42.128  28.769  33.717  1.00  0.00     0.173 A 
ATOM    157  C   UNL A   1      42.977  30.464  35.188  1.00  0.00     0.173 A 
ATOM    158  F   UNL A   1      41.850  28.294  32.496  1.00  0.00    -0.203 F 
ATOM    159  C   UNL A   1      41.980  27.905  34.801  1.00  0.00     0.198 A 
ATOM    160  C   UNL A   1      42.867  29.585  36.261  1.00  0.00     0.198 A 
ATOM    161  F   UNL A   1      43.495  31.683  35.404  1.00  0.00    -0.203 F 
ATOM    162  F   UNL A   1      41.505  26.665  34.612  1.00  0.00    -0.200 F 
ATOM    163  C   UNL A   1      42.357  28.312  36.070  1.00  0.00     0.200 A 
ATOM    164  F   UNL A   1      43.280  29.966  37.478  1.00  0.00    -0.200 F 
ATOM    165  F   UNL A   1      42.255  27.466  37.105  1.00  0.00    -0.200 F 
ENDBRANCH 131 155
ENDBRANCH  96  99
ENDBRANCH  86  89
ENDBRANCH  82  85
ENDBRANCH  79  82
ENDBRANCH  76  79
ENDBRANCH  73  76
ENDBRANCH   1  73
TORSDOF 27
ENDMDL
MODEL 5
REMARK VINA RESULT:     -11.0      1.258      2.277
REMARK SMILES CC(C)c1ccc2c(c1)c(SC(C)(C)C)c(CC(C)(C)C(=O)NCCCCCCNC(=O)c1ccc(-c3c4nc(c(-c5c(F)c(F)c(F)c(F)c5F)c5ccc([nH]5)c(-c5c(F)c(F)c(F)c(F)c5F)c5nc(c(-c6c(F)c(F)c(F)c(F)c6F)c6ccc3[nH]6)C=C5)C=C4)cc1)n2Cc1ccc(Cl)cc1
REMARK SMILES IDX 25 1 24 4 23 7 21 8 22 9 18 11 17 12 16 15 4 16 5 17 9 18
REMARK SMILES IDX 6 19 8 21 7 23 10 25 96 26 2 27 1 29 3 33 11 37 12 38 13 39
REMARK SMILES IDX 14 43 15 47 97 51 98 54 99 55 104 56 100 57 103 59 101 61
REMARK SMILES IDX 102 64 19 65 20 69 26 73 27 76 28 79 29 82 30 85 31 86 32 88
REMARK SMILES IDX 33 89 34 90 95 91 35 92 94 94 36 96 37 99 38 100 88 101
REMARK SMILES IDX 39 102 93 103 87 104 89 105 40 106 92 107 86 109 85 111
REMARK SMILES IDX 41 113 73 116 53 117 72 118 54 119 57 120 71 121 90 122
REMARK SMILES IDX 55 123 56 125 70 127 91 128 58 131 42 133 43 134 51 135
REMARK SMILES IDX 44 136 45 137 49 138 52 139 46 140 47 141 50 142 48 143
REMARK SMILES IDX 74 144 75 145 83 146 76 147 77 148 81 149 84 150 78 151
REMARK SMILES IDX 79 152 82 153 80 154 59 155 60 156 68 157 61 158 62 159
REMARK SMILES IDX 66 160 69 161 63 162 64 163 67 164 65 165
REMARK H PARENT 25 2 25 3 24 5 24 6 23 10 17 13 17 14 5 20 9 22 6 24 2 28 1 30
REMARK H PARENT 1 31 1 32 3 34 3 35 3 36 13 40 13 41 13 42 14 44 14 45 14 46
REMARK H PARENT 15 48 15 49 15 50 97 52 97 53 99 58 104 60 100 62 103 63 19 66
REMARK H PARENT 19 67 19 68 20 70 20 71 20 72 26 74 26 75 27 77 27 78 28 80
REMARK H PARENT 28 81 29 83 29 84 30 87 34 93 95 95 35 97 94 98 93 108 87 110
REMARK H PARENT 89 112 92 114 86 115 54 124 57 126 90 129 55 130 91 132
REMARK Flexibility Score: inf
ROOT
ATOM      1  C   UNL A   1      33.249  30.743  27.010  1.00  0.00    -0.036 C 
ATOM      2  H   UNL A   1      32.432  30.629  27.692  1.00  0.00     0.028 H 
ATOM      3  H   UNL A   1      33.238  31.716  26.564  1.00  0.00     0.028 H 
ENDROOT
BRANCH   1   4
ATOM      4  C   UNL A   1      33.120  29.716  25.912  1.00  0.00     0.017 C 
ATOM      5  H   UNL A   1      33.153  30.215  24.966  1.00  0.00     0.049 H 
ATOM      6  H   UNL A   1      33.929  29.022  26.012  1.00  0.00     0.049 H 
BRANCH   4   7
ATOM      7  N   UNL A   1      31.879  28.975  26.007  1.00  0.00    -0.356 N 
ATOM      8  C   UNL A   1      31.698  27.629  26.187  1.00  0.00     0.226 C 
ATOM      9  O   UNL A   1      30.615  27.277  26.635  1.00  0.00    -0.275 OA
ATOM     10  H   UNL A   1      31.056  29.511  25.932  1.00  0.00     0.163 HD
BRANCH   8  11
ATOM     11  C   UNL A   1      32.909  26.696  26.055  1.00  0.00     0.049 C 
BRANCH  11  12
ATOM     12  C   UNL A   1      33.501  26.478  24.629  1.00  0.00     0.003 C 
ATOM     13  H   UNL A   1      32.950  27.098  23.953  1.00  0.00     0.034 H 
ATOM     14  H   UNL A   1      34.539  26.718  24.724  1.00  0.00     0.034 H 
BRANCH  12  15
ATOM     15  C   UNL A   1      33.477  25.110  24.091  1.00  0.00     0.034 A 
ATOM     16  C   UNL A   1      32.708  20.567  23.482  1.00  0.00    -0.045 A 
ATOM     17  C   UNL A   1      31.752  21.109  22.615  1.00  0.00    -0.057 A 
ATOM     18  C   UNL A   1      33.594  21.467  24.115  1.00  0.00    -0.048 A 
ATOM     19  C   UNL A   1      31.647  22.487  22.381  1.00  0.00    -0.037 A 
ATOM     20  H   UNL A   1      31.101  20.471  22.131  1.00  0.00     0.063 H 
ATOM     21  C   UNL A   1      33.511  22.873  23.919  1.00  0.00     0.014 A 
ATOM     22  H   UNL A   1      34.325  21.092  24.738  1.00  0.00     0.063 H 
ATOM     23  C   UNL A   1      32.511  23.354  23.067  1.00  0.00     0.050 A 
ATOM     24  H   UNL A   1      30.948  22.857  21.718  1.00  0.00     0.065 H 
ATOM     25  C   UNL A   1      34.228  24.004  24.465  1.00  0.00     0.037 A 
ATOM     26  N   UNL A   1      32.585  24.738  23.086  1.00  0.00    -0.339 N 
BRANCH  16  27
ATOM     27  C   UNL A   1      32.713  19.075  23.831  1.00  0.00    -0.022 C 
ATOM     28  H   UNL A   1      31.856  18.994  24.467  1.00  0.00     0.035 H 
BRANCH  27  29
ATOM     29  C   UNL A   1      32.528  18.138  22.626  1.00  0.00    -0.059 C 
ATOM     30  H   UNL A   1      32.747  18.670  21.724  1.00  0.00     0.024 H 
ATOM     31  H   UNL A   1      31.518  17.787  22.598  1.00  0.00     0.024 H 
ATOM     32  H   UNL A   1      33.193  17.305  22.718  1.00  0.00     0.024 H 
ENDBRANCH  27  29
BRANCH  27  33
ATOM     33  C   UNL A   1      33.963  18.617  24.598  1.00  0.00    -0.059 C 
ATOM     34  H   UNL A   1      34.751  18.411  23.905  1.00  0.00     0.024 H 
ATOM     35  H   UNL A   1      33.735  17.732  25.154  1.00  0.00     0.024 H 
ATOM     36  H   UNL A   1      34.272  19.390  25.270  1.00  0.00     0.024 H 
ENDBRANCH  27  33
ENDBRANCH  16  27
BRANCH  25  37
ATOM     37  S   UNL A   1      35.575  23.763  25.605  1.00  0.00    -0.118 SA
BRANCH  37  38
ATOM     38  C   UNL A   1      36.977  22.609  25.168  1.00  0.00     0.012 C 
BRANCH  38  39
ATOM     39  C   UNL A   1      38.301  23.107  25.751  1.00  0.00    -0.051 C 
ATOM     40  H   UNL A   1      38.598  24.003  25.247  1.00  0.00     0.024 H 
ATOM     41  H   UNL A   1      39.054  22.359  25.619  1.00  0.00     0.024 H 
ATOM     42  H   UNL A   1      38.178  23.309  26.794  1.00  0.00     0.024 H 
ENDBRANCH  38  39
BRANCH  38  43
ATOM     43  C   UNL A   1      36.894  21.079  25.377  1.00  0.00    -0.051 C 
ATOM     44  H   UNL A   1      36.967  20.858  26.421  1.00  0.00     0.024 H 
ATOM     45  H   UNL A   1      37.698  20.604  24.855  1.00  0.00     0.024 H 
ATOM     46  H   UNL A   1      35.961  20.718  25.001  1.00  0.00     0.024 H 
ENDBRANCH  38  43
BRANCH  38  47
ATOM     47  C   UNL A   1      37.022  22.711  23.618  1.00  0.00    -0.051 C 
ATOM     48  H   UNL A   1      36.153  23.229  23.269  1.00  0.00     0.024 H 
ATOM     49  H   UNL A   1      37.044  21.727  23.197  1.00  0.00     0.024 H 
ATOM     50  H   UNL A   1      37.899  23.246  23.321  1.00  0.00     0.024 H 
ENDBRANCH  38  47
ENDBRANCH  37  38
ENDBRANCH  25  37
BRANCH  26  51
ATOM     51  C   UNL A   1      31.974  25.614  22.049  1.00  0.00     0.048 C 
ATOM     52  H   UNL A   1      31.436  24.981  21.376  1.00  0.00     0.055 H 
ATOM     53  H   UNL A   1      32.803  26.146  21.630  1.00  0.00     0.055 H 
BRANCH  51  54
ATOM     54  C   UNL A   1      31.018  26.706  22.502  1.00  0.00    -0.028 A 
ATOM     55  C   UNL A   1      29.873  26.394  23.265  1.00  0.00    -0.056 A 
ATOM     56  C   UNL A   1      31.221  28.052  22.155  1.00  0.00    -0.056 A 
ATOM     57  C   UNL A   1      28.875  27.346  23.499  1.00  0.00    -0.043 A 
ATOM     58  H   UNL A   1      29.771  25.446  23.659  1.00  0.00     0.063 H 
ATOM     59  C   UNL A   1      30.243  29.020  22.436  1.00  0.00    -0.043 A 
ATOM     60  H   UNL A   1      32.098  28.331  21.688  1.00  0.00     0.063 H 
ATOM     61  C   UNL A   1      29.054  28.651  23.059  1.00  0.00     0.041 A 
ATOM     62  H   UNL A   1      28.010  27.078  23.996  1.00  0.00     0.064 H 
ATOM     63  H   UNL A   1      30.407  30.007  22.181  1.00  0.00     0.064 H 
ATOM     64  Cl  UNL A   1      27.784  29.796  23.254  1.00  0.00    -0.084 Cl
ENDBRANCH  51  54
ENDBRANCH  26  51
ENDBRANCH  12  15
ENDBRANCH  11  12
BRANCH  11  65
ATOM     65  C   UNL A   1      32.250  25.411  26.614  1.00  0.00    -0.051 C 
ATOM     66  H   UNL A   1      32.315  24.631  25.884  1.00  0.00     0.024 H 
ATOM     67  H   UNL A   1      31.223  25.605  26.839  1.00  0.00     0.024 H 
ATOM     68  H   UNL A   1      32.760  25.108  27.504  1.00  0.00     0.024 H 
ENDBRANCH  11  65
BRANCH  11  69
ATOM     69  C   UNL A   1      34.116  27.325  26.813  1.00  0.00    -0.051 C 
ATOM     70  H   UNL A   1      33.879  27.413  27.853  1.00  0.00     0.024 H 
ATOM     71  H   UNL A   1      34.324  28.296  26.411  1.00  0.00     0.024 H 
ATOM     72  H   UNL A   1      34.977  26.700  26.696  1.00  0.00     0.024 H 
ENDBRANCH  11  69
ENDBRANCH   8  11
ENDBRANCH   4   7
ENDBRANCH   1   4
BRANCH   1  73
ATOM     73  C   UNL A   1      34.556  30.580  27.771  1.00  0.00    -0.052 C 
ATOM     74  H   UNL A   1      35.050  29.703  27.408  1.00  0.00     0.027 H 
ATOM     75  H   UNL A   1      34.303  30.510  28.809  1.00  0.00     0.027 H 
BRANCH  73  76
ATOM     76  C   UNL A   1      35.514  31.769  27.625  1.00  0.00    -0.052 C 
ATOM     77  H   UNL A   1      35.871  31.786  26.616  1.00  0.00     0.027 H 
ATOM     78  H   UNL A   1      36.289  31.621  28.347  1.00  0.00     0.027 H 
BRANCH  76  79
ATOM     79  C   UNL A   1      34.895  33.139  27.934  1.00  0.00    -0.036 C 
ATOM     80  H   UNL A   1      33.839  33.014  28.055  1.00  0.00     0.028 H 
ATOM     81  H   UNL A   1      35.137  33.785  27.116  1.00  0.00     0.028 H 
BRANCH  79  82
ATOM     82  C   UNL A   1      35.451  33.795  29.199  1.00  0.00     0.018 C 
ATOM     83  H   UNL A   1      35.204  34.836  29.180  1.00  0.00     0.049 H 
ATOM     84  H   UNL A   1      36.510  33.636  29.203  1.00  0.00     0.049 H 
BRANCH  82  85
ATOM     85  N   UNL A   1      34.921  33.218  30.412  1.00  0.00    -0.352 N 
ATOM     86  C   UNL A   1      35.347  32.251  31.275  1.00  0.00     0.251 C 
ATOM     87  H   UNL A   1      34.058  33.610  30.677  1.00  0.00     0.163 HD
ATOM     88  O   UNL A   1      34.575  31.953  32.188  1.00  0.00    -0.269 OA
BRANCH  86  89
ATOM     89  C   UNL A   1      36.640  31.528  31.161  1.00  0.00     0.039 A 
ATOM     90  C   UNL A   1      37.906  32.105  31.262  1.00  0.00    -0.049 A 
ATOM     91  C   UNL A   1      36.549  30.143  30.937  1.00  0.00    -0.049 A 
ATOM     92  C   UNL A   1      39.050  31.344  31.066  1.00  0.00    -0.053 A 
ATOM     93  H   UNL A   1      37.992  33.108  31.486  1.00  0.00     0.063 H 
ATOM     94  C   UNL A   1      37.691  29.367  30.785  1.00  0.00    -0.053 A 
ATOM     95  H   UNL A   1      35.621  29.696  30.886  1.00  0.00     0.063 H 
ATOM     96  C   UNL A   1      38.943  29.979  30.811  1.00  0.00    -0.014 A 
ATOM     97  H   UNL A   1      39.980  31.789  31.109  1.00  0.00     0.063 H 
ATOM     98  H   UNL A   1      37.614  28.346  30.652  1.00  0.00     0.063 H 
BRANCH  96  99
ATOM     99  C   UNL A   1      40.184  29.224  30.672  1.00  0.00     0.031 A 
ATOM    100  C   UNL A   1      40.958  29.007  31.931  1.00  0.00     0.074 A 
ATOM    101  C   UNL A   1      40.559  28.649  29.514  1.00  0.00     0.049 A 
ATOM    102  N   UNL A   1      42.202  29.275  32.174  1.00  0.00    -0.248 NA
ATOM    103  C   UNL A   1      40.224  28.472  33.091  1.00  0.00    -0.034 C 
ATOM    104  C   UNL A   1      39.779  28.532  28.279  1.00  0.00    -0.036 A 
ATOM    105  N   UNL A   1      41.690  27.940  29.239  1.00  0.00    -0.354 N 
ATOM    106  C   UNL A   1      42.450  28.816  33.467  1.00  0.00     0.074 A 
ATOM    107  C   UNL A   1      41.181  28.416  34.017  1.00  0.00    -0.034 C 
ATOM    108  H   UNL A   1      39.229  28.211  33.167  1.00  0.00     0.065 H 
ATOM    109  C   UNL A   1      40.355  27.609  27.478  1.00  0.00    -0.036 A 
ATOM    110  H   UNL A   1      38.927  29.069  28.055  1.00  0.00     0.065 H 
ATOM    111  C   UNL A   1      41.604  27.180  28.083  1.00  0.00     0.049 A 
ATOM    112  H   UNL A   1      42.493  27.965  29.808  1.00  0.00     0.167 HD
ATOM    113  C   UNL A   1      43.707  28.626  33.950  1.00  0.00     0.037 A 
ATOM    114  H   UNL A   1      41.032  28.124  34.996  1.00  0.00     0.065 H 
ATOM    115  H   UNL A   1      39.971  27.265  26.585  1.00  0.00     0.065 H 
ATOM    116  C   UNL A   1      42.460  26.206  27.695  1.00  0.00     0.037 A 
ATOM    117  C   UNL A   1      44.698  29.330  33.189  1.00  0.00     0.049 A 
ATOM    118  C   UNL A   1      43.740  26.411  28.410  1.00  0.00     0.074 A 
ATOM    119  C   UNL A   1      45.016  30.655  32.981  1.00  0.00    -0.036 A 
ATOM    120  N   UNL A   1      45.389  28.617  32.247  1.00  0.00    -0.354 N 
ATOM    121  N   UNL A   1      44.553  27.408  28.204  1.00  0.00    -0.248 NA
ATOM    122  C   UNL A   1      43.984  25.651  29.628  1.00  0.00    -0.034 C 
ATOM    123  C   UNL A   1      45.553  30.712  31.662  1.00  0.00    -0.036 A 
ATOM    124  H   UNL A   1      44.891  31.439  33.641  1.00  0.00     0.065 H 
ATOM    125  C   UNL A   1      45.546  29.416  31.145  1.00  0.00     0.049 A 
ATOM    126  H   UNL A   1      45.716  27.694  32.344  1.00  0.00     0.167 HD
ATOM    127  C   UNL A   1      45.126  27.655  29.439  1.00  0.00     0.074 A 
ATOM    128  C   UNL A   1      44.863  26.458  30.226  1.00  0.00    -0.034 C 
ATOM    129  H   UNL A   1      43.591  24.749  29.940  1.00  0.00     0.065 H 
ATOM    130  H   UNL A   1      45.887  31.559  31.177  1.00  0.00     0.065 H 
ATOM    131  C   UNL A   1      45.509  28.916  29.789  1.00  0.00     0.037 A 
ATOM    132  H   UNL A   1      45.302  26.258  31.137  1.00  0.00     0.065 H 
BRANCH 113 133
ATOM    133  C   UNL A   1      44.076  27.533  34.918  1.00  0.00     0.064 A 
ATOM    134  C   UNL A   1      43.961  26.181  34.541  1.00  0.00     0.173 A 
ATOM    135  C   UNL A   1      44.254  27.773  36.298  1.00  0.00     0.173 A 
ATOM    136  F   UNL A   1      43.742  25.846  33.261  1.00  0.00    -0.203 F 
ATOM    137  C   UNL A   1      43.989  25.149  35.484  1.00  0.00     0.198 A 
ATOM    138  C   UNL A   1      44.332  26.740  37.229  1.00  0.00     0.198 A 
ATOM    139  F   UNL A   1      44.248  29.015  36.801  1.00  0.00    -0.203 F 
ATOM    140  F   UNL A   1      43.775  23.885  35.096  1.00  0.00    -0.200 F 
ATOM    141  C   UNL A   1      44.175  25.429  36.827  1.00  0.00     0.200 A 
ATOM    142  F   UNL A   1      44.484  27.032  38.529  1.00  0.00    -0.200 F 
ATOM    143  F   UNL A   1      44.155  24.446  37.737  1.00  0.00    -0.200 F 
ENDBRANCH 113 133
BRANCH 116 144
ATOM    144  C   UNL A   1      42.143  24.948  26.984  1.00  0.00     0.064 A 
ATOM    145  C   UNL A   1      42.835  24.588  25.818  1.00  0.00     0.173 A 
ATOM    146  C   UNL A   1      41.361  23.942  27.587  1.00  0.00     0.173 A 
ATOM    147  F   UNL A   1      43.635  25.474  25.207  1.00  0.00    -0.203 F 
ATOM    148  C   UNL A   1      42.778  23.288  25.305  1.00  0.00     0.198 A 
ATOM    149  C   UNL A   1      41.295  22.650  27.067  1.00  0.00     0.198 A 
ATOM    150  F   UNL A   1      40.726  24.164  28.747  1.00  0.00    -0.203 F 
ATOM    151  F   UNL A   1      43.513  22.962  24.232  1.00  0.00    -0.200 F 
ATOM    152  C   UNL A   1      42.018  22.318  25.937  1.00  0.00     0.200 A 
ATOM    153  F   UNL A   1      40.582  21.713  27.708  1.00  0.00    -0.200 F 
ATOM    154  F   UNL A   1      42.015  21.057  25.485  1.00  0.00    -0.200 F 
ENDBRANCH 116 144
BRANCH 131 155
ATOM    155  C   UNL A   1      45.652  29.925  28.687  1.00  0.00     0.064 A 
ATOM    156  C   UNL A   1      44.591  30.697  28.184  1.00  0.00     0.173 A 
ATOM    157  C   UNL A   1      46.939  30.203  28.205  1.00  0.00     0.173 A 
ATOM    158  F   UNL A   1      43.350  30.561  28.668  1.00  0.00    -0.203 F 
ATOM    159  C   UNL A   1      44.806  31.668  27.208  1.00  0.00     0.198 A 
ATOM    160  C   UNL A   1      47.156  31.201  27.260  1.00  0.00     0.198 A 
ATOM    161  F   UNL A   1      47.997  29.536  28.692  1.00  0.00    -0.203 F 
ATOM    162  F   UNL A   1      43.776  32.382  26.731  1.00  0.00    -0.200 F 
ATOM    163  C   UNL A   1      46.089  31.923  26.752  1.00  0.00     0.200 A 
ATOM    164  F   UNL A   1      48.405  31.479  26.860  1.00  0.00    -0.200 F 
ATOM    165  F   UNL A   1      46.301  32.886  25.844  1.00  0.00    -0.200 F 
ENDBRANCH 131 155
ENDBRANCH  96  99
ENDBRANCH  86  89
ENDBRANCH  82  85
ENDBRANCH  79  82
ENDBRANCH  76  79
ENDBRANCH  73  76
ENDBRANCH   1  73
TORSDOF 27
ENDMDL
MODEL 6
REMARK VINA RESULT:     -11.0      3.158      8.808
REMARK SMILES CC(C)c1ccc2c(c1)c(SC(C)(C)C)c(CC(C)(C)C(=O)NCCCCCCNC(=O)c1ccc(-c3c4nc(c(-c5c(F)c(F)c(F)c(F)c5F)c5ccc([nH]5)c(-c5c(F)c(F)c(F)c(F)c5F)c5nc(c(-c6c(F)c(F)c(F)c(F)c6F)c6ccc3[nH]6)C=C5)C=C4)cc1)n2Cc1ccc(Cl)cc1
REMARK SMILES IDX 25 1 24 4 23 7 21 8 22 9 18 11 17 12 16 15 4 16 5 17 9 18
REMARK SMILES IDX 6 19 8 21 7 23 10 25 96 26 2 27 1 29 3 33 11 37 12 38 13 39
REMARK SMILES IDX 14 43 15 47 97 51 98 54 99 55 104 56 100 57 103 59 101 61
REMARK SMILES IDX 102 64 19 65 20 69 26 73 27 76 28 79 29 82 30 85 31 86 32 88
REMARK SMILES IDX 33 89 34 90 95 91 35 92 94 94 36 96 37 99 38 100 88 101
REMARK SMILES IDX 39 102 93 103 87 104 89 105 40 106 92 107 86 109 85 111
REMARK SMILES IDX 41 113 73 116 53 117 72 118 54 119 57 120 71 121 90 122
REMARK SMILES IDX 55 123 56 125 70 127 91 128 58 131 42 133 43 134 51 135
REMARK SMILES IDX 44 136 45 137 49 138 52 139 46 140 47 141 50 142 48 143
REMARK SMILES IDX 74 144 75 145 83 146 76 147 77 148 81 149 84 150 78 151
REMARK SMILES IDX 79 152 82 153 80 154 59 155 60 156 68 157 61 158 62 159
REMARK SMILES IDX 66 160 69 161 63 162 64 163 67 164 65 165
REMARK H PARENT 25 2 25 3 24 5 24 6 23 10 17 13 17 14 5 20 9 22 6 24 2 28 1 30
REMARK H PARENT 1 31 1 32 3 34 3 35 3 36 13 40 13 41 13 42 14 44 14 45 14 46
REMARK H PARENT 15 48 15 49 15 50 97 52 97 53 99 58 104 60 100 62 103 63 19 66
REMARK H PARENT 19 67 19 68 20 70 20 71 20 72 26 74 26 75 27 77 27 78 28 80
REMARK H PARENT 28 81 29 83 29 84 30 87 34 93 95 95 35 97 94 98 93 108 87 110
REMARK H PARENT 89 112 92 114 86 115 54 124 57 126 90 129 55 130 91 132
REMARK Flexibility Score: inf
ROOT
ATOM      1  C   UNL A   1      39.629  21.834  25.989  1.00  0.00    -0.036 C 
ATOM      2  H   UNL A   1      40.173  22.407  25.267  1.00  0.00     0.028 H 
ATOM      3  H   UNL A   1      39.485  20.831  25.647  1.00  0.00     0.028 H 
ENDROOT
BRANCH   1   4
ATOM      4  C   UNL A   1      38.274  22.465  26.197  1.00  0.00     0.017 C 
ATOM      5  H   UNL A   1      38.090  22.551  27.248  1.00  0.00     0.049 H 
ATOM      6  H   UNL A   1      38.282  23.427  25.726  1.00  0.00     0.049 H 
BRANCH   4   7
ATOM      7  N   UNL A   1      37.214  21.682  25.598  1.00  0.00    -0.356 N 
ATOM      8  C   UNL A   1      36.032  22.115  25.056  1.00  0.00     0.226 C 
ATOM      9  O   UNL A   1      35.485  21.359  24.263  1.00  0.00    -0.275 OA
ATOM     10  H   UNL A   1      37.362  20.708  25.579  1.00  0.00     0.163 HD
BRANCH   8  11
ATOM     11  C   UNL A   1      35.609  23.573  25.274  1.00  0.00     0.049 C 
BRANCH  11  12
ATOM     12  C   UNL A   1      34.531  23.856  26.365  1.00  0.00     0.003 C 
ATOM     13  H   UNL A   1      34.236  22.915  26.778  1.00  0.00     0.034 H 
ATOM     14  H   UNL A   1      35.004  24.527  27.050  1.00  0.00     0.034 H 
BRANCH  12  15
ATOM     15  C   UNL A   1      33.308  24.553  25.938  1.00  0.00     0.034 A 
ATOM     16  C   UNL A   1      30.119  26.870  23.476  1.00  0.00    -0.045 A 
ATOM     17  C   UNL A   1      29.613  25.567  23.394  1.00  0.00    -0.057 A 
ATOM     18  C   UNL A   1      31.254  27.074  24.292  1.00  0.00    -0.048 A 
ATOM     19  C   UNL A   1      30.200  24.490  24.071  1.00  0.00    -0.037 A 
ATOM     20  H   UNL A   1      28.777  25.395  22.814  1.00  0.00     0.063 H 
ATOM     21  C   UNL A   1      31.891  26.006  24.983  1.00  0.00     0.014 A 
ATOM     22  H   UNL A   1      31.632  28.028  24.390  1.00  0.00     0.063 H 
ATOM     23  C   UNL A   1      31.356  24.722  24.831  1.00  0.00     0.050 A 
ATOM     24  H   UNL A   1      29.791  23.545  24.010  1.00  0.00     0.065 H 
ATOM     25  C   UNL A   1      33.067  25.914  25.818  1.00  0.00     0.037 A 
ATOM     26  N   UNL A   1      32.174  23.851  25.534  1.00  0.00    -0.339 N 
BRANCH  16  27
ATOM     27  C   UNL A   1      29.548  28.003  22.617  1.00  0.00    -0.022 C 
ATOM     28  H   UNL A   1      29.443  27.527  21.665  1.00  0.00     0.035 H 
BRANCH  27  29
ATOM     29  C   UNL A   1      28.172  28.516  23.072  1.00  0.00    -0.059 C 
ATOM     30  H   UNL A   1      27.481  27.700  23.104  1.00  0.00     0.024 H 
ATOM     31  H   UNL A   1      27.820  29.255  22.381  1.00  0.00     0.024 H 
ATOM     32  H   UNL A   1      28.257  28.950  24.045  1.00  0.00     0.024 H 
ENDBRANCH  27  29
BRANCH  27  33
ATOM     33  C   UNL A   1      30.483  29.215  22.481  1.00  0.00    -0.059 C 
ATOM     34  H   UNL A   1      31.387  29.031  23.022  1.00  0.00     0.024 H 
ATOM     35  H   UNL A   1      30.000  30.083  22.878  1.00  0.00     0.024 H 
ATOM     36  H   UNL A   1      30.711  29.376  21.448  1.00  0.00     0.024 H 
ENDBRANCH  27  33
ENDBRANCH  16  27
BRANCH  25  37
ATOM     37  S   UNL A   1      34.015  27.369  26.218  1.00  0.00    -0.118 SA
BRANCH  37  38
ATOM     38  C   UNL A   1      33.144  28.967  26.639  1.00  0.00     0.012 C 
BRANCH  38  39
ATOM     39  C   UNL A   1      31.806  28.697  27.332  1.00  0.00    -0.051 C 
ATOM     40  H   UNL A   1      31.290  27.913  26.818  1.00  0.00     0.024 H 
ATOM     41  H   UNL A   1      31.211  29.585  27.317  1.00  0.00     0.024 H 
ATOM     42  H   UNL A   1      31.983  28.402  28.346  1.00  0.00     0.024 H 
ENDBRANCH  38  39
BRANCH  38  43
ATOM     43  C   UNL A   1      33.848  30.133  27.370  1.00  0.00    -0.051 C 
ATOM     44  H   UNL A   1      34.043  29.853  28.383  1.00  0.00     0.024 H 
ATOM     45  H   UNL A   1      33.217  30.997  27.354  1.00  0.00     0.024 H 
ATOM     46  H   UNL A   1      34.771  30.356  26.878  1.00  0.00     0.024 H 
ENDBRANCH  38  43
BRANCH  38  47
ATOM     47  C   UNL A   1      32.886  29.586  25.237  1.00  0.00    -0.051 C 
ATOM     48  H   UNL A   1      32.419  30.542  25.350  1.00  0.00     0.024 H 
ATOM     49  H   UNL A   1      32.243  28.940  24.676  1.00  0.00     0.024 H 
ATOM     50  H   UNL A   1      33.816  29.702  24.721  1.00  0.00     0.024 H 
ENDBRANCH  38  47
ENDBRANCH  37  38
ENDBRANCH  25  37
BRANCH  26  51
ATOM     51  C   UNL A   1      31.762  22.482  25.948  1.00  0.00     0.048 C 
ATOM     52  H   UNL A   1      30.692  22.471  25.990  1.00  0.00     0.055 H 
ATOM     53  H   UNL A   1      32.268  22.322  26.876  1.00  0.00     0.055 H 
BRANCH  51  54
ATOM     54  C   UNL A   1      32.188  21.309  25.080  1.00  0.00    -0.028 A 
ATOM     55  C   UNL A   1      32.075  21.369  23.675  1.00  0.00    -0.056 A 
ATOM     56  C   UNL A   1      32.679  20.118  25.642  1.00  0.00    -0.056 A 
ATOM     57  C   UNL A   1      32.252  20.230  22.883  1.00  0.00    -0.043 A 
ATOM     58  H   UNL A   1      31.859  22.271  23.224  1.00  0.00     0.063 H 
ATOM     59  C   UNL A   1      32.909  18.988  24.841  1.00  0.00    -0.043 A 
ATOM     60  H   UNL A   1      32.873  20.075  26.655  1.00  0.00     0.063 H 
ATOM     61  C   UNL A   1      32.644  19.036  23.474  1.00  0.00     0.041 A 
ATOM     62  H   UNL A   1      32.092  20.278  21.864  1.00  0.00     0.064 H 
ATOM     63  H   UNL A   1      33.274  18.121  25.265  1.00  0.00     0.064 H 
ATOM     64  Cl  UNL A   1      32.760  17.610  22.517  1.00  0.00    -0.084 Cl
ENDBRANCH  51  54
ENDBRANCH  26  51
ENDBRANCH  12  15
ENDBRANCH  11  12
BRANCH  11  65
ATOM     65  C   UNL A   1      35.081  23.858  23.847  1.00  0.00    -0.051 C 
ATOM     66  H   UNL A   1      34.040  23.616  23.796  1.00  0.00     0.024 H 
ATOM     67  H   UNL A   1      35.620  23.263  23.140  1.00  0.00     0.024 H 
ATOM     68  H   UNL A   1      35.217  24.894  23.617  1.00  0.00     0.024 H 
ENDBRANCH  11  65
BRANCH  11  69
ATOM     69  C   UNL A   1      36.830  24.379  25.810  1.00  0.00    -0.051 C 
ATOM     70  H   UNL A   1      36.917  24.234  26.867  1.00  0.00     0.024 H 
ATOM     71  H   UNL A   1      36.690  25.420  25.602  1.00  0.00     0.024 H 
ATOM     72  H   UNL A   1      37.723  24.037  25.329  1.00  0.00     0.024 H 
ENDBRANCH  11  69
ENDBRANCH   8  11
ENDBRANCH   4   7
ENDBRANCH   1   4
BRANCH   1  73
ATOM     73  C   UNL A   1      40.424  21.788  27.285  1.00  0.00    -0.052 C 
ATOM     74  H   UNL A   1      39.734  21.772  28.103  1.00  0.00     0.027 H 
ATOM     75  H   UNL A   1      41.052  22.655  27.294  1.00  0.00     0.027 H 
BRANCH  73  76
ATOM     76  C   UNL A   1      41.346  20.569  27.407  1.00  0.00    -0.052 C 
ATOM     77  H   UNL A   1      40.921  19.902  28.129  1.00  0.00     0.027 H 
ATOM     78  H   UNL A   1      42.306  20.945  27.691  1.00  0.00     0.027 H 
BRANCH  76  79
ATOM     79  C   UNL A   1      41.558  19.787  26.103  1.00  0.00    -0.036 C 
ATOM     80  H   UNL A   1      41.462  20.466  25.282  1.00  0.00     0.028 H 
ATOM     81  H   UNL A   1      40.821  19.011  26.079  1.00  0.00     0.028 H 
BRANCH  79  82
ATOM     82  C   UNL A   1      42.925  19.107  26.010  1.00  0.00     0.018 C 
ATOM     83  H   UNL A   1      42.775  18.051  25.912  1.00  0.00     0.049 H 
ATOM     84  H   UNL A   1      43.467  19.352  26.900  1.00  0.00     0.049 H 
BRANCH  82  85
ATOM     85  N   UNL A   1      43.707  19.566  24.885  1.00  0.00    -0.352 N 
ATOM     86  C   UNL A   1      44.158  20.784  24.470  1.00  0.00     0.251 C 
ATOM     87  H   UNL A   1      43.975  18.835  24.283  1.00  0.00     0.163 HD
ATOM     88  O   UNL A   1      44.746  20.810  23.387  1.00  0.00    -0.269 OA
BRANCH  86  89
ATOM     89  C   UNL A   1      43.955  22.056  25.211  1.00  0.00     0.039 A 
ATOM     90  C   UNL A   1      43.021  23.042  24.894  1.00  0.00    -0.049 A 
ATOM     91  C   UNL A   1      44.786  22.253  26.327  1.00  0.00    -0.049 A 
ATOM     92  C   UNL A   1      42.967  24.227  25.614  1.00  0.00    -0.053 A 
ATOM     93  H   UNL A   1      42.361  22.888  24.115  1.00  0.00     0.063 H 
ATOM     94  C   UNL A   1      44.708  23.418  27.081  1.00  0.00    -0.053 A 
ATOM     95  H   UNL A   1      45.464  21.522  26.592  1.00  0.00     0.063 H 
ATOM     96  C   UNL A   1      43.822  24.422  26.697  1.00  0.00    -0.014 A 
ATOM     97  H   UNL A   1      42.295  24.964  25.348  1.00  0.00     0.063 H 
ATOM     98  H   UNL A   1      45.301  23.538  27.917  1.00  0.00     0.063 H 
BRANCH  96  99
ATOM     99  C   UNL A   1      43.676  25.664  27.449  1.00  0.00     0.031 A 
ATOM    100  C   UNL A   1      44.710  26.710  27.185  1.00  0.00     0.074 A 
ATOM    101  C   UNL A   1      42.618  25.914  28.242  1.00  0.00     0.049 A 
ATOM    102  N   UNL A   1      45.462  27.339  28.031  1.00  0.00    -0.248 NA
ATOM    103  C   UNL A   1      44.976  27.055  25.778  1.00  0.00    -0.034 C 
ATOM    104  C   UNL A   1      41.397  25.116  28.383  1.00  0.00    -0.036 A 
ATOM    105  N   UNL A   1      42.365  27.011  29.011  1.00  0.00    -0.354 N 
ATOM    106  C   UNL A   1      46.198  28.259  27.285  1.00  0.00     0.074 A 
ATOM    107  C   UNL A   1      45.928  27.980  25.898  1.00  0.00    -0.034 C 
ATOM    108  H   UNL A   1      44.540  26.679  24.921  1.00  0.00     0.065 H 
ATOM    109  C   UNL A   1      40.451  25.860  28.996  1.00  0.00    -0.036 A 
ATOM    110  H   UNL A   1      41.278  24.141  28.065  1.00  0.00     0.065 H 
ATOM    111  C   UNL A   1      41.042  27.122  29.406  1.00  0.00     0.049 A 
ATOM    112  H   UNL A   1      43.058  27.664  29.261  1.00  0.00     0.167 HD
ATOM    113  C   UNL A   1      46.849  29.310  27.852  1.00  0.00     0.037 A 
ATOM    114  H   UNL A   1      46.406  28.436  25.105  1.00  0.00     0.065 H 
ATOM    115  H   UNL A   1      39.469  25.579  29.147  1.00  0.00     0.065 H 
ATOM    116  C   UNL A   1      40.455  28.208  29.959  1.00  0.00     0.037 A 
ATOM    117  C   UNL A   1      47.059  29.130  29.258  1.00  0.00     0.049 A 
ATOM    118  C   UNL A   1      41.521  29.065  30.525  1.00  0.00     0.074 A 
ATOM    119  C   UNL A   1      47.821  28.284  30.035  1.00  0.00    -0.036 A 
ATOM    120  N   UNL A   1      46.177  29.741  30.107  1.00  0.00    -0.354 N 
ATOM    121  N   UNL A   1      42.250  28.753  31.560  1.00  0.00    -0.248 NA
ATOM    122  C   UNL A   1      42.018  30.177  29.727  1.00  0.00    -0.034 C 
ATOM    123  C   UNL A   1      47.084  28.116  31.244  1.00  0.00    -0.036 A 
ATOM    124  H   UNL A   1      48.731  27.863  29.793  1.00  0.00     0.065 H 
ATOM    125  C   UNL A   1      45.921  28.880  31.142  1.00  0.00     0.049 A 
ATOM    126  H   UNL A   1      45.795  30.641  29.996  1.00  0.00     0.167 HD
ATOM    127  C   UNL A   1      43.481  29.334  31.310  1.00  0.00     0.074 A 
ATOM    128  C   UNL A   1      43.232  30.315  30.263  1.00  0.00    -0.034 C 
ATOM    129  H   UNL A   1      41.563  30.704  28.966  1.00  0.00     0.065 H 
ATOM    130  H   UNL A   1      47.361  27.533  32.049  1.00  0.00     0.065 H 
ATOM    131  C   UNL A   1      44.628  28.762  31.777  1.00  0.00     0.037 A 
ATOM    132  H   UNL A   1      43.914  31.031  29.970  1.00  0.00     0.065 H 
BRANCH 113 133
ATOM    133  C   UNL A   1      47.005  30.653  27.189  1.00  0.00     0.064 A 
ATOM    134  C   UNL A   1      48.266  31.278  27.138  1.00  0.00     0.173 A 
ATOM    135  C   UNL A   1      45.901  31.471  26.867  1.00  0.00     0.173 A 
ATOM    136  F   UNL A   1      49.377  30.603  27.472  1.00  0.00    -0.203 F 
ATOM    137  C   UNL A   1      48.405  32.633  26.821  1.00  0.00     0.198 A 
ATOM    138  C   UNL A   1      46.046  32.809  26.503  1.00  0.00     0.198 A 
ATOM    139  F   UNL A   1      44.641  31.035  27.001  1.00  0.00    -0.203 F 
ATOM    140  F   UNL A   1      49.610  33.213  26.884  1.00  0.00    -0.200 F 
ATOM    141  C   UNL A   1      47.294  33.397  26.503  1.00  0.00     0.200 A 
ATOM    142  F   UNL A   1      44.957  33.540  26.226  1.00  0.00    -0.200 F 
ATOM    143  F   UNL A   1      47.419  34.705  26.246  1.00  0.00    -0.200 F 
ENDBRANCH 113 133
BRANCH 116 144
ATOM    144  C   UNL A   1      39.072  28.695  29.759  1.00  0.00     0.064 A 
ATOM    145  C   UNL A   1      38.210  28.877  30.851  1.00  0.00     0.173 A 
ATOM    146  C   UNL A   1      38.663  29.260  28.534  1.00  0.00     0.173 A 
ATOM    147  F   UNL A   1      38.546  28.407  32.061  1.00  0.00    -0.203 F 
ATOM    148  C   UNL A   1      37.026  29.612  30.734  1.00  0.00     0.198 A 
ATOM    149  C   UNL A   1      37.476  29.982  28.416  1.00  0.00     0.198 A 
ATOM    150  F   UNL A   1      39.454  29.209  27.452  1.00  0.00    -0.203 F 
ATOM    151  F   UNL A   1      36.266  29.829  31.817  1.00  0.00    -0.200 F 
ATOM    152  C   UNL A   1      36.667  30.173  29.520  1.00  0.00     0.200 A 
ATOM    153  F   UNL A   1      37.158  30.548  27.243  1.00  0.00    -0.200 F 
ATOM    154  F   UNL A   1      35.568  30.933  29.423  1.00  0.00    -0.200 F 
ENDBRANCH 116 144
BRANCH 131 155
ATOM    155  C   UNL A   1      44.495  27.739  32.868  1.00  0.00     0.064 A 
ATOM    156  C   UNL A   1      44.285  26.369  32.640  1.00  0.00     0.173 A 
ATOM    157  C   UNL A   1      44.708  28.150  34.191  1.00  0.00     0.173 A 
ATOM    158  F   UNL A   1      44.175  25.886  31.396  1.00  0.00    -0.203 F 
ATOM    159  C   UNL A   1      44.242  25.461  33.696  1.00  0.00     0.198 A 
ATOM    160  C   UNL A   1      44.704  27.235  35.240  1.00  0.00     0.198 A 
ATOM    161  F   UNL A   1      44.971  29.438  34.461  1.00  0.00    -0.203 F 
ATOM    162  F   UNL A   1      44.023  24.160  33.456  1.00  0.00    -0.200 F 
ATOM    163  C   UNL A   1      44.458  25.894  34.994  1.00  0.00     0.200 A 
ATOM    164  F   UNL A   1      44.965  27.651  36.487  1.00  0.00    -0.200 F 
ATOM    165  F   UNL A   1      44.459  25.015  36.005  1.00  0.00    -0.200 F 
ENDBRANCH 131 155
ENDBRANCH  96  99
ENDBRANCH  86  89
ENDBRANCH  82  85
ENDBRANCH  79  82
ENDBRANCH  76  79
ENDBRANCH  73  76
ENDBRANCH   1  73
TORSDOF 27
ENDMDL
MODEL 7
REMARK VINA RESULT:     -10.9      2.331      3.453
REMARK SMILES CC(C)c1ccc2c(c1)c(SC(C)(C)C)c(CC(C)(C)C(=O)NCCCCCCNC(=O)c1ccc(-c3c4nc(c(-c5c(F)c(F)c(F)c(F)c5F)c5ccc([nH]5)c(-c5c(F)c(F)c(F)c(F)c5F)c5nc(c(-c6c(F)c(F)c(F)c(F)c6F)c6ccc3[nH]6)C=C5)C=C4)cc1)n2Cc1ccc(Cl)cc1
REMARK SMILES IDX 25 1 24 4 23 7 21 8 22 9 18 11 17 12 16 15 4 16 5 17 9 18
REMARK SMILES IDX 6 19 8 21 7 23 10 25 96 26 2 27 1 29 3 33 11 37 12 38 13 39
REMARK SMILES IDX 14 43 15 47 97 51 98 54 99 55 104 56 100 57 103 59 101 61
REMARK SMILES IDX 102 64 19 65 20 69 26 73 27 76 28 79 29 82 30 85 31 86 32 88
REMARK SMILES IDX 33 89 34 90 95 91 35 92 94 94 36 96 37 99 38 100 88 101
REMARK SMILES IDX 39 102 93 103 87 104 89 105 40 106 92 107 86 109 85 111
REMARK SMILES IDX 41 113 73 116 53 117 72 118 54 119 57 120 71 121 90 122
REMARK SMILES IDX 55 123 56 125 70 127 91 128 58 131 42 133 43 134 51 135
REMARK SMILES IDX 44 136 45 137 49 138 52 139 46 140 47 141 50 142 48 143
REMARK SMILES IDX 74 144 75 145 83 146 76 147 77 148 81 149 84 150 78 151
REMARK SMILES IDX 79 152 82 153 80 154 59 155 60 156 68 157 61 158 62 159
REMARK SMILES IDX 66 160 69 161 63 162 64 163 67 164 65 165
REMARK H PARENT 25 2 25 3 24 5 24 6 23 10 17 13 17 14 5 20 9 22 6 24 2 28 1 30
REMARK H PARENT 1 31 1 32 3 34 3 35 3 36 13 40 13 41 13 42 14 44 14 45 14 46
REMARK H PARENT 15 48 15 49 15 50 97 52 97 53 99 58 104 60 100 62 103 63 19 66
REMARK H PARENT 19 67 19 68 20 70 20 71 20 72 26 74 26 75 27 77 27 78 28 80
REMARK H PARENT 28 81 29 83 29 84 30 87 34 93 95 95 35 97 94 98 93 108 87 110
REMARK H PARENT 89 112 92 114 86 115 54 124 57 126 90 129 55 130 91 132
REMARK Flexibility Score: inf
ROOT
ATOM      1  C   UNL A   1      34.430  31.268  28.115  1.00  0.00    -0.036 C 
ATOM      2  H   UNL A   1      34.518  30.737  29.040  1.00  0.00     0.028 H 
ATOM      3  H   UNL A   1      33.511  31.815  28.077  1.00  0.00     0.028 H 
ENDROOT
BRANCH   1   4
ATOM      4  C   UNL A   1      34.441  30.278  26.977  1.00  0.00     0.017 C 
ATOM      5  H   UNL A   1      35.215  30.550  26.289  1.00  0.00     0.049 H 
ATOM      6  H   UNL A   1      34.613  29.304  27.387  1.00  0.00     0.049 H 
BRANCH   4   7
ATOM      7  N   UNL A   1      33.177  30.250  26.270  1.00  0.00    -0.356 N 
ATOM      8  C   UNL A   1      32.480  29.165  25.807  1.00  0.00     0.226 C 
ATOM      9  O   UNL A   1      31.283  29.326  25.612  1.00  0.00    -0.275 OA
ATOM     10  H   UNL A   1      32.764  31.127  26.101  1.00  0.00     0.163 HD
BRANCH   8  11
ATOM     11  C   UNL A   1      33.168  27.794  25.798  1.00  0.00     0.049 C 
BRANCH  11  12
ATOM     12  C   UNL A   1      33.828  27.325  24.465  1.00  0.00     0.003 C 
ATOM     13  H   UNL A   1      33.458  27.955  23.683  1.00  0.00     0.034 H 
ATOM     14  H   UNL A   1      34.880  27.390  24.642  1.00  0.00     0.034 H 
BRANCH  12  15
ATOM     15  C   UNL A   1      33.600  25.932  24.053  1.00  0.00     0.034 A 
ATOM     16  C   UNL A   1      32.287  21.476  23.918  1.00  0.00    -0.045 A 
ATOM     17  C   UNL A   1      31.308  22.058  23.103  1.00  0.00    -0.057 A 
ATOM     18  C   UNL A   1      33.326  22.312  24.382  1.00  0.00    -0.048 A 
ATOM     19  C   UNL A   1      31.329  23.417  22.762  1.00  0.00    -0.037 A 
ATOM     20  H   UNL A   1      30.546  21.465  22.742  1.00  0.00     0.063 H 
ATOM     21  C   UNL A   1      33.375  23.700  24.073  1.00  0.00     0.014 A 
ATOM     22  H   UNL A   1      34.074  21.903  24.963  1.00  0.00     0.063 H 
ATOM     23  C   UNL A   1      32.348  24.227  23.283  1.00  0.00     0.050 A 
ATOM     24  H   UNL A   1      30.607  23.814  22.140  1.00  0.00     0.065 H 
ATOM     25  C   UNL A   1      34.263  24.778  24.447  1.00  0.00     0.037 A 
ATOM     26  N   UNL A   1      32.572  25.591  23.175  1.00  0.00    -0.339 N 
BRANCH  16  27
ATOM     27  C   UNL A   1      32.168  20.024  24.394  1.00  0.00    -0.022 C 
ATOM     28  H   UNL A   1      31.134  19.964  24.665  1.00  0.00     0.035 H 
BRANCH  27  29
ATOM     29  C   UNL A   1      32.460  18.972  23.311  1.00  0.00    -0.059 C 
ATOM     30  H   UNL A   1      33.049  18.184  23.730  1.00  0.00     0.024 H 
ATOM     31  H   UNL A   1      32.995  19.429  22.504  1.00  0.00     0.024 H 
ATOM     32  H   UNL A   1      31.538  18.572  22.946  1.00  0.00     0.024 H 
ENDBRANCH  27  29
BRANCH  27  33
ATOM     33  C   UNL A   1      33.036  19.695  25.618  1.00  0.00    -0.059 C 
ATOM     34  H   UNL A   1      34.021  20.086  25.472  1.00  0.00     0.024 H 
ATOM     35  H   UNL A   1      33.089  18.634  25.742  1.00  0.00     0.024 H 
ATOM     36  H   UNL A   1      32.603  20.135  26.492  1.00  0.00     0.024 H 
ENDBRANCH  27  33
ENDBRANCH  16  27
BRANCH  25  37
ATOM     37  S   UNL A   1      35.689  24.469  25.469  1.00  0.00    -0.118 SA
BRANCH  37  38
ATOM     38  C   UNL A   1      36.743  22.957  25.173  1.00  0.00     0.012 C 
BRANCH  38  39
ATOM     39  C   UNL A   1      38.147  23.143  25.756  1.00  0.00    -0.051 C 
ATOM     40  H   UNL A   1      38.616  22.187  25.867  1.00  0.00     0.024 H 
ATOM     41  H   UNL A   1      38.077  23.619  26.711  1.00  0.00     0.024 H 
ATOM     42  H   UNL A   1      38.729  23.750  25.095  1.00  0.00     0.024 H 
ENDBRANCH  38  39
BRANCH  38  43
ATOM     43  C   UNL A   1      36.261  21.526  25.505  1.00  0.00    -0.051 C 
ATOM     44  H   UNL A   1      35.295  21.366  25.073  1.00  0.00     0.024 H 
ATOM     45  H   UNL A   1      36.202  21.406  26.566  1.00  0.00     0.024 H 
ATOM     46  H   UNL A   1      36.952  20.815  25.103  1.00  0.00     0.024 H 
ENDBRANCH  38  43
BRANCH  38  47
ATOM     47  C   UNL A   1      36.828  22.908  23.622  1.00  0.00    -0.051 C 
ATOM     48  H   UNL A   1      36.302  23.743  23.210  1.00  0.00     0.024 H 
ATOM     49  H   UNL A   1      36.387  21.999  23.270  1.00  0.00     0.024 H 
ATOM     50  H   UNL A   1      37.854  22.947  23.319  1.00  0.00     0.024 H 
ENDBRANCH  38  47
ENDBRANCH  37  38
ENDBRANCH  25  37
BRANCH  26  51
ATOM     51  C   UNL A   1      31.953  26.451  22.129  1.00  0.00     0.048 C 
ATOM     52  H   UNL A   1      31.508  25.800  21.406  1.00  0.00     0.055 H 
ATOM     53  H   UNL A   1      32.759  27.061  21.776  1.00  0.00     0.055 H 
BRANCH  51  54
ATOM     54  C   UNL A   1      30.886  27.447  22.555  1.00  0.00    -0.028 A 
ATOM     55  C   UNL A   1      29.747  27.024  23.271  1.00  0.00    -0.056 A 
ATOM     56  C   UNL A   1      30.981  28.810  22.228  1.00  0.00    -0.056 A 
ATOM     57  C   UNL A   1      28.659  27.880  23.476  1.00  0.00    -0.043 A 
ATOM     58  H   UNL A   1      29.716  26.067  23.652  1.00  0.00     0.063 H 
ATOM     59  C   UNL A   1      29.910  29.684  22.481  1.00  0.00    -0.043 A 
ATOM     60  H   UNL A   1      31.846  29.172  21.798  1.00  0.00     0.063 H 
ATOM     61  C   UNL A   1      28.737  29.202  23.055  1.00  0.00     0.041 A 
ATOM     62  H   UNL A   1      27.804  27.530  23.937  1.00  0.00     0.064 H 
ATOM     63  H   UNL A   1      29.994  30.684  22.241  1.00  0.00     0.064 H 
ATOM     64  Cl  UNL A   1      27.362  30.226  23.212  1.00  0.00    -0.084 Cl
ENDBRANCH  51  54
ENDBRANCH  26  51
ENDBRANCH  12  15
ENDBRANCH  11  12
BRANCH  11  65
ATOM     65  C   UNL A   1      31.935  26.934  26.169  1.00  0.00    -0.051 C 
ATOM     66  H   UNL A   1      31.618  27.174  27.163  1.00  0.00     0.024 H 
ATOM     67  H   UNL A   1      32.194  25.897  26.119  1.00  0.00     0.024 H 
ATOM     68  H   UNL A   1      31.139  27.136  25.483  1.00  0.00     0.024 H 
ENDBRANCH  11  65
BRANCH  11  69
ATOM     69  C   UNL A   1      34.389  27.834  26.766  1.00  0.00    -0.051 C 
ATOM     70  H   UNL A   1      34.987  26.958  26.622  1.00  0.00     0.024 H 
ATOM     71  H   UNL A   1      34.041  27.867  27.777  1.00  0.00     0.024 H 
ATOM     72  H   UNL A   1      34.977  28.705  26.562  1.00  0.00     0.024 H 
ENDBRANCH  11  69
ENDBRANCH   8  11
ENDBRANCH   4   7
ENDBRANCH   1   4
BRANCH   1  73
ATOM     73  C   UNL A   1      35.581  32.256  28.001  1.00  0.00    -0.052 C 
ATOM     74  H   UNL A   1      36.046  32.123  27.047  1.00  0.00     0.027 H 
ATOM     75  H   UNL A   1      36.245  32.053  28.815  1.00  0.00     0.027 H 
BRANCH  73  76
ATOM     76  C   UNL A   1      35.155  33.724  28.129  1.00  0.00    -0.052 C 
ATOM     77  H   UNL A   1      35.196  34.169  27.156  1.00  0.00     0.027 H 
ATOM     78  H   UNL A   1      35.830  34.173  28.828  1.00  0.00     0.027 H 
BRANCH  76  79
ATOM     79  C   UNL A   1      33.744  33.941  28.694  1.00  0.00    -0.036 C 
ATOM     80  H   UNL A   1      33.445  33.050  29.206  1.00  0.00     0.028 H 
ATOM     81  H   UNL A   1      33.107  34.169  27.865  1.00  0.00     0.028 H 
BRANCH  79  82
ATOM     82  C   UNL A   1      33.646  35.115  29.669  1.00  0.00     0.018 C 
ATOM     83  H   UNL A   1      32.892  35.789  29.316  1.00  0.00     0.049 H 
ATOM     84  H   UNL A   1      34.609  35.581  29.709  1.00  0.00     0.049 H 
BRANCH  82  85
ATOM     85  N   UNL A   1      33.305  34.706  31.011  1.00  0.00    -0.352 N 
ATOM     86  C   UNL A   1      33.921  33.949  31.964  1.00  0.00     0.251 C 
ATOM     87  H   UNL A   1      32.431  35.051  31.305  1.00  0.00     0.163 HD
ATOM     88  O   UNL A   1      33.280  33.737  32.995  1.00  0.00    -0.269 OA
BRANCH  86  89
ATOM     89  C   UNL A   1      35.272  33.349  31.821  1.00  0.00     0.039 A 
ATOM     90  C   UNL A   1      36.476  34.054  31.782  1.00  0.00    -0.049 A 
ATOM     91  C   UNL A   1      35.314  31.947  31.725  1.00  0.00    -0.049 A 
ATOM     92  C   UNL A   1      37.679  33.395  31.571  1.00  0.00    -0.053 A 
ATOM     93  H   UNL A   1      36.471  35.078  31.912  1.00  0.00     0.063 H 
ATOM     94  C   UNL A   1      36.518  31.276  31.559  1.00  0.00    -0.053 A 
ATOM     95  H   UNL A   1      34.435  31.408  31.779  1.00  0.00     0.063 H 
ATOM     96  C   UNL A   1      37.698  32.007  31.443  1.00  0.00    -0.014 A 
ATOM     97  H   UNL A   1      38.558  33.931  31.510  1.00  0.00     0.063 H 
ATOM     98  H   UNL A   1      36.539  30.244  31.521  1.00  0.00     0.063 H 
BRANCH  96  99
ATOM     99  C   UNL A   1      39.001  31.368  31.282  1.00  0.00     0.031 A 
ATOM    100  C   UNL A   1      39.813  31.223  32.527  1.00  0.00     0.074 A 
ATOM    101  C   UNL A   1      39.406  30.830  30.117  1.00  0.00     0.049 A 
ATOM    102  N   UNL A   1      41.031  31.603  32.749  1.00  0.00    -0.248 NA
ATOM    103  C   UNL A   1      39.150  30.624  33.699  1.00  0.00    -0.034 C 
ATOM    104  C   UNL A   1      38.619  30.642  28.895  1.00  0.00    -0.036 A 
ATOM    105  N   UNL A   1      40.592  30.226  29.821  1.00  0.00    -0.354 N 
ATOM    106  C   UNL A   1      41.342  31.168  34.038  1.00  0.00     0.074 A 
ATOM    107  C   UNL A   1      40.124  30.655  34.609  1.00  0.00    -0.034 C 
ATOM    108  H   UNL A   1      38.185  30.273  33.792  1.00  0.00     0.065 H 
ATOM    109  C   UNL A   1      39.263  29.775  28.084  1.00  0.00    -0.036 A 
ATOM    110  H   UNL A   1      37.718  31.100  28.687  1.00  0.00     0.065 H 
ATOM    111  C   UNL A   1      40.556  29.461  28.667  1.00  0.00     0.049 A 
ATOM    112  H   UNL A   1      41.399  30.324  30.377  1.00  0.00     0.167 HD
ATOM    113  C   UNL A   1      42.619  31.094  34.498  1.00  0.00     0.037 A 
ATOM    114  H   UNL A   1      40.019  30.351  35.590  1.00  0.00     0.065 H 
ATOM    115  H   UNL A   1      38.896  29.397  27.196  1.00  0.00     0.065 H 
ATOM    116  C   UNL A   1      41.489  28.569  28.262  1.00  0.00     0.037 A 
ATOM    117  C   UNL A   1      43.529  31.885  33.722  1.00  0.00     0.049 A 
ATOM    118  C   UNL A   1      42.757  28.889  28.956  1.00  0.00     0.074 A 
ATOM    119  C   UNL A   1      43.721  33.233  33.510  1.00  0.00    -0.036 A 
ATOM    120  N   UNL A   1      44.265  31.237  32.767  1.00  0.00    -0.354 N 
ATOM    121  N   UNL A   1      43.473  29.956  28.737  1.00  0.00    -0.248 NA
ATOM    122  C   UNL A   1      43.091  28.155  30.169  1.00  0.00    -0.034 C 
ATOM    123  C   UNL A   1      44.228  33.338  32.182  1.00  0.00    -0.036 A 
ATOM    124  H   UNL A   1      43.538  34.003  34.173  1.00  0.00     0.065 H 
ATOM    125  C   UNL A   1      44.331  32.047  31.663  1.00  0.00     0.049 A 
ATOM    126  H   UNL A   1      44.676  30.348  32.857  1.00  0.00     0.167 HD
ATOM    127  C   UNL A   1      44.043  30.254  29.962  1.00  0.00     0.074 A 
ATOM    128  C   UNL A   1      43.903  29.039  30.752  1.00  0.00    -0.034 C 
ATOM    129  H   UNL A   1      42.787  27.221  30.486  1.00  0.00     0.065 H 
ATOM    130  H   UNL A   1      44.475  34.212  31.692  1.00  0.00     0.065 H 
ATOM    131  C   UNL A   1      44.316  31.545  30.308  1.00  0.00     0.037 A 
ATOM    132  H   UNL A   1      44.374  28.880  31.655  1.00  0.00     0.065 H 
BRANCH 113 133
ATOM    133  C   UNL A   1      43.102  30.040  35.459  1.00  0.00     0.064 A 
ATOM    134  C   UNL A   1      43.787  30.409  36.633  1.00  0.00     0.173 A 
ATOM    135  C   UNL A   1      43.170  28.673  35.112  1.00  0.00     0.173 A 
ATOM    136  F   UNL A   1      43.826  31.690  37.027  1.00  0.00    -0.203 F 
ATOM    137  C   UNL A   1      44.515  29.479  37.384  1.00  0.00     0.198 A 
ATOM    138  C   UNL A   1      43.854  27.741  35.889  1.00  0.00     0.198 A 
ATOM    139  F   UNL A   1      42.670  28.217  33.955  1.00  0.00    -0.203 F 
ATOM    140  F   UNL A   1      45.236  29.889  38.436  1.00  0.00    -0.200 F 
ATOM    141  C   UNL A   1      44.547  28.146  37.011  1.00  0.00     0.200 A 
ATOM    142  F   UNL A   1      43.897  26.459  35.497  1.00  0.00    -0.200 F 
ATOM    143  F   UNL A   1      45.282  27.264  37.701  1.00  0.00    -0.200 F 
ENDBRANCH 113 133
BRANCH 116 144
ATOM    144  C   UNL A   1      41.276  27.287  27.556  1.00  0.00     0.064 A 
ATOM    145  C   UNL A   1      41.948  27.008  26.356  1.00  0.00     0.173 A 
ATOM    146  C   UNL A   1      40.635  26.201  28.185  1.00  0.00     0.173 A 
ATOM    147  F   UNL A   1      42.618  27.978  25.716  1.00  0.00    -0.203 F 
ATOM    148  C   UNL A   1      42.006  25.712  25.834  1.00  0.00     0.198 A 
ATOM    149  C   UNL A   1      40.683  24.911  27.657  1.00  0.00     0.198 A 
ATOM    150  F   UNL A   1      40.035  26.349  29.374  1.00  0.00    -0.203 F 
ATOM    151  F   UNL A   1      42.720  25.470  24.726  1.00  0.00    -0.200 F 
ATOM    152  C   UNL A   1      41.384  24.664  26.492  1.00  0.00     0.200 A 
ATOM    153  F   UNL A   1      40.105  23.900  28.321  1.00  0.00    -0.200 F 
ATOM    154  F   UNL A   1      41.495  23.411  26.029  1.00  0.00    -0.200 F 
ENDBRANCH 116 144
BRANCH 131 155
ATOM    155  C   UNL A   1      44.347  32.563  29.204  1.00  0.00     0.064 A 
ATOM    156  C   UNL A   1      43.277  33.416  28.890  1.00  0.00     0.173 A 
ATOM    157  C   UNL A   1      45.555  32.760  28.519  1.00  0.00     0.173 A 
ATOM    158  F   UNL A   1      42.125  33.357  29.571  1.00  0.00    -0.203 F 
ATOM    159  C   UNL A   1      43.397  34.388  27.898  1.00  0.00     0.198 A 
ATOM    160  C   UNL A   1      45.684  33.758  27.558  1.00  0.00     0.198 A 
ATOM    161  F   UNL A   1      46.628  32.012  28.820  1.00  0.00    -0.203 F 
ATOM    162  F   UNL A   1      42.356  35.180  27.603  1.00  0.00    -0.200 F 
ATOM    163  C   UNL A   1      44.602  34.562  27.239  1.00  0.00     0.200 A 
ATOM    164  F   UNL A   1      46.867  33.957  26.959  1.00  0.00    -0.200 F 
ATOM    165  F   UNL A   1      44.731  35.525  26.315  1.00  0.00    -0.200 F 
ENDBRANCH 131 155
ENDBRANCH  96  99
ENDBRANCH  86  89
ENDBRANCH  82  85
ENDBRANCH  79  82
ENDBRANCH  76  79
ENDBRANCH  73  76
ENDBRANCH   1  73
TORSDOF 27
ENDMDL
MODEL 8
REMARK VINA RESULT:     -10.8      5.575     10.648
REMARK SMILES CC(C)c1ccc2c(c1)c(SC(C)(C)C)c(CC(C)(C)C(=O)NCCCCCCNC(=O)c1ccc(-c3c4nc(c(-c5c(F)c(F)c(F)c(F)c5F)c5ccc([nH]5)c(-c5c(F)c(F)c(F)c(F)c5F)c5nc(c(-c6c(F)c(F)c(F)c(F)c6F)c6ccc3[nH]6)C=C5)C=C4)cc1)n2Cc1ccc(Cl)cc1
REMARK SMILES IDX 25 1 24 4 23 7 21 8 22 9 18 11 17 12 16 15 4 16 5 17 9 18
REMARK SMILES IDX 6 19 8 21 7 23 10 25 96 26 2 27 1 29 3 33 11 37 12 38 13 39
REMARK SMILES IDX 14 43 15 47 97 51 98 54 99 55 104 56 100 57 103 59 101 61
REMARK SMILES IDX 102 64 19 65 20 69 26 73 27 76 28 79 29 82 30 85 31 86 32 88
REMARK SMILES IDX 33 89 34 90 95 91 35 92 94 94 36 96 37 99 38 100 88 101
REMARK SMILES IDX 39 102 93 103 87 104 89 105 40 106 92 107 86 109 85 111
REMARK SMILES IDX 41 113 73 116 53 117 72 118 54 119 57 120 71 121 90 122
REMARK SMILES IDX 55 123 56 125 70 127 91 128 58 131 42 133 43 134 51 135
REMARK SMILES IDX 44 136 45 137 49 138 52 139 46 140 47 141 50 142 48 143
REMARK SMILES IDX 74 144 75 145 83 146 76 147 77 148 81 149 84 150 78 151
REMARK SMILES IDX 79 152 82 153 80 154 59 155 60 156 68 157 61 158 62 159
REMARK SMILES IDX 66 160 69 161 63 162 64 163 67 164 65 165
REMARK H PARENT 25 2 25 3 24 5 24 6 23 10 17 13 17 14 5 20 9 22 6 24 2 28 1 30
REMARK H PARENT 1 31 1 32 3 34 3 35 3 36 13 40 13 41 13 42 14 44 14 45 14 46
REMARK H PARENT 15 48 15 49 15 50 97 52 97 53 99 58 104 60 100 62 103 63 19 66
REMARK H PARENT 19 67 19 68 20 70 20 71 20 72 26 74 26 75 27 77 27 78 28 80
REMARK H PARENT 28 81 29 83 29 84 30 87 34 93 95 95 35 97 94 98 93 108 87 110
REMARK H PARENT 89 112 92 114 86 115 54 124 57 126 90 129 55 130 91 132
REMARK Flexibility Score: inf
ROOT
ATOM      1  C   UNL A   1      36.853  31.075  32.825  1.00  0.00    -0.036 C 
ATOM      2  H   UNL A   1      36.321  30.212  33.170  1.00  0.00     0.028 H 
ATOM      3  H   UNL A   1      36.988  31.038  31.764  1.00  0.00     0.028 H 
ENDROOT
BRANCH   1   4
ATOM      4  C   UNL A   1      38.213  31.106  33.477  1.00  0.00     0.017 C 
ATOM      5  H   UNL A   1      38.925  30.661  32.812  1.00  0.00     0.049 H 
ATOM      6  H   UNL A   1      38.459  32.127  33.681  1.00  0.00     0.049 H 
BRANCH   4   7
ATOM      7  N   UNL A   1      38.229  30.382  34.731  1.00  0.00    -0.356 N 
ATOM      8  C   UNL A   1      38.527  30.849  35.985  1.00  0.00     0.226 C 
ATOM      9  O   UNL A   1      38.097  30.198  36.928  1.00  0.00    -0.275 OA
ATOM     10  H   UNL A   1      37.995  29.427  34.676  1.00  0.00     0.163 HD
BRANCH   8  11
ATOM     11  C   UNL A   1      39.147  32.245  36.125  1.00  0.00     0.049 C 
BRANCH  11  12
ATOM     12  C   UNL A   1      39.199  33.144  34.851  1.00  0.00     0.003 C 
ATOM     13  H   UNL A   1      39.084  32.505  34.001  1.00  0.00     0.034 H 
ATOM     14  H   UNL A   1      38.417  33.861  34.990  1.00  0.00     0.034 H 
BRANCH  12  15
ATOM     15  C   UNL A   1      40.413  33.945  34.640  1.00  0.00     0.034 A 
ATOM     16  C   UNL A   1      44.633  35.848  35.058  1.00  0.00    -0.045 A 
ATOM     17  C   UNL A   1      44.875  34.902  34.054  1.00  0.00    -0.057 A 
ATOM     18  C   UNL A   1      43.300  35.997  35.502  1.00  0.00    -0.048 A 
ATOM     19  C   UNL A   1      43.854  34.112  33.508  1.00  0.00    -0.037 A 
ATOM     20  H   UNL A   1      45.838  34.784  33.705  1.00  0.00     0.063 H 
ATOM     21  C   UNL A   1      42.238  35.204  34.986  1.00  0.00     0.014 A 
ATOM     22  H   UNL A   1      43.090  36.705  36.222  1.00  0.00     0.063 H 
ATOM     23  C   UNL A   1      42.552  34.252  34.009  1.00  0.00     0.050 A 
ATOM     24  H   UNL A   1      44.058  33.439  32.752  1.00  0.00     0.065 H 
ATOM     25  C   UNL A   1      40.827  35.102  35.285  1.00  0.00     0.037 A 
ATOM     26  N   UNL A   1      41.384  33.566  33.714  1.00  0.00    -0.339 N 
BRANCH  16  27
ATOM     27  C   UNL A   1      45.782  36.598  35.739  1.00  0.00    -0.022 C 
ATOM     28  H   UNL A   1      45.772  36.174  36.722  1.00  0.00     0.035 H 
BRANCH  27  29
ATOM     29  C   UNL A   1      47.163  36.358  35.108  1.00  0.00    -0.059 C 
ATOM     30  H   UNL A   1      47.535  35.404  35.418  1.00  0.00     0.024 H 
ATOM     31  H   UNL A   1      47.839  37.125  35.426  1.00  0.00     0.024 H 
ATOM     32  H   UNL A   1      47.077  36.378  34.042  1.00  0.00     0.024 H 
ENDBRANCH  27  29
BRANCH  27  33
ATOM     33  C   UNL A   1      45.565  38.117  35.837  1.00  0.00    -0.059 C 
ATOM     34  H   UNL A   1      44.634  38.313  36.327  1.00  0.00     0.024 H 
ATOM     35  H   UNL A   1      45.548  38.538  34.855  1.00  0.00     0.024 H 
ATOM     36  H   UNL A   1      46.363  38.555  36.400  1.00  0.00     0.024 H 
ENDBRANCH  27  33
ENDBRANCH  16  27
BRANCH  25  37
ATOM     37  S   UNL A   1      40.077  36.166  36.501  1.00  0.00    -0.118 SA
BRANCH  37  38
ATOM     38  C   UNL A   1      40.478  35.947  38.312  1.00  0.00     0.012 C 
BRANCH  38  39
ATOM     39  C   UNL A   1      39.239  36.182  39.181  1.00  0.00    -0.051 C 
ATOM     40  H   UNL A   1      39.509  36.764  40.037  1.00  0.00     0.024 H 
ATOM     41  H   UNL A   1      38.844  35.241  39.501  1.00  0.00     0.024 H 
ATOM     42  H   UNL A   1      38.499  36.706  38.613  1.00  0.00     0.024 H 
ENDBRANCH  38  39
BRANCH  38  43
ATOM     43  C   UNL A   1      41.231  34.711  38.856  1.00  0.00    -0.051 C 
ATOM     44  H   UNL A   1      41.792  34.989  39.723  1.00  0.00     0.024 H 
ATOM     45  H   UNL A   1      41.895  34.339  38.105  1.00  0.00     0.024 H 
ATOM     46  H   UNL A   1      40.525  33.951  39.118  1.00  0.00     0.024 H 
ENDBRANCH  38  43
BRANCH  38  47
ATOM     47  C   UNL A   1      41.510  37.080  38.565  1.00  0.00    -0.051 C 
ATOM     48  H   UNL A   1      42.327  36.977  37.882  1.00  0.00     0.024 H 
ATOM     49  H   UNL A   1      41.875  37.012  39.569  1.00  0.00     0.024 H 
ATOM     50  H   UNL A   1      41.041  38.031  38.419  1.00  0.00     0.024 H 
ENDBRANCH  38  47
ENDBRANCH  37  38
ENDBRANCH  25  37
BRANCH  26  51
ATOM     51  C   UNL A   1      41.190  32.754  32.482  1.00  0.00     0.048 C 
ATOM     52  H   UNL A   1      40.233  32.283  32.560  1.00  0.00     0.055 H 
ATOM     53  H   UNL A   1      42.035  32.098  32.461  1.00  0.00     0.055 H 
BRANCH  51  54
ATOM     54  C   UNL A   1      41.233  33.465  31.138  1.00  0.00    -0.028 A 
ATOM     55  C   UNL A   1      42.385  33.409  30.327  1.00  0.00    -0.056 A 
ATOM     56  C   UNL A   1      40.145  34.222  30.672  1.00  0.00    -0.056 A 
ATOM     57  C   UNL A   1      42.522  34.230  29.202  1.00  0.00    -0.043 A 
ATOM     58  H   UNL A   1      43.141  32.749  30.566  1.00  0.00     0.063 H 
ATOM     59  C   UNL A   1      40.262  35.007  29.513  1.00  0.00    -0.043 A 
ATOM     60  H   UNL A   1      39.251  34.201  31.187  1.00  0.00     0.063 H 
ATOM     61  C   UNL A   1      41.467  35.046  28.815  1.00  0.00     0.041 A 
ATOM     62  H   UNL A   1      43.403  34.229  28.664  1.00  0.00     0.064 H 
ATOM     63  H   UNL A   1      39.454  35.555  29.178  1.00  0.00     0.064 H 
ATOM     64  Cl  UNL A   1      41.671  36.133  27.496  1.00  0.00    -0.084 Cl
ENDBRANCH  51  54
ENDBRANCH  26  51
ENDBRANCH  12  15
ENDBRANCH  11  12
BRANCH  11  65
ATOM     65  C   UNL A   1      40.560  31.806  36.584  1.00  0.00    -0.051 C 
ATOM     66  H   UNL A   1      41.242  32.623  36.469  1.00  0.00     0.024 H 
ATOM     67  H   UNL A   1      40.888  30.981  35.989  1.00  0.00     0.024 H 
ATOM     68  H   UNL A   1      40.525  31.514  37.612  1.00  0.00     0.024 H 
ENDBRANCH  11  65
BRANCH  11  69
ATOM     69  C   UNL A   1      38.263  33.097  37.085  1.00  0.00    -0.051 C 
ATOM     70  H   UNL A   1      38.677  33.066  38.072  1.00  0.00     0.024 H 
ATOM     71  H   UNL A   1      37.269  32.700  37.102  1.00  0.00     0.024 H 
ATOM     72  H   UNL A   1      38.237  34.110  36.742  1.00  0.00     0.024 H 
ENDBRANCH  11  69
ENDBRANCH   8  11
ENDBRANCH   4   7
ENDBRANCH   1   4
BRANCH   1  73
ATOM     73  C   UNL A   1      36.047  32.320  33.163  1.00  0.00    -0.052 C 
ATOM     74  H   UNL A   1      36.200  32.549  34.197  1.00  0.00     0.027 H 
ATOM     75  H   UNL A   1      35.025  32.099  32.938  1.00  0.00     0.027 H 
BRANCH  73  76
ATOM     76  C   UNL A   1      36.429  33.552  32.334  1.00  0.00    -0.052 C 
ATOM     77  H   UNL A   1      37.401  33.385  31.918  1.00  0.00     0.027 H 
ATOM     78  H   UNL A   1      36.392  34.387  33.002  1.00  0.00     0.027 H 
BRANCH  76  79
ATOM     79  C   UNL A   1      35.468  33.879  31.182  1.00  0.00    -0.036 C 
ATOM     80  H   UNL A   1      36.048  34.102  30.311  1.00  0.00     0.028 H 
ATOM     81  H   UNL A   1      34.871  34.710  31.498  1.00  0.00     0.028 H 
BRANCH  79  82
ATOM     82  C   UNL A   1      34.504  32.741  30.844  1.00  0.00     0.018 C 
ATOM     83  H   UNL A   1      33.542  32.977  31.251  1.00  0.00     0.049 H 
ATOM     84  H   UNL A   1      34.906  31.844  31.266  1.00  0.00     0.049 H 
BRANCH  82  85
ATOM     85  N   UNL A   1      34.362  32.527  29.422  1.00  0.00    -0.352 N 
ATOM     86  C   UNL A   1      35.140  31.949  28.462  1.00  0.00     0.251 C 
ATOM     87  H   UNL A   1      33.513  32.876  29.066  1.00  0.00     0.163 HD
ATOM     88  O   UNL A   1      34.723  32.020  27.304  1.00  0.00    -0.269 OA
BRANCH  86  89
ATOM     89  C   UNL A   1      36.445  31.288  28.718  1.00  0.00     0.039 A 
ATOM     90  C   UNL A   1      37.605  31.923  29.162  1.00  0.00    -0.049 A 
ATOM     91  C   UNL A   1      36.484  29.901  28.492  1.00  0.00    -0.049 A 
ATOM     92  C   UNL A   1      38.792  31.217  29.300  1.00  0.00    -0.053 A 
ATOM     93  H   UNL A   1      37.580  32.928  29.392  1.00  0.00     0.063 H 
ATOM     94  C   UNL A   1      37.657  29.179  28.670  1.00  0.00    -0.053 A 
ATOM     95  H   UNL A   1      35.628  29.412  28.189  1.00  0.00     0.063 H 
ATOM     96  C   UNL A   1      38.823  29.849  29.038  1.00  0.00    -0.014 A 
ATOM     97  H   UNL A   1      39.652  31.705  29.596  1.00  0.00     0.063 H 
ATOM     98  H   UNL A   1      37.666  28.157  28.531  1.00  0.00     0.063 H 
BRANCH  96  99
ATOM     99  C   UNL A   1      40.087  29.153  29.257  1.00  0.00     0.031 A 
ATOM    100  C   UNL A   1      40.446  28.889  30.683  1.00  0.00     0.074 A 
ATOM    101  C   UNL A   1      40.832  28.667  28.248  1.00  0.00     0.049 A 
ATOM    102  N   UNL A   1      41.536  29.189  31.314  1.00  0.00    -0.248 NA
ATOM    103  C   UNL A   1      39.421  28.255  31.530  1.00  0.00    -0.034 C 
ATOM    104  C   UNL A   1      40.480  28.597  26.827  1.00  0.00    -0.036 A 
ATOM    105  N   UNL A   1      42.032  28.020  28.305  1.00  0.00    -0.354 N 
ATOM    106  C   UNL A   1      41.398  28.660  32.597  1.00  0.00     0.074 A 
ATOM    107  C   UNL A   1      40.046  28.178  32.704  1.00  0.00    -0.034 C 
ATOM    108  H   UNL A   1      38.467  27.950  31.280  1.00  0.00     0.065 H 
ATOM    109  C   UNL A   1      41.326  27.748  26.203  1.00  0.00    -0.036 A 
ATOM    110  H   UNL A   1      39.710  29.113  26.375  1.00  0.00     0.065 H 
ATOM    111  C   UNL A   1      42.350  27.331  27.146  1.00  0.00     0.049 A 
ATOM    112  H   UNL A   1      42.617  28.041  29.097  1.00  0.00     0.167 HD
ATOM    113  C   UNL A   1      42.454  28.490  33.437  1.00  0.00     0.037 A 
ATOM    114  H   UNL A   1      39.619  27.820  33.574  1.00  0.00     0.065 H 
ATOM    115  H   UNL A   1      41.257  27.445  25.219  1.00  0.00     0.065 H 
ATOM    116  C   UNL A   1      43.337  26.418  26.998  1.00  0.00     0.037 A 
ATOM    117  C   UNL A   1      43.589  29.279  33.057  1.00  0.00     0.049 A 
ATOM    118  C   UNL A   1      44.319  26.627  28.085  1.00  0.00     0.074 A 
ATOM    119  C   UNL A   1      43.881  30.625  33.021  1.00  0.00    -0.036 A 
ATOM    120  N   UNL A   1      44.576  28.653  32.344  1.00  0.00    -0.354 N 
ATOM    121  N   UNL A   1      45.099  27.666  28.189  1.00  0.00    -0.248 NA
ATOM    122  C   UNL A   1      44.219  25.803  29.282  1.00  0.00    -0.034 C 
ATOM    123  C   UNL A   1      44.795  30.785  31.938  1.00  0.00    -0.036 A 
ATOM    124  H   UNL A   1      43.515  31.361  33.645  1.00  0.00     0.065 H 
ATOM    125  C   UNL A   1      45.021  29.524  31.385  1.00  0.00     0.049 A 
ATOM    126  H   UNL A   1      44.909  27.739  32.495  1.00  0.00     0.167 HD
ATOM    127  C   UNL A   1      45.248  27.858  29.552  1.00  0.00     0.074 A 
ATOM    128  C   UNL A   1      44.823  26.605  30.160  1.00  0.00    -0.034 C 
ATOM    129  H   UNL A   1      43.800  24.869  29.412  1.00  0.00     0.065 H 
ATOM    130  H   UNL A   1      45.214  31.673  31.622  1.00  0.00     0.065 H 
ATOM    131  C   UNL A   1      45.433  29.109  30.063  1.00  0.00     0.037 A 
ATOM    132  H   UNL A   1      44.970  26.366  31.152  1.00  0.00     0.065 H 
BRANCH 113 133
ATOM    133  C   UNL A   1      42.566  27.355  34.420  1.00  0.00     0.064 A 
ATOM    134  C   UNL A   1      43.048  26.099  34.002  1.00  0.00     0.173 A 
ATOM    135  C   UNL A   1      41.938  27.382  35.683  1.00  0.00     0.173 A 
ATOM    136  F   UNL A   1      43.620  25.954  32.797  1.00  0.00    -0.203 F 
ATOM    137  C   UNL A   1      42.881  24.950  34.781  1.00  0.00     0.198 A 
ATOM    138  C   UNL A   1      41.817  26.245  36.479  1.00  0.00     0.198 A 
ATOM    139  F   UNL A   1      41.325  28.483  36.138  1.00  0.00    -0.203 F 
ATOM    140  F   UNL A   1      43.262  23.758  34.303  1.00  0.00    -0.200 F 
ATOM    141  C   UNL A   1      42.266  25.024  36.019  1.00  0.00     0.200 A 
ATOM    142  F   UNL A   1      41.193  26.331  37.663  1.00  0.00    -0.200 F 
ATOM    143  F   UNL A   1      42.061  23.917  36.745  1.00  0.00    -0.200 F 
ENDBRANCH 113 133
BRANCH 116 144
ATOM    144  C   UNL A   1      43.327  25.194  26.166  1.00  0.00     0.064 A 
ATOM    145  C   UNL A   1      44.350  24.949  25.238  1.00  0.00     0.173 A 
ATOM    146  C   UNL A   1      42.474  24.113  26.463  1.00  0.00     0.173 A 
ATOM    147  F   UNL A   1      45.229  25.914  24.932  1.00  0.00    -0.203 F 
ATOM    148  C   UNL A   1      44.533  23.685  24.668  1.00  0.00     0.198 A 
ATOM    149  C   UNL A   1      42.650  22.856  25.885  1.00  0.00     0.198 A 
ATOM    150  F   UNL A   1      41.516  24.224  27.395  1.00  0.00    -0.203 F 
ATOM    151  F   UNL A   1      45.567  23.468  23.844  1.00  0.00    -0.200 F 
ATOM    152  C   UNL A   1      43.690  22.637  25.002  1.00  0.00     0.200 A 
ATOM    153  F   UNL A   1      41.848  21.843  26.242  1.00  0.00    -0.200 F 
ATOM    154  F   UNL A   1      43.905  21.410  24.508  1.00  0.00    -0.200 F 
ENDBRANCH 116 144
BRANCH 131 155
ATOM    155  C   UNL A   1      45.852  30.190  29.108  1.00  0.00     0.064 A 
ATOM    156  C   UNL A   1      47.183  30.430  28.727  1.00  0.00     0.173 A 
ATOM    157  C   UNL A   1      44.850  30.931  28.465  1.00  0.00     0.173 A 
ATOM    158  F   UNL A   1      48.185  29.692  29.221  1.00  0.00    -0.203 F 
ATOM    159  C   UNL A   1      47.496  31.404  27.781  1.00  0.00     0.198 A 
ATOM    160  C   UNL A   1      45.164  31.874  27.491  1.00  0.00     0.198 A 
ATOM    161  F   UNL A   1      43.559  30.702  28.748  1.00  0.00    -0.203 F 
ATOM    162  F   UNL A   1      48.775  31.627  27.445  1.00  0.00    -0.200 F 
ATOM    163  C   UNL A   1      46.487  32.120  27.160  1.00  0.00     0.200 A 
ATOM    164  F   UNL A   1      44.182  32.528  26.856  1.00  0.00    -0.200 F 
ATOM    165  F   UNL A   1      46.786  33.026  26.219  1.00  0.00    -0.200 F 
ENDBRANCH 131 155
ENDBRANCH  96  99
ENDBRANCH  86  89
ENDBRANCH  82  85
ENDBRANCH  79  82
ENDBRANCH  76  79
ENDBRANCH  73  76
ENDBRANCH   1  73
TORSDOF 27
ENDMDL
MODEL 9
REMARK VINA RESULT:     -10.6      1.681      2.820
REMARK SMILES CC(C)c1ccc2c(c1)c(SC(C)(C)C)c(CC(C)(C)C(=O)NCCCCCCNC(=O)c1ccc(-c3c4nc(c(-c5c(F)c(F)c(F)c(F)c5F)c5ccc([nH]5)c(-c5c(F)c(F)c(F)c(F)c5F)c5nc(c(-c6c(F)c(F)c(F)c(F)c6F)c6ccc3[nH]6)C=C5)C=C4)cc1)n2Cc1ccc(Cl)cc1
REMARK SMILES IDX 25 1 24 4 23 7 21 8 22 9 18 11 17 12 16 15 4 16 5 17 9 18
REMARK SMILES IDX 6 19 8 21 7 23 10 25 96 26 2 27 1 29 3 33 11 37 12 38 13 39
REMARK SMILES IDX 14 43 15 47 97 51 98 54 99 55 104 56 100 57 103 59 101 61
REMARK SMILES IDX 102 64 19 65 20 69 26 73 27 76 28 79 29 82 30 85 31 86 32 88
REMARK SMILES IDX 33 89 34 90 95 91 35 92 94 94 36 96 37 99 38 100 88 101
REMARK SMILES IDX 39 102 93 103 87 104 89 105 40 106 92 107 86 109 85 111
REMARK SMILES IDX 41 113 73 116 53 117 72 118 54 119 57 120 71 121 90 122
REMARK SMILES IDX 55 123 56 125 70 127 91 128 58 131 42 133 43 134 51 135
REMARK SMILES IDX 44 136 45 137 49 138 52 139 46 140 47 141 50 142 48 143
REMARK SMILES IDX 74 144 75 145 83 146 76 147 77 148 81 149 84 150 78 151
REMARK SMILES IDX 79 152 82 153 80 154 59 155 60 156 68 157 61 158 62 159
REMARK SMILES IDX 66 160 69 161 63 162 64 163 67 164 65 165
REMARK H PARENT 25 2 25 3 24 5 24 6 23 10 17 13 17 14 5 20 9 22 6 24 2 28 1 30
REMARK H PARENT 1 31 1 32 3 34 3 35 3 36 13 40 13 41 13 42 14 44 14 45 14 46
REMARK H PARENT 15 48 15 49 15 50 97 52 97 53 99 58 104 60 100 62 103 63 19 66
REMARK H PARENT 19 67 19 68 20 70 20 71 20 72 26 74 26 75 27 77 27 78 28 80
REMARK H PARENT 28 81 29 83 29 84 30 87 34 93 95 95 35 97 94 98 93 108 87 110
REMARK H PARENT 89 112 92 114 86 115 54 124 57 126 90 129 55 130 91 132
REMARK Flexibility Score: inf
ROOT
ATOM      1  C   UNL A   1      35.302  30.221  27.094  1.00  0.00    -0.036 C 
ATOM      2  H   UNL A   1      34.653  30.826  27.693  1.00  0.00     0.028 H 
ATOM      3  H   UNL A   1      35.441  30.657  26.127  1.00  0.00     0.028 H 
ENDROOT
BRANCH   1   4
ATOM      4  C   UNL A   1      34.679  28.859  26.918  1.00  0.00     0.017 C 
ATOM      5  H   UNL A   1      34.370  28.750  25.898  1.00  0.00     0.049 H 
ATOM      6  H   UNL A   1      35.411  28.124  27.181  1.00  0.00     0.049 H 
BRANCH   4   7
ATOM      7  N   UNL A   1      33.528  28.674  27.777  1.00  0.00    -0.356 N 
ATOM      8  C   UNL A   1      32.411  27.910  27.558  1.00  0.00     0.226 C 
ATOM      9  O   UNL A   1      31.773  27.578  28.548  1.00  0.00    -0.275 OA
ATOM     10  H   UNL A   1      33.551  29.162  28.631  1.00  0.00     0.163 HD
BRANCH   8  11
ATOM     11  C   UNL A   1      32.176  27.329  26.158  1.00  0.00     0.049 C 
BRANCH  11  12
ATOM     12  C   UNL A   1      33.431  26.926  25.324  1.00  0.00     0.003 C 
ATOM     13  H   UNL A   1      33.545  27.649  24.544  1.00  0.00     0.034 H 
ATOM     14  H   UNL A   1      34.231  26.888  26.032  1.00  0.00     0.034 H 
BRANCH  12  15
ATOM     15  C   UNL A   1      33.422  25.597  24.693  1.00  0.00     0.034 A 
ATOM     16  C   UNL A   1      32.649  21.114  23.739  1.00  0.00    -0.045 A 
ATOM     17  C   UNL A   1      31.741  21.725  22.866  1.00  0.00    -0.057 A 
ATOM     18  C   UNL A   1      33.510  21.960  24.474  1.00  0.00    -0.048 A 
ATOM     19  C   UNL A   1      31.658  23.116  22.722  1.00  0.00    -0.037 A 
ATOM     20  H   UNL A   1      31.110  21.128  22.309  1.00  0.00     0.063 H 
ATOM     21  C   UNL A   1      33.448  23.377  24.371  1.00  0.00     0.014 A 
ATOM     22  H   UNL A   1      34.206  21.535  25.106  1.00  0.00     0.063 H 
ATOM     23  C   UNL A   1      32.494  23.925  23.506  1.00  0.00     0.050 A 
ATOM     24  H   UNL A   1      30.995  23.537  22.053  1.00  0.00     0.065 H 
ATOM     25  C   UNL A   1      34.146  24.460  25.027  1.00  0.00     0.037 A 
ATOM     26  N   UNL A   1      32.577  25.304  23.623  1.00  0.00    -0.339 N 
BRANCH  16  27
ATOM     27  C   UNL A   1      32.625  19.603  23.986  1.00  0.00    -0.022 C 
ATOM     28  H   UNL A   1      31.794  19.500  24.652  1.00  0.00     0.035 H 
BRANCH  27  29
ATOM     29  C   UNL A   1      32.363  18.756  22.730  1.00  0.00    -0.059 C 
ATOM     30  H   UNL A   1      31.446  19.068  22.275  1.00  0.00     0.024 H 
ATOM     31  H   UNL A   1      32.293  17.723  23.003  1.00  0.00     0.024 H 
ATOM     32  H   UNL A   1      33.167  18.887  22.037  1.00  0.00     0.024 H 
ENDBRANCH  27  29
BRANCH  27  33
ATOM     33  C   UNL A   1      33.893  19.060  24.664  1.00  0.00    -0.059 C 
ATOM     34  H   UNL A   1      34.750  19.570  24.278  1.00  0.00     0.024 H 
ATOM     35  H   UNL A   1      33.982  18.013  24.468  1.00  0.00     0.024 H 
ATOM     36  H   UNL A   1      33.829  19.221  25.721  1.00  0.00     0.024 H 
ENDBRANCH  27  33
ENDBRANCH  16  27
BRANCH  25  37
ATOM     37  S   UNL A   1      35.434  24.128  26.212  1.00  0.00    -0.118 SA
BRANCH  37  38
ATOM     38  C   UNL A   1      36.988  23.240  25.680  1.00  0.00     0.012 C 
BRANCH  38  39
ATOM     39  C   UNL A   1      38.229  23.884  26.303  1.00  0.00    -0.051 C 
ATOM     40  H   UNL A   1      37.939  24.747  26.867  1.00  0.00     0.024 H 
ATOM     41  H   UNL A   1      38.906  24.177  25.528  1.00  0.00     0.024 H 
ATOM     42  H   UNL A   1      38.710  23.181  26.950  1.00  0.00     0.024 H 
ENDBRANCH  38  39
BRANCH  38  43
ATOM     43  C   UNL A   1      37.141  21.703  25.762  1.00  0.00    -0.051 C 
ATOM     44  H   UNL A   1      38.175  21.453  25.871  1.00  0.00     0.024 H 
ATOM     45  H   UNL A   1      36.758  21.258  24.868  1.00  0.00     0.024 H 
ATOM     46  H   UNL A   1      36.596  21.336  26.606  1.00  0.00     0.024 H 
ENDBRANCH  38  43
BRANCH  38  47
ATOM     47  C   UNL A   1      36.998  23.474  24.144  1.00  0.00    -0.051 C 
ATOM     48  H   UNL A   1      36.723  24.487  23.936  1.00  0.00     0.024 H 
ATOM     49  H   UNL A   1      36.298  22.812  23.678  1.00  0.00     0.024 H 
ATOM     50  H   UNL A   1      37.979  23.285  23.760  1.00  0.00     0.024 H 
ENDBRANCH  38  47
ENDBRANCH  37  38
ENDBRANCH  25  37
BRANCH  26  51
ATOM     51  C   UNL A   1      32.025  26.255  22.620  1.00  0.00     0.048 C 
ATOM     52  H   UNL A   1      31.898  25.713  21.706  1.00  0.00     0.055 H 
ATOM     53  H   UNL A   1      32.735  27.055  22.595  1.00  0.00     0.055 H 
BRANCH  51  54
ATOM     54  C   UNL A   1      30.701  26.936  22.927  1.00  0.00    -0.028 A 
ATOM     55  C   UNL A   1      29.692  26.263  23.648  1.00  0.00    -0.056 A 
ATOM     56  C   UNL A   1      30.424  28.239  22.482  1.00  0.00    -0.056 A 
ATOM     57  C   UNL A   1      28.398  26.787  23.746  1.00  0.00    -0.043 A 
ATOM     58  H   UNL A   1      29.912  25.369  24.111  1.00  0.00     0.063 H 
ATOM     59  C   UNL A   1      29.140  28.789  22.628  1.00  0.00    -0.043 A 
ATOM     60  H   UNL A   1      31.173  28.799  22.044  1.00  0.00     0.063 H 
ATOM     61  C   UNL A   1      28.122  28.039  23.211  1.00  0.00     0.041 A 
ATOM     62  H   UNL A   1      27.654  26.245  24.213  1.00  0.00     0.064 H 
ATOM     63  H   UNL A   1      28.951  29.750  22.302  1.00  0.00     0.064 H 
ATOM     64  Cl  UNL A   1      26.508  28.639  23.239  1.00  0.00    -0.084 Cl
ENDBRANCH  51  54
ENDBRANCH  26  51
ENDBRANCH  12  15
ENDBRANCH  11  12
BRANCH  11  65
ATOM     65  C   UNL A   1      31.435  28.542  25.544  1.00  0.00    -0.051 C 
ATOM     66  H   UNL A   1      31.944  28.860  24.658  1.00  0.00     0.024 H 
ATOM     67  H   UNL A   1      31.417  29.345  26.251  1.00  0.00     0.024 H 
ATOM     68  H   UNL A   1      30.433  28.260  25.298  1.00  0.00     0.024 H 
ENDBRANCH  11  65
BRANCH  11  69
ATOM     69  C   UNL A   1      31.429  25.968  26.295  1.00  0.00    -0.051 C 
ATOM     70  H   UNL A   1      30.419  26.145  26.602  1.00  0.00     0.024 H 
ATOM     71  H   UNL A   1      31.923  25.361  27.025  1.00  0.00     0.024 H 
ATOM     72  H   UNL A   1      31.430  25.464  25.351  1.00  0.00     0.024 H 
ENDBRANCH  11  69
ENDBRANCH   8  11
ENDBRANCH   4   7
ENDBRANCH   1   4
BRANCH   1  73
ATOM     73  C   UNL A   1      36.659  30.127  27.776  1.00  0.00    -0.052 C 
ATOM     74  H   UNL A   1      37.338  29.639  27.109  1.00  0.00     0.027 H 
ATOM     75  H   UNL A   1      36.512  29.581  28.684  1.00  0.00     0.027 H 
BRANCH  73  76
ATOM     76  C   UNL A   1      37.256  31.486  28.164  1.00  0.00    -0.052 C 
ATOM     77  H   UNL A   1      37.894  31.808  27.367  1.00  0.00     0.027 H 
ATOM     78  H   UNL A   1      37.774  31.333  29.087  1.00  0.00     0.027 H 
BRANCH  76  79
ATOM     79  C   UNL A   1      36.225  32.593  28.427  1.00  0.00    -0.036 C 
ATOM     80  H   UNL A   1      35.290  32.133  28.668  1.00  0.00     0.028 H 
ATOM     81  H   UNL A   1      36.170  33.187  27.539  1.00  0.00     0.028 H 
BRANCH  79  82
ATOM     82  C   UNL A   1      36.611  33.533  29.570  1.00  0.00     0.018 C 
ATOM     83  H   UNL A   1      36.238  34.511  29.347  1.00  0.00     0.049 H 
ATOM     84  H   UNL A   1      37.679  33.522  29.648  1.00  0.00     0.049 H 
BRANCH  82  85
ATOM     85  N   UNL A   1      36.079  33.117  30.846  1.00  0.00    -0.352 N 
ATOM     86  C   UNL A   1      36.377  32.118  31.726  1.00  0.00     0.251 C 
ATOM     87  H   UNL A   1      35.332  33.681  31.150  1.00  0.00     0.163 HD
ATOM     88  O   UNL A   1      35.638  32.012  32.705  1.00  0.00    -0.269 OA
BRANCH  86  89
ATOM     89  C   UNL A   1      37.493  31.152  31.557  1.00  0.00     0.039 A 
ATOM     90  C   UNL A   1      37.358  29.773  31.396  1.00  0.00    -0.049 A 
ATOM     91  C   UNL A   1      38.786  31.703  31.557  1.00  0.00    -0.049 A 
ATOM     92  C   UNL A   1      38.476  28.954  31.319  1.00  0.00    -0.053 A 
ATOM     93  H   UNL A   1      36.415  29.357  31.332  1.00  0.00     0.063 H 
ATOM     94  C   UNL A   1      39.909  30.895  31.435  1.00  0.00    -0.053 A 
ATOM     95  H   UNL A   1      38.903  32.724  31.648  1.00  0.00     0.063 H 
ATOM     96  C   UNL A   1      39.751  29.513  31.355  1.00  0.00    -0.014 A 
ATOM     97  H   UNL A   1      38.363  27.932  31.234  1.00  0.00     0.063 H 
ATOM     98  H   UNL A   1      40.852  31.314  31.405  1.00  0.00     0.063 H 
BRANCH  96  99
ATOM     99  C   UNL A   1      40.885  28.604  31.212  1.00  0.00     0.031 A 
ATOM    100  C   UNL A   1      41.555  28.194  32.482  1.00  0.00     0.074 A 
ATOM    101  C   UNL A   1      41.238  28.065  30.030  1.00  0.00     0.049 A 
ATOM    102  N   UNL A   1      42.810  28.269  32.797  1.00  0.00    -0.248 NA
ATOM    103  C   UNL A   1      40.696  27.687  33.565  1.00  0.00    -0.034 C 
ATOM    104  C   UNL A   1      40.515  28.145  28.757  1.00  0.00    -0.036 A 
ATOM    105  N   UNL A   1      42.275  27.227  29.749  1.00  0.00    -0.354 N 
ATOM    106  C   UNL A   1      42.925  27.691  34.061  1.00  0.00     0.074 A 
ATOM    107  C   UNL A   1      41.587  27.434  34.524  1.00  0.00    -0.034 C 
ATOM    108  H   UNL A   1      39.672  27.562  33.580  1.00  0.00     0.065 H 
ATOM    109  C   UNL A   1      41.002  27.209  27.914  1.00  0.00    -0.036 A 
ATOM    110  H   UNL A   1      39.757  28.809  28.540  1.00  0.00     0.065 H 
ATOM    111  C   UNL A   1      42.148  26.569  28.537  1.00  0.00     0.049 A 
ATOM    112  H   UNL A   1      43.043  27.100  30.352  1.00  0.00     0.167 HD
ATOM    113  C   UNL A   1      44.118  27.295  34.580  1.00  0.00     0.037 A 
ATOM    114  H   UNL A   1      41.349  27.098  35.471  1.00  0.00     0.065 H 
ATOM    115  H   UNL A   1      40.622  26.984  26.981  1.00  0.00     0.065 H 
ATOM    116  C   UNL A   1      42.883  25.516  28.111  1.00  0.00     0.037 A 
ATOM    117  C   UNL A   1      45.233  27.906  33.918  1.00  0.00     0.049 A 
ATOM    118  C   UNL A   1      44.139  25.490  28.893  1.00  0.00     0.074 A 
ATOM    119  C   UNL A   1      45.738  29.185  33.825  1.00  0.00    -0.036 A 
ATOM    120  N   UNL A   1      45.869  27.172  32.954  1.00  0.00    -0.354 N 
ATOM    121  N   UNL A   1      45.090  26.376  28.798  1.00  0.00    -0.248 NA
ATOM    122  C   UNL A   1      44.215  24.620  30.059  1.00  0.00    -0.034 C 
ATOM    123  C   UNL A   1      46.346  29.259  32.538  1.00  0.00    -0.036 A 
ATOM    124  H   UNL A   1      45.687  29.931  34.537  1.00  0.00     0.065 H 
ATOM    125  C   UNL A   1      46.191  28.016  31.923  1.00  0.00     0.049 A 
ATOM    126  H   UNL A   1      46.063  26.208  32.994  1.00  0.00     0.167 HD
ATOM    127  C   UNL A   1      45.626  26.454  30.071  1.00  0.00     0.074 A 
ATOM    128  C   UNL A   1      45.162  25.253  30.753  1.00  0.00    -0.034 C 
ATOM    129  H   UNL A   1      43.688  23.762  30.283  1.00  0.00     0.065 H 
ATOM    130  H   UNL A   1      46.817  30.083  32.133  1.00  0.00     0.065 H 
ATOM    131  C   UNL A   1      46.158  27.622  30.533  1.00  0.00     0.037 A 
ATOM    132  H   UNL A   1      45.523  24.931  31.664  1.00  0.00     0.065 H 
BRANCH 113 133
ATOM    133  C   UNL A   1      44.284  26.097  35.477  1.00  0.00     0.064 A 
ATOM    134  C   UNL A   1      44.922  26.228  36.726  1.00  0.00     0.173 A 
ATOM    135  C   UNL A   1      44.099  24.775  35.017  1.00  0.00     0.173 A 
ATOM    136  F   UNL A   1      45.188  27.440  37.233  1.00  0.00    -0.203 F 
ATOM    137  C   UNL A   1      45.371  25.114  37.443  1.00  0.00     0.198 A 
ATOM    138  C   UNL A   1      44.503  23.666  35.756  1.00  0.00     0.198 A 
ATOM    139  F   UNL A   1      43.623  24.519  33.790  1.00  0.00    -0.203 F 
ATOM    140  F   UNL A   1      46.063  25.285  38.577  1.00  0.00    -0.200 F 
ATOM    141  C   UNL A   1      45.161  23.834  36.957  1.00  0.00     0.200 A 
ATOM    142  F   UNL A   1      44.317  22.436  35.257  1.00  0.00    -0.200 F 
ATOM    143  F   UNL A   1      45.632  22.769  37.619  1.00  0.00    -0.200 F 
ENDBRANCH 113 133
BRANCH 116 144
ATOM    144  C   UNL A   1      42.436  24.366  27.294  1.00  0.00     0.064 A 
ATOM    145  C   UNL A   1      43.029  24.095  26.051  1.00  0.00     0.173 A 
ATOM    146  C   UNL A   1      41.624  23.351  27.838  1.00  0.00     0.173 A 
ATOM    147  F   UNL A   1      43.849  24.992  25.485  1.00  0.00    -0.203 F 
ATOM    148  C   UNL A   1      42.850  22.866  25.408  1.00  0.00     0.198 A 
ATOM    149  C   UNL A   1      41.436  22.131  27.189  1.00  0.00     0.198 A 
ATOM    150  F   UNL A   1      41.078  23.482  29.055  1.00  0.00    -0.203 F 
ATOM    151  F   UNL A   1      43.493  22.615  24.259  1.00  0.00    -0.200 F 
ATOM    152  C   UNL A   1      42.063  21.882  25.983  1.00  0.00     0.200 A 
ATOM    153  F   UNL A   1      40.700  21.175  27.773  1.00  0.00    -0.200 F 
ATOM    154  F   UNL A   1      41.945  20.681  25.400  1.00  0.00    -0.200 F 
ENDBRANCH 116 144
BRANCH 131 155
ATOM    155  C   UNL A   1      46.493  28.676  29.518  1.00  0.00     0.064 A 
ATOM    156  C   UNL A   1      47.707  28.731  28.813  1.00  0.00     0.173 A 
ATOM    157  C   UNL A   1      45.496  29.595  29.162  1.00  0.00     0.173 A 
ATOM    158  F   UNL A   1      48.669  27.823  29.024  1.00  0.00    -0.203 F 
ATOM    159  C   UNL A   1      47.927  29.695  27.831  1.00  0.00     0.198 A 
ATOM    160  C   UNL A   1      45.704  30.531  28.153  1.00  0.00     0.198 A 
ATOM    161  F   UNL A   1      44.296  29.551  29.762  1.00  0.00    -0.203 F 
ATOM    162  F   UNL A   1      49.101  29.739  27.183  1.00  0.00    -0.200 F 
ATOM    163  C   UNL A   1      46.923  30.589  27.498  1.00  0.00     0.200 A 
ATOM    164  F   UNL A   1      44.713  31.360  27.799  1.00  0.00    -0.200 F 
ATOM    165  F   UNL A   1      47.120  31.489  26.524  1.00  0.00    -0.200 F 
ENDBRANCH 131 155
ENDBRANCH  96  99
ENDBRANCH  86  89
ENDBRANCH  82  85
ENDBRANCH  79  82
ENDBRANCH  76  79
ENDBRANCH  73  76
ENDBRANCH   1  73
TORSDOF 27
ENDMDL
MODEL 10
REMARK VINA RESULT:     -10.5      5.574     10.683
REMARK SMILES CC(C)c1ccc2c(c1)c(SC(C)(C)C)c(CC(C)(C)C(=O)NCCCCCCNC(=O)c1ccc(-c3c4nc(c(-c5c(F)c(F)c(F)c(F)c5F)c5ccc([nH]5)c(-c5c(F)c(F)c(F)c(F)c5F)c5nc(c(-c6c(F)c(F)c(F)c(F)c6F)c6ccc3[nH]6)C=C5)C=C4)cc1)n2Cc1ccc(Cl)cc1
REMARK SMILES IDX 25 1 24 4 23 7 21 8 22 9 18 11 17 12 16 15 4 16 5 17 9 18
REMARK SMILES IDX 6 19 8 21 7 23 10 25 96 26 2 27 1 29 3 33 11 37 12 38 13 39
REMARK SMILES IDX 14 43 15 47 97 51 98 54 99 55 104 56 100 57 103 59 101 61
REMARK SMILES IDX 102 64 19 65 20 69 26 73 27 76 28 79 29 82 30 85 31 86 32 88
REMARK SMILES IDX 33 89 34 90 95 91 35 92 94 94 36 96 37 99 38 100 88 101
REMARK SMILES IDX 39 102 93 103 87 104 89 105 40 106 92 107 86 109 85 111
REMARK SMILES IDX 41 113 73 116 53 117 72 118 54 119 57 120 71 121 90 122
REMARK SMILES IDX 55 123 56 125 70 127 91 128 58 131 42 133 43 134 51 135
REMARK SMILES IDX 44 136 45 137 49 138 52 139 46 140 47 141 50 142 48 143
REMARK SMILES IDX 74 144 75 145 83 146 76 147 77 148 81 149 84 150 78 151
REMARK SMILES IDX 79 152 82 153 80 154 59 155 60 156 68 157 61 158 62 159
REMARK SMILES IDX 66 160 69 161 63 162 64 163 67 164 65 165
REMARK H PARENT 25 2 25 3 24 5 24 6 23 10 17 13 17 14 5 20 9 22 6 24 2 28 1 30
REMARK H PARENT 1 31 1 32 3 34 3 35 3 36 13 40 13 41 13 42 14 44 14 45 14 46
REMARK H PARENT 15 48 15 49 15 50 97 52 97 53 99 58 104 60 100 62 103 63 19 66
REMARK H PARENT 19 67 19 68 20 70 20 71 20 72 26 74 26 75 27 77 27 78 28 80
REMARK H PARENT 28 81 29 83 29 84 30 87 34 93 95 95 35 97 94 98 93 108 87 110
REMARK H PARENT 89 112 92 114 86 115 54 124 57 126 90 129 55 130 91 132
REMARK Flexibility Score: inf
ROOT
ATOM      1  C   UNL A   1      37.622  30.931  32.928  1.00  0.00    -0.036 C 
ATOM      2  H   UNL A   1      37.174  29.960  32.873  1.00  0.00     0.028 H 
ATOM      3  H   UNL A   1      38.034  31.213  31.982  1.00  0.00     0.028 H 
ENDROOT
BRANCH   1   4
ATOM      4  C   UNL A   1      38.738  30.901  33.943  1.00  0.00     0.017 C 
ATOM      5  H   UNL A   1      39.517  30.264  33.580  1.00  0.00     0.049 H 
ATOM      6  H   UNL A   1      39.089  31.903  34.079  1.00  0.00     0.049 H 
BRANCH   4   7
ATOM      7  N   UNL A   1      38.288  30.404  35.227  1.00  0.00    -0.356 N 
ATOM      8  C   UNL A   1      38.349  31.019  36.451  1.00  0.00     0.226 C 
ATOM      9  O   UNL A   1      37.571  30.616  37.305  1.00  0.00    -0.275 OA
ATOM     10  H   UNL A   1      37.885  29.506  35.220  1.00  0.00     0.163 HD
BRANCH   8  11
ATOM     11  C   UNL A   1      39.186  32.296  36.595  1.00  0.00     0.049 C 
BRANCH  11  12
ATOM     12  C   UNL A   1      39.208  33.286  35.390  1.00  0.00     0.003 C 
ATOM     13  H   UNL A   1      38.990  32.723  34.507  1.00  0.00     0.034 H 
ATOM     14  H   UNL A   1      38.489  34.037  35.639  1.00  0.00     0.034 H 
BRANCH  12  15
ATOM     15  C   UNL A   1      40.456  34.024  35.146  1.00  0.00     0.034 A 
ATOM     16  C   UNL A   1      44.741  35.788  35.505  1.00  0.00    -0.045 A 
ATOM     17  C   UNL A   1      44.959  34.768  34.571  1.00  0.00    -0.057 A 
ATOM     18  C   UNL A   1      43.409  36.018  35.915  1.00  0.00    -0.048 A 
ATOM     19  C   UNL A   1      43.916  33.982  34.062  1.00  0.00    -0.037 A 
ATOM     20  H   UNL A   1      45.922  34.589  34.247  1.00  0.00     0.063 H 
ATOM     21  C   UNL A   1      42.324  35.232  35.436  1.00  0.00     0.014 A 
ATOM     22  H   UNL A   1      43.216  36.780  36.583  1.00  0.00     0.063 H 
ATOM     23  C   UNL A   1      42.613  34.205  34.531  1.00  0.00     0.050 A 
ATOM     24  H   UNL A   1      44.104  33.252  33.357  1.00  0.00     0.065 H 
ATOM     25  C   UNL A   1      40.906  35.206  35.719  1.00  0.00     0.037 A 
ATOM     26  N   UNL A   1      41.424  33.546  34.264  1.00  0.00    -0.339 N 
BRANCH  16  27
ATOM     27  C   UNL A   1      45.908  36.539  36.153  1.00  0.00    -0.022 C 
ATOM     28  H   UNL A   1      46.574  35.739  36.403  1.00  0.00     0.035 H 
BRANCH  27  29
ATOM     29  C   UNL A   1      46.636  37.517  35.217  1.00  0.00    -0.059 C 
ATOM     30  H   UNL A   1      46.245  37.419  34.225  1.00  0.00     0.024 H 
ATOM     31  H   UNL A   1      47.683  37.295  35.212  1.00  0.00     0.024 H 
ATOM     32  H   UNL A   1      46.486  38.519  35.561  1.00  0.00     0.024 H 
ENDBRANCH  27  29
BRANCH  27  33
ATOM     33  C   UNL A   1      45.527  37.303  37.431  1.00  0.00    -0.059 C 
ATOM     34  H   UNL A   1      46.416  37.598  37.948  1.00  0.00     0.024 H 
ATOM     35  H   UNL A   1      44.939  36.672  38.062  1.00  0.00     0.024 H 
ATOM     36  H   UNL A   1      44.961  38.174  37.170  1.00  0.00     0.024 H 
ENDBRANCH  27  33
ENDBRANCH  16  27
BRANCH  25  37
ATOM     37  S   UNL A   1      40.180  36.378  36.847  1.00  0.00    -0.118 SA
BRANCH  37  38
ATOM     38  C   UNL A   1      40.615  36.321  38.662  1.00  0.00     0.012 C 
BRANCH  38  39
ATOM     39  C   UNL A   1      41.590  37.443  39.029  1.00  0.00    -0.051 C 
ATOM     40  H   UNL A   1      41.504  38.237  38.317  1.00  0.00     0.024 H 
ATOM     41  H   UNL A   1      42.590  37.063  39.021  1.00  0.00     0.024 H 
ATOM     42  H   UNL A   1      41.357  37.813  40.006  1.00  0.00     0.024 H 
ENDBRANCH  38  39
BRANCH  38  43
ATOM     43  C   UNL A   1      39.544  36.220  39.774  1.00  0.00    -0.051 C 
ATOM     44  H   UNL A   1      39.605  37.080  40.406  1.00  0.00     0.024 H 
ATOM     45  H   UNL A   1      39.715  35.338  40.354  1.00  0.00     0.024 H 
ATOM     46  H   UNL A   1      38.573  36.172  39.329  1.00  0.00     0.024 H 
ENDBRANCH  38  43
BRANCH  38  47
ATOM     47  C   UNL A   1      41.331  34.948  38.792  1.00  0.00    -0.051 C 
ATOM     48  H   UNL A   1      40.659  34.167  38.506  1.00  0.00     0.024 H 
ATOM     49  H   UNL A   1      41.639  34.801  39.806  1.00  0.00     0.024 H 
ATOM     50  H   UNL A   1      42.189  34.932  38.153  1.00  0.00     0.024 H 
ENDBRANCH  38  47
ENDBRANCH  37  38
ENDBRANCH  25  37
BRANCH  26  51
ATOM     51  C   UNL A   1      41.215  32.660  33.086  1.00  0.00     0.048 C 
ATOM     52  H   UNL A   1      40.290  32.145  33.236  1.00  0.00     0.055 H 
ATOM     53  H   UNL A   1      42.092  32.048  33.055  1.00  0.00     0.055 H 
BRANCH  51  54
ATOM     54  C   UNL A   1      41.156  33.299  31.707  1.00  0.00    -0.028 A 
ATOM     55  C   UNL A   1      42.237  33.183  30.809  1.00  0.00    -0.056 A 
ATOM     56  C   UNL A   1      40.042  34.048  31.292  1.00  0.00    -0.056 A 
ATOM     57  C   UNL A   1      42.290  33.943  29.635  1.00  0.00    -0.043 A 
ATOM     58  H   UNL A   1      43.002  32.526  31.021  1.00  0.00     0.063 H 
ATOM     59  C   UNL A   1      40.072  34.769  30.086  1.00  0.00    -0.043 A 
ATOM     60  H   UNL A   1      39.193  34.068  31.878  1.00  0.00     0.063 H 
ATOM     61  C   UNL A   1      41.216  34.754  29.292  1.00  0.00     0.041 A 
ATOM     62  H   UNL A   1      43.124  33.900  29.027  1.00  0.00     0.064 H 
ATOM     63  H   UNL A   1      39.245  35.311  29.790  1.00  0.00     0.064 H 
ATOM     64  Cl  UNL A   1      41.323  35.767  27.905  1.00  0.00    -0.084 Cl
ENDBRANCH  51  54
ENDBRANCH  26  51
ENDBRANCH  12  15
ENDBRANCH  11  12
BRANCH  11  65
ATOM     65  C   UNL A   1      40.564  31.625  36.820  1.00  0.00    -0.051 C 
ATOM     66  H   UNL A   1      40.459  30.821  37.519  1.00  0.00     0.024 H 
ATOM     67  H   UNL A   1      41.253  32.346  37.206  1.00  0.00     0.024 H 
ATOM     68  H   UNL A   1      40.930  31.243  35.891  1.00  0.00     0.024 H 
ENDBRANCH  11  65
BRANCH  11  69
ATOM     69  C   UNL A   1      38.574  33.177  37.725  1.00  0.00    -0.051 C 
ATOM     70  H   UNL A   1      39.336  33.433  38.431  1.00  0.00     0.024 H 
ATOM     71  H   UNL A   1      37.797  32.632  38.221  1.00  0.00     0.024 H 
ATOM     72  H   UNL A   1      38.167  34.071  37.300  1.00  0.00     0.024 H 
ENDBRANCH  11  69
ENDBRANCH   8  11
ENDBRANCH   4   7
ENDBRANCH   1   4
BRANCH   1  73
ATOM     73  C   UNL A   1      36.554  31.947  33.307  1.00  0.00    -0.052 C 
ATOM     74  H   UNL A   1      36.601  32.105  34.364  1.00  0.00     0.027 H 
ATOM     75  H   UNL A   1      35.616  31.542  32.992  1.00  0.00     0.027 H 
BRANCH  73  76
ATOM     76  C   UNL A   1      36.711  33.303  32.609  1.00  0.00    -0.052 C 
ATOM     77  H   UNL A   1      37.639  33.299  32.076  1.00  0.00     0.027 H 
ATOM     78  H   UNL A   1      36.669  34.044  33.380  1.00  0.00     0.027 H 
BRANCH  76  79
ATOM     79  C   UNL A   1      35.593  33.651  31.616  1.00  0.00    -0.036 C 
ATOM     80  H   UNL A   1      36.043  33.977  30.701  1.00  0.00     0.028 H 
ATOM     81  H   UNL A   1      34.996  34.414  32.070  1.00  0.00     0.028 H 
BRANCH  79  82
ATOM     82  C   UNL A   1      34.660  32.480  31.305  1.00  0.00     0.018 C 
ATOM     83  H   UNL A   1      33.715  32.663  31.775  1.00  0.00     0.049 H 
ATOM     84  H   UNL A   1      35.125  31.591  31.678  1.00  0.00     0.049 H 
BRANCH  82  85
ATOM     85  N   UNL A   1      34.441  32.294  29.889  1.00  0.00    -0.352 N 
ATOM     86  C   UNL A   1      35.180  31.769  28.870  1.00  0.00     0.251 C 
ATOM     87  H   UNL A   1      33.561  32.620  29.593  1.00  0.00     0.163 HD
ATOM     88  O   UNL A   1      34.693  31.852  27.741  1.00  0.00    -0.269 OA
BRANCH  86  89
ATOM     89  C   UNL A   1      36.521  31.151  29.032  1.00  0.00     0.039 A 
ATOM     90  C   UNL A   1      37.714  31.841  29.253  1.00  0.00    -0.049 A 
ATOM     91  C   UNL A   1      36.562  29.748  28.958  1.00  0.00    -0.049 A 
ATOM     92  C   UNL A   1      38.924  31.164  29.318  1.00  0.00    -0.053 A 
ATOM     93  H   UNL A   1      37.695  32.866  29.372  1.00  0.00     0.063 H 
ATOM     94  C   UNL A   1      37.764  29.060  29.066  1.00  0.00    -0.053 A 
ATOM     95  H   UNL A   1      35.686  29.221  28.821  1.00  0.00     0.063 H 
ATOM     96  C   UNL A   1      38.951  29.776  29.207  1.00  0.00    -0.014 A 
ATOM     97  H   UNL A   1      39.803  31.689  29.447  1.00  0.00     0.063 H 
ATOM     98  H   UNL A   1      37.778  28.028  29.042  1.00  0.00     0.063 H 
BRANCH  96  99
ATOM     99  C   UNL A   1      40.248  29.119  29.342  1.00  0.00     0.031 A 
ATOM    100  C   UNL A   1      40.725  28.901  30.740  1.00  0.00     0.074 A 
ATOM    101  C   UNL A   1      40.924  28.626  28.288  1.00  0.00     0.049 A 
ATOM    102  N   UNL A   1      41.854  29.246  31.275  1.00  0.00    -0.248 NA
ATOM    103  C   UNL A   1      39.789  28.263  31.681  1.00  0.00    -0.034 C 
ATOM    104  C   UNL A   1      40.463  28.510  26.902  1.00  0.00    -0.036 A 
ATOM    105  N   UNL A   1      42.142  28.013  28.265  1.00  0.00    -0.354 N 
ATOM    106  C   UNL A   1      41.832  28.748  32.577  1.00  0.00     0.074 A 
ATOM    107  C   UNL A   1      40.507  28.233  32.804  1.00  0.00    -0.034 C 
ATOM    108  H   UNL A   1      38.827  27.928  31.516  1.00  0.00     0.065 H 
ATOM    109  C   UNL A   1      41.280  27.668  26.233  1.00  0.00    -0.036 A 
ATOM    110  H   UNL A   1      39.645  28.994  26.500  1.00  0.00     0.065 H 
ATOM    111  C   UNL A   1      42.387  27.302  27.101  1.00  0.00     0.049 A 
ATOM    112  H   UNL A   1      42.787  28.070  29.007  1.00  0.00     0.167 HD
ATOM    113  C   UNL A   1      42.956  28.627  33.334  1.00  0.00     0.037 A 
ATOM    114  H   UNL A   1      40.160  27.887  33.713  1.00  0.00     0.065 H 
ATOM    115  H   UNL A   1      41.142  27.338  25.265  1.00  0.00     0.065 H 
ATOM    116  C   UNL A   1      43.384  26.411  26.896  1.00  0.00     0.037 A 
ATOM    117  C   UNL A   1      44.035  29.434  32.846  1.00  0.00     0.049 A 
ATOM    118  C   UNL A   1      44.443  26.674  27.897  1.00  0.00     0.074 A 
ATOM    119  C   UNL A   1      44.285  30.787  32.755  1.00  0.00    -0.036 A 
ATOM    120  N   UNL A   1      44.980  28.816  32.072  1.00  0.00    -0.354 N 
ATOM    121  N   UNL A   1      45.200  27.736  27.913  1.00  0.00    -0.248 NA
ATOM    122  C   UNL A   1      44.461  25.879  29.117  1.00  0.00    -0.034 C 
ATOM    123  C   UNL A   1      45.106  30.942  31.599  1.00  0.00    -0.036 A 
ATOM    124  H   UNL A   1      43.949  31.529  33.388  1.00  0.00     0.065 H 
ATOM    125  C   UNL A   1      45.323  29.674  31.059  1.00  0.00     0.049 A 
ATOM    126  H   UNL A   1      45.349  27.916  32.217  1.00  0.00     0.167 HD
ATOM    127  C   UNL A   1      45.450  27.967  29.254  1.00  0.00     0.074 A 
ATOM    128  C   UNL A   1      45.110  26.720  29.925  1.00  0.00    -0.034 C 
ATOM    129  H   UNL A   1      44.080  24.938  29.302  1.00  0.00     0.065 H 
ATOM    130  H   UNL A   1      45.473  31.832  31.229  1.00  0.00     0.065 H 
ATOM    131  C   UNL A   1      45.640  29.235  29.719  1.00  0.00     0.037 A 
ATOM    132  H   UNL A   1      45.342  26.510  30.908  1.00  0.00     0.065 H 
BRANCH 113 133
ATOM    133  C   UNL A   1      43.177  27.521  34.332  1.00  0.00     0.064 A 
ATOM    134  C   UNL A   1      43.303  27.816  35.703  1.00  0.00     0.173 A 
ATOM    135  C   UNL A   1      43.562  26.219  33.945  1.00  0.00     0.173 A 
ATOM    136  F   UNL A   1      43.010  29.039  36.168  1.00  0.00    -0.203 F 
ATOM    137  C   UNL A   1      43.812  26.883  36.613  1.00  0.00     0.198 A 
ATOM    138  C   UNL A   1      44.021  25.276  34.862  1.00  0.00     0.198 A 
ATOM    139  F   UNL A   1      43.611  25.855  32.657  1.00  0.00    -0.203 F 
ATOM    140  F   UNL A   1      44.012  27.237  37.889  1.00  0.00    -0.200 F 
ATOM    141  C   UNL A   1      44.169  25.613  36.191  1.00  0.00     0.200 A 
ATOM    142  F   UNL A   1      44.389  24.061  34.431  1.00  0.00    -0.200 F 
ATOM    143  F   UNL A   1      44.700  24.735  37.052  1.00  0.00    -0.200 F 
ENDBRANCH 113 133
BRANCH 116 144
ATOM    144  C   UNL A   1      43.342  25.167  26.097  1.00  0.00     0.064 A 
ATOM    145  C   UNL A   1      44.348  24.880  25.162  1.00  0.00     0.173 A 
ATOM    146  C   UNL A   1      42.477  24.107  26.436  1.00  0.00     0.173 A 
ATOM    147  F   UNL A   1      45.238  25.822  24.818  1.00  0.00    -0.203 F 
ATOM    148  C   UNL A   1      44.503  23.599  24.624  1.00  0.00     0.198 A 
ATOM    149  C   UNL A   1      42.624  22.833  25.888  1.00  0.00     0.198 A 
ATOM    150  F   UNL A   1      41.535  24.259  27.377  1.00  0.00    -0.203 F 
ATOM    151  F   UNL A   1      45.521  23.344  23.790  1.00  0.00    -0.200 F 
ATOM    152  C   UNL A   1      43.648  22.575  24.996  1.00  0.00     0.200 A 
ATOM    153  F   UNL A   1      41.812  21.843  26.284  1.00  0.00    -0.200 F 
ATOM    154  F   UNL A   1      43.837  21.332  24.533  1.00  0.00    -0.200 F 
ENDBRANCH 116 144
BRANCH 131 155
ATOM    155  C   UNL A   1      45.952  30.301  28.709  1.00  0.00     0.064 A 
ATOM    156  C   UNL A   1      44.980  31.098  28.081  1.00  0.00     0.173 A 
ATOM    157  C   UNL A   1      47.298  30.603  28.459  1.00  0.00     0.173 A 
ATOM    158  F   UNL A   1      43.678  30.937  28.349  1.00  0.00    -0.203 F 
ATOM    159  C   UNL A   1      45.343  32.119  27.205  1.00  0.00     0.198 A 
ATOM    160  C   UNL A   1      47.657  31.650  27.615  1.00  0.00     0.198 A 
ATOM    161  F   UNL A   1      48.268  29.912  29.077  1.00  0.00    -0.203 F 
ATOM    162  F   UNL A   1      44.398  32.857  26.604  1.00  0.00    -0.200 F 
ATOM    163  C   UNL A   1      46.681  32.398  26.978  1.00  0.00     0.200 A 
ATOM    164  F   UNL A   1      48.952  31.949  27.439  1.00  0.00    -0.200 F 
ATOM    165  F   UNL A   1      47.030  33.408  26.168  1.00  0.00    -0.200 F 
ENDBRANCH 131 155
ENDBRANCH  96  99
ENDBRANCH  86  89
ENDBRANCH  82  85
ENDBRANCH  79  82
ENDBRANCH  76  79
ENDBRANCH  73  76
ENDBRANCH   1  73
TORSDOF 27
ENDMDL
