MODEL 1
REMARK VINA RESULT:     -12.3      0.000      0.000
REMARK SMILES COc1ccc2c(c1)c(CC(=O)NCCCCCCNC(=O)c1ccc(-c3c4nc(c(-c5c(F)c(F)c(F)c(F)c5F)c5ccc([nH]5)c(-c5c(F)c(F)c(F)c(F)c5F)c5nc(c(-c6c(F)c(F)c(F)c(F)c6F)c6ccc3[nH]6)C=C5)C=C4)cc1)c(C)n2Cc1ccn(C(F)F)c(=O)c1
REMARK SMILES IDX 15 1 14 4 13 7 11 8 12 9 10 11 9 14 3 15 4 16 8 17 5 18 7 20
REMARK SMILES IDX 6 22 88 24 86 25 2 26 1 27 89 31 90 34 91 35 99 36 92 37
REMARK SMILES IDX 97 39 93 41 98 43 94 44 95 45 96 46 87 48 16 52 17 55 18 58
REMARK SMILES IDX 19 61 20 64 21 65 22 67 23 68 24 69 85 70 25 71 84 73 26 75
REMARK SMILES IDX 27 78 28 79 78 80 29 81 83 82 77 83 79 84 30 85 82 86 76 88
REMARK SMILES IDX 75 90 31 92 63 95 43 96 62 97 44 98 47 99 61 100 80 101
REMARK SMILES IDX 45 102 46 104 60 106 81 107 48 110 32 112 33 113 41 114
REMARK SMILES IDX 34 115 35 116 39 117 42 118 36 119 37 120 40 121 38 122
REMARK SMILES IDX 64 123 65 124 73 125 66 126 67 127 71 128 74 129 68 130
REMARK SMILES IDX 69 131 72 132 70 133 49 134 50 135 58 136 51 137 52 138
REMARK SMILES IDX 56 139 59 140 53 141 54 142 57 143 55 144
REMARK H PARENT 15 2 15 3 14 5 14 6 13 10 10 12 10 13 4 19 8 21 5 23 1 28 1 29
REMARK H PARENT 1 30 89 32 89 33 91 38 99 40 92 42 94 47 87 49 87 50 87 51
REMARK H PARENT 16 53 16 54 17 56 17 57 18 59 18 60 19 62 19 63 20 66 24 72
REMARK H PARENT 85 74 25 76 84 77 83 87 77 89 79 91 82 93 76 94 44 103 47 105
REMARK H PARENT 80 108 45 109 81 111
REMARK Flexibility Score: inf
ROOT
ATOM      1  C   UNL A   1      39.611  21.385  26.276  1.00  0.00    -0.036 C 
ATOM      2  H   UNL A   1      40.144  21.322  25.349  1.00  0.00     0.028 H 
ATOM      3  H   UNL A   1      39.089  20.480  26.505  1.00  0.00     0.028 H 
ENDROOT
BRANCH   1   4
ATOM      4  C   UNL A   1      38.565  22.493  26.156  1.00  0.00     0.017 C 
ATOM      5  H   UNL A   1      37.713  22.232  26.747  1.00  0.00     0.049 H 
ATOM      6  H   UNL A   1      39.002  23.406  26.502  1.00  0.00     0.049 H 
BRANCH   4   7
ATOM      7  N   UNL A   1      38.146  22.679  24.782  1.00  0.00    -0.356 N 
ATOM      8  C   UNL A   1      37.024  23.283  24.289  1.00  0.00     0.224 C 
ATOM      9  O   UNL A   1      36.845  23.264  23.069  1.00  0.00    -0.275 OA
ATOM     10  H   UNL A   1      38.760  22.317  24.102  1.00  0.00     0.163 HD
BRANCH   8  11
ATOM     11  C   UNL A   1      36.080  24.040  25.212  1.00  0.00     0.054 C 
ATOM     12  H   UNL A   1      36.354  23.826  26.223  1.00  0.00     0.042 H 
ATOM     13  H   UNL A   1      36.175  25.078  24.971  1.00  0.00     0.042 H 
BRANCH  11  14
ATOM     14  C   UNL A   1      34.636  23.680  25.027  1.00  0.00    -0.010 A 
ATOM     15  C   UNL A   1      32.679  25.887  22.610  1.00  0.00     0.119 A 
ATOM     16  C   UNL A   1      31.488  25.174  22.684  1.00  0.00    -0.018 A 
ATOM     17  C   UNL A   1      33.799  25.451  23.316  1.00  0.00    -0.010 A 
ATOM     18  C   UNL A   1      31.384  24.019  23.479  1.00  0.00    -0.034 A 
ATOM     19  H   UNL A   1      30.668  25.496  22.147  1.00  0.00     0.066 H 
ATOM     20  C   UNL A   1      33.709  24.321  24.157  1.00  0.00     0.007 A 
ATOM     21  H   UNL A   1      34.696  25.954  23.224  1.00  0.00     0.067 H 
ATOM     22  C   UNL A   1      32.507  23.610  24.223  1.00  0.00     0.049 A 
ATOM     23  H   UNL A   1      30.504  23.483  23.516  1.00  0.00     0.065 H 
ATOM     24  N   UNL A   1      32.715  22.539  25.085  1.00  0.00    -0.340 N 
ATOM     25  C   UNL A   1      33.935  22.704  25.723  1.00  0.00     0.020 A 
BRANCH  15  26
ATOM     26  O   UNL A   1      32.871  26.985  21.815  1.00  0.00    -0.497 OA
BRANCH  26  27
ATOM     27  C   UNL A   1      33.641  28.021  22.416  1.00  0.00     0.078 C 
ATOM     28  H   UNL A   1      33.083  28.462  23.215  1.00  0.00     0.067 H 
ATOM     29  H   UNL A   1      33.867  28.768  21.684  1.00  0.00     0.067 H 
ATOM     30  H   UNL A   1      34.551  27.612  22.801  1.00  0.00     0.067 H 
ENDBRANCH  26  27
ENDBRANCH  15  26
BRANCH  24  31
ATOM     31  C   UNL A   1      31.747  21.462  25.336  1.00  0.00     0.048 C 
ATOM     32  H   UNL A   1      30.836  21.707  24.830  1.00  0.00     0.055 H 
ATOM     33  H   UNL A   1      31.631  21.398  26.398  1.00  0.00     0.055 H 
BRANCH  31  34
ATOM     34  C   UNL A   1      32.197  20.088  24.867  1.00  0.00    -0.021 A 
ATOM     35  C   UNL A   1      32.567  19.086  25.849  1.00  0.00    -0.040 A 
ATOM     36  C   UNL A   1      32.172  19.718  23.572  1.00  0.00     0.009 A 
ATOM     37  C   UNL A   1      32.982  17.870  25.479  1.00  0.00     0.013 A 
ATOM     38  H   UNL A   1      32.508  19.317  26.852  1.00  0.00     0.064 H 
ATOM     39  C   UNL A   1      32.559  18.336  23.142  1.00  0.00     0.255 A 
ATOM     40  H   UNL A   1      31.881  20.405  22.859  1.00  0.00     0.068 H 
ATOM     41  N   UNL A   1      33.019  17.499  24.150  1.00  0.00    -0.258 N 
ATOM     42  H   UNL A   1      33.281  17.196  26.201  1.00  0.00     0.082 H 
ATOM     43  O   UNL A   1      32.450  18.040  21.963  1.00  0.00    -0.269 OA
BRANCH  41  44
ATOM     44  C   UNL A   1      33.353  16.137  23.807  1.00  0.00     0.321 C 
ATOM     45  F   UNL A   1      34.668  16.031  23.500  1.00  0.00    -0.185 F 
ATOM     46  F   UNL A   1      33.090  15.266  24.807  1.00  0.00    -0.185 F 
ATOM     47  H   UNL A   1      32.743  15.890  22.965  1.00  0.00     0.131 H 
ENDBRANCH  41  44
ENDBRANCH  31  34
ENDBRANCH  24  31
BRANCH  25  48
ATOM     48  C   UNL A   1      34.405  21.924  26.903  1.00  0.00    -0.024 C 
ATOM     49  H   UNL A   1      33.561  21.616  27.485  1.00  0.00     0.030 H 
ATOM     50  H   UNL A   1      35.048  22.535  27.501  1.00  0.00     0.030 H 
ATOM     51  H   UNL A   1      34.942  21.061  26.569  1.00  0.00     0.030 H 
ENDBRANCH  25  48
ENDBRANCH  11  14
ENDBRANCH   8  11
ENDBRANCH   4   7
ENDBRANCH   1   4
BRANCH   1  52
ATOM     52  C   UNL A   1      40.625  21.620  27.404  1.00  0.00    -0.052 C 
ATOM     53  H   UNL A   1      40.144  21.398  28.334  1.00  0.00     0.027 H 
ATOM     54  H   UNL A   1      40.937  22.639  27.320  1.00  0.00     0.027 H 
BRANCH  52  55
ATOM     55  C   UNL A   1      41.900  20.771  27.312  1.00  0.00    -0.052 C 
ATOM     56  H   UNL A   1      42.072  20.322  28.268  1.00  0.00     0.027 H 
ATOM     57  H   UNL A   1      42.683  21.435  27.011  1.00  0.00     0.027 H 
BRANCH  55  58
ATOM     58  C   UNL A   1      41.854  19.654  26.263  1.00  0.00    -0.036 C 
ATOM     59  H   UNL A   1      41.446  20.054  25.359  1.00  0.00     0.028 H 
ATOM     60  H   UNL A   1      41.250  18.867  26.665  1.00  0.00     0.028 H 
BRANCH  58  61
ATOM     61  C   UNL A   1      43.223  19.056  25.954  1.00  0.00     0.018 C 
ATOM     62  H   UNL A   1      43.133  17.989  25.953  1.00  0.00     0.049 H 
ATOM     63  H   UNL A   1      43.894  19.408  26.710  1.00  0.00     0.049 H 
BRANCH  61  64
ATOM     64  N   UNL A   1      43.768  19.468  24.681  1.00  0.00    -0.352 N 
ATOM     65  C   UNL A   1      44.448  20.568  24.242  1.00  0.00     0.251 C 
ATOM     66  H   UNL A   1      43.614  18.806  23.969  1.00  0.00     0.163 HD
ATOM     67  O   UNL A   1      44.926  20.498  23.107  1.00  0.00    -0.269 OA
BRANCH  65  68
ATOM     68  C   UNL A   1      44.552  21.857  24.977  1.00  0.00     0.039 A 
ATOM     69  C   UNL A   1      45.433  22.140  26.021  1.00  0.00    -0.049 A 
ATOM     70  C   UNL A   1      43.597  22.828  24.622  1.00  0.00    -0.049 A 
ATOM     71  C   UNL A   1      45.256  23.278  26.799  1.00  0.00    -0.053 A 
ATOM     72  H   UNL A   1      46.221  21.503  26.217  1.00  0.00     0.063 H 
ATOM     73  C   UNL A   1      43.436  23.981  25.373  1.00  0.00    -0.053 A 
ATOM     74  H   UNL A   1      43.007  22.678  23.789  1.00  0.00     0.063 H 
ATOM     75  C   UNL A   1      44.215  24.159  26.511  1.00  0.00    -0.014 A 
ATOM     76  H   UNL A   1      45.894  23.469  27.588  1.00  0.00     0.063 H 
ATOM     77  H   UNL A   1      42.749  24.697  25.092  1.00  0.00     0.063 H 
BRANCH  75  78
ATOM     78  C   UNL A   1      44.017  25.305  27.389  1.00  0.00     0.031 A 
ATOM     79  C   UNL A   1      45.121  26.308  27.363  1.00  0.00     0.074 A 
ATOM     80  C   UNL A   1      42.873  25.480  28.083  1.00  0.00     0.049 A 
ATOM     81  N   UNL A   1      45.838  26.736  28.352  1.00  0.00    -0.248 NA
ATOM     82  C   UNL A   1      45.565  26.805  26.048  1.00  0.00    -0.034 C 
ATOM     83  C   UNL A   1      41.638  24.693  28.015  1.00  0.00    -0.036 A 
ATOM     84  N   UNL A   1      42.538  26.478  28.947  1.00  0.00    -0.354 N 
ATOM     85  C   UNL A   1      46.716  27.677  27.815  1.00  0.00     0.074 A 
ATOM     86  C   UNL A   1      46.590  27.588  26.385  1.00  0.00    -0.034 C 
ATOM     87  H   UNL A   1      45.181  26.601  25.113  1.00  0.00     0.065 H 
ATOM     88  C   UNL A   1      40.632  25.382  28.598  1.00  0.00    -0.036 A 
ATOM     89  H   UNL A   1      41.550  23.758  27.588  1.00  0.00     0.065 H 
ATOM     90  C   UNL A   1      41.176  26.586  29.199  1.00  0.00     0.049 A 
ATOM     91  H   UNL A   1      43.206  27.073  29.357  1.00  0.00     0.167 HD
ATOM     92  C   UNL A   1      47.346  28.598  28.596  1.00  0.00     0.037 A 
ATOM     93  H   UNL A   1      47.210  28.064  25.710  1.00  0.00     0.065 H 
ATOM     94  H   UNL A   1      39.639  25.099  28.614  1.00  0.00     0.065 H 
ATOM     95  C   UNL A   1      40.548  27.633  29.794  1.00  0.00     0.037 A 
ATOM     96  C   UNL A   1      47.358  28.202  29.976  1.00  0.00     0.049 A 
ATOM     97  C   UNL A   1      41.578  28.403  30.535  1.00  0.00     0.074 A 
ATOM     98  C   UNL A   1      47.929  27.155  30.671  1.00  0.00    -0.036 A 
ATOM     99  N   UNL A   1      46.412  28.737  30.813  1.00  0.00    -0.354 N 
ATOM    100  N   UNL A   1      42.189  27.951  31.596  1.00  0.00    -0.248 NA
ATOM    101  C   UNL A   1      42.273  29.459  29.812  1.00  0.00    -0.034 C 
ATOM    102  C   UNL A   1      46.966  26.806  31.661  1.00  0.00    -0.036 A 
ATOM    103  H   UNL A   1      48.850  26.720  30.509  1.00  0.00     0.065 H 
ATOM    104  C   UNL A   1      45.902  27.702  31.554  1.00  0.00     0.049 A 
ATOM    105  H   UNL A   1      46.150  29.684  30.871  1.00  0.00     0.167 HD
ATOM    106  C   UNL A   1      43.508  28.348  31.436  1.00  0.00     0.074 A 
ATOM    107  C   UNL A   1      43.487  29.327  30.350  1.00  0.00    -0.034 C 
ATOM    108  H   UNL A   1      41.927  30.117  29.095  1.00  0.00     0.065 H 
ATOM    109  H   UNL A   1      47.042  26.029  32.336  1.00  0.00     0.065 H 
ATOM    110  C   UNL A   1      44.530  27.638  31.993  1.00  0.00     0.037 A 
ATOM    111  H   UNL A   1      44.317  29.853  30.035  1.00  0.00     0.065 H 
BRANCH  92 112
ATOM    112  C   UNL A   1      47.657  30.006  28.163  1.00  0.00     0.064 A 
ATOM    113  C   UNL A   1      46.607  30.865  27.779  1.00  0.00     0.173 A 
ATOM    114  C   UNL A   1      48.956  30.436  27.819  1.00  0.00     0.173 A 
ATOM    115  F   UNL A   1      45.331  30.541  28.034  1.00  0.00    -0.203 F 
ATOM    116  C   UNL A   1      46.842  32.031  27.044  1.00  0.00     0.198 A 
ATOM    117  C   UNL A   1      49.189  31.625  27.131  1.00  0.00     0.198 A 
ATOM    118  F   UNL A   1      50.034  29.671  28.033  1.00  0.00    -0.203 F 
ATOM    119  F   UNL A   1      45.807  32.755  26.596  1.00  0.00    -0.200 F 
ATOM    120  C   UNL A   1      48.132  32.406  26.716  1.00  0.00     0.200 A 
ATOM    121  F   UNL A   1      50.445  31.959  26.802  1.00  0.00    -0.200 F 
ATOM    122  F   UNL A   1      48.354  33.489  25.960  1.00  0.00    -0.200 F 
ENDBRANCH  92 112
BRANCH  95 123
ATOM    123  C   UNL A   1      39.208  28.192  29.483  1.00  0.00     0.064 A 
ATOM    124  C   UNL A   1      38.261  28.426  30.493  1.00  0.00     0.173 A 
ATOM    125  C   UNL A   1      38.930  28.762  28.224  1.00  0.00     0.173 A 
ATOM    126  F   UNL A   1      38.471  27.965  31.735  1.00  0.00    -0.203 F 
ATOM    127  C   UNL A   1      37.113  29.196  30.261  1.00  0.00     0.198 A 
ATOM    128  C   UNL A   1      37.784  29.525  27.993  1.00  0.00     0.198 A 
ATOM    129  F   UNL A   1      39.813  28.672  27.219  1.00  0.00    -0.203 F 
ATOM    130  F   UNL A   1      36.260  29.445  31.265  1.00  0.00    -0.200 F 
ATOM    131  C   UNL A   1      36.881  29.752  29.014  1.00  0.00     0.200 A 
ATOM    132  F   UNL A   1      37.593  30.090  26.792  1.00  0.00    -0.200 F 
ATOM    133  F   UNL A   1      35.815  30.536  28.808  1.00  0.00    -0.200 F 
ENDBRANCH  95 123
BRANCH 110 134
ATOM    134  C   UNL A   1      44.188  26.534  32.953  1.00  0.00     0.064 A 
ATOM    135  C   UNL A   1      44.082  25.182  32.581  1.00  0.00     0.173 A 
ATOM    136  C   UNL A   1      44.161  26.830  34.322  1.00  0.00     0.173 A 
ATOM    137  F   UNL A   1      44.202  24.806  31.303  1.00  0.00    -0.203 F 
ATOM    138  C   UNL A   1      43.930  24.179  33.538  1.00  0.00     0.198 A 
ATOM    139  C   UNL A   1      44.045  25.823  35.276  1.00  0.00     0.198 A 
ATOM    140  F   UNL A   1      44.318  28.097  34.738  1.00  0.00    -0.203 F 
ATOM    141  F   UNL A   1      43.841  22.895  33.158  1.00  0.00    -0.200 F 
ATOM    142  C   UNL A   1      43.923  24.500  34.884  1.00  0.00     0.200 A 
ATOM    143  F   UNL A   1      44.097  26.134  36.579  1.00  0.00    -0.200 F 
ATOM    144  F   UNL A   1      43.838  23.531  35.807  1.00  0.00    -0.200 F 
ENDBRANCH 110 134
ENDBRANCH  75  78
ENDBRANCH  65  68
ENDBRANCH  61  64
ENDBRANCH  58  61
ENDBRANCH  55  58
ENDBRANCH  52  55
ENDBRANCH   1  52
TORSDOF 20
ENDMDL
MODEL 2
REMARK VINA RESULT:     -12.3      2.238      4.000
REMARK SMILES COc1ccc2c(c1)c(CC(=O)NCCCCCCNC(=O)c1ccc(-c3c4nc(c(-c5c(F)c(F)c(F)c(F)c5F)c5ccc([nH]5)c(-c5c(F)c(F)c(F)c(F)c5F)c5nc(c(-c6c(F)c(F)c(F)c(F)c6F)c6ccc3[nH]6)C=C5)C=C4)cc1)c(C)n2Cc1ccn(C(F)F)c(=O)c1
REMARK SMILES IDX 15 1 14 4 13 7 11 8 12 9 10 11 9 14 3 15 4 16 8 17 5 18 7 20
REMARK SMILES IDX 6 22 88 24 86 25 2 26 1 27 89 31 90 34 91 35 99 36 92 37
REMARK SMILES IDX 97 39 93 41 98 43 94 44 95 45 96 46 87 48 16 52 17 55 18 58
REMARK SMILES IDX 19 61 20 64 21 65 22 67 23 68 24 69 85 70 25 71 84 73 26 75
REMARK SMILES IDX 27 78 28 79 78 80 29 81 83 82 77 83 79 84 30 85 82 86 76 88
REMARK SMILES IDX 75 90 31 92 63 95 43 96 62 97 44 98 47 99 61 100 80 101
REMARK SMILES IDX 45 102 46 104 60 106 81 107 48 110 32 112 33 113 41 114
REMARK SMILES IDX 34 115 35 116 39 117 42 118 36 119 37 120 40 121 38 122
REMARK SMILES IDX 64 123 65 124 73 125 66 126 67 127 71 128 74 129 68 130
REMARK SMILES IDX 69 131 72 132 70 133 49 134 50 135 58 136 51 137 52 138
REMARK SMILES IDX 56 139 59 140 53 141 54 142 57 143 55 144
REMARK H PARENT 15 2 15 3 14 5 14 6 13 10 10 12 10 13 4 19 8 21 5 23 1 28 1 29
REMARK H PARENT 1 30 89 32 89 33 91 38 99 40 92 42 94 47 87 49 87 50 87 51
REMARK H PARENT 16 53 16 54 17 56 17 57 18 59 18 60 19 62 19 63 20 66 24 72
REMARK H PARENT 85 74 25 76 84 77 83 87 77 89 79 91 82 93 76 94 44 103 47 105
REMARK H PARENT 80 108 45 109 81 111
REMARK Flexibility Score: inf
ROOT
ATOM      1  C   UNL A   1      40.666  21.491  26.106  1.00  0.00    -0.036 C 
ATOM      2  H   UNL A   1      41.170  22.202  25.484  1.00  0.00     0.028 H 
ATOM      3  H   UNL A   1      40.496  20.562  25.603  1.00  0.00     0.028 H 
ENDROOT
BRANCH   1   4
ATOM      4  C   UNL A   1      39.297  22.060  26.478  1.00  0.00     0.017 C 
ATOM      5  H   UNL A   1      38.700  21.282  26.904  1.00  0.00     0.049 H 
ATOM      6  H   UNL A   1      39.443  22.854  27.181  1.00  0.00     0.049 H 
BRANCH   4   7
ATOM      7  N   UNL A   1      38.614  22.597  25.318  1.00  0.00    -0.356 N 
ATOM      8  C   UNL A   1      37.280  22.809  25.117  1.00  0.00     0.224 C 
ATOM      9  O   UNL A   1      36.920  23.218  24.010  1.00  0.00    -0.275 OA
ATOM     10  H   UNL A   1      39.197  22.845  24.564  1.00  0.00     0.163 HD
BRANCH   8  11
ATOM     11  C   UNL A   1      36.284  22.640  26.256  1.00  0.00     0.054 C 
ATOM     12  H   UNL A   1      36.578  21.791  26.836  1.00  0.00     0.042 H 
ATOM     13  H   UNL A   1      36.300  23.548  26.820  1.00  0.00     0.042 H 
BRANCH  11  14
ATOM     14  C   UNL A   1      34.872  22.434  25.798  1.00  0.00    -0.010 A 
ATOM     15  C   UNL A   1      34.077  18.977  24.396  1.00  0.00     0.119 A 
ATOM     16  C   UNL A   1      32.721  19.205  24.191  1.00  0.00    -0.018 A 
ATOM     17  C   UNL A   1      34.873  19.970  24.965  1.00  0.00    -0.010 A 
ATOM     18  C   UNL A   1      32.134  20.435  24.534  1.00  0.00    -0.034 A 
ATOM     19  H   UNL A   1      32.136  18.459  23.783  1.00  0.00     0.066 H 
ATOM     20  C   UNL A   1      34.318  21.230  25.276  1.00  0.00     0.007 A 
ATOM     21  H   UNL A   1      35.870  19.784  25.159  1.00  0.00     0.067 H 
ATOM     22  C   UNL A   1      32.953  21.448  25.067  1.00  0.00     0.049 A 
ATOM     23  H   UNL A   1      31.123  20.593  24.398  1.00  0.00     0.065 H 
ATOM     24  N   UNL A   1      32.680  22.743  25.492  1.00  0.00    -0.340 N 
ATOM     25  C   UNL A   1      33.875  23.399  25.739  1.00  0.00     0.020 A 
BRANCH  15  26
ATOM     26  O   UNL A   1      34.705  17.788  24.140  1.00  0.00    -0.497 OA
BRANCH  26  27
ATOM     27  C   UNL A   1      34.017  16.943  23.222  1.00  0.00     0.078 C 
ATOM     28  H   UNL A   1      34.016  15.940  23.595  1.00  0.00     0.067 H 
ATOM     29  H   UNL A   1      34.511  16.971  22.274  1.00  0.00     0.067 H 
ATOM     30  H   UNL A   1      33.010  17.283  23.112  1.00  0.00     0.067 H 
ENDBRANCH  26  27
ENDBRANCH  15  26
BRANCH  24  31
ATOM     31  C   UNL A   1      31.336  23.335  25.571  1.00  0.00     0.048 C 
ATOM     32  H   UNL A   1      31.166  23.644  26.581  1.00  0.00     0.055 H 
ATOM     33  H   UNL A   1      30.652  22.581  25.243  1.00  0.00     0.055 H 
BRANCH  31  34
ATOM     34  C   UNL A   1      31.123  24.536  24.664  1.00  0.00    -0.021 A 
ATOM     35  C   UNL A   1      30.571  25.757  25.218  1.00  0.00    -0.040 A 
ATOM     36  C   UNL A   1      31.521  24.555  23.377  1.00  0.00     0.009 A 
ATOM     37  C   UNL A   1      30.354  26.833  24.453  1.00  0.00     0.013 A 
ATOM     38  H   UNL A   1      30.341  25.797  26.223  1.00  0.00     0.064 H 
ATOM     39  C   UNL A   1      31.359  25.775  22.522  1.00  0.00     0.255 A 
ATOM     40  H   UNL A   1      31.947  23.708  22.970  1.00  0.00     0.068 H 
ATOM     41  N   UNL A   1      30.702  26.844  23.118  1.00  0.00    -0.258 N 
ATOM     42  H   UNL A   1      29.917  27.671  24.869  1.00  0.00     0.082 H 
ATOM     43  O   UNL A   1      31.801  25.753  21.385  1.00  0.00    -0.269 OA
BRANCH  41  44
ATOM     44  C   UNL A   1      30.566  28.067  22.363  1.00  0.00     0.321 C 
ATOM     45  F   UNL A   1      29.276  28.483  22.357  1.00  0.00    -0.185 F 
ATOM     46  F   UNL A   1      31.322  29.073  22.857  1.00  0.00    -0.185 F 
ATOM     47  H   UNL A   1      30.899  27.838  21.374  1.00  0.00     0.131 H 
ENDBRANCH  41  44
ENDBRANCH  31  34
ENDBRANCH  24  31
BRANCH  25  48
ATOM     48  C   UNL A   1      34.027  24.866  25.955  1.00  0.00    -0.024 C 
ATOM     49  H   UNL A   1      34.272  25.051  26.980  1.00  0.00     0.030 H 
ATOM     50  H   UNL A   1      33.109  25.359  25.713  1.00  0.00     0.030 H 
ATOM     51  H   UNL A   1      34.810  25.240  25.329  1.00  0.00     0.030 H 
ENDBRANCH  25  48
ENDBRANCH  11  14
ENDBRANCH   8  11
ENDBRANCH   4   7
ENDBRANCH   1   4
BRANCH   1  52
ATOM     52  C   UNL A   1      41.555  21.191  27.321  1.00  0.00    -0.052 C 
ATOM     53  H   UNL A   1      41.052  21.544  28.196  1.00  0.00     0.027 H 
ATOM     54  H   UNL A   1      42.487  21.684  27.140  1.00  0.00     0.027 H 
BRANCH  52  55
ATOM     55  C   UNL A   1      41.885  19.707  27.526  1.00  0.00    -0.052 C 
ATOM     56  H   UNL A   1      41.071  19.254  28.052  1.00  0.00     0.027 H 
ATOM     57  H   UNL A   1      42.807  19.676  28.070  1.00  0.00     0.027 H 
BRANCH  55  58
ATOM     58  C   UNL A   1      42.119  18.915  26.234  1.00  0.00    -0.036 C 
ATOM     59  H   UNL A   1      41.639  19.430  25.429  1.00  0.00     0.028 H 
ATOM     60  H   UNL A   1      41.714  17.936  26.386  1.00  0.00     0.028 H 
BRANCH  58  61
ATOM     61  C   UNL A   1      43.595  18.742  25.888  1.00  0.00     0.018 C 
ATOM     62  H   UNL A   1      43.851  17.709  26.009  1.00  0.00     0.049 H 
ATOM     63  H   UNL A   1      44.146  19.379  26.549  1.00  0.00     0.049 H 
BRANCH  61  64
ATOM     64  N   UNL A   1      43.931  19.140  24.541  1.00  0.00    -0.352 N 
ATOM     65  C   UNL A   1      44.495  20.251  23.983  1.00  0.00     0.251 C 
ATOM     66  H   UNL A   1      43.699  18.455  23.873  1.00  0.00     0.163 HD
ATOM     67  O   UNL A   1      44.803  20.168  22.791  1.00  0.00    -0.269 OA
BRANCH  65  68
ATOM     68  C   UNL A   1      44.656  21.562  24.668  1.00  0.00     0.039 A 
ATOM     69  C   UNL A   1      45.556  21.849  25.695  1.00  0.00    -0.049 A 
ATOM     70  C   UNL A   1      43.738  22.556  24.282  1.00  0.00    -0.049 A 
ATOM     71  C   UNL A   1      45.430  23.021  26.430  1.00  0.00    -0.053 A 
ATOM     72  H   UNL A   1      46.318  21.188  25.910  1.00  0.00     0.063 H 
ATOM     73  C   UNL A   1      43.629  23.742  24.990  1.00  0.00    -0.053 A 
ATOM     74  H   UNL A   1      43.136  22.399  23.459  1.00  0.00     0.063 H 
ATOM     75  C   UNL A   1      44.423  23.932  26.115  1.00  0.00    -0.014 A 
ATOM     76  H   UNL A   1      46.081  23.217  27.208  1.00  0.00     0.063 H 
ATOM     77  H   UNL A   1      42.968  24.475  24.686  1.00  0.00     0.063 H 
BRANCH  75  78
ATOM     78  C   UNL A   1      44.278  25.117  26.950  1.00  0.00     0.031 A 
ATOM     79  C   UNL A   1      45.354  26.135  26.779  1.00  0.00     0.074 A 
ATOM     80  C   UNL A   1      43.194  25.308  27.732  1.00  0.00     0.049 A 
ATOM     81  N   UNL A   1      46.144  26.624  27.680  1.00  0.00    -0.248 NA
ATOM     82  C   UNL A   1      45.673  26.572  25.409  1.00  0.00    -0.034 C 
ATOM     83  C   UNL A   1      41.974  24.499  27.809  1.00  0.00    -0.036 A 
ATOM     84  N   UNL A   1      42.914  26.343  28.571  1.00  0.00    -0.354 N 
ATOM     85  C   UNL A   1      46.953  27.552  27.025  1.00  0.00     0.074 A 
ATOM     86  C   UNL A   1      46.708  27.388  25.616  1.00  0.00    -0.034 C 
ATOM     87  H   UNL A   1      45.215  26.316  24.521  1.00  0.00     0.065 H 
ATOM     88  C   UNL A   1      41.007  25.200  28.443  1.00  0.00    -0.036 A 
ATOM     89  H   UNL A   1      41.869  23.543  27.437  1.00  0.00     0.065 H 
ATOM     90  C   UNL A   1      41.576  26.442  28.934  1.00  0.00     0.049 A 
ATOM     91  H   UNL A   1      43.602  26.969  28.893  1.00  0.00     0.167 HD
ATOM     92  C   UNL A   1      47.629  28.520  27.702  1.00  0.00     0.037 A 
ATOM     93  H   UNL A   1      47.257  27.840  24.869  1.00  0.00     0.065 H 
ATOM     94  H   UNL A   1      40.025  24.902  28.558  1.00  0.00     0.065 H 
ATOM     95  C   UNL A   1      40.980  27.506  29.530  1.00  0.00     0.037 A 
ATOM     96  C   UNL A   1      47.767  28.194  29.093  1.00  0.00     0.049 A 
ATOM     97  C   UNL A   1      42.054  28.330  30.141  1.00  0.00     0.074 A 
ATOM     98  C   UNL A   1      48.417  27.193  29.786  1.00  0.00    -0.036 A 
ATOM     99  N   UNL A   1      46.886  28.755  29.982  1.00  0.00    -0.354 N 
ATOM    100  N   UNL A   1      42.763  27.942  31.166  1.00  0.00    -0.248 NA
ATOM    101  C   UNL A   1      42.662  29.360  29.310  1.00  0.00    -0.034 C 
ATOM    102  C   UNL A   1      47.550  26.879  30.872  1.00  0.00    -0.036 A 
ATOM    103  H   UNL A   1      49.330  26.766  29.568  1.00  0.00     0.065 H 
ATOM    104  C   UNL A   1      46.463  27.751  30.814  1.00  0.00     0.049 A 
ATOM    105  H   UNL A   1      46.610  29.700  30.017  1.00  0.00     0.167 HD
ATOM    106  C   UNL A   1      44.055  28.352  30.873  1.00  0.00     0.074 A 
ATOM    107  C   UNL A   1      43.921  29.274  29.746  1.00  0.00    -0.034 C 
ATOM    108  H   UNL A   1      42.243  29.975  28.594  1.00  0.00     0.065 H 
ATOM    109  H   UNL A   1      47.699  26.138  31.575  1.00  0.00     0.065 H 
ATOM    110  C   UNL A   1      45.135  27.687  31.373  1.00  0.00     0.037 A 
ATOM    111  H   UNL A   1      44.710  29.797  29.335  1.00  0.00     0.065 H 
BRANCH  92 112
ATOM    112  C   UNL A   1      47.873  29.910  27.176  1.00  0.00     0.064 A 
ATOM    113  C   UNL A   1      49.177  30.444  27.198  1.00  0.00     0.173 A 
ATOM    114  C   UNL A   1      46.836  30.838  26.943  1.00  0.00     0.173 A 
ATOM    115  F   UNL A   1      50.235  29.655  27.436  1.00  0.00    -0.203 F 
ATOM    116  C   UNL A   1      49.413  31.816  27.067  1.00  0.00     0.198 A 
ATOM    117  C   UNL A   1      47.079  32.197  26.762  1.00  0.00     0.198 A 
ATOM    118  F   UNL A   1      45.545  30.484  26.997  1.00  0.00    -0.203 F 
ATOM    119  F   UNL A   1      50.655  32.295  27.215  1.00  0.00    -0.200 F 
ATOM    120  C   UNL A   1      48.363  32.691  26.855  1.00  0.00     0.200 A 
ATOM    121  F   UNL A   1      46.047  33.033  26.581  1.00  0.00    -0.200 F 
ATOM    122  F   UNL A   1      48.580  34.011  26.791  1.00  0.00    -0.200 F 
ENDBRANCH  92 112
BRANCH  95 123
ATOM    123  C   UNL A   1      39.608  28.028  29.310  1.00  0.00     0.064 A 
ATOM    124  C   UNL A   1      38.698  28.165  30.370  1.00  0.00     0.173 A 
ATOM    125  C   UNL A   1      39.252  28.657  28.099  1.00  0.00     0.173 A 
ATOM    126  F   UNL A   1      38.981  27.644  31.573  1.00  0.00    -0.203 F 
ATOM    127  C   UNL A   1      37.512  28.900  30.233  1.00  0.00     0.198 A 
ATOM    128  C   UNL A   1      38.068  29.384  27.962  1.00  0.00     0.198 A 
ATOM    129  F   UNL A   1      40.092  28.660  27.054  1.00  0.00    -0.203 F 
ATOM    130  F   UNL A   1      36.696  29.057  31.285  1.00  0.00    -0.200 F 
ATOM    131  C   UNL A   1      37.204  29.516  29.031  1.00  0.00     0.200 A 
ATOM    132  F   UNL A   1      37.803  30.008  26.805  1.00  0.00    -0.200 F 
ATOM    133  F   UNL A   1      36.100  30.267  28.917  1.00  0.00    -0.200 F 
ENDBRANCH  95 123
BRANCH 110 134
ATOM    134  C   UNL A   1      44.899  26.628  32.411  1.00  0.00     0.064 A 
ATOM    135  C   UNL A   1      44.732  26.901  33.781  1.00  0.00     0.173 A 
ATOM    136  C   UNL A   1      44.638  25.321  31.978  1.00  0.00     0.173 A 
ATOM    137  F   UNL A   1      44.861  28.144  34.257  1.00  0.00    -0.203 F 
ATOM    138  C   UNL A   1      44.347  25.903  34.675  1.00  0.00     0.198 A 
ATOM    139  C   UNL A   1      44.218  24.335  32.868  1.00  0.00     0.198 A 
ATOM    140  F   UNL A   1      44.722  25.017  30.673  1.00  0.00    -0.203 F 
ATOM    141  F   UNL A   1      44.185  26.191  35.976  1.00  0.00    -0.200 F 
ATOM    142  C   UNL A   1      44.079  24.624  34.216  1.00  0.00     0.200 A 
ATOM    143  F   UNL A   1      43.905  23.116  32.409  1.00  0.00    -0.200 F 
ATOM    144  F   UNL A   1      43.651  23.679  35.064  1.00  0.00    -0.200 F 
ENDBRANCH 110 134
ENDBRANCH  75  78
ENDBRANCH  65  68
ENDBRANCH  61  64
ENDBRANCH  58  61
ENDBRANCH  55  58
ENDBRANCH  52  55
ENDBRANCH   1  52
TORSDOF 20
ENDMDL
MODEL 3
REMARK VINA RESULT:     -12.2      2.756      8.424
REMARK SMILES COc1ccc2c(c1)c(CC(=O)NCCCCCCNC(=O)c1ccc(-c3c4nc(c(-c5c(F)c(F)c(F)c(F)c5F)c5ccc([nH]5)c(-c5c(F)c(F)c(F)c(F)c5F)c5nc(c(-c6c(F)c(F)c(F)c(F)c6F)c6ccc3[nH]6)C=C5)C=C4)cc1)c(C)n2Cc1ccn(C(F)F)c(=O)c1
REMARK SMILES IDX 15 1 14 4 13 7 11 8 12 9 10 11 9 14 3 15 4 16 8 17 5 18 7 20
REMARK SMILES IDX 6 22 88 24 86 25 2 26 1 27 89 31 90 34 91 35 99 36 92 37
REMARK SMILES IDX 97 39 93 41 98 43 94 44 95 45 96 46 87 48 16 52 17 55 18 58
REMARK SMILES IDX 19 61 20 64 21 65 22 67 23 68 24 69 85 70 25 71 84 73 26 75
REMARK SMILES IDX 27 78 28 79 78 80 29 81 83 82 77 83 79 84 30 85 82 86 76 88
REMARK SMILES IDX 75 90 31 92 63 95 43 96 62 97 44 98 47 99 61 100 80 101
REMARK SMILES IDX 45 102 46 104 60 106 81 107 48 110 32 112 33 113 41 114
REMARK SMILES IDX 34 115 35 116 39 117 42 118 36 119 37 120 40 121 38 122
REMARK SMILES IDX 64 123 65 124 73 125 66 126 67 127 71 128 74 129 68 130
REMARK SMILES IDX 69 131 72 132 70 133 49 134 50 135 58 136 51 137 52 138
REMARK SMILES IDX 56 139 59 140 53 141 54 142 57 143 55 144
REMARK H PARENT 15 2 15 3 14 5 14 6 13 10 10 12 10 13 4 19 8 21 5 23 1 28 1 29
REMARK H PARENT 1 30 89 32 89 33 91 38 99 40 92 42 94 47 87 49 87 50 87 51
REMARK H PARENT 16 53 16 54 17 56 17 57 18 59 18 60 19 62 19 63 20 66 24 72
REMARK H PARENT 85 74 25 76 84 77 83 87 77 89 79 91 82 93 76 94 44 103 47 105
REMARK H PARENT 80 108 45 109 81 111
REMARK Flexibility Score: inf
ROOT
ATOM      1  C   UNL A   1      31.436  29.134  23.091  1.00  0.00    -0.036 C 
ATOM      2  H   UNL A   1      30.588  29.786  23.122  1.00  0.00     0.028 H 
ATOM      3  H   UNL A   1      32.119  29.395  22.311  1.00  0.00     0.028 H 
ENDROOT
BRANCH   1   4
ATOM      4  C   UNL A   1      30.945  27.715  22.806  1.00  0.00     0.017 C 
ATOM      5  H   UNL A   1      30.788  27.207  23.734  1.00  0.00     0.049 H 
ATOM      6  H   UNL A   1      30.032  27.781  22.250  1.00  0.00     0.049 H 
BRANCH   4   7
ATOM      7  N   UNL A   1      31.906  26.970  22.018  1.00  0.00    -0.356 N 
ATOM      8  C   UNL A   1      33.018  26.287  22.421  1.00  0.00     0.224 C 
ATOM      9  O   UNL A   1      33.731  25.779  21.552  1.00  0.00    -0.275 OA
ATOM     10  H   UNL A   1      31.732  26.953  21.048  1.00  0.00     0.163 HD
BRANCH   8  11
ATOM     11  C   UNL A   1      33.309  26.079  23.900  1.00  0.00     0.054 C 
ATOM     12  H   UNL A   1      34.268  26.501  24.116  1.00  0.00     0.042 H 
ATOM     13  H   UNL A   1      32.519  26.555  24.443  1.00  0.00     0.042 H 
BRANCH  11  14
ATOM     14  C   UNL A   1      33.320  24.640  24.318  1.00  0.00    -0.010 A 
ATOM     15  C   UNL A   1      36.620  23.355  25.733  1.00  0.00     0.119 A 
ATOM     16  C   UNL A   1      36.164  22.079  26.045  1.00  0.00    -0.018 A 
ATOM     17  C   UNL A   1      35.744  24.297  25.195  1.00  0.00    -0.010 A 
ATOM     18  C   UNL A   1      34.828  21.710  25.809  1.00  0.00    -0.034 A 
ATOM     19  H   UNL A   1      36.816  21.392  26.456  1.00  0.00     0.066 H 
ATOM     20  C   UNL A   1      34.410  23.937  24.907  1.00  0.00     0.007 A 
ATOM     21  H   UNL A   1      36.071  25.257  25.008  1.00  0.00     0.067 H 
ATOM     22  C   UNL A   1      33.962  22.652  25.225  1.00  0.00     0.049 A 
ATOM     23  H   UNL A   1      34.491  20.767  26.060  1.00  0.00     0.065 H 
ATOM     24  N   UNL A   1      32.618  22.592  24.872  1.00  0.00    -0.340 N 
ATOM     25  C   UNL A   1      32.293  23.722  24.140  1.00  0.00     0.020 A 
BRANCH  15  26
ATOM     26  O   UNL A   1      37.888  23.802  25.986  1.00  0.00    -0.497 OA
BRANCH  26  27
ATOM     27  C   UNL A   1      38.872  22.775  26.065  1.00  0.00     0.078 C 
ATOM     28  H   UNL A   1      38.451  21.852  25.725  1.00  0.00     0.067 H 
ATOM     29  H   UNL A   1      39.194  22.667  27.079  1.00  0.00     0.067 H 
ATOM     30  H   UNL A   1      39.707  23.034  25.450  1.00  0.00     0.067 H 
ENDBRANCH  26  27
ENDBRANCH  15  26
BRANCH  24  31
ATOM     31  C   UNL A   1      31.725  21.459  25.158  1.00  0.00     0.048 C 
ATOM     32  H   UNL A   1      30.796  21.631  24.656  1.00  0.00     0.055 H 
ATOM     33  H   UNL A   1      31.623  21.413  26.222  1.00  0.00     0.055 H 
BRANCH  31  34
ATOM     34  C   UNL A   1      32.261  20.107  24.716  1.00  0.00    -0.021 A 
ATOM     35  C   UNL A   1      32.742  19.171  25.714  1.00  0.00    -0.040 A 
ATOM     36  C   UNL A   1      32.216  19.691  23.436  1.00  0.00     0.009 A 
ATOM     37  C   UNL A   1      33.235  17.977  25.367  1.00  0.00     0.013 A 
ATOM     38  H   UNL A   1      32.703  19.432  26.711  1.00  0.00     0.064 H 
ATOM     39  C   UNL A   1      32.691  18.328  23.035  1.00  0.00     0.255 A 
ATOM     40  H   UNL A   1      31.846  20.328  22.713  1.00  0.00     0.068 H 
ATOM     41  N   UNL A   1      33.251  17.564  24.051  1.00  0.00    -0.258 N 
ATOM     42  H   UNL A   1      33.611  17.353  26.098  1.00  0.00     0.082 H 
ATOM     43  O   UNL A   1      32.561  17.983  21.872  1.00  0.00    -0.269 OA
BRANCH  41  44
ATOM     44  C   UNL A   1      33.674  16.219  23.739  1.00  0.00     0.321 C 
ATOM     45  F   UNL A   1      34.469  16.211  22.642  1.00  0.00    -0.185 F 
ATOM     46  F   UNL A   1      34.359  15.638  24.750  1.00  0.00    -0.185 F 
ATOM     47  H   UNL A   1      32.778  15.664  23.566  1.00  0.00     0.131 H 
ENDBRANCH  41  44
ENDBRANCH  31  34
ENDBRANCH  24  31
BRANCH  25  48
ATOM     48  C   UNL A   1      31.037  23.914  23.360  1.00  0.00    -0.024 C 
ATOM     49  H   UNL A   1      30.832  24.961  23.267  1.00  0.00     0.030 H 
ATOM     50  H   UNL A   1      30.226  23.435  23.866  1.00  0.00     0.030 H 
ATOM     51  H   UNL A   1      31.153  23.486  22.386  1.00  0.00     0.030 H 
ENDBRANCH  25  48
ENDBRANCH  11  14
ENDBRANCH   8  11
ENDBRANCH   4   7
ENDBRANCH   1   4
BRANCH   1  52
ATOM     52  C   UNL A   1      32.197  29.263  24.418  1.00  0.00    -0.052 C 
ATOM     53  H   UNL A   1      33.097  29.812  24.233  1.00  0.00     0.027 H 
ATOM     54  H   UNL A   1      32.372  28.265  24.762  1.00  0.00     0.027 H 
BRANCH  52  55
ATOM     55  C   UNL A   1      31.424  29.975  25.537  1.00  0.00    -0.052 C 
ATOM     56  H   UNL A   1      30.439  29.558  25.579  1.00  0.00     0.027 H 
ATOM     57  H   UNL A   1      31.430  31.017  25.291  1.00  0.00     0.027 H 
BRANCH  55  58
ATOM     58  C   UNL A   1      32.053  29.855  26.930  1.00  0.00    -0.036 C 
ATOM     59  H   UNL A   1      32.010  28.831  27.234  1.00  0.00     0.028 H 
ATOM     60  H   UNL A   1      31.497  30.495  27.583  1.00  0.00     0.028 H 
BRANCH  58  61
ATOM     61  C   UNL A   1      33.507  30.315  26.980  1.00  0.00     0.018 C 
ATOM     62  H   UNL A   1      33.731  30.824  26.065  1.00  0.00     0.049 H 
ATOM     63  H   UNL A   1      34.106  29.439  27.118  1.00  0.00     0.049 H 
BRANCH  61  64
ATOM     64  N   UNL A   1      33.801  31.205  28.080  1.00  0.00    -0.352 N 
ATOM     65  C   UNL A   1      34.943  31.596  28.716  1.00  0.00     0.251 C 
ATOM     66  H   UNL A   1      32.993  31.623  28.456  1.00  0.00     0.163 HD
ATOM     67  O   UNL A   1      34.832  32.530  29.515  1.00  0.00    -0.269 OA
BRANCH  65  68
ATOM     68  C   UNL A   1      36.261  30.915  28.600  1.00  0.00     0.039 A 
ATOM     69  C   UNL A   1      36.470  29.581  28.247  1.00  0.00    -0.049 A 
ATOM     70  C   UNL A   1      37.372  31.691  28.977  1.00  0.00    -0.049 A 
ATOM     71  C   UNL A   1      37.716  28.994  28.431  1.00  0.00    -0.053 A 
ATOM     72  H   UNL A   1      35.696  29.028  27.847  1.00  0.00     0.063 H 
ATOM     73  C   UNL A   1      38.625  31.121  29.131  1.00  0.00    -0.053 A 
ATOM     74  H   UNL A   1      37.251  32.703  29.143  1.00  0.00     0.063 H 
ATOM     75  C   UNL A   1      38.771  29.752  28.936  1.00  0.00    -0.014 A 
ATOM     76  H   UNL A   1      37.859  27.999  28.195  1.00  0.00     0.063 H 
ATOM     77  H   UNL A   1      39.438  31.703  29.386  1.00  0.00     0.063 H 
BRANCH  75  78
ATOM     78  C   UNL A   1      40.044  29.086  29.181  1.00  0.00     0.031 A 
ATOM     79  C   UNL A   1      40.369  28.874  30.621  1.00  0.00     0.074 A 
ATOM     80  C   UNL A   1      40.804  28.612  28.172  1.00  0.00     0.049 A 
ATOM     81  N   UNL A   1      41.411  29.277  31.275  1.00  0.00    -0.248 NA
ATOM     82  C   UNL A   1      39.344  28.239  31.469  1.00  0.00    -0.034 C 
ATOM     83  C   UNL A   1      40.485  28.555  26.742  1.00  0.00    -0.036 A 
ATOM     84  N   UNL A   1      42.010  27.983  28.229  1.00  0.00    -0.354 N 
ATOM     85  C   UNL A   1      41.256  28.808  32.579  1.00  0.00     0.074 A 
ATOM     86  C   UNL A   1      39.917  28.289  32.672  1.00  0.00    -0.034 C 
ATOM     87  H   UNL A   1      38.426  27.855  31.201  1.00  0.00     0.065 H 
ATOM     88  C   UNL A   1      41.344  27.714  26.122  1.00  0.00    -0.036 A 
ATOM     89  H   UNL A   1      39.724  29.075  26.280  1.00  0.00     0.065 H 
ATOM     90  C   UNL A   1      42.350  27.285  27.077  1.00  0.00     0.049 A 
ATOM     91  H   UNL A   1      42.593  28.019  29.022  1.00  0.00     0.167 HD
ATOM     92  C   UNL A   1      42.308  28.710  33.436  1.00  0.00     0.037 A 
ATOM     93  H   UNL A   1      39.461  27.995  33.551  1.00  0.00     0.065 H 
ATOM     94  H   UNL A   1      41.292  27.423  25.133  1.00  0.00     0.065 H 
ATOM     95  C   UNL A   1      43.344  26.369  26.953  1.00  0.00     0.037 A 
ATOM     96  C   UNL A   1      43.411  29.527  33.016  1.00  0.00     0.049 A 
ATOM     97  C   UNL A   1      44.282  26.579  28.085  1.00  0.00     0.074 A 
ATOM     98  C   UNL A   1      43.599  30.886  32.869  1.00  0.00    -0.036 A 
ATOM     99  N   UNL A   1      44.437  28.930  32.329  1.00  0.00    -0.354 N 
ATOM    100  N   UNL A   1      45.042  27.633  28.203  1.00  0.00    -0.248 NA
ATOM    101  C   UNL A   1      44.011  25.858  29.321  1.00  0.00    -0.034 C 
ATOM    102  C   UNL A   1      44.412  31.020  31.707  1.00  0.00    -0.036 A 
ATOM    103  H   UNL A   1      43.233  31.641  33.470  1.00  0.00     0.065 H 
ATOM    104  C   UNL A   1      44.724  29.736  31.258  1.00  0.00     0.049 A 
ATOM    105  H   UNL A   1      44.884  28.083  32.561  1.00  0.00     0.167 HD
ATOM    106  C   UNL A   1      44.991  27.952  29.552  1.00  0.00     0.074 A 
ATOM    107  C   UNL A   1      44.391  26.788  30.201  1.00  0.00    -0.034 C 
ATOM    108  H   UNL A   1      43.635  24.908  29.472  1.00  0.00     0.065 H 
ATOM    109  H   UNL A   1      44.714  31.906  31.274  1.00  0.00     0.065 H 
ATOM    110  C   UNL A   1      45.166  29.235  29.980  1.00  0.00     0.037 A 
ATOM    111  H   UNL A   1      44.275  26.696  31.223  1.00  0.00     0.065 H 
BRANCH  92 112
ATOM    112  C   UNL A   1      42.463  27.624  34.468  1.00  0.00     0.064 A 
ATOM    113  C   UNL A   1      43.043  26.392  34.103  1.00  0.00     0.173 A 
ATOM    114  C   UNL A   1      41.787  27.639  35.707  1.00  0.00     0.173 A 
ATOM    115  F   UNL A   1      43.687  26.260  32.935  1.00  0.00    -0.203 F 
ATOM    116  C   UNL A   1      42.892  25.246  34.890  1.00  0.00     0.198 A 
ATOM    117  C   UNL A   1      41.685  26.507  36.513  1.00  0.00     0.198 A 
ATOM    118  F   UNL A   1      41.106  28.712  36.129  1.00  0.00    -0.203 F 
ATOM    119  F   UNL A   1      43.356  24.070  34.447  1.00  0.00    -0.200 F 
ATOM    120  C   UNL A   1      42.209  25.304  36.091  1.00  0.00     0.200 A 
ATOM    121  F   UNL A   1      40.998  26.577  37.662  1.00  0.00    -0.200 F 
ATOM    122  F   UNL A   1      42.012  24.195  36.816  1.00  0.00    -0.200 F 
ENDBRANCH  92 112
BRANCH  95 123
ATOM    123  C   UNL A   1      43.349  25.128  26.138  1.00  0.00     0.064 A 
ATOM    124  C   UNL A   1      44.334  24.896  25.165  1.00  0.00     0.173 A 
ATOM    125  C   UNL A   1      42.545  24.024  26.486  1.00  0.00     0.173 A 
ATOM    126  F   UNL A   1      45.178  25.876  24.812  1.00  0.00    -0.203 F 
ATOM    127  C   UNL A   1      44.514  23.632  24.587  1.00  0.00     0.198 A 
ATOM    128  C   UNL A   1      42.721  22.766  25.906  1.00  0.00     0.198 A 
ATOM    129  F   UNL A   1      41.635  24.118  27.467  1.00  0.00    -0.203 F 
ATOM    130  F   UNL A   1      45.502  23.435  23.702  1.00  0.00    -0.200 F 
ATOM    131  C   UNL A   1      43.713  22.567  24.965  1.00  0.00     0.200 A 
ATOM    132  F   UNL A   1      41.965  21.736  26.312  1.00  0.00    -0.200 F 
ATOM    133  F   UNL A   1      43.922  21.345  24.456  1.00  0.00    -0.200 F 
ENDBRANCH  95 123
BRANCH 110 134
ATOM    134  C   UNL A   1      45.618  30.261  28.981  1.00  0.00     0.064 A 
ATOM    135  C   UNL A   1      44.739  30.991  28.159  1.00  0.00     0.173 A 
ATOM    136  C   UNL A   1      46.962  30.657  28.997  1.00  0.00     0.173 A 
ATOM    137  F   UNL A   1      43.425  30.743  28.165  1.00  0.00    -0.203 F 
ATOM    138  C   UNL A   1      45.194  32.048  27.373  1.00  0.00     0.198 A 
ATOM    139  C   UNL A   1      47.407  31.736  28.238  1.00  0.00     0.198 A 
ATOM    140  F   UNL A   1      47.834  30.036  29.807  1.00  0.00    -0.203 F 
ATOM    141  F   UNL A   1      44.334  32.735  26.606  1.00  0.00    -0.200 F 
ATOM    142  C   UNL A   1      46.525  32.427  27.422  1.00  0.00     0.200 A 
ATOM    143  F   UNL A   1      48.682  32.134  28.334  1.00  0.00    -0.200 F 
ATOM    144  F   UNL A   1      46.952  33.482  26.714  1.00  0.00    -0.200 F 
ENDBRANCH 110 134
ENDBRANCH  75  78
ENDBRANCH  65  68
ENDBRANCH  61  64
ENDBRANCH  58  61
ENDBRANCH  55  58
ENDBRANCH  52  55
ENDBRANCH   1  52
TORSDOF 20
ENDMDL
MODEL 4
REMARK VINA RESULT:     -12.2      5.088     10.599
REMARK SMILES COc1ccc2c(c1)c(CC(=O)NCCCCCCNC(=O)c1ccc(-c3c4nc(c(-c5c(F)c(F)c(F)c(F)c5F)c5ccc([nH]5)c(-c5c(F)c(F)c(F)c(F)c5F)c5nc(c(-c6c(F)c(F)c(F)c(F)c6F)c6ccc3[nH]6)C=C5)C=C4)cc1)c(C)n2Cc1ccn(C(F)F)c(=O)c1
REMARK SMILES IDX 15 1 14 4 13 7 11 8 12 9 10 11 9 14 3 15 4 16 8 17 5 18 7 20
REMARK SMILES IDX 6 22 88 24 86 25 2 26 1 27 89 31 90 34 91 35 99 36 92 37
REMARK SMILES IDX 97 39 93 41 98 43 94 44 95 45 96 46 87 48 16 52 17 55 18 58
REMARK SMILES IDX 19 61 20 64 21 65 22 67 23 68 24 69 85 70 25 71 84 73 26 75
REMARK SMILES IDX 27 78 28 79 78 80 29 81 83 82 77 83 79 84 30 85 82 86 76 88
REMARK SMILES IDX 75 90 31 92 63 95 43 96 62 97 44 98 47 99 61 100 80 101
REMARK SMILES IDX 45 102 46 104 60 106 81 107 48 110 32 112 33 113 41 114
REMARK SMILES IDX 34 115 35 116 39 117 42 118 36 119 37 120 40 121 38 122
REMARK SMILES IDX 64 123 65 124 73 125 66 126 67 127 71 128 74 129 68 130
REMARK SMILES IDX 69 131 72 132 70 133 49 134 50 135 58 136 51 137 52 138
REMARK SMILES IDX 56 139 59 140 53 141 54 142 57 143 55 144
REMARK H PARENT 15 2 15 3 14 5 14 6 13 10 10 12 10 13 4 19 8 21 5 23 1 28 1 29
REMARK H PARENT 1 30 89 32 89 33 91 38 99 40 92 42 94 47 87 49 87 50 87 51
REMARK H PARENT 16 53 16 54 17 56 17 57 18 59 18 60 19 62 19 63 20 66 24 72
REMARK H PARENT 85 74 25 76 84 77 83 87 77 89 79 91 82 93 76 94 44 103 47 105
REMARK H PARENT 80 108 45 109 81 111
REMARK Flexibility Score: inf
ROOT
ATOM      1  C   UNL A   1      34.394  31.996  28.480  1.00  0.00    -0.036 C 
ATOM      2  H   UNL A   1      34.694  31.723  29.471  1.00  0.00     0.028 H 
ATOM      3  H   UNL A   1      33.398  32.384  28.450  1.00  0.00     0.028 H 
ENDROOT
BRANCH   1   4
ATOM      4  C   UNL A   1      34.415  30.742  27.606  1.00  0.00     0.017 C 
ATOM      5  H   UNL A   1      34.357  31.032  26.579  1.00  0.00     0.049 H 
ATOM      6  H   UNL A   1      35.325  30.213  27.800  1.00  0.00     0.049 H 
BRANCH   4   7
ATOM      7  N   UNL A   1      33.304  29.864  27.912  1.00  0.00    -0.356 N 
ATOM      8  C   UNL A   1      32.986  28.646  27.382  1.00  0.00     0.224 C 
ATOM      9  O   UNL A   1      31.941  28.108  27.755  1.00  0.00    -0.275 OA
ATOM     10  H   UNL A   1      32.685  30.194  28.605  1.00  0.00     0.163 HD
BRANCH   8  11
ATOM     11  C   UNL A   1      33.944  27.936  26.437  1.00  0.00     0.054 C 
ATOM     12  H   UNL A   1      34.612  28.663  26.026  1.00  0.00     0.042 H 
ATOM     13  H   UNL A   1      34.451  27.189  27.010  1.00  0.00     0.042 H 
BRANCH  11  14
ATOM     14  C   UNL A   1      33.262  27.228  25.305  1.00  0.00    -0.010 A 
ATOM     15  C   UNL A   1      32.838  23.462  25.727  1.00  0.00     0.119 A 
ATOM     16  C   UNL A   1      32.126  23.257  24.551  1.00  0.00    -0.018 A 
ATOM     17  C   UNL A   1      33.225  24.750  26.093  1.00  0.00    -0.010 A 
ATOM     18  C   UNL A   1      31.802  24.331  23.704  1.00  0.00    -0.034 A 
ATOM     19  H   UNL A   1      31.831  22.302  24.295  1.00  0.00     0.066 H 
ATOM     20  C   UNL A   1      32.952  25.840  25.238  1.00  0.00     0.007 A 
ATOM     21  H   UNL A   1      33.713  24.908  26.989  1.00  0.00     0.067 H 
ATOM     22  C   UNL A   1      32.235  25.623  24.058  1.00  0.00     0.049 A 
ATOM     23  H   UNL A   1      31.258  24.176  22.842  1.00  0.00     0.065 H 
ATOM     24  N   UNL A   1      32.080  26.860  23.443  1.00  0.00    -0.340 N 
ATOM     25  C   UNL A   1      32.876  27.790  24.094  1.00  0.00     0.020 A 
BRANCH  15  26
ATOM     26  O   UNL A   1      33.140  22.475  26.627  1.00  0.00    -0.497 OA
BRANCH  26  27
ATOM     27  C   UNL A   1      33.149  21.160  26.079  1.00  0.00     0.078 C 
ATOM     28  H   UNL A   1      32.336  20.598  26.489  1.00  0.00     0.067 H 
ATOM     29  H   UNL A   1      34.073  20.680  26.322  1.00  0.00     0.067 H 
ATOM     30  H   UNL A   1      33.043  21.216  25.016  1.00  0.00     0.067 H 
ENDBRANCH  26  27
ENDBRANCH  15  26
BRANCH  24  31
ATOM     31  C   UNL A   1      31.271  27.105  22.241  1.00  0.00     0.048 C 
ATOM     32  H   UNL A   1      30.782  26.191  21.975  1.00  0.00     0.055 H 
ATOM     33  H   UNL A   1      31.945  27.454  21.486  1.00  0.00     0.055 H 
BRANCH  31  34
ATOM     34  C   UNL A   1      30.210  28.182  22.405  1.00  0.00    -0.021 A 
ATOM     35  C   UNL A   1      30.459  29.511  21.881  1.00  0.00    -0.040 A 
ATOM     36  C   UNL A   1      28.995  27.931  22.928  1.00  0.00     0.009 A 
ATOM     37  C   UNL A   1      29.559  30.492  22.016  1.00  0.00     0.013 A 
ATOM     38  H   UNL A   1      31.348  29.705  21.396  1.00  0.00     0.064 H 
ATOM     39  C   UNL A   1      27.943  28.994  23.018  1.00  0.00     0.255 A 
ATOM     40  H   UNL A   1      28.784  26.983  23.276  1.00  0.00     0.068 H 
ATOM     41  N   UNL A   1      28.333  30.262  22.606  1.00  0.00    -0.258 N 
ATOM     42  H   UNL A   1      29.786  31.438  21.673  1.00  0.00     0.082 H 
ATOM     43  O   UNL A   1      26.839  28.688  23.438  1.00  0.00    -0.269 OA
BRANCH  41  44
ATOM     44  C   UNL A   1      27.346  31.316  22.615  1.00  0.00     0.321 C 
ATOM     45  F   UNL A   1      27.096  31.724  23.883  1.00  0.00    -0.185 F 
ATOM     46  F   UNL A   1      27.729  32.398  21.900  1.00  0.00    -0.185 F 
ATOM     47  H   UNL A   1      26.470  30.899  22.168  1.00  0.00     0.131 H 
ENDBRANCH  41  44
ENDBRANCH  31  34
ENDBRANCH  24  31
BRANCH  25  48
ATOM     48  C   UNL A   1      33.196  29.156  23.591  1.00  0.00    -0.024 C 
ATOM     49  H   UNL A   1      33.990  29.096  22.876  1.00  0.00     0.030 H 
ATOM     50  H   UNL A   1      33.498  29.775  24.410  1.00  0.00     0.030 H 
ATOM     51  H   UNL A   1      32.329  29.577  23.127  1.00  0.00     0.030 H 
ENDBRANCH  25  48
ENDBRANCH  11  14
ENDBRANCH   8  11
ENDBRANCH   4   7
ENDBRANCH   1   4
BRANCH   1  52
ATOM     52  C   UNL A   1      35.327  33.107  27.979  1.00  0.00    -0.052 C 
ATOM     53  H   UNL A   1      35.232  33.166  26.914  1.00  0.00     0.027 H 
ATOM     54  H   UNL A   1      36.311  32.841  28.302  1.00  0.00     0.027 H 
BRANCH  52  55
ATOM     55  C   UNL A   1      35.044  34.498  28.561  1.00  0.00    -0.052 C 
ATOM     56  H   UNL A   1      35.549  35.222  27.957  1.00  0.00     0.027 H 
ATOM     57  H   UNL A   1      35.393  34.477  29.573  1.00  0.00     0.027 H 
BRANCH  55  58
ATOM     58  C   UNL A   1      33.560  34.879  28.624  1.00  0.00    -0.036 C 
ATOM     59  H   UNL A   1      32.998  34.012  28.897  1.00  0.00     0.028 H 
ATOM     60  H   UNL A   1      33.288  35.249  27.656  1.00  0.00     0.028 H 
BRANCH  58  61
ATOM     61  C   UNL A   1      33.261  35.988  29.628  1.00  0.00     0.018 C 
ATOM     62  H   UNL A   1      32.626  36.709  29.156  1.00  0.00     0.049 H 
ATOM     63  H   UNL A   1      34.203  36.404  29.922  1.00  0.00     0.049 H 
BRANCH  61  64
ATOM     64  N   UNL A   1      32.610  35.526  30.832  1.00  0.00    -0.352 N 
ATOM     65  C   UNL A   1      33.045  34.998  32.014  1.00  0.00     0.251 C 
ATOM     66  H   UNL A   1      31.630  35.611  30.791  1.00  0.00     0.163 HD
ATOM     67  O   UNL A   1      32.201  34.885  32.906  1.00  0.00    -0.269 OA
BRANCH  65  68
ATOM     68  C   UNL A   1      34.410  34.456  32.256  1.00  0.00     0.039 A 
ATOM     69  C   UNL A   1      35.549  35.201  32.559  1.00  0.00    -0.049 A 
ATOM     70  C   UNL A   1      34.546  33.069  32.062  1.00  0.00    -0.049 A 
ATOM     71  C   UNL A   1      36.807  34.614  32.499  1.00  0.00    -0.053 A 
ATOM     72  H   UNL A   1      35.458  36.193  32.829  1.00  0.00     0.063 H 
ATOM     73  C   UNL A   1      35.795  32.470  32.035  1.00  0.00    -0.053 A 
ATOM     74  H   UNL A   1      33.702  32.488  31.938  1.00  0.00     0.063 H 
ATOM     75  C   UNL A   1      36.927  33.264  32.172  1.00  0.00    -0.014 A 
ATOM     76  H   UNL A   1      37.650  35.177  32.698  1.00  0.00     0.063 H 
ATOM     77  H   UNL A   1      35.884  31.449  31.915  1.00  0.00     0.063 H 
BRANCH  75  78
ATOM     78  C   UNL A   1      38.265  32.700  32.051  1.00  0.00     0.031 A 
ATOM     79  C   UNL A   1      39.082  32.762  33.298  1.00  0.00     0.074 A 
ATOM     80  C   UNL A   1      38.677  32.080  30.926  1.00  0.00     0.049 A 
ATOM     81  N   UNL A   1      40.240  33.314  33.470  1.00  0.00    -0.248 NA
ATOM     82  C   UNL A   1      38.475  32.253  34.541  1.00  0.00    -0.034 C 
ATOM     83  C   UNL A   1      37.896  31.755  29.728  1.00  0.00    -0.036 A 
ATOM     84  N   UNL A   1      39.885  31.516  30.650  1.00  0.00    -0.354 N 
ATOM     85  C   UNL A   1      40.586  33.082  34.801  1.00  0.00     0.074 A 
ATOM     86  C   UNL A   1      39.417  32.539  35.441  1.00  0.00    -0.034 C 
ATOM     87  H   UNL A   1      37.562  31.794  34.678  1.00  0.00     0.065 H 
ATOM     88  C   UNL A   1      38.568  30.848  28.984  1.00  0.00    -0.036 A 
ATOM     89  H   UNL A   1      36.976  32.155  29.490  1.00  0.00     0.065 H 
ATOM     90  C   UNL A   1      39.876  30.634  29.576  1.00  0.00     0.049 A 
ATOM     91  H   UNL A   1      40.697  31.715  31.170  1.00  0.00     0.167 HD
ATOM     92  C   UNL A   1      41.872  33.177  35.235  1.00  0.00     0.037 A 
ATOM     93  H   UNL A   1      39.320  32.392  36.458  1.00  0.00     0.065 H 
ATOM     94  H   UNL A   1      38.210  30.383  28.135  1.00  0.00     0.065 H 
ATOM     95  C   UNL A   1      40.853  29.748  29.253  1.00  0.00     0.037 A 
ATOM     96  C   UNL A   1      42.681  33.945  34.330  1.00  0.00     0.049 A 
ATOM     97  C   UNL A   1      42.096  30.192  29.934  1.00  0.00     0.074 A 
ATOM     98  C   UNL A   1      42.675  35.262  33.917  1.00  0.00    -0.036 A 
ATOM     99  N   UNL A   1      43.463  33.272  33.427  1.00  0.00    -0.354 N 
ATOM    100  N   UNL A   1      42.744  31.278  29.610  1.00  0.00    -0.248 NA
ATOM    101  C   UNL A   1      42.334  29.696  31.282  1.00  0.00    -0.034 C 
ATOM    102  C   UNL A   1      43.024  35.213  32.537  1.00  0.00    -0.036 A 
ATOM    103  H   UNL A   1      42.464  36.099  34.483  1.00  0.00     0.065 H 
ATOM    104  C   UNL A   1      43.287  33.882  32.212  1.00  0.00     0.049 A 
ATOM    105  H   UNL A   1      44.042  32.497  33.615  1.00  0.00     0.167 HD
ATOM    106  C   UNL A   1      43.127  31.831  30.822  1.00  0.00     0.074 A 
ATOM    107  C   UNL A   1      42.901  30.782  31.814  1.00  0.00    -0.034 C 
ATOM    108  H   UNL A   1      42.127  28.776  31.701  1.00  0.00     0.065 H 
ATOM    109  H   UNL A   1      43.072  36.018  31.893  1.00  0.00     0.065 H 
ATOM    110  C   UNL A   1      43.312  33.176  30.955  1.00  0.00     0.037 A 
ATOM    111  H   UNL A   1      43.150  30.871  32.812  1.00  0.00     0.065 H 
BRANCH  92 112
ATOM    112  C   UNL A   1      42.475  32.301  36.302  1.00  0.00     0.064 A 
ATOM    113  C   UNL A   1      43.095  32.893  37.422  1.00  0.00     0.173 A 
ATOM    114  C   UNL A   1      42.737  30.928  36.113  1.00  0.00     0.173 A 
ATOM    115  F   UNL A   1      42.934  34.199  37.681  1.00  0.00    -0.203 F 
ATOM    116  C   UNL A   1      43.967  32.175  38.245  1.00  0.00     0.198 A 
ATOM    117  C   UNL A   1      43.565  30.203  36.966  1.00  0.00     0.198 A 
ATOM    118  F   UNL A   1      42.295  30.265  35.036  1.00  0.00    -0.203 F 
ATOM    119  F   UNL A   1      44.627  32.805  39.225  1.00  0.00    -0.200 F 
ATOM    120  C   UNL A   1      44.205  30.832  38.013  1.00  0.00     0.200 A 
ATOM    121  F   UNL A   1      43.803  28.909  36.711  1.00  0.00    -0.200 F 
ATOM    122  F   UNL A   1      45.086  30.158  38.763  1.00  0.00    -0.200 F 
ENDBRANCH  92 112
BRANCH  95 123
ATOM    123  C   UNL A   1      40.699  28.382  28.693  1.00  0.00     0.064 A 
ATOM    124  C   UNL A   1      39.939  27.402  29.352  1.00  0.00     0.173 A 
ATOM    125  C   UNL A   1      41.069  28.093  27.364  1.00  0.00     0.173 A 
ATOM    126  F   UNL A   1      39.498  27.617  30.600  1.00  0.00    -0.203 F 
ATOM    127  C   UNL A   1      39.560  26.213  28.714  1.00  0.00     0.198 A 
ATOM    128  C   UNL A   1      40.696  26.906  26.732  1.00  0.00     0.198 A 
ATOM    129  F   UNL A   1      41.720  28.999  26.619  1.00  0.00    -0.203 F 
ATOM    130  F   UNL A   1      38.785  25.326  29.357  1.00  0.00    -0.200 F 
ATOM    131  C   UNL A   1      39.931  25.970  27.402  1.00  0.00     0.200 A 
ATOM    132  F   UNL A   1      41.029  26.703  25.449  1.00  0.00    -0.200 F 
ATOM    133  F   UNL A   1      39.520  24.861  26.774  1.00  0.00    -0.200 F 
ENDBRANCH  95 123
BRANCH 110 134
ATOM    134  C   UNL A   1      43.293  34.022  29.714  1.00  0.00     0.064 A 
ATOM    135  C   UNL A   1      42.141  34.663  29.224  1.00  0.00     0.173 A 
ATOM    136  C   UNL A   1      44.517  34.351  29.117  1.00  0.00     0.173 A 
ATOM    137  F   UNL A   1      40.951  34.481  29.806  1.00  0.00    -0.203 F 
ATOM    138  C   UNL A   1      42.213  35.570  28.168  1.00  0.00     0.198 A 
ATOM    139  C   UNL A   1      44.590  35.285  28.087  1.00  0.00     0.198 A 
ATOM    140  F   UNL A   1      45.657  33.816  29.583  1.00  0.00    -0.203 F 
ATOM    141  F   UNL A   1      41.101  36.176  27.725  1.00  0.00    -0.200 F 
ATOM    142  C   UNL A   1      43.439  35.889  27.609  1.00  0.00     0.200 A 
ATOM    143  F   UNL A   1      45.785  35.632  27.589  1.00  0.00    -0.200 F 
ATOM    144  F   UNL A   1      43.517  36.807  26.635  1.00  0.00    -0.200 F 
ENDBRANCH 110 134
ENDBRANCH  75  78
ENDBRANCH  65  68
ENDBRANCH  61  64
ENDBRANCH  58  61
ENDBRANCH  55  58
ENDBRANCH  52  55
ENDBRANCH   1  52
TORSDOF 20
ENDMDL
MODEL 5
REMARK VINA RESULT:     -12.2      0.961      1.842
REMARK SMILES COc1ccc2c(c1)c(CC(=O)NCCCCCCNC(=O)c1ccc(-c3c4nc(c(-c5c(F)c(F)c(F)c(F)c5F)c5ccc([nH]5)c(-c5c(F)c(F)c(F)c(F)c5F)c5nc(c(-c6c(F)c(F)c(F)c(F)c6F)c6ccc3[nH]6)C=C5)C=C4)cc1)c(C)n2Cc1ccn(C(F)F)c(=O)c1
REMARK SMILES IDX 15 1 14 4 13 7 11 8 12 9 10 11 9 14 3 15 4 16 8 17 5 18 7 20
REMARK SMILES IDX 6 22 88 24 86 25 2 26 1 27 89 31 90 34 91 35 99 36 92 37
REMARK SMILES IDX 97 39 93 41 98 43 94 44 95 45 96 46 87 48 16 52 17 55 18 58
REMARK SMILES IDX 19 61 20 64 21 65 22 67 23 68 24 69 85 70 25 71 84 73 26 75
REMARK SMILES IDX 27 78 28 79 78 80 29 81 83 82 77 83 79 84 30 85 82 86 76 88
REMARK SMILES IDX 75 90 31 92 63 95 43 96 62 97 44 98 47 99 61 100 80 101
REMARK SMILES IDX 45 102 46 104 60 106 81 107 48 110 32 112 33 113 41 114
REMARK SMILES IDX 34 115 35 116 39 117 42 118 36 119 37 120 40 121 38 122
REMARK SMILES IDX 64 123 65 124 73 125 66 126 67 127 71 128 74 129 68 130
REMARK SMILES IDX 69 131 72 132 70 133 49 134 50 135 58 136 51 137 52 138
REMARK SMILES IDX 56 139 59 140 53 141 54 142 57 143 55 144
REMARK H PARENT 15 2 15 3 14 5 14 6 13 10 10 12 10 13 4 19 8 21 5 23 1 28 1 29
REMARK H PARENT 1 30 89 32 89 33 91 38 99 40 92 42 94 47 87 49 87 50 87 51
REMARK H PARENT 16 53 16 54 17 56 17 57 18 59 18 60 19 62 19 63 20 66 24 72
REMARK H PARENT 85 74 25 76 84 77 83 87 77 89 79 91 82 93 76 94 44 103 47 105
REMARK H PARENT 80 108 45 109 81 111
REMARK Flexibility Score: inf
ROOT
ATOM      1  C   UNL A   1      40.036  22.095  27.113  1.00  0.00    -0.036 C 
ATOM      2  H   UNL A   1      39.656  21.349  27.780  1.00  0.00     0.028 H 
ATOM      3  H   UNL A   1      40.769  22.719  27.578  1.00  0.00     0.028 H 
ENDROOT
BRANCH   1   4
ATOM      4  C   UNL A   1      38.877  22.998  26.689  1.00  0.00     0.017 C 
ATOM      5  H   UNL A   1      38.061  22.859  27.366  1.00  0.00     0.049 H 
ATOM      6  H   UNL A   1      39.218  24.013  26.709  1.00  0.00     0.049 H 
BRANCH   4   7
ATOM      7  N   UNL A   1      38.432  22.693  25.344  1.00  0.00    -0.356 N 
ATOM      8  C   UNL A   1      37.259  23.015  24.724  1.00  0.00     0.224 C 
ATOM      9  O   UNL A   1      37.071  22.584  23.583  1.00  0.00    -0.275 OA
ATOM     10  H   UNL A   1      39.069  22.178  24.797  1.00  0.00     0.163 HD
BRANCH   8  11
ATOM     11  C   UNL A   1      36.262  23.955  25.384  1.00  0.00     0.054 C 
ATOM     12  H   UNL A   1      36.401  23.904  26.443  1.00  0.00     0.042 H 
ATOM     13  H   UNL A   1      36.450  24.933  24.992  1.00  0.00     0.042 H 
BRANCH  11  14
ATOM     14  C   UNL A   1      34.831  23.631  25.079  1.00  0.00    -0.010 A 
ATOM     15  C   UNL A   1      33.189  25.773  22.384  1.00  0.00     0.119 A 
ATOM     16  C   UNL A   1      31.972  25.100  22.377  1.00  0.00    -0.018 A 
ATOM     17  C   UNL A   1      34.221  25.338  23.214  1.00  0.00    -0.010 A 
ATOM     18  C   UNL A   1      31.753  23.991  23.212  1.00  0.00    -0.034 A 
ATOM     19  H   UNL A   1      31.218  25.420  21.749  1.00  0.00     0.066 H 
ATOM     20  C   UNL A   1      34.012  24.255  24.094  1.00  0.00     0.007 A 
ATOM     21  H   UNL A   1      35.140  25.808  23.184  1.00  0.00     0.067 H 
ATOM     22  C   UNL A   1      32.785  23.586  24.079  1.00  0.00     0.049 A 
ATOM     23  H   UNL A   1      30.854  23.484  23.189  1.00  0.00     0.065 H 
ATOM     24  N   UNL A   1      32.874  22.554  25.006  1.00  0.00    -0.340 N 
ATOM     25  C   UNL A   1      34.032  22.713  25.749  1.00  0.00     0.020 A 
BRANCH  15  26
ATOM     26  O   UNL A   1      33.493  26.822  21.560  1.00  0.00    -0.497 OA
BRANCH  26  27
ATOM     27  C   UNL A   1      33.928  27.998  22.238  1.00  0.00     0.078 C 
ATOM     28  H   UNL A   1      34.442  28.636  21.550  1.00  0.00     0.067 H 
ATOM     29  H   UNL A   1      34.588  27.726  23.034  1.00  0.00     0.067 H 
ATOM     30  H   UNL A   1      33.080  28.513  22.637  1.00  0.00     0.067 H 
ENDBRANCH  26  27
ENDBRANCH  15  26
BRANCH  24  31
ATOM     31  C   UNL A   1      31.848  21.521  25.214  1.00  0.00     0.048 C 
ATOM     32  H   UNL A   1      30.984  21.788  24.642  1.00  0.00     0.055 H 
ATOM     33  H   UNL A   1      31.660  21.486  26.266  1.00  0.00     0.055 H 
BRANCH  31  34
ATOM     34  C   UNL A   1      32.274  20.120  24.804  1.00  0.00    -0.021 A 
ATOM     35  C   UNL A   1      32.635  19.158  25.827  1.00  0.00    -0.040 A 
ATOM     36  C   UNL A   1      32.234  19.692  23.528  1.00  0.00     0.009 A 
ATOM     37  C   UNL A   1      33.029  17.919  25.510  1.00  0.00     0.013 A 
ATOM     38  H   UNL A   1      32.587  19.434  26.820  1.00  0.00     0.064 H 
ATOM     39  C   UNL A   1      32.596  18.286  23.158  1.00  0.00     0.255 A 
ATOM     40  H   UNL A   1      31.947  20.351  22.786  1.00  0.00     0.068 H 
ATOM     41  N   UNL A   1      33.050  17.488  24.200  1.00  0.00    -0.258 N 
ATOM     42  H   UNL A   1      33.322  17.274  26.260  1.00  0.00     0.082 H 
ATOM     43  O   UNL A   1      32.474  17.939  21.994  1.00  0.00    -0.269 OA
BRANCH  41  44
ATOM     44  C   UNL A   1      33.360  16.107  23.917  1.00  0.00     0.321 C 
ATOM     45  F   UNL A   1      34.700  15.913  23.897  1.00  0.00    -0.185 F 
ATOM     46  F   UNL A   1      32.831  15.255  24.824  1.00  0.00    -0.185 F 
ATOM     47  H   UNL A   1      32.930  15.902  22.960  1.00  0.00     0.131 H 
ENDBRANCH  41  44
ENDBRANCH  31  34
ENDBRANCH  24  31
BRANCH  25  48
ATOM     48  C   UNL A   1      34.361  21.979  27.004  1.00  0.00    -0.024 C 
ATOM     49  H   UNL A   1      35.268  21.428  26.867  1.00  0.00     0.030 H 
ATOM     50  H   UNL A   1      33.566  21.304  27.242  1.00  0.00     0.030 H 
ATOM     51  H   UNL A   1      34.487  22.678  27.804  1.00  0.00     0.030 H 
ENDBRANCH  25  48
ENDBRANCH  11  14
ENDBRANCH   8  11
ENDBRANCH   4   7
ENDBRANCH   1   4
BRANCH   1  52
ATOM     52  C   UNL A   1      40.724  21.389  25.936  1.00  0.00    -0.052 C 
ATOM     53  H   UNL A   1      41.592  21.955  25.671  1.00  0.00     0.027 H 
ATOM     54  H   UNL A   1      39.998  21.335  25.152  1.00  0.00     0.027 H 
BRANCH  52  55
ATOM     55  C   UNL A   1      41.161  19.946  26.218  1.00  0.00    -0.052 C 
ATOM     56  H   UNL A   1      41.083  19.390  25.307  1.00  0.00     0.027 H 
ATOM     57  H   UNL A   1      40.516  19.581  26.990  1.00  0.00     0.027 H 
BRANCH  55  58
ATOM     58  C   UNL A   1      42.593  19.799  26.745  1.00  0.00    -0.036 C 
ATOM     59  H   UNL A   1      42.548  19.532  27.780  1.00  0.00     0.028 H 
ATOM     60  H   UNL A   1      43.084  20.737  26.591  1.00  0.00     0.028 H 
BRANCH  58  61
ATOM     61  C   UNL A   1      43.405  18.739  26.007  1.00  0.00     0.018 C 
ATOM     62  H   UNL A   1      42.836  17.833  25.985  1.00  0.00     0.049 H 
ATOM     63  H   UNL A   1      44.329  18.630  26.536  1.00  0.00     0.049 H 
BRANCH  61  64
ATOM     64  N   UNL A   1      43.739  19.100  24.648  1.00  0.00    -0.352 N 
ATOM     65  C   UNL A   1      44.383  20.156  24.068  1.00  0.00     0.251 C 
ATOM     66  H   UNL A   1      43.431  18.434  23.991  1.00  0.00     0.163 HD
ATOM     67  O   UNL A   1      44.652  20.040  22.870  1.00  0.00    -0.269 OA
BRANCH  65  68
ATOM     68  C   UNL A   1      44.674  21.451  24.739  1.00  0.00     0.039 A 
ATOM     69  C   UNL A   1      45.659  21.676  25.701  1.00  0.00    -0.049 A 
ATOM     70  C   UNL A   1      43.796  22.503  24.418  1.00  0.00    -0.049 A 
ATOM     71  C   UNL A   1      45.660  22.851  26.442  1.00  0.00    -0.053 A 
ATOM     72  H   UNL A   1      46.392  20.967  25.863  1.00  0.00     0.063 H 
ATOM     73  C   UNL A   1      43.812  23.691  25.130  1.00  0.00    -0.053 A 
ATOM     74  H   UNL A   1      43.129  22.387  23.639  1.00  0.00     0.063 H 
ATOM     75  C   UNL A   1      44.693  23.826  26.197  1.00  0.00    -0.014 A 
ATOM     76  H   UNL A   1      46.374  23.002  27.173  1.00  0.00     0.063 H 
ATOM     77  H   UNL A   1      43.180  24.465  24.873  1.00  0.00     0.063 H 
BRANCH  75  78
ATOM     78  C   UNL A   1      44.682  25.014  27.040  1.00  0.00     0.031 A 
ATOM     79  C   UNL A   1      45.871  25.901  26.882  1.00  0.00     0.074 A 
ATOM     80  C   UNL A   1      43.623  25.325  27.817  1.00  0.00     0.049 A 
ATOM     81  N   UNL A   1      46.708  26.289  27.790  1.00  0.00    -0.248 NA
ATOM     82  C   UNL A   1      46.247  26.306  25.516  1.00  0.00    -0.034 C 
ATOM     83  C   UNL A   1      42.317  24.663  27.883  1.00  0.00    -0.036 A 
ATOM     84  N   UNL A   1      43.461  26.380  28.662  1.00  0.00    -0.354 N 
ATOM     85  C   UNL A   1      47.623  27.120  27.145  1.00  0.00     0.074 A 
ATOM     86  C   UNL A   1      47.369  26.995  25.735  1.00  0.00    -0.034 C 
ATOM     87  H   UNL A   1      45.767  26.110  24.625  1.00  0.00     0.065 H 
ATOM     88  C   UNL A   1      41.435  25.469  28.517  1.00  0.00    -0.036 A 
ATOM     89  H   UNL A   1      42.103  23.728  27.504  1.00  0.00     0.065 H 
ATOM     90  C   UNL A   1      42.142  26.633  29.019  1.00  0.00     0.049 A 
ATOM     91  H   UNL A   1      44.215  26.920  28.992  1.00  0.00     0.167 HD
ATOM     92  C   UNL A   1      48.403  27.998  27.832  1.00  0.00     0.037 A 
ATOM     93  H   UNL A   1      47.971  27.384  24.993  1.00  0.00     0.065 H 
ATOM     94  H   UNL A   1      40.424  25.287  28.625  1.00  0.00     0.065 H 
ATOM     95  C   UNL A   1      41.670  27.756  29.619  1.00  0.00     0.037 A 
ATOM     96  C   UNL A   1      48.494  27.650  29.222  1.00  0.00     0.049 A 
ATOM     97  C   UNL A   1      42.829  28.444  30.241  1.00  0.00     0.074 A 
ATOM     98  C   UNL A   1      49.018  26.576  29.912  1.00  0.00    -0.036 A 
ATOM     99  N   UNL A   1      47.679  28.305  30.111  1.00  0.00    -0.354 N 
ATOM    100  N   UNL A   1      43.482  27.970  31.267  1.00  0.00    -0.248 NA
ATOM    101  C   UNL A   1      43.558  29.401  29.420  1.00  0.00    -0.034 C 
ATOM    102  C   UNL A   1      48.115  26.358  30.991  1.00  0.00    -0.036 A 
ATOM    103  H   UNL A   1      49.877  26.046  29.695  1.00  0.00     0.065 H 
ATOM    104  C   UNL A   1      47.137  27.351  30.933  1.00  0.00     0.049 A 
ATOM    105  H   UNL A   1      47.515  29.275  30.150  1.00  0.00     0.167 HD
ATOM    106  C   UNL A   1      44.814  28.228  30.984  1.00  0.00     0.074 A 
ATOM    107  C   UNL A   1      44.796  29.167  29.863  1.00  0.00    -0.034 C 
ATOM    108  H   UNL A   1      43.218  30.066  28.707  1.00  0.00     0.065 H 
ATOM    109  H   UNL A   1      48.172  25.601  31.689  1.00  0.00     0.065 H 
ATOM    110  C   UNL A   1      45.807  27.439  31.485  1.00  0.00     0.037 A 
ATOM    111  H   UNL A   1      45.643  29.597  29.460  1.00  0.00     0.065 H 
BRANCH  92 112
ATOM    112  C   UNL A   1      48.810  29.353  27.317  1.00  0.00     0.064 A 
ATOM    113  C   UNL A   1      50.176  29.701  27.275  1.00  0.00     0.173 A 
ATOM    114  C   UNL A   1      47.902  30.422  27.159  1.00  0.00     0.173 A 
ATOM    115  F   UNL A   1      51.124  28.768  27.440  1.00  0.00    -0.203 F 
ATOM    116  C   UNL A   1      50.593  31.030  27.155  1.00  0.00     0.198 A 
ATOM    117  C   UNL A   1      48.323  31.738  26.987  1.00  0.00     0.198 A 
ATOM    118  F   UNL A   1      46.579  30.249  27.279  1.00  0.00    -0.203 F 
ATOM    119  F   UNL A   1      51.896  31.329  27.240  1.00  0.00    -0.200 F 
ATOM    120  C   UNL A   1      49.666  32.047  27.016  1.00  0.00     0.200 A 
ATOM    121  F   UNL A   1      47.409  32.713  26.879  1.00  0.00    -0.200 F 
ATOM    122  F   UNL A   1      50.062  33.326  26.963  1.00  0.00    -0.200 F 
ENDBRANCH  92 112
BRANCH  95 123
ATOM    123  C   UNL A   1      40.369  28.435  29.395  1.00  0.00     0.064 A 
ATOM    124  C   UNL A   1      40.013  28.936  28.133  1.00  0.00     0.173 A 
ATOM    125  C   UNL A   1      39.335  28.363  30.351  1.00  0.00     0.173 A 
ATOM    126  F   UNL A   1      40.922  28.989  27.148  1.00  0.00    -0.203 F 
ATOM    127  C   UNL A   1      38.700  29.327  27.840  1.00  0.00     0.198 A 
ATOM    128  C   UNL A   1      38.028  28.758  30.059  1.00  0.00     0.198 A 
ATOM    129  F   UNL A   1      39.551  27.818  31.557  1.00  0.00    -0.203 F 
ATOM    130  F   UNL A   1      38.386  29.747  26.606  1.00  0.00    -0.200 F 
ATOM    131  C   UNL A   1      37.708  29.229  28.801  1.00  0.00     0.200 A 
ATOM    132  F   UNL A   1      37.070  28.619  30.987  1.00  0.00    -0.200 F 
ATOM    133  F   UNL A   1      36.440  29.548  28.504  1.00  0.00    -0.200 F 
ENDBRANCH  95 123
BRANCH 110 134
ATOM    134  C   UNL A   1      45.443  26.408  32.515  1.00  0.00     0.064 A 
ATOM    135  C   UNL A   1      44.999  25.111  32.198  1.00  0.00     0.173 A 
ATOM    136  C   UNL A   1      45.740  26.677  33.857  1.00  0.00     0.173 A 
ATOM    137  F   UNL A   1      44.793  24.744  30.929  1.00  0.00    -0.203 F 
ATOM    138  C   UNL A   1      44.837  24.141  33.186  1.00  0.00     0.198 A 
ATOM    139  C   UNL A   1      45.612  25.696  34.836  1.00  0.00     0.198 A 
ATOM    140  F   UNL A   1      46.224  27.879  34.209  1.00  0.00    -0.203 F 
ATOM    141  F   UNL A   1      44.422  22.909  32.857  1.00  0.00    -0.200 F 
ATOM    142  C   UNL A   1      45.155  24.431  34.502  1.00  0.00     0.200 A 
ATOM    143  F   UNL A   1      45.976  25.965  36.097  1.00  0.00    -0.200 F 
ATOM    144  F   UNL A   1      45.058  23.482  35.444  1.00  0.00    -0.200 F 
ENDBRANCH 110 134
ENDBRANCH  75  78
ENDBRANCH  65  68
ENDBRANCH  61  64
ENDBRANCH  58  61
ENDBRANCH  55  58
ENDBRANCH  52  55
ENDBRANCH   1  52
TORSDOF 20
ENDMDL
MODEL 6
REMARK VINA RESULT:     -12.1      3.020      8.616
REMARK SMILES COc1ccc2c(c1)c(CC(=O)NCCCCCCNC(=O)c1ccc(-c3c4nc(c(-c5c(F)c(F)c(F)c(F)c5F)c5ccc([nH]5)c(-c5c(F)c(F)c(F)c(F)c5F)c5nc(c(-c6c(F)c(F)c(F)c(F)c6F)c6ccc3[nH]6)C=C5)C=C4)cc1)c(C)n2Cc1ccn(C(F)F)c(=O)c1
REMARK SMILES IDX 15 1 14 4 13 7 11 8 12 9 10 11 9 14 3 15 4 16 8 17 5 18 7 20
REMARK SMILES IDX 6 22 88 24 86 25 2 26 1 27 89 31 90 34 91 35 99 36 92 37
REMARK SMILES IDX 97 39 93 41 98 43 94 44 95 45 96 46 87 48 16 52 17 55 18 58
REMARK SMILES IDX 19 61 20 64 21 65 22 67 23 68 24 69 85 70 25 71 84 73 26 75
REMARK SMILES IDX 27 78 28 79 78 80 29 81 83 82 77 83 79 84 30 85 82 86 76 88
REMARK SMILES IDX 75 90 31 92 63 95 43 96 62 97 44 98 47 99 61 100 80 101
REMARK SMILES IDX 45 102 46 104 60 106 81 107 48 110 32 112 33 113 41 114
REMARK SMILES IDX 34 115 35 116 39 117 42 118 36 119 37 120 40 121 38 122
REMARK SMILES IDX 64 123 65 124 73 125 66 126 67 127 71 128 74 129 68 130
REMARK SMILES IDX 69 131 72 132 70 133 49 134 50 135 58 136 51 137 52 138
REMARK SMILES IDX 56 139 59 140 53 141 54 142 57 143 55 144
REMARK H PARENT 15 2 15 3 14 5 14 6 13 10 10 12 10 13 4 19 8 21 5 23 1 28 1 29
REMARK H PARENT 1 30 89 32 89 33 91 38 99 40 92 42 94 47 87 49 87 50 87 51
REMARK H PARENT 16 53 16 54 17 56 17 57 18 59 18 60 19 62 19 63 20 66 24 72
REMARK H PARENT 85 74 25 76 84 77 83 87 77 89 79 91 82 93 76 94 44 103 47 105
REMARK H PARENT 80 108 45 109 81 111
REMARK Flexibility Score: inf
ROOT
ATOM      1  C   UNL A   1      31.283  27.168  26.018  1.00  0.00    -0.036 C 
ATOM      2  H   UNL A   1      31.128  27.782  26.881  1.00  0.00     0.028 H 
ATOM      3  H   UNL A   1      31.089  27.694  25.107  1.00  0.00     0.028 H 
ENDROOT
BRANCH   1   4
ATOM      4  C   UNL A   1      30.303  25.995  26.078  1.00  0.00     0.017 C 
ATOM      5  H   UNL A   1      29.363  26.345  26.449  1.00  0.00     0.049 H 
ATOM      6  H   UNL A   1      30.196  25.596  25.091  1.00  0.00     0.049 H 
BRANCH   4   7
ATOM      7  N   UNL A   1      30.790  24.942  26.946  1.00  0.00    -0.356 N 
ATOM      8  C   UNL A   1      30.860  23.597  26.725  1.00  0.00     0.224 C 
ATOM      9  O   UNL A   1      31.255  22.878  27.647  1.00  0.00    -0.275 OA
ATOM     10  H   UNL A   1      31.119  25.241  27.826  1.00  0.00     0.163 HD
BRANCH   8  11
ATOM     11  C   UNL A   1      30.555  23.017  25.351  1.00  0.00     0.054 C 
ATOM     12  H   UNL A   1      30.289  21.989  25.472  1.00  0.00     0.042 H 
ATOM     13  H   UNL A   1      29.761  23.602  24.937  1.00  0.00     0.042 H 
BRANCH  11  14
ATOM     14  C   UNL A   1      31.704  23.099  24.391  1.00  0.00    -0.010 A 
ATOM     15  C   UNL A   1      31.622  26.037  21.962  1.00  0.00     0.119 A 
ATOM     16  C   UNL A   1      32.847  25.772  21.362  1.00  0.00    -0.018 A 
ATOM     17  C   UNL A   1      31.169  25.236  23.009  1.00  0.00    -0.010 A 
ATOM     18  C   UNL A   1      33.638  24.688  21.781  1.00  0.00    -0.034 A 
ATOM     19  H   UNL A   1      33.181  26.379  20.597  1.00  0.00     0.066 H 
ATOM     20  C   UNL A   1      31.923  24.115  23.418  1.00  0.00     0.007 A 
ATOM     21  H   UNL A   1      30.281  25.461  23.485  1.00  0.00     0.067 H 
ATOM     22  C   UNL A   1      33.154  23.857  22.808  1.00  0.00     0.049 A 
ATOM     23  H   UNL A   1      34.556  24.507  21.344  1.00  0.00     0.065 H 
ATOM     24  N   UNL A   1      33.686  22.732  23.427  1.00  0.00    -0.340 N 
ATOM     25  C   UNL A   1      32.717  22.161  24.237  1.00  0.00     0.020 A 
BRANCH  15  26
ATOM     26  O   UNL A   1      30.825  27.105  21.647  1.00  0.00    -0.497 OA
BRANCH  26  27
ATOM     27  C   UNL A   1      30.962  28.222  22.521  1.00  0.00     0.078 C 
ATOM     28  H   UNL A   1      31.298  27.884  23.479  1.00  0.00     0.067 H 
ATOM     29  H   UNL A   1      30.016  28.709  22.627  1.00  0.00     0.067 H 
ATOM     30  H   UNL A   1      31.674  28.907  22.115  1.00  0.00     0.067 H 
ENDBRANCH  26  27
ENDBRANCH  15  26
BRANCH  24  31
ATOM     31  C   UNL A   1      35.032  22.194  23.180  1.00  0.00     0.048 C 
ATOM     32  H   UNL A   1      35.333  22.487  22.195  1.00  0.00     0.055 H 
ATOM     33  H   UNL A   1      34.963  21.134  23.299  1.00  0.00     0.055 H 
BRANCH  31  34
ATOM     34  C   UNL A   1      36.091  22.672  24.161  1.00  0.00    -0.021 A 
ATOM     35  C   UNL A   1      35.875  23.903  24.897  1.00  0.00    -0.040 A 
ATOM     36  C   UNL A   1      37.186  21.947  24.458  1.00  0.00     0.009 A 
ATOM     37  C   UNL A   1      36.786  24.367  25.760  1.00  0.00     0.013 A 
ATOM     38  H   UNL A   1      35.001  24.431  24.753  1.00  0.00     0.064 H 
ATOM     39  C   UNL A   1      38.181  22.409  25.478  1.00  0.00     0.255 A 
ATOM     40  H   UNL A   1      37.343  21.051  23.970  1.00  0.00     0.068 H 
ATOM     41  N   UNL A   1      37.942  23.662  26.027  1.00  0.00    -0.258 N 
ATOM     42  H   UNL A   1      36.622  25.269  26.233  1.00  0.00     0.082 H 
ATOM     43  O   UNL A   1      39.117  21.676  25.754  1.00  0.00    -0.269 OA
BRANCH  41  44
ATOM     44  C   UNL A   1      38.835  24.138  27.057  1.00  0.00     0.321 C 
ATOM     45  F   UNL A   1      39.443  25.284  26.669  1.00  0.00    -0.185 F 
ATOM     46  F   UNL A   1      38.202  24.381  28.228  1.00  0.00    -0.185 F 
ATOM     47  H   UNL A   1      39.550  23.357  27.207  1.00  0.00     0.131 H 
ENDBRANCH  41  44
ENDBRANCH  31  34
ENDBRANCH  24  31
BRANCH  25  48
ATOM     48  C   UNL A   1      32.798  20.810  24.861  1.00  0.00    -0.024 C 
ATOM     49  H   UNL A   1      33.618  20.270  24.435  1.00  0.00     0.030 H 
ATOM     50  H   UNL A   1      31.888  20.278  24.680  1.00  0.00     0.030 H 
ATOM     51  H   UNL A   1      32.948  20.913  25.916  1.00  0.00     0.030 H 
ENDBRANCH  25  48
ENDBRANCH  11  14
ENDBRANCH   8  11
ENDBRANCH   4   7
ENDBRANCH   1   4
BRANCH   1  52
ATOM     52  C   UNL A   1      32.755  26.735  25.986  1.00  0.00    -0.052 C 
ATOM     53  H   UNL A   1      32.989  26.427  24.988  1.00  0.00     0.027 H 
ATOM     54  H   UNL A   1      32.852  25.950  26.706  1.00  0.00     0.027 H 
BRANCH  52  55
ATOM     55  C   UNL A   1      33.755  27.823  26.397  1.00  0.00    -0.052 C 
ATOM     56  H   UNL A   1      34.170  28.248  25.507  1.00  0.00     0.027 H 
ATOM     57  H   UNL A   1      34.485  27.343  27.015  1.00  0.00     0.027 H 
BRANCH  55  58
ATOM     58  C   UNL A   1      33.160  28.960  27.235  1.00  0.00    -0.036 C 
ATOM     59  H   UNL A   1      33.390  28.779  28.264  1.00  0.00     0.028 H 
ATOM     60  H   UNL A   1      32.105  28.969  27.052  1.00  0.00     0.028 H 
BRANCH  58  61
ATOM     61  C   UNL A   1      33.694  30.338  26.854  1.00  0.00     0.018 C 
ATOM     62  H   UNL A   1      32.970  30.820  26.230  1.00  0.00     0.049 H 
ATOM     63  H   UNL A   1      34.627  30.182  26.352  1.00  0.00     0.049 H 
BRANCH  61  64
ATOM     64  N   UNL A   1      33.962  31.195  27.986  1.00  0.00    -0.352 N 
ATOM     65  C   UNL A   1      35.089  31.559  28.666  1.00  0.00     0.251 C 
ATOM     66  H   UNL A   1      33.147  31.610  28.349  1.00  0.00     0.163 HD
ATOM     67  O   UNL A   1      34.962  32.472  29.486  1.00  0.00    -0.269 OA
BRANCH  65  68
ATOM     68  C   UNL A   1      36.404  30.870  28.570  1.00  0.00     0.039 A 
ATOM     69  C   UNL A   1      36.613  29.543  28.193  1.00  0.00    -0.049 A 
ATOM     70  C   UNL A   1      37.510  31.629  28.994  1.00  0.00    -0.049 A 
ATOM     71  C   UNL A   1      37.848  28.942  28.397  1.00  0.00    -0.053 A 
ATOM     72  H   UNL A   1      35.846  29.005  27.759  1.00  0.00     0.063 H 
ATOM     73  C   UNL A   1      38.754  31.045  29.169  1.00  0.00    -0.053 A 
ATOM     74  H   UNL A   1      37.393  32.638  29.179  1.00  0.00     0.063 H 
ATOM     75  C   UNL A   1      38.895  29.680  28.947  1.00  0.00    -0.014 A 
ATOM     76  H   UNL A   1      37.990  27.952  28.142  1.00  0.00     0.063 H 
ATOM     77  H   UNL A   1      39.564  31.615  29.458  1.00  0.00     0.063 H 
BRANCH  75  78
ATOM     78  C   UNL A   1      40.156  28.999  29.211  1.00  0.00     0.031 A 
ATOM     79  C   UNL A   1      40.451  28.773  30.656  1.00  0.00     0.074 A 
ATOM     80  C   UNL A   1      40.930  28.524  28.213  1.00  0.00     0.049 A 
ATOM     81  N   UNL A   1      41.485  29.160  31.332  1.00  0.00    -0.248 NA
ATOM     82  C   UNL A   1      39.404  28.143  31.479  1.00  0.00    -0.034 C 
ATOM     83  C   UNL A   1      40.638  28.480  26.777  1.00  0.00    -0.036 A 
ATOM     84  N   UNL A   1      42.128  27.882  28.289  1.00  0.00    -0.354 N 
ATOM     85  C   UNL A   1      41.300  28.683  32.629  1.00  0.00     0.074 A 
ATOM     86  C   UNL A   1      39.954  28.178  32.694  1.00  0.00    -0.034 C 
ATOM     87  H   UNL A   1      38.487  27.771  31.191  1.00  0.00     0.065 H 
ATOM     88  C   UNL A   1      41.499  27.634  26.167  1.00  0.00    -0.036 A 
ATOM     89  H   UNL A   1      39.891  29.011  26.304  1.00  0.00     0.065 H 
ATOM     90  C   UNL A   1      42.482  27.188  27.137  1.00  0.00     0.049 A 
ATOM     91  H   UNL A   1      42.696  27.905  29.092  1.00  0.00     0.167 HD
ATOM     92  C   UNL A   1      42.335  28.567  33.505  1.00  0.00     0.037 A 
ATOM     93  H   UNL A   1      39.479  27.883  33.561  1.00  0.00     0.065 H 
ATOM     94  H   UNL A   1      41.463  27.351  25.175  1.00  0.00     0.065 H 
ATOM     95  C   UNL A   1      43.469  26.262  27.026  1.00  0.00     0.037 A 
ATOM     96  C   UNL A   1      43.454  29.376  33.112  1.00  0.00     0.049 A 
ATOM     97  C   UNL A   1      44.387  26.454  28.177  1.00  0.00     0.074 A 
ATOM     98  C   UNL A   1      43.660  30.734  32.979  1.00  0.00    -0.036 A 
ATOM     99  N   UNL A   1      44.487  28.772  32.440  1.00  0.00    -0.354 N 
ATOM    100  N   UNL A   1      45.156  27.499  28.317  1.00  0.00    -0.248 NA
ATOM    101  C   UNL A   1      44.085  25.727  29.403  1.00  0.00    -0.034 C 
ATOM    102  C   UNL A   1      44.495  30.867  31.833  1.00  0.00    -0.036 A 
ATOM    103  H   UNL A   1      43.291  31.489  33.578  1.00  0.00     0.065 H 
ATOM    104  C   UNL A   1      44.803  29.583  31.380  1.00  0.00     0.049 A 
ATOM    105  H   UNL A   1      44.920  27.919  32.674  1.00  0.00     0.167 HD
ATOM    106  C   UNL A   1      45.083  27.809  29.667  1.00  0.00     0.074 A 
ATOM    107  C   UNL A   1      44.458  26.646  30.296  1.00  0.00    -0.034 C 
ATOM    108  H   UNL A   1      43.697  24.780  29.540  1.00  0.00     0.065 H 
ATOM    109  H   UNL A   1      44.815  31.753  31.413  1.00  0.00     0.065 H 
ATOM    110  C   UNL A   1      45.264  29.087  30.108  1.00  0.00     0.037 A 
ATOM    111  H   UNL A   1      44.321  26.548  31.315  1.00  0.00     0.065 H 
BRANCH  92 112
ATOM    112  C   UNL A   1      42.458  27.473  34.532  1.00  0.00     0.064 A 
ATOM    113  C   UNL A   1      42.996  26.224  34.160  1.00  0.00     0.173 A 
ATOM    114  C   UNL A   1      41.788  27.504  35.774  1.00  0.00     0.173 A 
ATOM    115  F   UNL A   1      43.631  26.076  32.988  1.00  0.00    -0.203 F 
ATOM    116  C   UNL A   1      42.812  25.081  34.942  1.00  0.00     0.198 A 
ATOM    117  C   UNL A   1      41.652  26.373  36.575  1.00  0.00     0.198 A 
ATOM    118  F   UNL A   1      41.144  28.597  36.203  1.00  0.00    -0.203 F 
ATOM    119  F   UNL A   1      43.235  23.892  34.493  1.00  0.00    -0.200 F 
ATOM    120  C   UNL A   1      42.136  25.156  36.146  1.00  0.00     0.200 A 
ATOM    121  F   UNL A   1      40.972  26.460  37.728  1.00  0.00    -0.200 F 
ATOM    122  F   UNL A   1      41.905  24.050  36.867  1.00  0.00    -0.200 F 
ENDBRANCH  92 112
BRANCH  95 123
ATOM    123  C   UNL A   1      43.475  25.027  26.202  1.00  0.00     0.064 A 
ATOM    124  C   UNL A   1      44.413  24.839  25.174  1.00  0.00     0.173 A 
ATOM    125  C   UNL A   1      42.735  23.890  26.586  1.00  0.00     0.173 A 
ATOM    126  F   UNL A   1      45.198  25.853  24.783  1.00  0.00    -0.203 F 
ATOM    127  C   UNL A   1      44.609  23.586  24.577  1.00  0.00     0.198 A 
ATOM    128  C   UNL A   1      42.928  22.644  25.986  1.00  0.00     0.198 A 
ATOM    129  F   UNL A   1      41.879  23.944  27.616  1.00  0.00    -0.203 F 
ATOM    130  F   UNL A   1      45.554  23.432  23.638  1.00  0.00    -0.200 F 
ATOM    131  C   UNL A   1      43.872  22.489  24.990  1.00  0.00     0.200 A 
ATOM    132  F   UNL A   1      42.235  21.582  26.425  1.00  0.00    -0.200 F 
ATOM    133  F   UNL A   1      44.099  21.279  24.461  1.00  0.00    -0.200 F 
ENDBRANCH  95 123
BRANCH 110 134
ATOM    134  C   UNL A   1      45.745  30.115  29.125  1.00  0.00     0.064 A 
ATOM    135  C   UNL A   1      44.889  30.870  28.303  1.00  0.00     0.173 A 
ATOM    136  C   UNL A   1      47.096  30.484  29.159  1.00  0.00     0.173 A 
ATOM    137  F   UNL A   1      43.570  30.648  28.292  1.00  0.00    -0.203 F 
ATOM    138  C   UNL A   1      45.373  31.927  27.533  1.00  0.00     0.198 A 
ATOM    139  C   UNL A   1      47.569  31.564  28.418  1.00  0.00     0.198 A 
ATOM    140  F   UNL A   1      47.948  29.838  29.971  1.00  0.00    -0.203 F 
ATOM    141  F   UNL A   1      44.533  32.638  26.765  1.00  0.00    -0.200 F 
ATOM    142  C   UNL A   1      46.709  32.280  27.600  1.00  0.00     0.200 A 
ATOM    143  F   UNL A   1      48.851  31.936  28.531  1.00  0.00    -0.200 F 
ATOM    144  F   UNL A   1      47.164  33.334  26.908  1.00  0.00    -0.200 F 
ENDBRANCH 110 134
ENDBRANCH  75  78
ENDBRANCH  65  68
ENDBRANCH  61  64
ENDBRANCH  58  61
ENDBRANCH  55  58
ENDBRANCH  52  55
ENDBRANCH   1  52
TORSDOF 20
ENDMDL
MODEL 7
REMARK VINA RESULT:     -12.1      1.237      2.014
REMARK SMILES COc1ccc2c(c1)c(CC(=O)NCCCCCCNC(=O)c1ccc(-c3c4nc(c(-c5c(F)c(F)c(F)c(F)c5F)c5ccc([nH]5)c(-c5c(F)c(F)c(F)c(F)c5F)c5nc(c(-c6c(F)c(F)c(F)c(F)c6F)c6ccc3[nH]6)C=C5)C=C4)cc1)c(C)n2Cc1ccn(C(F)F)c(=O)c1
REMARK SMILES IDX 15 1 14 4 13 7 11 8 12 9 10 11 9 14 3 15 4 16 8 17 5 18 7 20
REMARK SMILES IDX 6 22 88 24 86 25 2 26 1 27 89 31 90 34 91 35 99 36 92 37
REMARK SMILES IDX 97 39 93 41 98 43 94 44 95 45 96 46 87 48 16 52 17 55 18 58
REMARK SMILES IDX 19 61 20 64 21 65 22 67 23 68 24 69 85 70 25 71 84 73 26 75
REMARK SMILES IDX 27 78 28 79 78 80 29 81 83 82 77 83 79 84 30 85 82 86 76 88
REMARK SMILES IDX 75 90 31 92 63 95 43 96 62 97 44 98 47 99 61 100 80 101
REMARK SMILES IDX 45 102 46 104 60 106 81 107 48 110 32 112 33 113 41 114
REMARK SMILES IDX 34 115 35 116 39 117 42 118 36 119 37 120 40 121 38 122
REMARK SMILES IDX 64 123 65 124 73 125 66 126 67 127 71 128 74 129 68 130
REMARK SMILES IDX 69 131 72 132 70 133 49 134 50 135 58 136 51 137 52 138
REMARK SMILES IDX 56 139 59 140 53 141 54 142 57 143 55 144
REMARK H PARENT 15 2 15 3 14 5 14 6 13 10 10 12 10 13 4 19 8 21 5 23 1 28 1 29
REMARK H PARENT 1 30 89 32 89 33 91 38 99 40 92 42 94 47 87 49 87 50 87 51
REMARK H PARENT 16 53 16 54 17 56 17 57 18 59 18 60 19 62 19 63 20 66 24 72
REMARK H PARENT 85 74 25 76 84 77 83 87 77 89 79 91 82 93 76 94 44 103 47 105
REMARK H PARENT 80 108 45 109 81 111
REMARK Flexibility Score: inf
ROOT
ATOM      1  C   UNL A   1      40.357  21.823  26.295  1.00  0.00    -0.036 C 
ATOM      2  H   UNL A   1      40.997  22.535  25.816  1.00  0.00     0.028 H 
ATOM      3  H   UNL A   1      40.186  20.959  25.688  1.00  0.00     0.028 H 
ENDROOT
BRANCH   1   4
ATOM      4  C   UNL A   1      38.997  22.480  26.535  1.00  0.00     0.017 C 
ATOM      5  H   UNL A   1      38.319  21.748  26.918  1.00  0.00     0.049 H 
ATOM      6  H   UNL A   1      39.129  23.278  27.236  1.00  0.00     0.049 H 
BRANCH   4   7
ATOM      7  N   UNL A   1      38.453  23.034  25.312  1.00  0.00    -0.356 N 
ATOM      8  C   UNL A   1      37.168  23.391  25.016  1.00  0.00     0.224 C 
ATOM      9  O   UNL A   1      36.926  23.783  23.871  1.00  0.00    -0.275 OA
ATOM     10  H   UNL A   1      39.105  23.173  24.586  1.00  0.00     0.163 HD
BRANCH   8  11
ATOM     11  C   UNL A   1      36.095  23.397  26.094  1.00  0.00     0.054 C 
ATOM     12  H   UNL A   1      36.434  22.795  26.910  1.00  0.00     0.042 H 
ATOM     13  H   UNL A   1      35.939  24.418  26.373  1.00  0.00     0.042 H 
BRANCH  11  14
ATOM     14  C   UNL A   1      34.772  22.864  25.633  1.00  0.00    -0.010 A 
ATOM     15  C   UNL A   1      31.752  25.071  26.378  1.00  0.00     0.119 A 
ATOM     16  C   UNL A   1      30.815  24.269  25.735  1.00  0.00    -0.018 A 
ATOM     17  C   UNL A   1      33.100  24.717  26.365  1.00  0.00    -0.010 A 
ATOM     18  C   UNL A   1      31.203  23.086  25.082  1.00  0.00    -0.034 A 
ATOM     19  H   UNL A   1      29.822  24.546  25.737  1.00  0.00     0.066 H 
ATOM     20  C   UNL A   1      33.509  23.512  25.756  1.00  0.00     0.007 A 
ATOM     21  H   UNL A   1      33.800  25.337  26.802  1.00  0.00     0.067 H 
ATOM     22  C   UNL A   1      32.560  22.713  25.112  1.00  0.00     0.049 A 
ATOM     23  H   UNL A   1      30.507  22.504  24.591  1.00  0.00     0.065 H 
ATOM     24  N   UNL A   1      33.241  21.625  24.576  1.00  0.00    -0.340 N 
ATOM     25  C   UNL A   1      34.536  21.617  25.068  1.00  0.00     0.020 A 
BRANCH  15  26
ATOM     26  O   UNL A   1      31.458  26.263  26.984  1.00  0.00    -0.497 OA
BRANCH  26  27
ATOM     27  C   UNL A   1      31.361  27.370  26.092  1.00  0.00     0.078 C 
ATOM     28  H   UNL A   1      31.753  27.092  25.136  1.00  0.00     0.067 H 
ATOM     29  H   UNL A   1      31.923  28.191  26.483  1.00  0.00     0.067 H 
ATOM     30  H   UNL A   1      30.336  27.655  25.988  1.00  0.00     0.067 H 
ENDBRANCH  26  27
ENDBRANCH  15  26
BRANCH  24  31
ATOM     31  C   UNL A   1      32.640  20.605  23.704  1.00  0.00     0.048 C 
ATOM     32  H   UNL A   1      33.052  20.720  22.723  1.00  0.00     0.055 H 
ATOM     33  H   UNL A   1      31.583  20.762  23.735  1.00  0.00     0.055 H 
BRANCH  31  34
ATOM     34  C   UNL A   1      32.878  19.172  24.154  1.00  0.00    -0.021 A 
ATOM     35  C   UNL A   1      32.407  18.749  25.459  1.00  0.00    -0.040 A 
ATOM     36  C   UNL A   1      33.421  18.239  23.351  1.00  0.00     0.009 A 
ATOM     37  C   UNL A   1      32.608  17.502  25.901  1.00  0.00     0.013 A 
ATOM     38  H   UNL A   1      31.908  19.423  26.059  1.00  0.00     0.064 H 
ATOM     39  C   UNL A   1      33.585  16.817  23.795  1.00  0.00     0.255 A 
ATOM     40  H   UNL A   1      33.734  18.510  22.405  1.00  0.00     0.068 H 
ATOM     41  N   UNL A   1      33.219  16.552  25.108  1.00  0.00    -0.258 N 
ATOM     42  H   UNL A   1      32.301  17.246  26.852  1.00  0.00     0.082 H 
ATOM     43  O   UNL A   1      34.020  16.003  22.997  1.00  0.00    -0.269 OA
BRANCH  41  44
ATOM     44  C   UNL A   1      33.300  15.189  25.577  1.00  0.00     0.321 C 
ATOM     45  F   UNL A   1      32.349  14.425  24.988  1.00  0.00    -0.185 F 
ATOM     46  F   UNL A   1      34.501  14.620  25.329  1.00  0.00    -0.185 F 
ATOM     47  H   UNL A   1      33.152  15.235  26.635  1.00  0.00     0.131 H 
ENDBRANCH  41  44
ENDBRANCH  31  34
ENDBRANCH  24  31
BRANCH  25  48
ATOM     48  C   UNL A   1      35.499  20.486  24.948  1.00  0.00    -0.024 C 
ATOM     49  H   UNL A   1      34.977  19.560  25.071  1.00  0.00     0.030 H 
ATOM     50  H   UNL A   1      36.251  20.575  25.704  1.00  0.00     0.030 H 
ATOM     51  H   UNL A   1      35.960  20.510  23.983  1.00  0.00     0.030 H 
ENDBRANCH  25  48
ENDBRANCH  11  14
ENDBRANCH   8  11
ENDBRANCH   4   7
ENDBRANCH   1   4
BRANCH   1  52
ATOM     52  C   UNL A   1      41.041  21.343  27.582  1.00  0.00    -0.052 C 
ATOM     53  H   UNL A   1      40.358  21.485  28.394  1.00  0.00     0.027 H 
ATOM     54  H   UNL A   1      41.938  21.918  27.678  1.00  0.00     0.027 H 
BRANCH  52  55
ATOM     55  C   UNL A   1      41.473  19.871  27.572  1.00  0.00    -0.052 C 
ATOM     56  H   UNL A   1      40.683  19.289  28.000  1.00  0.00     0.027 H 
ATOM     57  H   UNL A   1      42.384  19.820  28.131  1.00  0.00     0.027 H 
BRANCH  55  58
ATOM     58  C   UNL A   1      41.785  19.302  26.183  1.00  0.00    -0.036 C 
ATOM     59  H   UNL A   1      41.529  20.037  25.450  1.00  0.00     0.028 H 
ATOM     60  H   UNL A   1      41.213  18.404  26.073  1.00  0.00     0.028 H 
BRANCH  58  61
ATOM     61  C   UNL A   1      43.252  18.924  25.999  1.00  0.00     0.018 C 
ATOM     62  H   UNL A   1      43.351  17.869  26.153  1.00  0.00     0.049 H 
ATOM     63  H   UNL A   1      43.812  19.496  26.710  1.00  0.00     0.049 H 
BRANCH  61  64
ATOM     64  N   UNL A   1      43.779  19.246  24.692  1.00  0.00    -0.352 N 
ATOM     65  C   UNL A   1      44.467  20.303  24.171  1.00  0.00     0.251 C 
ATOM     66  H   UNL A   1      43.600  18.542  24.027  1.00  0.00     0.163 HD
ATOM     67  O   UNL A   1      44.922  20.152  23.034  1.00  0.00    -0.269 OA
BRANCH  65  68
ATOM     68  C   UNL A   1      44.606  21.635  24.819  1.00  0.00     0.039 A 
ATOM     69  C   UNL A   1      45.514  21.971  25.823  1.00  0.00    -0.049 A 
ATOM     70  C   UNL A   1      43.656  22.595  24.424  1.00  0.00    -0.049 A 
ATOM     71  C   UNL A   1      45.370  23.158  26.530  1.00  0.00    -0.053 A 
ATOM     72  H   UNL A   1      46.297  21.335  26.042  1.00  0.00     0.063 H 
ATOM     73  C   UNL A   1      43.527  23.796  25.102  1.00  0.00    -0.053 A 
ATOM     74  H   UNL A   1      43.044  22.401  23.615  1.00  0.00     0.063 H 
ATOM     75  C   UNL A   1      44.334  24.035  26.209  1.00  0.00    -0.014 A 
ATOM     76  H   UNL A   1      46.028  23.390  27.291  1.00  0.00     0.063 H 
ATOM     77  H   UNL A   1      42.843  24.503  24.791  1.00  0.00     0.063 H 
BRANCH  75  78
ATOM     78  C   UNL A   1      44.172  25.237  27.016  1.00  0.00     0.031 A 
ATOM     79  C   UNL A   1      45.237  26.264  26.825  1.00  0.00     0.074 A 
ATOM     80  C   UNL A   1      43.084  25.433  27.790  1.00  0.00     0.049 A 
ATOM     81  N   UNL A   1      46.018  26.783  27.717  1.00  0.00    -0.248 NA
ATOM     82  C   UNL A   1      45.555  26.673  25.445  1.00  0.00    -0.034 C 
ATOM     83  C   UNL A   1      41.873  24.611  27.883  1.00  0.00    -0.036 A 
ATOM     84  N   UNL A   1      42.789  26.483  28.604  1.00  0.00    -0.354 N 
ATOM     85  C   UNL A   1      46.818  27.705  27.042  1.00  0.00     0.074 A 
ATOM     86  C   UNL A   1      46.579  27.506  25.637  1.00  0.00    -0.034 C 
ATOM     87  H   UNL A   1      45.103  26.390  24.563  1.00  0.00     0.065 H 
ATOM     88  C   UNL A   1      40.896  25.315  28.497  1.00  0.00    -0.036 A 
ATOM     89  H   UNL A   1      41.781  23.645  27.532  1.00  0.00     0.065 H 
ATOM     90  C   UNL A   1      41.448  26.575  28.961  1.00  0.00     0.049 A 
ATOM     91  H   UNL A   1      43.468  27.125  28.913  1.00  0.00     0.167 HD
ATOM     92  C   UNL A   1      47.480  28.697  27.698  1.00  0.00     0.037 A 
ATOM     93  H   UNL A   1      47.125  27.947  24.880  1.00  0.00     0.065 H 
ATOM     94  H   UNL A   1      39.918  25.008  28.617  1.00  0.00     0.065 H 
ATOM     95  C   UNL A   1      40.838  27.645  29.530  1.00  0.00     0.037 A 
ATOM     96  C   UNL A   1      47.617  28.405  29.097  1.00  0.00     0.049 A 
ATOM     97  C   UNL A   1      41.900  28.495  30.125  1.00  0.00     0.074 A 
ATOM     98  C   UNL A   1      48.277  27.428  29.815  1.00  0.00    -0.036 A 
ATOM     99  N   UNL A   1      46.727  28.976  29.970  1.00  0.00    -0.354 N 
ATOM    100  N   UNL A   1      42.610  28.140  31.161  1.00  0.00    -0.248 NA
ATOM    101  C   UNL A   1      42.498  29.513  29.272  1.00  0.00    -0.034 C 
ATOM    102  C   UNL A   1      47.411  27.129  30.905  1.00  0.00    -0.036 A 
ATOM    103  H   UNL A   1      49.196  27.007  29.609  1.00  0.00     0.065 H 
ATOM    104  C   UNL A   1      46.313  27.986  30.824  1.00  0.00     0.049 A 
ATOM    105  H   UNL A   1      46.439  29.918  29.983  1.00  0.00     0.167 HD
ATOM    106  C   UNL A   1      43.898  28.559  30.862  1.00  0.00     0.074 A 
ATOM    107  C   UNL A   1      43.756  29.453  29.714  1.00  0.00    -0.034 C 
ATOM    108  H   UNL A   1      42.073  30.106  28.541  1.00  0.00     0.065 H 
ATOM    109  H   UNL A   1      47.567  26.407  31.626  1.00  0.00     0.065 H 
ATOM    110  C   UNL A   1      44.985  27.919  31.381  1.00  0.00     0.037 A 
ATOM    111  H   UNL A   1      44.540  29.976  29.293  1.00  0.00     0.065 H 
BRANCH  92 112
ATOM    112  C   UNL A   1      47.708  30.077  27.141  1.00  0.00     0.064 A 
ATOM    113  C   UNL A   1      49.003  30.635  27.169  1.00  0.00     0.173 A 
ATOM    114  C   UNL A   1      46.659  30.981  26.869  1.00  0.00     0.173 A 
ATOM    115  F   UNL A   1      50.070  29.870  27.444  1.00  0.00    -0.203 F 
ATOM    116  C   UNL A   1      49.217  32.007  27.007  1.00  0.00     0.198 A 
ATOM    117  C   UNL A   1      46.883  32.339  26.656  1.00  0.00     0.198 A 
ATOM    118  F   UNL A   1      45.374  30.606  26.912  1.00  0.00    -0.203 F 
ATOM    119  F   UNL A   1      50.449  32.510  27.162  1.00  0.00    -0.200 F 
ATOM    120  C   UNL A   1      48.156  32.857  26.757  1.00  0.00     0.200 A 
ATOM    121  F   UNL A   1      45.839  33.152  26.439  1.00  0.00    -0.200 F 
ATOM    122  F   UNL A   1      48.352  34.179  26.662  1.00  0.00    -0.200 F 
ENDBRANCH  92 112
BRANCH  95 123
ATOM    123  C   UNL A   1      39.460  28.144  29.294  1.00  0.00     0.064 A 
ATOM    124  C   UNL A   1      38.542  28.287  30.348  1.00  0.00     0.173 A 
ATOM    125  C   UNL A   1      39.103  28.749  28.071  1.00  0.00     0.173 A 
ATOM    126  F   UNL A   1      38.825  27.789  31.560  1.00  0.00    -0.203 F 
ATOM    127  C   UNL A   1      37.348  29.004  30.192  1.00  0.00     0.198 A 
ATOM    128  C   UNL A   1      37.910  29.458  27.916  1.00  0.00     0.198 A 
ATOM    129  F   UNL A   1      39.949  28.745  27.031  1.00  0.00    -0.203 F 
ATOM    130  F   UNL A   1      36.524  29.167  31.237  1.00  0.00    -0.200 F 
ATOM    131  C   UNL A   1      37.038  29.596  28.978  1.00  0.00     0.200 A 
ATOM    132  F   UNL A   1      37.643  30.059  26.747  1.00  0.00    -0.200 F 
ATOM    133  F   UNL A   1      35.925  30.330  28.845  1.00  0.00    -0.200 F 
ENDBRANCH  95 123
BRANCH 110 134
ATOM    134  C   UNL A   1      44.758  26.881  32.442  1.00  0.00     0.064 A 
ATOM    135  C   UNL A   1      44.569  27.185  33.803  1.00  0.00     0.173 A 
ATOM    136  C   UNL A   1      44.529  25.559  32.040  1.00  0.00     0.173 A 
ATOM    137  F   UNL A   1      44.666  28.442  34.249  1.00  0.00    -0.203 F 
ATOM    138  C   UNL A   1      44.194  26.201  34.718  1.00  0.00     0.198 A 
ATOM    139  C   UNL A   1      44.120  24.587  32.949  1.00  0.00     0.198 A 
ATOM    140  F   UNL A   1      44.636  25.224  30.744  1.00  0.00    -0.203 F 
ATOM    141  F   UNL A   1      44.010  26.519  36.008  1.00  0.00    -0.200 F 
ATOM    142  C   UNL A   1      43.959  24.907  34.288  1.00  0.00     0.200 A 
ATOM    143  F   UNL A   1      43.838  23.350  32.517  1.00  0.00    -0.200 F 
ATOM    144  F   UNL A   1      43.539  23.974  35.155  1.00  0.00    -0.200 F 
ENDBRANCH 110 134
ENDBRANCH  75  78
ENDBRANCH  65  68
ENDBRANCH  61  64
ENDBRANCH  58  61
ENDBRANCH  55  58
ENDBRANCH  52  55
ENDBRANCH   1  52
TORSDOF 20
ENDMDL
MODEL 8
REMARK VINA RESULT:     -12.1      3.048      9.007
REMARK SMILES COc1ccc2c(c1)c(CC(=O)NCCCCCCNC(=O)c1ccc(-c3c4nc(c(-c5c(F)c(F)c(F)c(F)c5F)c5ccc([nH]5)c(-c5c(F)c(F)c(F)c(F)c5F)c5nc(c(-c6c(F)c(F)c(F)c(F)c6F)c6ccc3[nH]6)C=C5)C=C4)cc1)c(C)n2Cc1ccn(C(F)F)c(=O)c1
REMARK SMILES IDX 15 1 14 4 13 7 11 8 12 9 10 11 9 14 3 15 4 16 8 17 5 18 7 20
REMARK SMILES IDX 6 22 88 24 86 25 2 26 1 27 89 31 90 34 91 35 99 36 92 37
REMARK SMILES IDX 97 39 93 41 98 43 94 44 95 45 96 46 87 48 16 52 17 55 18 58
REMARK SMILES IDX 19 61 20 64 21 65 22 67 23 68 24 69 85 70 25 71 84 73 26 75
REMARK SMILES IDX 27 78 28 79 78 80 29 81 83 82 77 83 79 84 30 85 82 86 76 88
REMARK SMILES IDX 75 90 31 92 63 95 43 96 62 97 44 98 47 99 61 100 80 101
REMARK SMILES IDX 45 102 46 104 60 106 81 107 48 110 32 112 33 113 41 114
REMARK SMILES IDX 34 115 35 116 39 117 42 118 36 119 37 120 40 121 38 122
REMARK SMILES IDX 64 123 65 124 73 125 66 126 67 127 71 128 74 129 68 130
REMARK SMILES IDX 69 131 72 132 70 133 49 134 50 135 58 136 51 137 52 138
REMARK SMILES IDX 56 139 59 140 53 141 54 142 57 143 55 144
REMARK H PARENT 15 2 15 3 14 5 14 6 13 10 10 12 10 13 4 19 8 21 5 23 1 28 1 29
REMARK H PARENT 1 30 89 32 89 33 91 38 99 40 92 42 94 47 87 49 87 50 87 51
REMARK H PARENT 16 53 16 54 17 56 17 57 18 59 18 60 19 62 19 63 20 66 24 72
REMARK H PARENT 85 74 25 76 84 77 83 87 77 89 79 91 82 93 76 94 44 103 47 105
REMARK H PARENT 80 108 45 109 81 111
REMARK Flexibility Score: inf
ROOT
ATOM      1  C   UNL A   1      31.069  27.015  26.089  1.00  0.00    -0.036 C 
ATOM      2  H   UNL A   1      32.062  26.631  26.201  1.00  0.00     0.028 H 
ATOM      3  H   UNL A   1      30.789  27.656  26.897  1.00  0.00     0.028 H 
ENDROOT
BRANCH   1   4
ATOM      4  C   UNL A   1      30.094  25.838  26.086  1.00  0.00     0.017 C 
ATOM      5  H   UNL A   1      30.363  25.161  26.869  1.00  0.00     0.049 H 
ATOM      6  H   UNL A   1      29.106  26.221  26.240  1.00  0.00     0.049 H 
BRANCH   4   7
ATOM      7  N   UNL A   1      30.118  25.132  24.822  1.00  0.00    -0.356 N 
ATOM      8  C   UNL A   1      30.703  23.940  24.503  1.00  0.00     0.224 C 
ATOM      9  O   UNL A   1      30.649  23.564  23.329  1.00  0.00    -0.275 OA
ATOM     10  H   UNL A   1      29.643  25.577  24.082  1.00  0.00     0.163 HD
BRANCH   8  11
ATOM     11  C   UNL A   1      31.316  23.061  25.584  1.00  0.00     0.054 C 
ATOM     12  H   UNL A   1      31.420  23.645  26.474  1.00  0.00     0.042 H 
ATOM     13  H   UNL A   1      30.660  22.226  25.715  1.00  0.00     0.042 H 
BRANCH  11  14
ATOM     14  C   UNL A   1      32.661  22.507  25.222  1.00  0.00    -0.010 A 
ATOM     15  C   UNL A   1      32.894  18.704  25.064  1.00  0.00     0.119 A 
ATOM     16  C   UNL A   1      34.216  18.651  24.637  1.00  0.00    -0.018 A 
ATOM     17  C   UNL A   1      32.269  19.936  25.247  1.00  0.00    -0.010 A 
ATOM     18  C   UNL A   1      34.948  19.828  24.401  1.00  0.00    -0.034 A 
ATOM     19  H   UNL A   1      34.667  17.734  24.490  1.00  0.00     0.066 H 
ATOM     20  C   UNL A   1      32.995  21.132  25.061  1.00  0.00     0.007 A 
ATOM     21  H   UNL A   1      31.274  19.975  25.518  1.00  0.00     0.067 H 
ATOM     22  C   UNL A   1      34.324  21.068  24.631  1.00  0.00     0.049 A 
ATOM     23  H   UNL A   1      35.923  19.783  24.067  1.00  0.00     0.065 H 
ATOM     24  N   UNL A   1      34.771  22.377  24.497  1.00  0.00    -0.340 N 
ATOM     25  C   UNL A   1      33.832  23.233  25.050  1.00  0.00     0.020 A 
BRANCH  15  26
ATOM     26  O   UNL A   1      32.103  17.604  25.258  1.00  0.00    -0.497 OA
BRANCH  26  27
ATOM     27  C   UNL A   1      32.798  16.455  25.734  1.00  0.00     0.078 C 
ATOM     28  H   UNL A   1      33.823  16.510  25.436  1.00  0.00     0.067 H 
ATOM     29  H   UNL A   1      32.353  15.574  25.322  1.00  0.00     0.067 H 
ATOM     30  H   UNL A   1      32.738  16.419  26.801  1.00  0.00     0.067 H 
ENDBRANCH  26  27
ENDBRANCH  15  26
BRANCH  24  31
ATOM     31  C   UNL A   1      36.075  22.766  23.940  1.00  0.00     0.048 C 
ATOM     32  H   UNL A   1      35.986  23.755  23.539  1.00  0.00     0.055 H 
ATOM     33  H   UNL A   1      36.320  22.035  23.199  1.00  0.00     0.055 H 
BRANCH  31  34
ATOM     34  C   UNL A   1      37.216  22.762  24.945  1.00  0.00    -0.021 A 
ATOM     35  C   UNL A   1      38.085  21.605  25.030  1.00  0.00    -0.040 A 
ATOM     36  C   UNL A   1      37.524  23.835  25.698  1.00  0.00     0.009 A 
ATOM     37  C   UNL A   1      39.092  21.554  25.910  1.00  0.00     0.013 A 
ATOM     38  H   UNL A   1      37.924  20.805  24.399  1.00  0.00     0.064 H 
ATOM     39  C   UNL A   1      38.694  23.829  26.634  1.00  0.00     0.255 A 
ATOM     40  H   UNL A   1      36.938  24.683  25.630  1.00  0.00     0.068 H 
ATOM     41  N   UNL A   1      39.380  22.625  26.731  1.00  0.00    -0.258 N 
ATOM     42  H   UNL A   1      39.663  20.697  25.976  1.00  0.00     0.082 H 
ATOM     43  O   UNL A   1      38.963  24.854  27.239  1.00  0.00    -0.269 OA
BRANCH  41  44
ATOM     44  C   UNL A   1      40.551  22.572  27.573  1.00  0.00     0.321 C 
ATOM     45  F   UNL A   1      40.613  23.664  28.373  1.00  0.00    -0.185 F 
ATOM     46  F   UNL A   1      40.578  21.477  28.365  1.00  0.00    -0.185 F 
ATOM     47  H   UNL A   1      41.387  22.537  26.908  1.00  0.00     0.131 H 
ENDBRANCH  41  44
ENDBRANCH  31  34
ENDBRANCH  24  31
BRANCH  25  48
ATOM     48  C   UNL A   1      34.048  24.679  25.343  1.00  0.00    -0.024 C 
ATOM     49  H   UNL A   1      33.117  25.201  25.266  1.00  0.00     0.030 H 
ATOM     50  H   UNL A   1      34.744  25.085  24.638  1.00  0.00     0.030 H 
ATOM     51  H   UNL A   1      34.438  24.789  26.333  1.00  0.00     0.030 H 
ENDBRANCH  25  48
ENDBRANCH  11  14
ENDBRANCH   8  11
ENDBRANCH   4   7
ENDBRANCH   1   4
BRANCH   1  52
ATOM     52  C   UNL A   1      31.017  27.857  24.806  1.00  0.00    -0.052 C 
ATOM     53  H   UNL A   1      30.043  28.295  24.736  1.00  0.00     0.027 H 
ATOM     54  H   UNL A   1      31.240  27.190  24.000  1.00  0.00     0.027 H 
BRANCH  52  55
ATOM     55  C   UNL A   1      32.055  28.984  24.733  1.00  0.00    -0.052 C 
ATOM     56  H   UNL A   1      31.782  29.636  23.928  1.00  0.00     0.027 H 
ATOM     57  H   UNL A   1      33.004  28.511  24.589  1.00  0.00     0.027 H 
BRANCH  55  58
ATOM     58  C   UNL A   1      32.181  29.827  26.007  1.00  0.00    -0.036 C 
ATOM     59  H   UNL A   1      31.549  29.401  26.758  1.00  0.00     0.028 H 
ATOM     60  H   UNL A   1      31.892  30.826  25.755  1.00  0.00     0.028 H 
BRANCH  58  61
ATOM     61  C   UNL A   1      33.605  29.893  26.551  1.00  0.00     0.018 C 
ATOM     62  H   UNL A   1      34.242  30.277  25.781  1.00  0.00     0.049 H 
ATOM     63  H   UNL A   1      33.872  28.900  26.846  1.00  0.00     0.049 H 
BRANCH  61  64
ATOM     64  N   UNL A   1      33.746  30.732  27.719  1.00  0.00    -0.352 N 
ATOM     65  C   UNL A   1      34.807  31.204  28.437  1.00  0.00     0.251 C 
ATOM     66  H   UNL A   1      32.879  31.030  28.080  1.00  0.00     0.163 HD
ATOM     67  O   UNL A   1      34.554  32.062  29.286  1.00  0.00    -0.269 OA
BRANCH  65  68
ATOM     68  C   UNL A   1      36.198  30.685  28.345  1.00  0.00     0.039 A 
ATOM     69  C   UNL A   1      36.572  29.392  27.979  1.00  0.00    -0.049 A 
ATOM     70  C   UNL A   1      37.201  31.581  28.760  1.00  0.00    -0.049 A 
ATOM     71  C   UNL A   1      37.873  28.953  28.187  1.00  0.00    -0.053 A 
ATOM     72  H   UNL A   1      35.878  28.758  27.552  1.00  0.00     0.063 H 
ATOM     73  C   UNL A   1      38.508  31.160  28.938  1.00  0.00    -0.053 A 
ATOM     74  H   UNL A   1      36.957  32.569  28.936  1.00  0.00     0.063 H 
ATOM     75  C   UNL A   1      38.820  29.822  28.728  1.00  0.00    -0.014 A 
ATOM     76  H   UNL A   1      38.139  27.986  27.940  1.00  0.00     0.063 H 
ATOM     77  H   UNL A   1      39.240  31.829  29.221  1.00  0.00     0.063 H 
BRANCH  75  78
ATOM     78  C   UNL A   1      40.156  29.306  28.996  1.00  0.00     0.031 A 
ATOM     79  C   UNL A   1      40.441  29.033  30.435  1.00  0.00     0.074 A 
ATOM     80  C   UNL A   1      41.016  29.007  28.000  1.00  0.00     0.049 A 
ATOM     81  N   UNL A   1      41.391  29.516  31.169  1.00  0.00    -0.248 NA
ATOM     82  C   UNL A   1      39.471  28.212  31.182  1.00  0.00    -0.034 C 
ATOM     83  C   UNL A   1      40.772  29.014  26.554  1.00  0.00    -0.036 A 
ATOM     84  N   UNL A   1      42.290  28.534  28.080  1.00  0.00    -0.354 N 
ATOM     85  C   UNL A   1      41.241  28.937  32.428  1.00  0.00     0.074 A 
ATOM     86  C   UNL A   1      39.978  28.247  32.415  1.00  0.00    -0.034 C 
ATOM     87  H   UNL A   1      38.623  27.736  30.840  1.00  0.00     0.065 H 
ATOM     88  C   UNL A   1      41.759  28.336  25.927  1.00  0.00    -0.036 A 
ATOM     89  H   UNL A   1      39.970  29.466  26.088  1.00  0.00     0.065 H 
ATOM     90  C   UNL A   1      42.769  27.970  26.904  1.00  0.00     0.049 A 
ATOM     91  H   UNL A   1      42.827  28.586  28.904  1.00  0.00     0.167 HD
ATOM     92  C   UNL A   1      42.258  28.911  33.332  1.00  0.00     0.037 A 
ATOM     93  H   UNL A   1      39.526  27.834  33.246  1.00  0.00     0.065 H 
ATOM     94  H   UNL A   1      41.790  28.115  24.919  1.00  0.00     0.065 H 
ATOM     95  C   UNL A   1      43.879  27.199  26.773  1.00  0.00     0.037 A 
ATOM     96  C   UNL A   1      43.263  29.890  33.027  1.00  0.00     0.049 A 
ATOM     97  C   UNL A   1      44.729  27.444  27.965  1.00  0.00     0.074 A 
ATOM     98  C   UNL A   1      43.278  31.269  32.982  1.00  0.00    -0.036 A 
ATOM     99  N   UNL A   1      44.387  29.479  32.358  1.00  0.00    -0.354 N 
ATOM    100  N   UNL A   1      45.339  28.574  28.194  1.00  0.00    -0.248 NA
ATOM    101  C   UNL A   1      44.499  26.606  29.135  1.00  0.00    -0.034 C 
ATOM    102  C   UNL A   1      44.117  31.589  31.876  1.00  0.00    -0.036 A 
ATOM    103  H   UNL A   1      42.791  31.926  33.611  1.00  0.00     0.065 H 
ATOM    104  C   UNL A   1      44.614  30.392  31.360  1.00  0.00     0.049 A 
ATOM    105  H   UNL A   1      44.929  28.681  32.557  1.00  0.00     0.167 HD
ATOM    106  C   UNL A   1      45.188  28.785  29.556  1.00  0.00     0.074 A 
ATOM    107  C   UNL A   1      44.716  27.510  30.093  1.00  0.00    -0.034 C 
ATOM    108  H   UNL A   1      44.245  25.608  29.201  1.00  0.00     0.065 H 
ATOM    109  H   UNL A   1      44.321  32.535  31.520  1.00  0.00     0.065 H 
ATOM    110  C   UNL A   1      45.175  30.045  30.077  1.00  0.00     0.037 A 
ATOM    111  H   UNL A   1      44.567  27.329  31.099  1.00  0.00     0.065 H 
BRANCH  92 112
ATOM    112  C   UNL A   1      42.506  27.781  34.297  1.00  0.00     0.064 A 
ATOM    113  C   UNL A   1      43.084  26.582  33.833  1.00  0.00     0.173 A 
ATOM    114  C   UNL A   1      41.918  27.721  35.578  1.00  0.00     0.173 A 
ATOM    115  F   UNL A   1      43.648  26.521  32.618  1.00  0.00    -0.203 F 
ATOM    116  C   UNL A   1      43.013  25.397  34.571  1.00  0.00     0.198 A 
ATOM    117  C   UNL A   1      41.895  26.550  36.333  1.00  0.00     0.198 A 
ATOM    118  F   UNL A   1      41.246  28.756  36.098  1.00  0.00    -0.203 F 
ATOM    119  F   UNL A   1      43.469  24.254  34.040  1.00  0.00    -0.200 F 
ATOM    120  C   UNL A   1      42.414  25.381  35.817  1.00  0.00     0.200 A 
ATOM    121  F   UNL A   1      41.289  26.549  37.528  1.00  0.00    -0.200 F 
ATOM    122  F   UNL A   1      42.290  24.235  36.498  1.00  0.00    -0.200 F 
ENDBRANCH  92 112
BRANCH  95 123
ATOM    123  C   UNL A   1      44.081  26.032  25.879  1.00  0.00     0.064 A 
ATOM    124  C   UNL A   1      45.349  25.715  25.365  1.00  0.00     0.173 A 
ATOM    125  C   UNL A   1      43.084  25.046  25.729  1.00  0.00     0.173 A 
ATOM    126  F   UNL A   1      46.370  26.572  25.511  1.00  0.00    -0.203 F 
ATOM    127  C   UNL A   1      45.608  24.481  24.754  1.00  0.00     0.198 A 
ATOM    128  C   UNL A   1      43.342  23.819  25.115  1.00  0.00     0.198 A 
ATOM    129  F   UNL A   1      41.865  25.215  26.262  1.00  0.00    -0.203 F 
ATOM    130  F   UNL A   1      46.846  24.191  24.327  1.00  0.00    -0.200 F 
ATOM    131  C   UNL A   1      44.606  23.531  24.637  1.00  0.00     0.200 A 
ATOM    132  F   UNL A   1      42.373  22.895  25.045  1.00  0.00    -0.200 F 
ATOM    133  F   UNL A   1      44.867  22.329  24.105  1.00  0.00    -0.200 F 
ENDBRANCH  95 123
BRANCH 110 134
ATOM    134  C   UNL A   1      45.533  31.190  29.174  1.00  0.00     0.064 A 
ATOM    135  C   UNL A   1      46.854  31.608  28.929  1.00  0.00     0.173 A 
ATOM    136  C   UNL A   1      44.522  31.752  28.383  1.00  0.00     0.173 A 
ATOM    137  F   UNL A   1      47.884  31.045  29.569  1.00  0.00    -0.203 F 
ATOM    138  C   UNL A   1      47.141  32.562  27.954  1.00  0.00     0.198 A 
ATOM    139  C   UNL A   1      44.816  32.678  27.386  1.00  0.00     0.198 A 
ATOM    140  F   UNL A   1      43.251  31.348  28.531  1.00  0.00    -0.203 F 
ATOM    141  F   UNL A   1      48.410  32.936  27.733  1.00  0.00    -0.200 F 
ATOM    142  C   UNL A   1      46.124  33.088  27.176  1.00  0.00     0.200 A 
ATOM    143  F   UNL A   1      43.836  33.140  26.598  1.00  0.00    -0.200 F 
ATOM    144  F   UNL A   1      46.405  33.960  26.198  1.00  0.00    -0.200 F 
ENDBRANCH 110 134
ENDBRANCH  75  78
ENDBRANCH  65  68
ENDBRANCH  61  64
ENDBRANCH  58  61
ENDBRANCH  55  58
ENDBRANCH  52  55
ENDBRANCH   1  52
TORSDOF 20
ENDMDL
MODEL 9
REMARK VINA RESULT:     -12.0      2.846      8.292
REMARK SMILES COc1ccc2c(c1)c(CC(=O)NCCCCCCNC(=O)c1ccc(-c3c4nc(c(-c5c(F)c(F)c(F)c(F)c5F)c5ccc([nH]5)c(-c5c(F)c(F)c(F)c(F)c5F)c5nc(c(-c6c(F)c(F)c(F)c(F)c6F)c6ccc3[nH]6)C=C5)C=C4)cc1)c(C)n2Cc1ccn(C(F)F)c(=O)c1
REMARK SMILES IDX 15 1 14 4 13 7 11 8 12 9 10 11 9 14 3 15 4 16 8 17 5 18 7 20
REMARK SMILES IDX 6 22 88 24 86 25 2 26 1 27 89 31 90 34 91 35 99 36 92 37
REMARK SMILES IDX 97 39 93 41 98 43 94 44 95 45 96 46 87 48 16 52 17 55 18 58
REMARK SMILES IDX 19 61 20 64 21 65 22 67 23 68 24 69 85 70 25 71 84 73 26 75
REMARK SMILES IDX 27 78 28 79 78 80 29 81 83 82 77 83 79 84 30 85 82 86 76 88
REMARK SMILES IDX 75 90 31 92 63 95 43 96 62 97 44 98 47 99 61 100 80 101
REMARK SMILES IDX 45 102 46 104 60 106 81 107 48 110 32 112 33 113 41 114
REMARK SMILES IDX 34 115 35 116 39 117 42 118 36 119 37 120 40 121 38 122
REMARK SMILES IDX 64 123 65 124 73 125 66 126 67 127 71 128 74 129 68 130
REMARK SMILES IDX 69 131 72 132 70 133 49 134 50 135 58 136 51 137 52 138
REMARK SMILES IDX 56 139 59 140 53 141 54 142 57 143 55 144
REMARK H PARENT 15 2 15 3 14 5 14 6 13 10 10 12 10 13 4 19 8 21 5 23 1 28 1 29
REMARK H PARENT 1 30 89 32 89 33 91 38 99 40 92 42 94 47 87 49 87 50 87 51
REMARK H PARENT 16 53 16 54 17 56 17 57 18 59 18 60 19 62 19 63 20 66 24 72
REMARK H PARENT 85 74 25 76 84 77 83 87 77 89 79 91 82 93 76 94 44 103 47 105
REMARK H PARENT 80 108 45 109 81 111
REMARK Flexibility Score: inf
ROOT
ATOM      1  C   UNL A   1      31.461  28.339  25.971  1.00  0.00    -0.036 C 
ATOM      2  H   UNL A   1      31.681  28.161  27.003  1.00  0.00     0.028 H 
ATOM      3  H   UNL A   1      30.797  29.166  25.836  1.00  0.00     0.028 H 
ENDROOT
BRANCH   1   4
ATOM      4  C   UNL A   1      30.762  27.102  25.407  1.00  0.00     0.017 C 
ATOM      5  H   UNL A   1      29.757  27.359  25.144  1.00  0.00     0.049 H 
ATOM      6  H   UNL A   1      31.306  26.772  24.546  1.00  0.00     0.049 H 
BRANCH   4   7
ATOM      7  N   UNL A   1      30.735  26.022  26.372  1.00  0.00    -0.356 N 
ATOM      8  C   UNL A   1      31.646  25.028  26.589  1.00  0.00     0.224 C 
ATOM      9  O   UNL A   1      31.375  24.169  27.432  1.00  0.00    -0.275 OA
ATOM     10  H   UNL A   1      29.943  26.001  26.957  1.00  0.00     0.163 HD
BRANCH   8  11
ATOM     11  C   UNL A   1      32.994  25.041  25.883  1.00  0.00     0.054 C 
ATOM     12  H   UNL A   1      32.996  25.843  25.176  1.00  0.00     0.042 H 
ATOM     13  H   UNL A   1      33.741  25.158  26.640  1.00  0.00     0.042 H 
BRANCH  11  14
ATOM     14  C   UNL A   1      33.307  23.768  25.155  1.00  0.00    -0.010 A 
ATOM     15  C   UNL A   1      36.851  22.435  25.605  1.00  0.00     0.119 A 
ATOM     16  C   UNL A   1      36.671  21.271  24.866  1.00  0.00    -0.018 A 
ATOM     17  C   UNL A   1      35.785  23.312  25.798  1.00  0.00    -0.010 A 
ATOM     18  C   UNL A   1      35.426  20.967  24.288  1.00  0.00    -0.034 A 
ATOM     19  H   UNL A   1      37.462  20.621  24.740  1.00  0.00     0.066 H 
ATOM     20  C   UNL A   1      34.538  23.052  25.191  1.00  0.00     0.007 A 
ATOM     21  H   UNL A   1      35.907  24.152  26.386  1.00  0.00     0.067 H 
ATOM     22  C   UNL A   1      34.366  21.879  24.451  1.00  0.00     0.049 A 
ATOM     23  H   UNL A   1      35.292  20.093  23.756  1.00  0.00     0.065 H 
ATOM     24  N   UNL A   1      33.048  21.867  24.009  1.00  0.00    -0.340 N 
ATOM     25  C   UNL A   1      32.475  23.103  24.263  1.00  0.00     0.020 A 
BRANCH  15  26
ATOM     26  O   UNL A   1      38.015  22.769  26.243  1.00  0.00    -0.497 OA
BRANCH  26  27
ATOM     27  C   UNL A   1      38.174  24.163  26.489  1.00  0.00     0.078 C 
ATOM     28  H   UNL A   1      37.241  24.661  26.333  1.00  0.00     0.067 H 
ATOM     29  H   UNL A   1      38.907  24.562  25.820  1.00  0.00     0.067 H 
ATOM     30  H   UNL A   1      38.493  24.312  27.499  1.00  0.00     0.067 H 
ENDBRANCH  26  27
ENDBRANCH  15  26
BRANCH  24  31
ATOM     31  C   UNL A   1      32.409  20.746  23.304  1.00  0.00     0.048 C 
ATOM     32  H   UNL A   1      32.715  20.777  22.279  1.00  0.00     0.055 H 
ATOM     33  H   UNL A   1      31.354  20.868  23.430  1.00  0.00     0.055 H 
BRANCH  31  34
ATOM     34  C   UNL A   1      32.754  19.373  23.861  1.00  0.00    -0.021 A 
ATOM     35  C   UNL A   1      32.438  19.066  25.243  1.00  0.00    -0.040 A 
ATOM     36  C   UNL A   1      33.253  18.383  23.097  1.00  0.00     0.009 A 
ATOM     37  C   UNL A   1      32.737  17.876  25.777  1.00  0.00     0.013 A 
ATOM     38  H   UNL A   1      31.973  19.779  25.825  1.00  0.00     0.064 H 
ATOM     39  C   UNL A   1      33.523  17.020  23.654  1.00  0.00     0.255 A 
ATOM     40  H   UNL A   1      33.455  18.570  22.101  1.00  0.00     0.068 H 
ATOM     41  N   UNL A   1      33.305  16.874  25.018  1.00  0.00    -0.258 N 
ATOM     42  H   UNL A   1      32.540  17.706  26.775  1.00  0.00     0.082 H 
ATOM     43  O   UNL A   1      33.910  16.145  22.896  1.00  0.00    -0.269 OA
BRANCH  41  44
ATOM     44  C   UNL A   1      33.493  15.568  25.603  1.00  0.00     0.321 C 
ATOM     45  F   UNL A   1      32.650  14.667  25.043  1.00  0.00    -0.185 F 
ATOM     46  F   UNL A   1      34.754  15.103  25.453  1.00  0.00    -0.185 F 
ATOM     47  H   UNL A   1      33.290  15.683  26.647  1.00  0.00     0.131 H 
ENDBRANCH  41  44
ENDBRANCH  31  34
ENDBRANCH  24  31
BRANCH  25  48
ATOM     48  C   UNL A   1      31.175  23.582  23.713  1.00  0.00    -0.024 C 
ATOM     49  H   UNL A   1      30.514  23.823  24.520  1.00  0.00     0.030 H 
ATOM     50  H   UNL A   1      30.738  22.813  23.111  1.00  0.00     0.030 H 
ATOM     51  H   UNL A   1      31.340  24.454  23.115  1.00  0.00     0.030 H 
ENDBRANCH  25  48
ENDBRANCH  11  14
ENDBRANCH   8  11
ENDBRANCH   4   7
ENDBRANCH   1   4
BRANCH   1  52
ATOM     52  C   UNL A   1      32.769  28.687  25.248  1.00  0.00    -0.052 C 
ATOM     53  H   UNL A   1      32.562  29.462  24.540  1.00  0.00     0.027 H 
ATOM     54  H   UNL A   1      33.112  27.780  24.795  1.00  0.00     0.027 H 
BRANCH  52  55
ATOM     55  C   UNL A   1      33.903  29.167  26.163  1.00  0.00    -0.052 C 
ATOM     56  H   UNL A   1      34.746  29.409  25.550  1.00  0.00     0.027 H 
ATOM     57  H   UNL A   1      34.097  28.367  26.848  1.00  0.00     0.027 H 
BRANCH  55  58
ATOM     58  C   UNL A   1      33.565  30.394  27.017  1.00  0.00    -0.036 C 
ATOM     59  H   UNL A   1      32.864  30.100  27.770  1.00  0.00     0.028 H 
ATOM     60  H   UNL A   1      33.164  31.136  26.358  1.00  0.00     0.028 H 
BRANCH  58  61
ATOM     61  C   UNL A   1      34.782  31.010  27.701  1.00  0.00     0.018 C 
ATOM     62  H   UNL A   1      35.153  31.800  27.081  1.00  0.00     0.049 H 
ATOM     63  H   UNL A   1      35.496  30.224  27.833  1.00  0.00     0.049 H 
BRANCH  61  64
ATOM     64  N   UNL A   1      34.504  31.552  29.011  1.00  0.00    -0.352 N 
ATOM     65  C   UNL A   1      35.244  31.751  30.142  1.00  0.00     0.251 C 
ATOM     66  H   UNL A   1      33.569  31.843  29.112  1.00  0.00     0.163 HD
ATOM     67  O   UNL A   1      34.712  32.420  31.032  1.00  0.00    -0.269 OA
BRANCH  65  68
ATOM     68  C   UNL A   1      36.571  31.137  30.412  1.00  0.00     0.039 A 
ATOM     69  C   UNL A   1      37.795  31.806  30.453  1.00  0.00    -0.049 A 
ATOM     70  C   UNL A   1      36.567  29.736  30.544  1.00  0.00    -0.049 A 
ATOM     71  C   UNL A   1      38.985  31.090  30.450  1.00  0.00    -0.053 A 
ATOM     72  H   UNL A   1      37.816  32.837  30.487  1.00  0.00     0.063 H 
ATOM     73  C   UNL A   1      37.751  29.017  30.575  1.00  0.00    -0.053 A 
ATOM     74  H   UNL A   1      35.667  29.236  30.618  1.00  0.00     0.063 H 
ATOM     75  C   UNL A   1      38.956  29.696  30.443  1.00  0.00    -0.014 A 
ATOM     76  H   UNL A   1      39.889  31.589  30.452  1.00  0.00     0.063 H 
ATOM     77  H   UNL A   1      37.738  27.992  30.694  1.00  0.00     0.063 H 
BRANCH  75  78
ATOM     78  C   UNL A   1      40.223  28.979  30.370  1.00  0.00     0.031 A 
ATOM     79  C   UNL A   1      40.931  28.831  31.674  1.00  0.00     0.074 A 
ATOM     80  C   UNL A   1      40.653  28.411  29.224  1.00  0.00     0.049 A 
ATOM     81  N   UNL A   1      42.127  29.215  31.984  1.00  0.00    -0.248 NA
ATOM     82  C   UNL A   1      40.163  28.298  32.814  1.00  0.00    -0.034 C 
ATOM     83  C   UNL A   1      39.945  28.291  27.946  1.00  0.00    -0.036 A 
ATOM     84  N   UNL A   1      41.805  27.725  28.987  1.00  0.00    -0.354 N 
ATOM     85  C   UNL A   1      42.328  28.829  33.309  1.00  0.00     0.074 A 
ATOM     86  C   UNL A   1      41.052  28.385  33.805  1.00  0.00    -0.034 C 
ATOM     87  H   UNL A   1      39.194  27.948  32.838  1.00  0.00     0.065 H 
ATOM     88  C   UNL A   1      40.566  27.373  27.171  1.00  0.00    -0.036 A 
ATOM     89  H   UNL A   1      39.103  28.823  27.679  1.00  0.00     0.065 H 
ATOM     90  C   UNL A   1      41.784  26.946  27.836  1.00  0.00     0.049 A 
ATOM     91  H   UNL A   1      42.587  27.774  29.583  1.00  0.00     0.167 HD
ATOM     92  C   UNL A   1      43.574  28.723  33.845  1.00  0.00     0.037 A 
ATOM     93  H   UNL A   1      40.850  28.165  34.793  1.00  0.00     0.065 H 
ATOM     94  H   UNL A   1      40.229  27.031  26.257  1.00  0.00     0.065 H 
ATOM     95  C   UNL A   1      42.672  25.974  27.504  1.00  0.00     0.037 A 
ATOM     96  C   UNL A   1      44.543  29.457  33.081  1.00  0.00     0.049 A 
ATOM     97  C   UNL A   1      43.896  26.198  28.315  1.00  0.00     0.074 A 
ATOM     98  C   UNL A   1      44.729  30.795  32.796  1.00  0.00    -0.036 A 
ATOM     99  N   UNL A   1      45.314  28.771  32.179  1.00  0.00    -0.354 N 
ATOM    100  N   UNL A   1      44.694  27.217  28.145  1.00  0.00    -0.248 NA
ATOM    101  C   UNL A   1      43.957  25.562  29.624  1.00  0.00    -0.034 C 
ATOM    102  C   UNL A   1      45.187  30.821  31.448  1.00  0.00    -0.036 A 
ATOM    103  H   UNL A   1      44.572  31.600  33.422  1.00  0.00     0.065 H 
ATOM    104  C   UNL A   1      45.317  29.500  31.018  1.00  0.00     0.049 A 
ATOM    105  H   UNL A   1      45.778  27.916  32.335  1.00  0.00     0.167 HD
ATOM    106  C   UNL A   1      45.034  27.612  29.430  1.00  0.00     0.074 A 
ATOM    107  C   UNL A   1      44.600  26.519  30.298  1.00  0.00    -0.034 C 
ATOM    108  H   UNL A   1      43.607  24.643  29.937  1.00  0.00     0.065 H 
ATOM    109  H   UNL A   1      45.386  31.665  30.889  1.00  0.00     0.065 H 
ATOM    110  C   UNL A   1      45.366  28.906  29.705  1.00  0.00     0.037 A 
ATOM    111  H   UNL A   1      44.771  26.490  31.316  1.00  0.00     0.065 H 
BRANCH  92 112
ATOM    112  C   UNL A   1      43.974  27.691  34.866  1.00  0.00     0.064 A 
ATOM    113  C   UNL A   1      43.799  26.321  34.578  1.00  0.00     0.173 A 
ATOM    114  C   UNL A   1      44.228  28.003  36.218  1.00  0.00     0.173 A 
ATOM    115  F   UNL A   1      43.527  25.916  33.329  1.00  0.00    -0.203 F 
ATOM    116  C   UNL A   1      43.808  25.351  35.584  1.00  0.00     0.198 A 
ATOM    117  C   UNL A   1      44.289  27.027  37.210  1.00  0.00     0.198 A 
ATOM    118  F   UNL A   1      44.314  29.269  36.647  1.00  0.00    -0.203 F 
ATOM    119  F   UNL A   1      43.518  24.078  35.283  1.00  0.00    -0.200 F 
ATOM    120  C   UNL A   1      44.048  25.706  36.899  1.00  0.00     0.200 A 
ATOM    121  F   UNL A   1      44.498  27.393  38.482  1.00  0.00    -0.200 F 
ATOM    122  F   UNL A   1      43.996  24.786  37.872  1.00  0.00    -0.200 F 
ENDBRANCH  92 112
BRANCH  95 123
ATOM    123  C   UNL A   1      42.405  24.692  26.806  1.00  0.00     0.064 A 
ATOM    124  C   UNL A   1      43.118  24.324  25.654  1.00  0.00     0.173 A 
ATOM    125  C   UNL A   1      41.635  23.678  27.412  1.00  0.00     0.173 A 
ATOM    126  F   UNL A   1      43.918  25.211  25.044  1.00  0.00    -0.203 F 
ATOM    127  C   UNL A   1      43.076  23.018  25.147  1.00  0.00     0.198 A 
ATOM    128  C   UNL A   1      41.590  22.379  26.904  1.00  0.00     0.198 A 
ATOM    129  F   UNL A   1      40.988  23.903  28.565  1.00  0.00    -0.203 F 
ATOM    130  F   UNL A   1      43.815  22.690  24.078  1.00  0.00    -0.200 F 
ATOM    131  C   UNL A   1      42.318  22.045  25.778  1.00  0.00     0.200 A 
ATOM    132  F   UNL A   1      40.884  21.438  27.548  1.00  0.00    -0.200 F 
ATOM    133  F   UNL A   1      42.323  20.782  25.329  1.00  0.00    -0.200 F 
ENDBRANCH  95 123
BRANCH 110 134
ATOM    134  C   UNL A   1      45.555  29.850  28.552  1.00  0.00     0.064 A 
ATOM    135  C   UNL A   1      44.510  30.592  27.972  1.00  0.00     0.173 A 
ATOM    136  C   UNL A   1      46.862  30.160  28.155  1.00  0.00     0.173 A 
ATOM    137  F   UNL A   1      43.244  30.430  28.372  1.00  0.00    -0.203 F 
ATOM    138  C   UNL A   1      44.765  31.578  27.020  1.00  0.00     0.198 A 
ATOM    139  C   UNL A   1      47.117  31.169  27.231  1.00  0.00     0.198 A 
ATOM    140  F   UNL A   1      47.903  29.526  28.719  1.00  0.00    -0.203 F 
ATOM    141  F   UNL A   1      43.752  32.279  26.488  1.00  0.00    -0.200 F 
ATOM    142  C   UNL A   1      46.069  31.873  26.659  1.00  0.00     0.200 A 
ATOM    143  F   UNL A   1      48.382  31.489  26.928  1.00  0.00    -0.200 F 
ATOM    144  F   UNL A   1      46.320  32.862  25.789  1.00  0.00    -0.200 F 
ENDBRANCH 110 134
ENDBRANCH  75  78
ENDBRANCH  65  68
ENDBRANCH  61  64
ENDBRANCH  58  61
ENDBRANCH  55  58
ENDBRANCH  52  55
ENDBRANCH   1  52
TORSDOF 20
ENDMDL
MODEL 10
REMARK VINA RESULT:     -11.9      4.866     10.112
REMARK SMILES COc1ccc2c(c1)c(CC(=O)NCCCCCCNC(=O)c1ccc(-c3c4nc(c(-c5c(F)c(F)c(F)c(F)c5F)c5ccc([nH]5)c(-c5c(F)c(F)c(F)c(F)c5F)c5nc(c(-c6c(F)c(F)c(F)c(F)c6F)c6ccc3[nH]6)C=C5)C=C4)cc1)c(C)n2Cc1ccn(C(F)F)c(=O)c1
REMARK SMILES IDX 15 1 14 4 13 7 11 8 12 9 10 11 9 14 3 15 4 16 8 17 5 18 7 20
REMARK SMILES IDX 6 22 88 24 86 25 2 26 1 27 89 31 90 34 91 35 99 36 92 37
REMARK SMILES IDX 97 39 93 41 98 43 94 44 95 45 96 46 87 48 16 52 17 55 18 58
REMARK SMILES IDX 19 61 20 64 21 65 22 67 23 68 24 69 85 70 25 71 84 73 26 75
REMARK SMILES IDX 27 78 28 79 78 80 29 81 83 82 77 83 79 84 30 85 82 86 76 88
REMARK SMILES IDX 75 90 31 92 63 95 43 96 62 97 44 98 47 99 61 100 80 101
REMARK SMILES IDX 45 102 46 104 60 106 81 107 48 110 32 112 33 113 41 114
REMARK SMILES IDX 34 115 35 116 39 117 42 118 36 119 37 120 40 121 38 122
REMARK SMILES IDX 64 123 65 124 73 125 66 126 67 127 71 128 74 129 68 130
REMARK SMILES IDX 69 131 72 132 70 133 49 134 50 135 58 136 51 137 52 138
REMARK SMILES IDX 56 139 59 140 53 141 54 142 57 143 55 144
REMARK H PARENT 15 2 15 3 14 5 14 6 13 10 10 12 10 13 4 19 8 21 5 23 1 28 1 29
REMARK H PARENT 1 30 89 32 89 33 91 38 99 40 92 42 94 47 87 49 87 50 87 51
REMARK H PARENT 16 53 16 54 17 56 17 57 18 59 18 60 19 62 19 63 20 66 24 72
REMARK H PARENT 85 74 25 76 84 77 83 87 77 89 79 91 82 93 76 94 44 103 47 105
REMARK H PARENT 80 108 45 109 81 111
REMARK Flexibility Score: inf
ROOT
ATOM      1  C   UNL A   1      35.121  33.398  28.020  1.00  0.00    -0.036 C 
ATOM      2  H   UNL A   1      35.821  33.210  27.232  1.00  0.00     0.028 H 
ATOM      3  H   UNL A   1      35.588  33.410  28.982  1.00  0.00     0.028 H 
ENDROOT
BRANCH   1   4
ATOM      4  C   UNL A   1      34.093  32.266  28.031  1.00  0.00     0.017 C 
ATOM      5  H   UNL A   1      33.868  32.010  29.045  1.00  0.00     0.049 H 
ATOM      6  H   UNL A   1      33.215  32.605  27.522  1.00  0.00     0.049 H 
BRANCH   4   7
ATOM      7  N   UNL A   1      34.592  31.090  27.348  1.00  0.00    -0.356 N 
ATOM      8  C   UNL A   1      33.907  30.126  26.665  1.00  0.00     0.224 C 
ATOM      9  O   UNL A   1      34.546  29.170  26.217  1.00  0.00    -0.275 OA
ATOM     10  H   UNL A   1      35.569  30.968  27.380  1.00  0.00     0.163 HD
BRANCH   8  11
ATOM     11  C   UNL A   1      32.420  30.280  26.383  1.00  0.00     0.054 C 
ATOM     12  H   UNL A   1      31.942  30.625  27.276  1.00  0.00     0.042 H 
ATOM     13  H   UNL A   1      32.327  30.973  25.574  1.00  0.00     0.042 H 
BRANCH  11  14
ATOM     14  C   UNL A   1      31.752  29.010  25.950  1.00  0.00    -0.010 A 
ATOM     15  C   UNL A   1      30.117  29.096  22.505  1.00  0.00     0.119 A 
ATOM     16  C   UNL A   1      29.724  27.762  22.491  1.00  0.00    -0.018 A 
ATOM     17  C   UNL A   1      30.835  29.600  23.588  1.00  0.00    -0.010 A 
ATOM     18  C   UNL A   1      30.023  26.908  23.567  1.00  0.00    -0.034 A 
ATOM     19  H   UNL A   1      29.206  27.393  21.678  1.00  0.00     0.066 H 
ATOM     20  C   UNL A   1      31.108  28.776  24.701  1.00  0.00     0.007 A 
ATOM     21  H   UNL A   1      31.167  30.578  23.577  1.00  0.00     0.067 H 
ATOM     22  C   UNL A   1      30.709  27.436  24.676  1.00  0.00     0.049 A 
ATOM     23  H   UNL A   1      29.745  25.915  23.543  1.00  0.00     0.065 H 
ATOM     24  N   UNL A   1      31.137  26.863  25.868  1.00  0.00    -0.340 N 
ATOM     25  C   UNL A   1      31.583  27.865  26.716  1.00  0.00     0.020 A 
BRANCH  15  26
ATOM     26  O   UNL A   1      29.912  29.970  21.472  1.00  0.00    -0.497 OA
BRANCH  26  27
ATOM     27  C   UNL A   1      28.600  30.522  21.417  1.00  0.00     0.078 C 
ATOM     28  H   UNL A   1      28.625  31.445  20.878  1.00  0.00     0.067 H 
ATOM     29  H   UNL A   1      28.247  30.699  22.411  1.00  0.00     0.067 H 
ATOM     30  H   UNL A   1      27.946  29.837  20.922  1.00  0.00     0.067 H 
ENDBRANCH  26  27
ENDBRANCH  15  26
BRANCH  24  31
ATOM     31  C   UNL A   1      31.040  25.433  26.195  1.00  0.00     0.048 C 
ATOM     32  H   UNL A   1      30.371  24.975  25.496  1.00  0.00     0.055 H 
ATOM     33  H   UNL A   1      30.694  25.374  27.205  1.00  0.00     0.055 H 
BRANCH  31  34
ATOM     34  C   UNL A   1      32.363  24.685  26.147  1.00  0.00    -0.021 A 
ATOM     35  C   UNL A   1      33.481  25.263  25.427  1.00  0.00    -0.040 A 
ATOM     36  C   UNL A   1      32.580  23.547  26.834  1.00  0.00     0.009 A 
ATOM     37  C   UNL A   1      34.659  24.632  25.348  1.00  0.00     0.013 A 
ATOM     38  H   UNL A   1      33.367  26.178  24.967  1.00  0.00     0.064 H 
ATOM     39  C   UNL A   1      33.913  22.864  26.823  1.00  0.00     0.255 A 
ATOM     40  H   UNL A   1      31.807  23.135  27.380  1.00  0.00     0.068 H 
ATOM     41  N   UNL A   1      34.873  23.433  25.998  1.00  0.00    -0.258 N 
ATOM     42  H   UNL A   1      35.420  25.048  24.789  1.00  0.00     0.082 H 
ATOM     43  O   UNL A   1      34.067  21.874  27.519  1.00  0.00    -0.269 OA
BRANCH  41  44
ATOM     44  C   UNL A   1      36.196  22.854  25.988  1.00  0.00     0.321 C 
ATOM     45  F   UNL A   1      36.377  22.098  24.878  1.00  0.00    -0.185 F 
ATOM     46  F   UNL A   1      37.176  23.785  26.019  1.00  0.00    -0.185 F 
ATOM     47  H   UNL A   1      36.259  22.256  26.872  1.00  0.00     0.131 H 
ENDBRANCH  41  44
ENDBRANCH  31  34
ENDBRANCH  24  31
BRANCH  25  48
ATOM     48  C   UNL A   1      31.874  27.700  28.169  1.00  0.00    -0.024 C 
ATOM     49  H   UNL A   1      31.361  28.459  28.723  1.00  0.00     0.030 H 
ATOM     50  H   UNL A   1      32.928  27.789  28.333  1.00  0.00     0.030 H 
ATOM     51  H   UNL A   1      31.542  26.736  28.493  1.00  0.00     0.030 H 
ENDBRANCH  25  48
ENDBRANCH  11  14
ENDBRANCH   8  11
ENDBRANCH   4   7
ENDBRANCH   1   4
BRANCH   1  52
ATOM     52  C   UNL A   1      34.502  34.785  27.800  1.00  0.00    -0.052 C 
ATOM     53  H   UNL A   1      34.095  34.814  26.811  1.00  0.00     0.027 H 
ATOM     54  H   UNL A   1      35.289  35.493  27.955  1.00  0.00     0.027 H 
BRANCH  52  55
ATOM     55  C   UNL A   1      33.388  35.157  28.787  1.00  0.00    -0.052 C 
ATOM     56  H   UNL A   1      33.595  34.675  29.720  1.00  0.00     0.027 H 
ATOM     57  H   UNL A   1      32.470  34.834  28.341  1.00  0.00     0.027 H 
BRANCH  55  58
ATOM     58  C   UNL A   1      33.236  36.660  29.050  1.00  0.00    -0.036 C 
ATOM     59  H   UNL A   1      32.297  36.980  28.652  1.00  0.00     0.028 H 
ATOM     60  H   UNL A   1      34.064  37.148  28.577  1.00  0.00     0.028 H 
BRANCH  58  61
ATOM     61  C   UNL A   1      33.286  37.024  30.530  1.00  0.00     0.018 C 
ATOM     62  H   UNL A   1      32.887  38.010  30.649  1.00  0.00     0.049 H 
ATOM     63  H   UNL A   1      34.311  36.959  30.832  1.00  0.00     0.049 H 
BRANCH  61  64
ATOM     64  N   UNL A   1      32.539  36.125  31.379  1.00  0.00    -0.352 N 
ATOM     65  C   UNL A   1      32.877  35.173  32.298  1.00  0.00     0.251 C 
ATOM     66  H   UNL A   1      31.565  36.220  31.269  1.00  0.00     0.163 HD
ATOM     67  O   UNL A   1      31.953  34.718  32.978  1.00  0.00    -0.269 OA
BRANCH  65  68
ATOM     68  C   UNL A   1      34.232  34.579  32.453  1.00  0.00     0.039 A 
ATOM     69  C   UNL A   1      35.418  35.281  32.670  1.00  0.00    -0.049 A 
ATOM     70  C   UNL A   1      34.300  33.186  32.268  1.00  0.00    -0.049 A 
ATOM     71  C   UNL A   1      36.645  34.643  32.532  1.00  0.00    -0.053 A 
ATOM     72  H   UNL A   1      35.385  36.278  32.933  1.00  0.00     0.063 H 
ATOM     73  C   UNL A   1      35.519  32.537  32.163  1.00  0.00    -0.053 A 
ATOM     74  H   UNL A   1      33.427  32.639  32.209  1.00  0.00     0.063 H 
ATOM     75  C   UNL A   1      36.688  33.286  32.213  1.00  0.00    -0.014 A 
ATOM     76  H   UNL A   1      37.521  35.172  32.666  1.00  0.00     0.063 H 
ATOM     77  H   UNL A   1      35.559  31.512  32.050  1.00  0.00     0.063 H 
BRANCH  75  78
ATOM     78  C   UNL A   1      37.992  32.667  32.009  1.00  0.00     0.031 A 
ATOM     79  C   UNL A   1      38.839  32.583  33.234  1.00  0.00     0.074 A 
ATOM     80  C   UNL A   1      38.344  32.124  30.825  1.00  0.00     0.049 A 
ATOM     81  N   UNL A   1      40.029  33.059  33.419  1.00  0.00    -0.248 NA
ATOM     82  C   UNL A   1      38.237  32.002  34.447  1.00  0.00    -0.034 C 
ATOM     83  C   UNL A   1      37.519  31.941  29.627  1.00  0.00    -0.036 A 
ATOM     84  N   UNL A   1      39.514  31.525  30.471  1.00  0.00    -0.354 N 
ATOM     85  C   UNL A   1      40.394  32.698  34.716  1.00  0.00     0.074 A 
ATOM     86  C   UNL A   1      39.213  32.164  35.341  1.00  0.00    -0.034 C 
ATOM     87  H   UNL A   1      37.304  31.580  34.571  1.00  0.00     0.065 H 
ATOM     88  C   UNL A   1      38.125  31.066  28.792  1.00  0.00    -0.036 A 
ATOM     89  H   UNL A   1      36.615  32.405  29.449  1.00  0.00     0.065 H 
ATOM     90  C   UNL A   1      39.433  30.738  29.328  1.00  0.00     0.049 A 
ATOM     91  H   UNL A   1      40.347  31.638  30.982  1.00  0.00     0.167 HD
ATOM     92  C   UNL A   1      41.693  32.692  35.120  1.00  0.00     0.037 A 
ATOM     93  H   UNL A   1      39.132  31.936  36.344  1.00  0.00     0.065 H 
ATOM     94  H   UNL A   1      37.723  30.693  27.918  1.00  0.00     0.065 H 
ATOM     95  C   UNL A   1      40.354  29.834  28.906  1.00  0.00     0.037 A 
ATOM     96  C   UNL A   1      42.519  33.491  34.260  1.00  0.00     0.049 A 
ATOM     97  C   UNL A   1      41.634  30.156  29.585  1.00  0.00     0.074 A 
ATOM     98  C   UNL A   1      42.572  34.837  33.957  1.00  0.00    -0.036 A 
ATOM     99  N   UNL A   1      43.243  32.858  33.282  1.00  0.00    -0.354 N 
ATOM    100  N   UNL A   1      42.331  31.231  29.334  1.00  0.00    -0.248 NA
ATOM    101  C   UNL A   1      41.878  29.537  30.881  1.00  0.00    -0.034 C 
ATOM    102  C   UNL A   1      42.886  34.887  32.569  1.00  0.00    -0.036 A 
ATOM    103  H   UNL A   1      42.420  35.633  34.596  1.00  0.00     0.065 H 
ATOM    104  C   UNL A   1      43.071  33.577  32.128  1.00  0.00     0.049 A 
ATOM    105  H   UNL A   1      43.785  32.042  33.390  1.00  0.00     0.167 HD
ATOM    106  C   UNL A   1      42.770  31.661  30.577  1.00  0.00     0.074 A 
ATOM    107  C   UNL A   1      42.513  30.544  31.485  1.00  0.00    -0.034 C 
ATOM    108  H   UNL A   1      41.633  28.596  31.228  1.00  0.00     0.065 H 
ATOM    109  H   UNL A   1      42.961  35.739  31.993  1.00  0.00     0.065 H 
ATOM    110  C   UNL A   1      43.030  32.978  30.816  1.00  0.00     0.037 A 
ATOM    111  H   UNL A   1      42.790  30.536  32.480  1.00  0.00     0.065 H 
BRANCH  92 112
ATOM    112  C   UNL A   1      42.273  31.700  36.093  1.00  0.00     0.064 A 
ATOM    113  C   UNL A   1      42.972  32.164  37.228  1.00  0.00     0.173 A 
ATOM    114  C   UNL A   1      42.435  30.331  35.793  1.00  0.00     0.173 A 
ATOM    115  F   UNL A   1      42.909  33.453  37.589  1.00  0.00    -0.203 F 
ATOM    116  C   UNL A   1      43.823  31.330  37.959  1.00  0.00     0.198 A 
ATOM    117  C   UNL A   1      43.244  29.492  36.556  1.00  0.00     0.198 A 
ATOM    118  F   UNL A   1      41.912  29.783  34.689  1.00  0.00    -0.203 F 
ATOM    119  F   UNL A   1      44.559  31.840  38.955  1.00  0.00    -0.200 F 
ATOM    120  C   UNL A   1      43.962  29.997  37.618  1.00  0.00     0.200 A 
ATOM    121  F   UNL A   1      43.385  28.208  36.196  1.00  0.00    -0.200 F 
ATOM    122  F   UNL A   1      44.823  29.212  38.280  1.00  0.00    -0.200 F 
ENDBRANCH  92 112
BRANCH  95 123
ATOM    123  C   UNL A   1      40.115  28.530  28.239  1.00  0.00     0.064 A 
ATOM    124  C   UNL A   1      40.704  28.222  27.002  1.00  0.00     0.173 A 
ATOM    125  C   UNL A   1      39.523  27.454  28.931  1.00  0.00     0.173 A 
ATOM    126  F   UNL A   1      41.336  29.173  26.300  1.00  0.00    -0.203 F 
ATOM    127  C   UNL A   1      40.713  26.915  26.496  1.00  0.00     0.198 A 
ATOM    128  C   UNL A   1      39.528  26.153  28.424  1.00  0.00     0.198 A 
ATOM    129  F   UNL A   1      39.012  27.625  30.159  1.00  0.00    -0.203 F 
ATOM    130  F   UNL A   1      41.335  26.649  25.338  1.00  0.00    -0.200 F 
ATOM    131  C   UNL A   1      40.133  25.881  27.212  1.00  0.00     0.200 A 
ATOM    132  F   UNL A   1      38.998  25.156  29.147  1.00  0.00    -0.200 F 
ATOM    133  F   UNL A   1      40.192  24.622  26.757  1.00  0.00    -0.200 F 
ENDBRANCH  95 123
BRANCH 110 134
ATOM    134  C   UNL A   1      43.026  33.925  29.651  1.00  0.00     0.064 A 
ATOM    135  C   UNL A   1      44.112  34.085  28.771  1.00  0.00     0.173 A 
ATOM    136  C   UNL A   1      41.817  34.540  29.300  1.00  0.00     0.173 A 
ATOM    137  F   UNL A   1      45.268  33.446  28.981  1.00  0.00    -0.203 F 
ATOM    138  C   UNL A   1      43.996  34.848  27.610  1.00  0.00     0.198 A 
ATOM    139  C   UNL A   1      41.694  35.271  28.121  1.00  0.00     0.198 A 
ATOM    140  F   UNL A   1      40.730  34.373  30.070  1.00  0.00    -0.203 F 
ATOM    141  F   UNL A   1      45.044  34.977  26.783  1.00  0.00    -0.200 F 
ATOM    142  C   UNL A   1      42.784  35.430  27.281  1.00  0.00     0.200 A 
ATOM    143  F   UNL A   1      40.505  35.784  27.779  1.00  0.00    -0.200 F 
ATOM    144  F   UNL A   1      42.654  36.113  26.134  1.00  0.00    -0.200 F 
ENDBRANCH 110 134
ENDBRANCH  75  78
ENDBRANCH  65  68
ENDBRANCH  61  64
ENDBRANCH  58  61
ENDBRANCH  55  58
ENDBRANCH  52  55
ENDBRANCH   1  52
TORSDOF 20
ENDMDL
