MODEL 1
REMARK VINA RESULT:     -10.3      0.000      0.000
REMARK SMILES CC(=O)Oc1ccccc1SCCCCCC(=O)NCCCCCCNC(=O)c1ccc(-c2c3nc(c(-c4c(F)c(F)c(F)c(F)c4F)c4ccc([nH]4)c(-c4c(F)c(F)c(F)c(F)c4F)c4nc(c(-c5c(F)c(F)c(F)c(F)c5F)c5ccc2[nH]5)C=C4)C=C3)cc1
REMARK SMILES IDX 17 1 18 2 19 3 16 5 15 8 14 11 13 14 12 17 11 20 10 21 5 22
REMARK SMILES IDX 6 23 7 24 9 26 8 27 4 31 2 32 3 33 1 34 20 38 21 41 22 44
REMARK SMILES IDX 23 47 24 50 25 53 26 56 27 57 28 59 29 60 30 61 91 62 31 63
REMARK SMILES IDX 90 65 32 67 33 70 34 71 84 72 35 73 89 74 83 75 85 76 36 77
REMARK SMILES IDX 88 78 82 80 81 82 37 84 69 87 49 88 68 89 50 90 53 91 67 92
REMARK SMILES IDX 86 93 51 94 52 96 66 98 87 99 54 102 38 104 39 105 47 106
REMARK SMILES IDX 40 107 41 108 45 109 48 110 42 111 43 112 46 113 44 114
REMARK SMILES IDX 70 115 71 116 79 117 72 118 73 119 77 120 80 121 74 122
REMARK SMILES IDX 75 123 78 124 76 125 55 126 56 127 64 128 57 129 58 130
REMARK SMILES IDX 62 131 65 132 59 133 60 134 63 135 61 136
REMARK H PARENT 19 4 16 6 16 7 15 9 15 10 14 12 14 13 13 15 13 16 12 18 12 19
REMARK H PARENT 6 25 7 28 9 29 8 30 1 35 1 36 1 37 20 39 20 40 21 42 21 43
REMARK H PARENT 22 45 22 46 23 48 23 49 24 51 24 52 25 54 25 55 26 58 30 64
REMARK H PARENT 91 66 31 68 90 69 89 79 83 81 85 83 88 85 82 86 50 95 53 97
REMARK H PARENT 86 100 51 101 87 103
REMARK Flexibility Score: inf
ROOT
ATOM      1  C   UNL A   1      30.655  26.337  25.747  1.00  0.00     0.219 C 
ATOM      2  O   UNL A   1      29.912  25.445  26.159  1.00  0.00    -0.275 OA
ATOM      3  N   UNL A   1      31.839  26.550  26.380  1.00  0.00    -0.356 N 
ATOM      4  H   UNL A   1      32.075  25.899  27.079  1.00  0.00     0.163 HD
ENDROOT
BRANCH   1   5
ATOM      5  C   UNL A   1      30.286  27.173  24.540  1.00  0.00     0.026 C 
ATOM      6  H   UNL A   1      29.221  27.261  24.506  1.00  0.00     0.037 H 
ATOM      7  H   UNL A   1      30.776  28.117  24.659  1.00  0.00     0.037 H 
BRANCH   5   8
ATOM      8  C   UNL A   1      30.764  26.597  23.206  1.00  0.00    -0.044 C 
ATOM      9  H   UNL A   1      31.012  25.572  23.382  1.00  0.00     0.027 H 
ATOM     10  H   UNL A   1      29.947  26.797  22.544  1.00  0.00     0.027 H 
BRANCH   8  11
ATOM     11  C   UNL A   1      31.972  27.232  22.484  1.00  0.00    -0.052 C 
ATOM     12  H   UNL A   1      31.620  27.578  21.535  1.00  0.00     0.027 H 
ATOM     13  H   UNL A   1      32.316  27.972  23.175  1.00  0.00     0.027 H 
BRANCH  11  14
ATOM     14  C   UNL A   1      33.222  26.387  22.213  1.00  0.00    -0.044 C 
ATOM     15  H   UNL A   1      33.067  25.946  21.250  1.00  0.00     0.028 H 
ATOM     16  H   UNL A   1      33.989  27.114  22.378  1.00  0.00     0.028 H 
BRANCH  14  17
ATOM     17  C   UNL A   1      33.718  25.243  23.114  1.00  0.00    -0.002 C 
ATOM     18  H   UNL A   1      34.758  25.147  22.882  1.00  0.00     0.038 H 
ATOM     19  H   UNL A   1      33.333  25.597  24.049  1.00  0.00     0.038 H 
BRANCH  17  20
ATOM     20  S   UNL A   1      33.106  23.532  23.199  1.00  0.00    -0.122 SA
BRANCH  20  21
ATOM     21  C   UNL A   1      34.349  22.549  23.997  1.00  0.00     0.050 A 
ATOM     22  C   UNL A   1      34.222  21.379  24.752  1.00  0.00     0.144 A 
ATOM     23  C   UNL A   1      35.350  20.589  25.039  1.00  0.00    -0.018 A 
ATOM     24  C   UNL A   1      36.621  20.987  24.628  1.00  0.00    -0.058 A 
ATOM     25  H   UNL A   1      35.235  19.705  25.559  1.00  0.00     0.066 H 
ATOM     26  C   UNL A   1      35.656  22.977  23.681  1.00  0.00    -0.045 A 
ATOM     27  C   UNL A   1      36.779  22.200  23.975  1.00  0.00    -0.061 A 
ATOM     28  H   UNL A   1      37.438  20.383  24.809  1.00  0.00     0.062 H 
ATOM     29  H   UNL A   1      35.786  23.891  23.219  1.00  0.00     0.064 H 
ATOM     30  H   UNL A   1      37.720  22.527  23.707  1.00  0.00     0.062 H 
BRANCH  22  31
ATOM     31  O   UNL A   1      33.002  20.711  25.048  1.00  0.00    -0.426 OA
BRANCH  31  32
ATOM     32  C   UNL A   1      32.531  19.458  24.663  1.00  0.00     0.308 C 
ATOM     33  O   UNL A   1      32.354  18.491  25.378  1.00  0.00    -0.252 OA
BRANCH  32  34
ATOM     34  C   UNL A   1      32.259  19.516  23.180  1.00  0.00     0.034 C 
ATOM     35  H   UNL A   1      31.391  18.933  22.954  1.00  0.00     0.035 H 
ATOM     36  H   UNL A   1      33.101  19.125  22.647  1.00  0.00     0.035 H 
ATOM     37  H   UNL A   1      32.093  20.533  22.888  1.00  0.00     0.035 H 
ENDBRANCH  32  34
ENDBRANCH  31  32
ENDBRANCH  22  31
ENDBRANCH  20  21
ENDBRANCH  17  20
ENDBRANCH  14  17
ENDBRANCH  11  14
ENDBRANCH   8  11
ENDBRANCH   5   8
ENDBRANCH   1   5
BRANCH   3  38
ATOM     38  C   UNL A   1      32.796  27.609  26.160  1.00  0.00     0.017 C 
ATOM     39  H   UNL A   1      32.813  27.859  25.120  1.00  0.00     0.049 H 
ATOM     40  H   UNL A   1      33.764  27.275  26.471  1.00  0.00     0.049 H 
BRANCH  38  41
ATOM     41  C   UNL A   1      32.410  28.845  26.970  1.00  0.00    -0.036 C 
ATOM     42  H   UNL A   1      32.996  28.858  27.865  1.00  0.00     0.028 H 
ATOM     43  H   UNL A   1      31.362  28.774  27.170  1.00  0.00     0.028 H 
BRANCH  41  44
ATOM     44  C   UNL A   1      32.636  30.154  26.228  1.00  0.00    -0.052 C 
ATOM     45  H   UNL A   1      33.103  29.936  25.291  1.00  0.00     0.027 H 
ATOM     46  H   UNL A   1      33.249  30.769  26.853  1.00  0.00     0.027 H 
BRANCH  44  47
ATOM     47  C   UNL A   1      31.343  30.930  25.958  1.00  0.00    -0.052 C 
ATOM     48  H   UNL A   1      30.531  30.379  26.386  1.00  0.00     0.027 H 
ATOM     49  H   UNL A   1      31.276  31.032  24.895  1.00  0.00     0.027 H 
BRANCH  47  50
ATOM     50  C   UNL A   1      31.305  32.354  26.527  1.00  0.00    -0.036 C 
ATOM     51  H   UNL A   1      30.554  32.388  27.289  1.00  0.00     0.028 H 
ATOM     52  H   UNL A   1      31.096  33.004  25.703  1.00  0.00     0.028 H 
BRANCH  50  53
ATOM     53  C   UNL A   1      32.623  32.830  27.134  1.00  0.00     0.018 C 
ATOM     54  H   UNL A   1      33.388  32.780  26.388  1.00  0.00     0.049 H 
ATOM     55  H   UNL A   1      32.859  32.197  27.964  1.00  0.00     0.049 H 
BRANCH  53  56
ATOM     56  N   UNL A   1      32.519  34.198  27.615  1.00  0.00    -0.352 N 
ATOM     57  C   UNL A   1      33.083  34.782  28.717  1.00  0.00     0.251 C 
ATOM     58  H   UNL A   1      31.958  34.793  27.066  1.00  0.00     0.163 HD
ATOM     59  O   UNL A   1      32.641  35.840  29.151  1.00  0.00    -0.269 OA
BRANCH  57  60
ATOM     60  C   UNL A   1      34.231  34.136  29.378  1.00  0.00     0.039 A 
ATOM     61  C   UNL A   1      35.524  34.438  28.943  1.00  0.00    -0.049 A 
ATOM     62  C   UNL A   1      34.027  33.199  30.395  1.00  0.00    -0.049 A 
ATOM     63  C   UNL A   1      36.616  33.830  29.560  1.00  0.00    -0.053 A 
ATOM     64  H   UNL A   1      35.669  35.107  28.171  1.00  0.00     0.063 H 
ATOM     65  C   UNL A   1      35.118  32.651  31.059  1.00  0.00    -0.053 A 
ATOM     66  H   UNL A   1      33.069  32.915  30.652  1.00  0.00     0.063 H 
ATOM     67  C   UNL A   1      36.422  32.951  30.639  1.00  0.00    -0.014 A 
ATOM     68  H   UNL A   1      37.571  34.026  29.223  1.00  0.00     0.063 H 
ATOM     69  H   UNL A   1      34.969  32.023  31.863  1.00  0.00     0.063 H 
BRANCH  67  70
ATOM     70  C   UNL A   1      37.573  32.325  31.333  1.00  0.00     0.031 A 
ATOM     71  C   UNL A   1      38.287  31.161  30.709  1.00  0.00     0.074 A 
ATOM     72  C   UNL A   1      37.931  32.769  32.553  1.00  0.00     0.049 A 
ATOM     73  N   UNL A   1      39.268  30.438  31.186  1.00  0.00    -0.248 NA
ATOM     74  C   UNL A   1      37.816  30.732  29.382  1.00  0.00    -0.034 C 
ATOM     75  C   UNL A   1      37.280  33.860  33.278  1.00  0.00    -0.036 A 
ATOM     76  N   UNL A   1      38.923  32.349  33.401  1.00  0.00    -0.354 N 
ATOM     77  C   UNL A   1      39.526  29.469  30.225  1.00  0.00     0.074 A 
ATOM     78  C   UNL A   1      38.556  29.655  29.166  1.00  0.00    -0.034 C 
ATOM     79  H   UNL A   1      37.098  31.160  28.777  1.00  0.00     0.065 H 
ATOM     80  C   UNL A   1      37.897  34.033  34.457  1.00  0.00    -0.036 A 
ATOM     81  H   UNL A   1      36.473  34.408  32.938  1.00  0.00     0.065 H 
ATOM     82  C   UNL A   1      38.962  33.043  34.586  1.00  0.00     0.049 A 
ATOM     83  H   UNL A   1      39.547  31.620  33.183  1.00  0.00     0.167 HD
ATOM     84  C   UNL A   1      40.499  28.528  30.214  1.00  0.00     0.037 A 
ATOM     85  H   UNL A   1      38.455  29.030  28.351  1.00  0.00     0.065 H 
ATOM     86  H   UNL A   1      37.658  34.750  35.159  1.00  0.00     0.065 H 
ATOM     87  C   UNL A   1      39.760  32.889  35.658  1.00  0.00     0.037 A 
ATOM     88  C   UNL A   1      41.465  28.356  31.267  1.00  0.00     0.049 A 
ATOM     89  C   UNL A   1      40.826  31.828  35.629  1.00  0.00     0.074 A 
ATOM     90  C   UNL A   1      42.520  27.464  31.336  1.00  0.00    -0.036 A 
ATOM     91  N   UNL A   1      41.488  29.093  32.444  1.00  0.00    -0.354 N 
ATOM     92  N   UNL A   1      41.106  30.962  34.686  1.00  0.00    -0.248 NA
ATOM     93  C   UNL A   1      41.695  31.731  36.809  1.00  0.00    -0.034 C 
ATOM     94  C   UNL A   1      43.151  27.627  32.574  1.00  0.00    -0.036 A 
ATOM     95  H   UNL A   1      42.795  26.794  30.600  1.00  0.00     0.065 H 
ATOM     96  C   UNL A   1      42.526  28.660  33.254  1.00  0.00     0.049 A 
ATOM     97  H   UNL A   1      40.859  29.815  32.670  1.00  0.00     0.167 HD
ATOM     98  C   UNL A   1      42.195  30.234  35.144  1.00  0.00     0.074 A 
ATOM     99  C   UNL A   1      42.537  30.774  36.444  1.00  0.00    -0.034 C 
ATOM    100  H   UNL A   1      41.659  32.265  37.691  1.00  0.00     0.065 H 
ATOM    101  H   UNL A   1      43.947  27.070  32.922  1.00  0.00     0.065 H 
ATOM    102  C   UNL A   1      42.853  29.211  34.545  1.00  0.00     0.037 A 
ATOM    103  H   UNL A   1      43.335  30.454  37.015  1.00  0.00     0.065 H 
BRANCH  84 104
ATOM    104  C   UNL A   1      40.565  27.614  29.023  1.00  0.00     0.064 A 
ATOM    105  C   UNL A   1      41.426  27.874  27.944  1.00  0.00     0.173 A 
ATOM    106  C   UNL A   1      39.777  26.455  28.966  1.00  0.00     0.173 A 
ATOM    107  F   UNL A   1      42.194  28.973  27.942  1.00  0.00    -0.203 F 
ATOM    108  C   UNL A   1      41.468  27.027  26.839  1.00  0.00     0.198 A 
ATOM    109  C   UNL A   1      39.846  25.593  27.874  1.00  0.00     0.198 A 
ATOM    110  F   UNL A   1      38.940  26.155  29.971  1.00  0.00    -0.203 F 
ATOM    111  F   UNL A   1      42.253  27.328  25.796  1.00  0.00    -0.200 F 
ATOM    112  C   UNL A   1      40.682  25.885  26.808  1.00  0.00     0.200 A 
ATOM    113  F   UNL A   1      39.097  24.482  27.852  1.00  0.00    -0.200 F 
ATOM    114  F   UNL A   1      40.726  25.069  25.745  1.00  0.00    -0.200 F 
ENDBRANCH  84 104
BRANCH  87 115
ATOM    115  C   UNL A   1      39.588  33.775  36.839  1.00  0.00     0.064 A 
ATOM    116  C   UNL A   1      38.796  33.382  37.927  1.00  0.00     0.173 A 
ATOM    117  C   UNL A   1      40.220  35.025  36.910  1.00  0.00     0.173 A 
ATOM    118  F   UNL A   1      38.158  32.203  37.898  1.00  0.00    -0.203 F 
ATOM    119  C   UNL A   1      38.625  34.215  39.030  1.00  0.00     0.198 A 
ATOM    120  C   UNL A   1      40.073  35.844  38.028  1.00  0.00     0.198 A 
ATOM    121  F   UNL A   1      40.997  35.443  35.900  1.00  0.00    -0.203 F 
ATOM    122  F   UNL A   1      37.826  33.834  40.037  1.00  0.00    -0.200 F 
ATOM    123  C   UNL A   1      39.269  35.442  39.083  1.00  0.00     0.200 A 
ATOM    124  F   UNL A   1      40.712  37.020  38.083  1.00  0.00    -0.200 F 
ATOM    125  F   UNL A   1      39.110  36.239  40.149  1.00  0.00    -0.200 F 
ENDBRANCH  87 115
BRANCH 102 126
ATOM    126  C   UNL A   1      44.030  28.629  35.274  1.00  0.00     0.064 A 
ATOM    127  C   UNL A   1      43.891  27.541  36.148  1.00  0.00     0.173 A 
ATOM    128  C   UNL A   1      45.318  29.144  35.065  1.00  0.00     0.173 A 
ATOM    129  F   UNL A   1      42.678  27.022  36.394  1.00  0.00    -0.203 F 
ATOM    130  C   UNL A   1      44.995  27.007  36.807  1.00  0.00     0.198 A 
ATOM    131  C   UNL A   1      46.424  28.586  35.700  1.00  0.00     0.198 A 
ATOM    132  F   UNL A   1      45.507  30.180  34.234  1.00  0.00    -0.203 F 
ATOM    133  F   UNL A   1      44.833  26.000  37.676  1.00  0.00    -0.200 F 
ATOM    134  C   UNL A   1      46.261  27.524  36.576  1.00  0.00     0.200 A 
ATOM    135  F   UNL A   1      47.648  29.077  35.464  1.00  0.00    -0.200 F 
ATOM    136  F   UNL A   1      47.324  27.003  37.205  1.00  0.00    -0.200 F 
ENDBRANCH 102 126
ENDBRANCH  67  70
ENDBRANCH  57  60
ENDBRANCH  53  56
ENDBRANCH  50  53
ENDBRANCH  47  50
ENDBRANCH  44  47
ENDBRANCH  41  44
ENDBRANCH  38  41
ENDBRANCH   3  38
TORSDOF 22
ENDMDL
MODEL 2
REMARK VINA RESULT:     -10.2      6.363     11.063
REMARK SMILES CC(=O)Oc1ccccc1SCCCCCC(=O)NCCCCCCNC(=O)c1ccc(-c2c3nc(c(-c4c(F)c(F)c(F)c(F)c4F)c4ccc([nH]4)c(-c4c(F)c(F)c(F)c(F)c4F)c4nc(c(-c5c(F)c(F)c(F)c(F)c5F)c5ccc2[nH]5)C=C4)C=C3)cc1
REMARK SMILES IDX 17 1 18 2 19 3 16 5 15 8 14 11 13 14 12 17 11 20 10 21 5 22
REMARK SMILES IDX 6 23 7 24 9 26 8 27 4 31 2 32 3 33 1 34 20 38 21 41 22 44
REMARK SMILES IDX 23 47 24 50 25 53 26 56 27 57 28 59 29 60 30 61 91 62 31 63
REMARK SMILES IDX 90 65 32 67 33 70 34 71 84 72 35 73 89 74 83 75 85 76 36 77
REMARK SMILES IDX 88 78 82 80 81 82 37 84 69 87 49 88 68 89 50 90 53 91 67 92
REMARK SMILES IDX 86 93 51 94 52 96 66 98 87 99 54 102 38 104 39 105 47 106
REMARK SMILES IDX 40 107 41 108 45 109 48 110 42 111 43 112 46 113 44 114
REMARK SMILES IDX 70 115 71 116 79 117 72 118 73 119 77 120 80 121 74 122
REMARK SMILES IDX 75 123 78 124 76 125 55 126 56 127 64 128 57 129 58 130
REMARK SMILES IDX 62 131 65 132 59 133 60 134 63 135 61 136
REMARK H PARENT 19 4 16 6 16 7 15 9 15 10 14 12 14 13 13 15 13 16 12 18 12 19
REMARK H PARENT 6 25 7 28 9 29 8 30 1 35 1 36 1 37 20 39 20 40 21 42 21 43
REMARK H PARENT 22 45 22 46 23 48 23 49 24 51 24 52 25 54 25 55 26 58 30 64
REMARK H PARENT 91 66 31 68 90 69 89 79 83 81 85 83 88 85 82 86 50 95 53 97
REMARK H PARENT 86 100 51 101 87 103
REMARK Flexibility Score: inf
ROOT
ATOM      1  C   UNL A   1      37.951  22.264  25.539  1.00  0.00     0.219 C 
ATOM      2  O   UNL A   1      37.247  21.505  24.872  1.00  0.00    -0.275 OA
ATOM      3  N   UNL A   1      39.208  21.871  25.873  1.00  0.00    -0.356 N 
ATOM      4  H   UNL A   1      39.517  21.029  25.467  1.00  0.00     0.163 HD
ENDROOT
BRANCH   1   5
ATOM      5  C   UNL A   1      37.452  23.628  25.967  1.00  0.00     0.026 C 
ATOM      6  H   UNL A   1      37.822  23.827  26.951  1.00  0.00     0.037 H 
ATOM      7  H   UNL A   1      37.809  24.328  25.240  1.00  0.00     0.037 H 
BRANCH   5   8
ATOM      8  C   UNL A   1      35.928  23.761  25.992  1.00  0.00    -0.044 C 
ATOM      9  H   UNL A   1      35.534  22.782  26.171  1.00  0.00     0.027 H 
ATOM     10  H   UNL A   1      35.757  24.503  26.743  1.00  0.00     0.027 H 
BRANCH   8  11
ATOM     11  C   UNL A   1      35.186  24.322  24.760  1.00  0.00    -0.052 C 
ATOM     12  H   UNL A   1      34.627  25.171  25.093  1.00  0.00     0.027 H 
ATOM     13  H   UNL A   1      35.971  24.502  24.055  1.00  0.00     0.027 H 
BRANCH  11  14
ATOM     14  C   UNL A   1      34.213  23.425  23.987  1.00  0.00    -0.044 C 
ATOM     15  H   UNL A   1      34.796  22.593  23.649  1.00  0.00     0.028 H 
ATOM     16  H   UNL A   1      33.437  23.306  24.713  1.00  0.00     0.028 H 
BRANCH  14  17
ATOM     17  C   UNL A   1      33.391  23.873  22.765  1.00  0.00    -0.002 C 
ATOM     18  H   UNL A   1      34.121  24.141  22.031  1.00  0.00     0.038 H 
ATOM     19  H   UNL A   1      32.737  23.028  22.694  1.00  0.00     0.038 H 
BRANCH  17  20
ATOM     20  S   UNL A   1      32.141  25.191  22.674  1.00  0.00    -0.122 SA
BRANCH  20  21
ATOM     21  C   UNL A   1      32.377  26.263  24.069  1.00  0.00     0.050 A 
ATOM     22  C   UNL A   1      31.865  26.173  25.366  1.00  0.00     0.144 A 
ATOM     23  C   UNL A   1      32.413  26.950  26.404  1.00  0.00    -0.018 A 
ATOM     24  C   UNL A   1      33.434  27.864  26.146  1.00  0.00    -0.058 A 
ATOM     25  H   UNL A   1      32.056  26.841  27.366  1.00  0.00     0.066 H 
ATOM     26  C   UNL A   1      33.338  27.265  23.818  1.00  0.00    -0.045 A 
ATOM     27  C   UNL A   1      33.875  28.045  24.844  1.00  0.00    -0.061 A 
ATOM     28  H   UNL A   1      33.856  28.403  26.918  1.00  0.00     0.062 H 
ATOM     29  H   UNL A   1      33.653  27.426  22.848  1.00  0.00     0.064 H 
ATOM     30  H   UNL A   1      34.598  28.752  24.634  1.00  0.00     0.062 H 
BRANCH  22  31
ATOM     31  O   UNL A   1      31.005  25.150  25.851  1.00  0.00    -0.426 OA
BRANCH  31  32
ATOM     32  C   UNL A   1      31.291  23.907  26.413  1.00  0.00     0.308 C 
ATOM     33  O   UNL A   1      31.759  23.692  27.515  1.00  0.00    -0.252 OA
BRANCH  32  34
ATOM     34  C   UNL A   1      30.896  22.856  25.405  1.00  0.00     0.034 C 
ATOM     35  H   UNL A   1      30.503  23.330  24.531  1.00  0.00     0.035 H 
ATOM     36  H   UNL A   1      30.151  22.216  25.831  1.00  0.00     0.035 H 
ATOM     37  H   UNL A   1      31.756  22.275  25.142  1.00  0.00     0.035 H 
ENDBRANCH  32  34
ENDBRANCH  31  32
ENDBRANCH  22  31
ENDBRANCH  20  21
ENDBRANCH  17  20
ENDBRANCH  14  17
ENDBRANCH  11  14
ENDBRANCH   8  11
ENDBRANCH   5   8
ENDBRANCH   1   5
BRANCH   3  38
ATOM     38  C   UNL A   1      40.152  22.527  26.747  1.00  0.00     0.017 C 
ATOM     39  H   UNL A   1      39.624  23.182  27.408  1.00  0.00     0.049 H 
ATOM     40  H   UNL A   1      40.845  23.088  26.155  1.00  0.00     0.049 H 
BRANCH  38  41
ATOM     41  C   UNL A   1      40.918  21.493  27.568  1.00  0.00    -0.036 C 
ATOM     42  H   UNL A   1      40.238  20.719  27.857  1.00  0.00     0.028 H 
ATOM     43  H   UNL A   1      41.333  22.006  28.410  1.00  0.00     0.028 H 
BRANCH  41  44
ATOM     44  C   UNL A   1      42.079  20.857  26.817  1.00  0.00    -0.052 C 
ATOM     45  H   UNL A   1      42.838  20.597  27.524  1.00  0.00     0.027 H 
ATOM     46  H   UNL A   1      42.422  21.575  26.101  1.00  0.00     0.027 H 
BRANCH  44  47
ATOM     47  C   UNL A   1      41.684  19.597  26.042  1.00  0.00    -0.052 C 
ATOM     48  H   UNL A   1      41.721  19.826  24.997  1.00  0.00     0.027 H 
ATOM     49  H   UNL A   1      40.706  19.331  26.387  1.00  0.00     0.027 H 
BRANCH  47  50
ATOM     50  C   UNL A   1      42.571  18.371  26.293  1.00  0.00    -0.036 C 
ATOM     51  H   UNL A   1      42.306  17.617  25.581  1.00  0.00     0.028 H 
ATOM     52  H   UNL A   1      42.397  18.072  27.305  1.00  0.00     0.028 H 
BRANCH  50  53
ATOM     53  C   UNL A   1      44.070  18.638  26.169  1.00  0.00     0.018 C 
ATOM     54  H   UNL A   1      44.603  17.887  26.714  1.00  0.00     0.049 H 
ATOM     55  H   UNL A   1      44.273  19.610  26.565  1.00  0.00     0.049 H 
BRANCH  53  56
ATOM     56  N   UNL A   1      44.499  18.610  24.780  1.00  0.00    -0.352 N 
ATOM     57  C   UNL A   1      44.693  19.644  23.905  1.00  0.00     0.251 C 
ATOM     58  H   UNL A   1      44.676  17.712  24.414  1.00  0.00     0.163 HD
ATOM     59  O   UNL A   1      44.740  19.432  22.698  1.00  0.00    -0.269 OA
BRANCH  57  60
ATOM     60  C   UNL A   1      44.852  21.016  24.419  1.00  0.00     0.039 A 
ATOM     61  C   UNL A   1      45.552  21.218  25.612  1.00  0.00    -0.049 A 
ATOM     62  C   UNL A   1      44.272  22.096  23.748  1.00  0.00    -0.049 A 
ATOM     63  C   UNL A   1      45.705  22.511  26.109  1.00  0.00    -0.053 A 
ATOM     64  H   UNL A   1      45.951  20.414  26.121  1.00  0.00     0.063 H 
ATOM     65  C   UNL A   1      44.489  23.391  24.203  1.00  0.00    -0.053 A 
ATOM     66  H   UNL A   1      43.684  21.932  22.916  1.00  0.00     0.063 H 
ATOM     67  C   UNL A   1      45.196  23.609  25.395  1.00  0.00    -0.014 A 
ATOM     68  H   UNL A   1      46.193  22.663  27.005  1.00  0.00     0.063 H 
ATOM     69  H   UNL A   1      44.131  24.193  23.664  1.00  0.00     0.063 H 
BRANCH  67  70
ATOM     70  C   UNL A   1      45.383  24.995  25.887  1.00  0.00     0.031 A 
ATOM     71  C   UNL A   1      46.741  25.636  25.838  1.00  0.00     0.074 A 
ATOM     72  C   UNL A   1      44.341  25.650  26.433  1.00  0.00     0.049 A 
ATOM     73  N   UNL A   1      47.120  26.808  26.278  1.00  0.00    -0.248 NA
ATOM     74  C   UNL A   1      47.824  24.840  25.240  1.00  0.00    -0.034 C 
ATOM     75  C   UNL A   1      42.989  25.110  26.580  1.00  0.00    -0.036 A 
ATOM     76  N   UNL A   1      44.260  26.905  26.978  1.00  0.00    -0.354 N 
ATOM     77  C   UNL A   1      48.482  26.886  26.017  1.00  0.00     0.074 A 
ATOM     78  C   UNL A   1      48.876  25.619  25.440  1.00  0.00    -0.034 C 
ATOM     79  H   UNL A   1      47.777  23.915  24.782  1.00  0.00     0.065 H 
ATOM     80  C   UNL A   1      42.209  26.033  27.163  1.00  0.00    -0.036 A 
ATOM     81  H   UNL A   1      42.684  24.169  26.284  1.00  0.00     0.065 H 
ATOM     82  C   UNL A   1      43.013  27.213  27.464  1.00  0.00     0.049 A 
ATOM     83  H   UNL A   1      45.022  27.526  27.018  1.00  0.00     0.167 HD
ATOM     84  C   UNL A   1      49.322  27.930  26.216  1.00  0.00     0.037 A 
ATOM     85  H   UNL A   1      49.848  25.358  25.214  1.00  0.00     0.065 H 
ATOM     86  H   UNL A   1      41.202  25.926  27.365  1.00  0.00     0.065 H 
ATOM     87  C   UNL A   1      42.573  28.320  28.091  1.00  0.00     0.037 A 
ATOM     88  C   UNL A   1      48.918  29.191  26.783  1.00  0.00     0.049 A 
ATOM     89  C   UNL A   1      43.527  29.462  28.313  1.00  0.00     0.074 A 
ATOM     90  C   UNL A   1      49.678  30.329  26.987  1.00  0.00    -0.036 A 
ATOM     91  N   UNL A   1      47.640  29.476  27.244  1.00  0.00    -0.354 N 
ATOM     92  N   UNL A   1      44.796  29.553  28.000  1.00  0.00    -0.248 NA
ATOM     93  C   UNL A   1      42.983  30.660  28.966  1.00  0.00    -0.034 C 
ATOM     94  C   UNL A   1      48.872  31.285  27.615  1.00  0.00    -0.036 A 
ATOM     95  H   UNL A   1      50.667  30.452  26.720  1.00  0.00     0.065 H 
ATOM     96  C   UNL A   1      47.595  30.764  27.751  1.00  0.00     0.049 A 
ATOM     97  H   UNL A   1      46.878  28.853  27.215  1.00  0.00     0.167 HD
ATOM     98  C   UNL A   1      45.198  30.821  28.393  1.00  0.00     0.074 A 
ATOM     99  C   UNL A   1      44.031  31.472  28.952  1.00  0.00    -0.034 C 
ATOM    100  H   UNL A   1      42.035  30.826  29.339  1.00  0.00     0.065 H 
ATOM    101  H   UNL A   1      49.179  32.221  27.926  1.00  0.00     0.065 H 
ATOM    102  C   UNL A   1      46.423  31.397  28.301  1.00  0.00     0.037 A 
ATOM    103  H   UNL A   1      44.016  32.445  29.295  1.00  0.00     0.065 H 
BRANCH  84 104
ATOM    104  C   UNL A   1      50.757  27.750  25.815  1.00  0.00     0.064 A 
ATOM    105  C   UNL A   1      51.180  27.936  24.489  1.00  0.00     0.173 A 
ATOM    106  C   UNL A   1      51.729  27.407  26.768  1.00  0.00     0.173 A 
ATOM    107  F   UNL A   1      50.291  28.254  23.536  1.00  0.00    -0.203 F 
ATOM    108  C   UNL A   1      52.512  27.751  24.127  1.00  0.00     0.198 A 
ATOM    109  C   UNL A   1      53.066  27.256  26.408  1.00  0.00     0.198 A 
ATOM    110  F   UNL A   1      51.383  27.222  28.051  1.00  0.00    -0.203 F 
ATOM    111  F   UNL A   1      52.879  27.877  22.844  1.00  0.00    -0.200 F 
ATOM    112  C   UNL A   1      53.454  27.418  25.087  1.00  0.00     0.200 A 
ATOM    113  F   UNL A   1      53.978  26.948  27.340  1.00  0.00    -0.200 F 
ATOM    114  F   UNL A   1      54.737  27.244  24.738  1.00  0.00    -0.200 F 
ENDBRANCH  84 104
BRANCH  87 115
ATOM    115  C   UNL A   1      41.157  28.402  28.536  1.00  0.00     0.064 A 
ATOM    116  C   UNL A   1      40.161  28.903  27.687  1.00  0.00     0.173 A 
ATOM    117  C   UNL A   1      40.769  27.972  29.813  1.00  0.00     0.173 A 
ATOM    118  F   UNL A   1      40.486  29.343  26.462  1.00  0.00    -0.203 F 
ATOM    119  C   UNL A   1      38.836  28.991  28.106  1.00  0.00     0.198 A 
ATOM    120  C   UNL A   1      39.438  28.031  30.220  1.00  0.00     0.198 A 
ATOM    121  F   UNL A   1      41.682  27.475  30.661  1.00  0.00    -0.203 F 
ATOM    122  F   UNL A   1      37.911  29.515  27.289  1.00  0.00    -0.200 F 
ATOM    123  C   UNL A   1      38.473  28.548  29.369  1.00  0.00     0.200 A 
ATOM    124  F   UNL A   1      39.090  27.584  31.434  1.00  0.00    -0.200 F 
ATOM    125  F   UNL A   1      37.197  28.625  29.768  1.00  0.00    -0.200 F 
ENDBRANCH  87 115
BRANCH 102 126
ATOM    126  C   UNL A   1      46.556  32.812  28.786  1.00  0.00     0.064 A 
ATOM    127  C   UNL A   1      46.924  33.108  30.107  1.00  0.00     0.173 A 
ATOM    128  C   UNL A   1      46.349  33.885  27.906  1.00  0.00     0.173 A 
ATOM    129  F   UNL A   1      47.118  32.118  30.992  1.00  0.00    -0.203 F 
ATOM    130  C   UNL A   1      47.053  34.426  30.535  1.00  0.00     0.198 A 
ATOM    131  C   UNL A   1      46.512  35.201  28.329  1.00  0.00     0.198 A 
ATOM    132  F   UNL A   1      46.001  33.657  26.630  1.00  0.00    -0.203 F 
ATOM    133  F   UNL A   1      47.357  34.687  31.814  1.00  0.00    -0.200 F 
ATOM    134  C   UNL A   1      46.856  35.471  29.645  1.00  0.00     0.200 A 
ATOM    135  F   UNL A   1      46.335  36.208  27.463  1.00  0.00    -0.200 F 
ATOM    136  F   UNL A   1      46.989  36.739  30.057  1.00  0.00    -0.200 F 
ENDBRANCH 102 126
ENDBRANCH  67  70
ENDBRANCH  57  60
ENDBRANCH  53  56
ENDBRANCH  50  53
ENDBRANCH  47  50
ENDBRANCH  44  47
ENDBRANCH  41  44
ENDBRANCH  38  41
ENDBRANCH   3  38
TORSDOF 22
ENDMDL
MODEL 3
REMARK VINA RESULT:     -10.2      1.001      7.321
REMARK SMILES CC(=O)Oc1ccccc1SCCCCCC(=O)NCCCCCCNC(=O)c1ccc(-c2c3nc(c(-c4c(F)c(F)c(F)c(F)c4F)c4ccc([nH]4)c(-c4c(F)c(F)c(F)c(F)c4F)c4nc(c(-c5c(F)c(F)c(F)c(F)c5F)c5ccc2[nH]5)C=C4)C=C3)cc1
REMARK SMILES IDX 17 1 18 2 19 3 16 5 15 8 14 11 13 14 12 17 11 20 10 21 5 22
REMARK SMILES IDX 6 23 7 24 9 26 8 27 4 31 2 32 3 33 1 34 20 38 21 41 22 44
REMARK SMILES IDX 23 47 24 50 25 53 26 56 27 57 28 59 29 60 30 61 91 62 31 63
REMARK SMILES IDX 90 65 32 67 33 70 34 71 84 72 35 73 89 74 83 75 85 76 36 77
REMARK SMILES IDX 88 78 82 80 81 82 37 84 69 87 49 88 68 89 50 90 53 91 67 92
REMARK SMILES IDX 86 93 51 94 52 96 66 98 87 99 54 102 38 104 39 105 47 106
REMARK SMILES IDX 40 107 41 108 45 109 48 110 42 111 43 112 46 113 44 114
REMARK SMILES IDX 70 115 71 116 79 117 72 118 73 119 77 120 80 121 74 122
REMARK SMILES IDX 75 123 78 124 76 125 55 126 56 127 64 128 57 129 58 130
REMARK SMILES IDX 62 131 65 132 59 133 60 134 63 135 61 136
REMARK H PARENT 19 4 16 6 16 7 15 9 15 10 14 12 14 13 13 15 13 16 12 18 12 19
REMARK H PARENT 6 25 7 28 9 29 8 30 1 35 1 36 1 37 20 39 20 40 21 42 21 43
REMARK H PARENT 22 45 22 46 23 48 23 49 24 51 24 52 25 54 25 55 26 58 30 64
REMARK H PARENT 91 66 31 68 90 69 89 79 83 81 85 83 88 85 82 86 50 95 53 97
REMARK H PARENT 86 100 51 101 87 103
REMARK Flexibility Score: inf
ROOT
ATOM      1  C   UNL A   1      30.295  25.793  25.965  1.00  0.00     0.219 C 
ATOM      2  O   UNL A   1      29.673  24.904  26.549  1.00  0.00    -0.275 OA
ATOM      3  N   UNL A   1      31.268  26.464  26.636  1.00  0.00    -0.356 N 
ATOM      4  H   UNL A   1      31.485  26.121  27.533  1.00  0.00     0.163 HD
ENDROOT
BRANCH   1   5
ATOM      5  C   UNL A   1      30.014  26.128  24.516  1.00  0.00     0.026 C 
ATOM      6  H   UNL A   1      28.953  26.173  24.382  1.00  0.00     0.037 H 
ATOM      7  H   UNL A   1      30.497  27.062  24.317  1.00  0.00     0.037 H 
BRANCH   5   8
ATOM      8  C   UNL A   1      30.582  25.120  23.515  1.00  0.00    -0.044 C 
ATOM      9  H   UNL A   1      31.080  24.364  24.085  1.00  0.00     0.027 H 
ATOM     10  H   UNL A   1      29.723  24.822  22.951  1.00  0.00     0.027 H 
BRANCH   8  11
ATOM     11  C   UNL A   1      31.575  25.590  22.432  1.00  0.00    -0.052 C 
ATOM     12  H   UNL A   1      31.574  24.844  21.664  1.00  0.00     0.027 H 
ATOM     13  H   UNL A   1      31.216  26.562  22.167  1.00  0.00     0.027 H 
BRANCH  11  14
ATOM     14  C   UNL A   1      33.041  25.841  22.804  1.00  0.00    -0.044 C 
ATOM     15  H   UNL A   1      33.475  26.322  21.953  1.00  0.00     0.028 H 
ATOM     16  H   UNL A   1      32.921  26.353  23.735  1.00  0.00     0.028 H 
BRANCH  14  17
ATOM     17  C   UNL A   1      34.041  24.745  23.211  1.00  0.00    -0.002 C 
ATOM     18  H   UNL A   1      34.893  24.910  22.585  1.00  0.00     0.038 H 
ATOM     19  H   UNL A   1      34.025  24.898  24.271  1.00  0.00     0.038 H 
BRANCH  17  20
ATOM     20  S   UNL A   1      33.802  22.941  23.195  1.00  0.00    -0.122 SA
BRANCH  20  21
ATOM     21  C   UNL A   1      33.548  22.411  24.869  1.00  0.00     0.050 A 
ATOM     22  C   UNL A   1      33.881  21.204  25.490  1.00  0.00     0.144 A 
ATOM     23  C   UNL A   1      33.872  21.096  26.893  1.00  0.00    -0.018 A 
ATOM     24  C   UNL A   1      33.473  22.170  27.686  1.00  0.00    -0.058 A 
ATOM     25  H   UNL A   1      34.164  20.212  27.338  1.00  0.00     0.066 H 
ATOM     26  C   UNL A   1      33.054  23.447  25.690  1.00  0.00    -0.045 A 
ATOM     27  C   UNL A   1      33.033  23.339  27.082  1.00  0.00    -0.061 A 
ATOM     28  H   UNL A   1      33.505  22.096  28.715  1.00  0.00     0.062 H 
ATOM     29  H   UNL A   1      32.699  24.310  25.249  1.00  0.00     0.064 H 
ATOM     30  H   UNL A   1      32.692  24.124  27.659  1.00  0.00     0.062 H 
BRANCH  22  31
ATOM     31  O   UNL A   1      34.524  20.099  24.865  1.00  0.00    -0.426 OA
BRANCH  31  32
ATOM     32  C   UNL A   1      34.042  18.836  24.525  1.00  0.00     0.308 C 
ATOM     33  O   UNL A   1      34.687  17.810  24.427  1.00  0.00    -0.252 OA
BRANCH  32  34
ATOM     34  C   UNL A   1      32.554  18.964  24.313  1.00  0.00     0.034 C 
ATOM     35  H   UNL A   1      32.362  19.714  23.575  1.00  0.00     0.035 H 
ATOM     36  H   UNL A   1      32.085  19.239  25.234  1.00  0.00     0.035 H 
ATOM     37  H   UNL A   1      32.161  18.025  23.979  1.00  0.00     0.035 H 
ENDBRANCH  32  34
ENDBRANCH  31  32
ENDBRANCH  22  31
ENDBRANCH  20  21
ENDBRANCH  17  20
ENDBRANCH  14  17
ENDBRANCH  11  14
ENDBRANCH   8  11
ENDBRANCH   5   8
ENDBRANCH   1   5
BRANCH   3  38
ATOM     38  C   UNL A   1      32.025  27.615  26.205  1.00  0.00     0.017 C 
ATOM     39  H   UNL A   1      31.722  27.887  25.216  1.00  0.00     0.049 H 
ATOM     40  H   UNL A   1      33.067  27.371  26.213  1.00  0.00     0.049 H 
BRANCH  38  41
ATOM     41  C   UNL A   1      31.781  28.791  27.148  1.00  0.00    -0.036 C 
ATOM     42  H   UNL A   1      32.289  28.596  28.069  1.00  0.00     0.028 H 
ATOM     43  H   UNL A   1      30.722  28.875  27.276  1.00  0.00     0.028 H 
BRANCH  41  44
ATOM     44  C   UNL A   1      32.272  30.123  26.601  1.00  0.00    -0.052 C 
ATOM     45  H   UNL A   1      32.938  29.930  25.787  1.00  0.00     0.027 H 
ATOM     46  H   UNL A   1      32.754  30.636  27.407  1.00  0.00     0.027 H 
BRANCH  44  47
ATOM     47  C   UNL A   1      31.142  31.028  26.100  1.00  0.00    -0.052 C 
ATOM     48  H   UNL A   1      30.221  30.661  26.503  1.00  0.00     0.027 H 
ATOM     49  H   UNL A   1      31.185  30.991  25.031  1.00  0.00     0.027 H 
BRANCH  47  50
ATOM     50  C   UNL A   1      31.272  32.508  26.481  1.00  0.00    -0.036 C 
ATOM     51  H   UNL A   1      30.499  32.741  27.183  1.00  0.00     0.028 H 
ATOM     52  H   UNL A   1      31.193  33.064  25.570  1.00  0.00     0.028 H 
BRANCH  50  53
ATOM     53  C   UNL A   1      32.614  32.886  27.107  1.00  0.00     0.018 C 
ATOM     54  H   UNL A   1      33.375  32.833  26.357  1.00  0.00     0.049 H 
ATOM     55  H   UNL A   1      32.818  32.202  27.904  1.00  0.00     0.049 H 
BRANCH  53  56
ATOM     56  N   UNL A   1      32.580  34.232  27.655  1.00  0.00    -0.352 N 
ATOM     57  C   UNL A   1      33.208  34.742  28.758  1.00  0.00     0.251 C 
ATOM     58  H   UNL A   1      32.021  34.873  27.157  1.00  0.00     0.163 HD
ATOM     59  O   UNL A   1      32.823  35.794  29.258  1.00  0.00    -0.269 OA
BRANCH  57  60
ATOM     60  C   UNL A   1      34.356  34.025  29.342  1.00  0.00     0.039 A 
ATOM     61  C   UNL A   1      35.649  34.374  28.945  1.00  0.00    -0.049 A 
ATOM     62  C   UNL A   1      34.151  32.978  30.246  1.00  0.00    -0.049 A 
ATOM     63  C   UNL A   1      36.741  33.700  29.488  1.00  0.00    -0.053 A 
ATOM     64  H   UNL A   1      35.794  35.126  28.254  1.00  0.00     0.063 H 
ATOM     65  C   UNL A   1      35.242  32.357  30.843  1.00  0.00    -0.053 A 
ATOM     66  H   UNL A   1      33.193  32.667  30.468  1.00  0.00     0.063 H 
ATOM     67  C   UNL A   1      36.546  32.703  30.460  1.00  0.00    -0.014 A 
ATOM     68  H   UNL A   1      37.696  33.932  29.176  1.00  0.00     0.063 H 
ATOM     69  H   UNL A   1      35.092  31.641  31.570  1.00  0.00     0.063 H 
BRANCH  67  70
ATOM     70  C   UNL A   1      37.696  32.002  31.079  1.00  0.00     0.031 A 
ATOM     71  C   UNL A   1      38.164  32.388  32.453  1.00  0.00     0.074 A 
ATOM     72  C   UNL A   1      38.355  31.062  30.374  1.00  0.00     0.049 A 
ATOM     73  N   UNL A   1      39.188  31.941  33.136  1.00  0.00    -0.248 NA
ATOM     74  C   UNL A   1      37.395  33.437  33.141  1.00  0.00    -0.034 C 
ATOM     75  C   UNL A   1      38.023  30.640  29.013  1.00  0.00    -0.036 A 
ATOM     76  N   UNL A   1      39.448  30.301  30.702  1.00  0.00    -0.354 N 
ATOM     77  C   UNL A   1      39.189  32.658  34.325  1.00  0.00     0.074 A 
ATOM     78  C   UNL A   1      38.104  33.613  34.246  1.00  0.00    -0.034 C 
ATOM     79  H   UNL A   1      36.529  33.911  32.842  1.00  0.00     0.065 H 
ATOM     80  C   UNL A   1      38.884  29.687  28.627  1.00  0.00    -0.036 A 
ATOM     81  H   UNL A   1      37.250  31.017  28.442  1.00  0.00     0.065 H 
ATOM     82  C   UNL A   1      39.850  29.457  29.696  1.00  0.00     0.049 A 
ATOM     83  H   UNL A   1      39.901  30.355  31.574  1.00  0.00     0.167 HD
ATOM     84  C   UNL A   1      40.003  32.514  35.398  1.00  0.00     0.037 A 
ATOM     85  H   UNL A   1      37.910  34.335  34.956  1.00  0.00     0.065 H 
ATOM     86  H   UNL A   1      38.866  29.195  27.720  1.00  0.00     0.065 H 
ATOM     87  C   UNL A   1      40.889  28.603  29.641  1.00  0.00     0.037 A 
ATOM     88  C   UNL A   1      41.074  31.554  35.472  1.00  0.00     0.049 A 
ATOM     89  C   UNL A   1      41.788  28.468  30.840  1.00  0.00     0.074 A 
ATOM     90  C   UNL A   1      41.930  31.294  36.527  1.00  0.00    -0.036 A 
ATOM     91  N   UNL A   1      41.439  30.698  34.441  1.00  0.00    -0.354 N 
ATOM     92  N   UNL A   1      41.739  29.101  31.987  1.00  0.00    -0.248 NA
ATOM     93  C   UNL A   1      42.881  27.492  30.740  1.00  0.00    -0.034 C 
ATOM     94  C   UNL A   1      42.844  30.316  36.118  1.00  0.00    -0.036 A 
ATOM     95  H   UNL A   1      41.900  31.743  37.456  1.00  0.00     0.065 H 
ATOM     96  C   UNL A   1      42.522  29.925  34.828  1.00  0.00     0.049 A 
ATOM     97  H   UNL A   1      40.995  30.649  33.564  1.00  0.00     0.167 HD
ATOM     98  C   UNL A   1      42.774  28.585  32.754  1.00  0.00     0.074 A 
ATOM     99  C   UNL A   1      43.424  27.573  31.946  1.00  0.00    -0.034 C 
ATOM    100  H   UNL A   1      43.155  26.900  29.941  1.00  0.00     0.065 H 
ATOM    101  H   UNL A   1      43.626  29.949  36.682  1.00  0.00     0.065 H 
ATOM    102  C   UNL A   1      43.154  28.920  34.012  1.00  0.00     0.037 A 
ATOM    103  H   UNL A   1      44.211  26.988  32.270  1.00  0.00     0.065 H 
BRANCH  84 104
ATOM    104  C   UNL A   1      39.763  33.414  36.575  1.00  0.00     0.064 A 
ATOM    105  C   UNL A   1      40.423  34.647  36.704  1.00  0.00     0.173 A 
ATOM    106  C   UNL A   1      38.849  33.054  37.577  1.00  0.00     0.173 A 
ATOM    107  F   UNL A   1      41.315  35.036  35.781  1.00  0.00    -0.203 F 
ATOM    108  C   UNL A   1      40.203  35.467  37.808  1.00  0.00     0.198 A 
ATOM    109  C   UNL A   1      38.607  33.892  38.663  1.00  0.00     0.198 A 
ATOM    110  F   UNL A   1      38.187  31.890  37.503  1.00  0.00    -0.203 F 
ATOM    111  F   UNL A   1      40.888  36.611  37.938  1.00  0.00    -0.200 F 
ATOM    112  C   UNL A   1      39.291  35.092  38.783  1.00  0.00     0.200 A 
ATOM    113  F   UNL A   1      37.715  33.535  39.597  1.00  0.00    -0.200 F 
ATOM    114  F   UNL A   1      39.078  35.883  39.844  1.00  0.00    -0.200 F 
ENDBRANCH  84 104
BRANCH  87 115
ATOM    115  C   UNL A   1      41.118  27.799  28.412  1.00  0.00     0.064 A 
ATOM    116  C   UNL A   1      41.958  28.265  27.391  1.00  0.00     0.173 A 
ATOM    117  C   UNL A   1      40.514  26.546  28.239  1.00  0.00     0.173 A 
ATOM    118  F   UNL A   1      42.545  29.466  27.504  1.00  0.00    -0.203 F 
ATOM    119  C   UNL A   1      42.166  27.518  26.234  1.00  0.00     0.198 A 
ATOM    120  C   UNL A   1      40.747  25.786  27.094  1.00  0.00     0.198 A 
ATOM    121  F   UNL A   1      39.710  26.050  29.191  1.00  0.00    -0.203 F 
ATOM    122  F   UNL A   1      42.938  28.008  25.254  1.00  0.00    -0.200 F 
ATOM    123  C   UNL A   1      41.566  26.276  26.089  1.00  0.00     0.200 A 
ATOM    124  F   UNL A   1      40.182  24.578  26.968  1.00  0.00    -0.200 F 
ATOM    125  F   UNL A   1      41.775  25.555  24.980  1.00  0.00    -0.200 F 
ENDBRANCH  87 115
BRANCH 102 126
ATOM    126  C   UNL A   1      44.307  28.162  34.606  1.00  0.00     0.064 A 
ATOM    127  C   UNL A   1      44.118  26.954  35.294  1.00  0.00     0.173 A 
ATOM    128  C   UNL A   1      45.619  28.632  34.451  1.00  0.00     0.173 A 
ATOM    129  F   UNL A   1      42.881  26.469  35.482  1.00  0.00    -0.203 F 
ATOM    130  C   UNL A   1      45.200  26.259  35.828  1.00  0.00     0.198 A 
ATOM    131  C   UNL A   1      46.701  27.918  34.958  1.00  0.00     0.198 A 
ATOM    132  F   UNL A   1      45.855  29.779  33.797  1.00  0.00    -0.203 F 
ATOM    133  F   UNL A   1      44.993  25.133  36.525  1.00  0.00    -0.200 F 
ATOM    134  C   UNL A   1      46.490  26.736  35.653  1.00  0.00     0.200 A 
ATOM    135  F   UNL A   1      47.948  28.373  34.775  1.00  0.00    -0.200 F 
ATOM    136  F   UNL A   1      47.531  26.061  36.161  1.00  0.00    -0.200 F 
ENDBRANCH 102 126
ENDBRANCH  67  70
ENDBRANCH  57  60
ENDBRANCH  53  56
ENDBRANCH  50  53
ENDBRANCH  47  50
ENDBRANCH  44  47
ENDBRANCH  41  44
ENDBRANCH  38  41
ENDBRANCH   3  38
TORSDOF 22
ENDMDL
MODEL 4
REMARK VINA RESULT:     -10.0      6.411     11.395
REMARK SMILES CC(=O)Oc1ccccc1SCCCCCC(=O)NCCCCCCNC(=O)c1ccc(-c2c3nc(c(-c4c(F)c(F)c(F)c(F)c4F)c4ccc([nH]4)c(-c4c(F)c(F)c(F)c(F)c4F)c4nc(c(-c5c(F)c(F)c(F)c(F)c5F)c5ccc2[nH]5)C=C4)C=C3)cc1
REMARK SMILES IDX 17 1 18 2 19 3 16 5 15 8 14 11 13 14 12 17 11 20 10 21 5 22
REMARK SMILES IDX 6 23 7 24 9 26 8 27 4 31 2 32 3 33 1 34 20 38 21 41 22 44
REMARK SMILES IDX 23 47 24 50 25 53 26 56 27 57 28 59 29 60 30 61 91 62 31 63
REMARK SMILES IDX 90 65 32 67 33 70 34 71 84 72 35 73 89 74 83 75 85 76 36 77
REMARK SMILES IDX 88 78 82 80 81 82 37 84 69 87 49 88 68 89 50 90 53 91 67 92
REMARK SMILES IDX 86 93 51 94 52 96 66 98 87 99 54 102 38 104 39 105 47 106
REMARK SMILES IDX 40 107 41 108 45 109 48 110 42 111 43 112 46 113 44 114
REMARK SMILES IDX 70 115 71 116 79 117 72 118 73 119 77 120 80 121 74 122
REMARK SMILES IDX 75 123 78 124 76 125 55 126 56 127 64 128 57 129 58 130
REMARK SMILES IDX 62 131 65 132 59 133 60 134 63 135 61 136
REMARK H PARENT 19 4 16 6 16 7 15 9 15 10 14 12 14 13 13 15 13 16 12 18 12 19
REMARK H PARENT 6 25 7 28 9 29 8 30 1 35 1 36 1 37 20 39 20 40 21 42 21 43
REMARK H PARENT 22 45 22 46 23 48 23 49 24 51 24 52 25 54 25 55 26 58 30 64
REMARK H PARENT 91 66 31 68 90 69 89 79 83 81 85 83 88 85 82 86 50 95 53 97
REMARK H PARENT 86 100 51 101 87 103
REMARK Flexibility Score: inf
ROOT
ATOM      1  C   UNL A   1      37.976  22.389  25.404  1.00  0.00     0.219 C 
ATOM      2  O   UNL A   1      37.370  21.699  24.583  1.00  0.00    -0.275 OA
ATOM      3  N   UNL A   1      39.233  22.024  25.770  1.00  0.00    -0.356 N 
ATOM      4  H   UNL A   1      39.623  21.272  25.270  1.00  0.00     0.163 HD
ENDROOT
BRANCH   1   5
ATOM      5  C   UNL A   1      37.358  23.643  25.986  1.00  0.00     0.026 C 
ATOM      6  H   UNL A   1      37.776  23.802  26.958  1.00  0.00     0.037 H 
ATOM      7  H   UNL A   1      37.577  24.439  25.305  1.00  0.00     0.037 H 
BRANCH   5   8
ATOM      8  C   UNL A   1      35.834  23.589  26.121  1.00  0.00    -0.044 C 
ATOM      9  H   UNL A   1      35.537  22.591  25.876  1.00  0.00     0.027 H 
ATOM     10  H   UNL A   1      35.664  23.920  27.124  1.00  0.00     0.027 H 
BRANCH   8  11
ATOM     11  C   UNL A   1      34.955  24.537  25.279  1.00  0.00    -0.052 C 
ATOM     12  H   UNL A   1      35.237  25.536  25.538  1.00  0.00     0.027 H 
ATOM     13  H   UNL A   1      35.142  24.223  24.273  1.00  0.00     0.027 H 
BRANCH  11  14
ATOM     14  C   UNL A   1      33.429  24.461  25.398  1.00  0.00    -0.044 C 
ATOM     15  H   UNL A   1      33.149  23.543  24.925  1.00  0.00     0.028 H 
ATOM     16  H   UNL A   1      33.307  24.608  26.450  1.00  0.00     0.028 H 
BRANCH  14  17
ATOM     17  C   UNL A   1      32.454  25.519  24.850  1.00  0.00    -0.002 C 
ATOM     18  H   UNL A   1      31.667  24.953  24.396  1.00  0.00     0.038 H 
ATOM     19  H   UNL A   1      32.346  26.111  25.735  1.00  0.00     0.038 H 
BRANCH  17  20
ATOM     20  S   UNL A   1      32.797  26.858  23.667  1.00  0.00    -0.122 SA
BRANCH  20  21
ATOM     21  C   UNL A   1      31.474  28.036  23.781  1.00  0.00     0.050 A 
ATOM     22  C   UNL A   1      31.385  29.217  24.524  1.00  0.00     0.144 A 
ATOM     23  C   UNL A   1      30.381  30.162  24.244  1.00  0.00    -0.018 A 
ATOM     24  C   UNL A   1      29.423  29.912  23.262  1.00  0.00    -0.058 A 
ATOM     25  H   UNL A   1      30.355  31.050  24.769  1.00  0.00     0.066 H 
ATOM     26  C   UNL A   1      30.435  27.766  22.866  1.00  0.00    -0.045 A 
ATOM     27  C   UNL A   1      29.431  28.697  22.594  1.00  0.00    -0.061 A 
ATOM     28  H   UNL A   1      28.713  30.626  23.036  1.00  0.00     0.062 H 
ATOM     29  H   UNL A   1      30.417  26.853  22.383  1.00  0.00     0.064 H 
ATOM     30  H   UNL A   1      28.699  28.483  21.898  1.00  0.00     0.062 H 
BRANCH  22  31
ATOM     31  O   UNL A   1      32.392  29.734  25.384  1.00  0.00    -0.426 OA
BRANCH  31  32
ATOM     32  C   UNL A   1      32.434  29.855  26.772  1.00  0.00     0.308 C 
ATOM     33  O   UNL A   1      32.927  30.763  27.413  1.00  0.00    -0.252 OA
BRANCH  32  34
ATOM     34  C   UNL A   1      31.732  28.651  27.350  1.00  0.00     0.034 C 
ATOM     35  H   UNL A   1      31.767  28.696  28.418  1.00  0.00     0.035 H 
ATOM     36  H   UNL A   1      32.219  27.759  27.014  1.00  0.00     0.035 H 
ATOM     37  H   UNL A   1      30.712  28.644  27.025  1.00  0.00     0.035 H 
ENDBRANCH  32  34
ENDBRANCH  31  32
ENDBRANCH  22  31
ENDBRANCH  20  21
ENDBRANCH  17  20
ENDBRANCH  14  17
ENDBRANCH  11  14
ENDBRANCH   8  11
ENDBRANCH   5   8
ENDBRANCH   1   5
BRANCH   3  38
ATOM     38  C   UNL A   1      40.070  22.596  26.798  1.00  0.00     0.017 C 
ATOM     39  H   UNL A   1      39.461  23.150  27.481  1.00  0.00     0.049 H 
ATOM     40  H   UNL A   1      40.789  23.244  26.342  1.00  0.00     0.049 H 
BRANCH  38  41
ATOM     41  C   UNL A   1      40.802  21.492  27.557  1.00  0.00    -0.036 C 
ATOM     42  H   UNL A   1      40.111  20.700  27.752  1.00  0.00     0.028 H 
ATOM     43  H   UNL A   1      41.184  21.930  28.455  1.00  0.00     0.028 H 
BRANCH  41  44
ATOM     44  C   UNL A   1      41.991  20.919  26.800  1.00  0.00    -0.052 C 
ATOM     45  H   UNL A   1      42.740  20.636  27.510  1.00  0.00     0.027 H 
ATOM     46  H   UNL A   1      42.334  21.678  26.129  1.00  0.00     0.027 H 
BRANCH  44  47
ATOM     47  C   UNL A   1      41.638  19.692  25.953  1.00  0.00    -0.052 C 
ATOM     48  H   UNL A   1      41.777  19.950  24.924  1.00  0.00     0.027 H 
ATOM     49  H   UNL A   1      40.627  19.444  26.199  1.00  0.00     0.027 H 
BRANCH  47  50
ATOM     50  C   UNL A   1      42.468  18.436  26.245  1.00  0.00    -0.036 C 
ATOM     51  H   UNL A   1      42.200  17.686  25.530  1.00  0.00     0.028 H 
ATOM     52  H   UNL A   1      42.247  18.152  27.253  1.00  0.00     0.028 H 
BRANCH  50  53
ATOM     53  C   UNL A   1      43.980  18.644  26.174  1.00  0.00     0.018 C 
ATOM     54  H   UNL A   1      44.464  17.873  26.735  1.00  0.00     0.049 H 
ATOM     55  H   UNL A   1      44.206  19.608  26.579  1.00  0.00     0.049 H 
BRANCH  53  56
ATOM     56  N   UNL A   1      44.455  18.601  24.801  1.00  0.00    -0.352 N 
ATOM     57  C   UNL A   1      44.692  19.627  23.926  1.00  0.00     0.251 C 
ATOM     58  H   UNL A   1      44.633  17.699  24.447  1.00  0.00     0.163 HD
ATOM     59  O   UNL A   1      44.777  19.406  22.722  1.00  0.00    -0.269 OA
BRANCH  57  60
ATOM     60  C   UNL A   1      44.851  21.000  24.436  1.00  0.00     0.039 A 
ATOM     61  C   UNL A   1      45.513  21.202  25.650  1.00  0.00    -0.049 A 
ATOM     62  C   UNL A   1      44.306  22.082  23.739  1.00  0.00    -0.049 A 
ATOM     63  C   UNL A   1      45.665  22.496  26.143  1.00  0.00    -0.053 A 
ATOM     64  H   UNL A   1      45.886  20.397  26.177  1.00  0.00     0.063 H 
ATOM     65  C   UNL A   1      44.524  23.378  24.193  1.00  0.00    -0.053 A 
ATOM     66  H   UNL A   1      43.744  21.920  22.890  1.00  0.00     0.063 H 
ATOM     67  C   UNL A   1      45.194  23.595  25.406  1.00  0.00    -0.014 A 
ATOM     68  H   UNL A   1      46.126  22.649  27.054  1.00  0.00     0.063 H 
ATOM     69  H   UNL A   1      44.193  24.181  23.637  1.00  0.00     0.063 H 
BRANCH  67  70
ATOM     70  C   UNL A   1      45.381  24.983  25.895  1.00  0.00     0.031 A 
ATOM     71  C   UNL A   1      46.741  25.619  25.852  1.00  0.00     0.074 A 
ATOM     72  C   UNL A   1      44.338  25.642  26.433  1.00  0.00     0.049 A 
ATOM     73  N   UNL A   1      47.121  26.792  26.291  1.00  0.00    -0.248 NA
ATOM     74  C   UNL A   1      47.826  24.819  25.263  1.00  0.00    -0.034 C 
ATOM     75  C   UNL A   1      42.984  25.106  26.573  1.00  0.00    -0.036 A 
ATOM     76  N   UNL A   1      44.257  26.899  26.974  1.00  0.00    -0.354 N 
ATOM     77  C   UNL A   1      48.485  26.866  26.038  1.00  0.00     0.074 A 
ATOM     78  C   UNL A   1      48.879  25.597  25.467  1.00  0.00    -0.034 C 
ATOM     79  H   UNL A   1      47.780  23.893  24.808  1.00  0.00     0.065 H 
ATOM     80  C   UNL A   1      42.203  26.033  27.148  1.00  0.00    -0.036 A 
ATOM     81  H   UNL A   1      42.678  24.165  26.278  1.00  0.00     0.065 H 
ATOM     82  C   UNL A   1      43.008  27.212  27.451  1.00  0.00     0.049 A 
ATOM     83  H   UNL A   1      45.021  27.518  27.016  1.00  0.00     0.167 HD
ATOM     84  C   UNL A   1      49.326  27.908  26.239  1.00  0.00     0.037 A 
ATOM     85  H   UNL A   1      49.852  25.332  25.248  1.00  0.00     0.065 H 
ATOM     86  H   UNL A   1      41.195  25.929  27.345  1.00  0.00     0.065 H 
ATOM     87  C   UNL A   1      42.567  28.321  28.072  1.00  0.00     0.037 A 
ATOM     88  C   UNL A   1      48.922  29.172  26.800  1.00  0.00     0.049 A 
ATOM     89  C   UNL A   1      43.522  29.461  28.297  1.00  0.00     0.074 A 
ATOM     90  C   UNL A   1      49.684  30.309  27.005  1.00  0.00    -0.036 A 
ATOM     91  N   UNL A   1      47.642  29.461  27.252  1.00  0.00    -0.354 N 
ATOM     92  N   UNL A   1      44.794  29.548  27.991  1.00  0.00    -0.248 NA
ATOM     93  C   UNL A   1      42.978  30.663  28.942  1.00  0.00    -0.034 C 
ATOM     94  C   UNL A   1      48.877  31.269  27.625  1.00  0.00    -0.036 A 
ATOM     95  H   UNL A   1      50.675  30.429  26.744  1.00  0.00     0.065 H 
ATOM     96  C   UNL A   1      47.598  30.752  27.755  1.00  0.00     0.049 A 
ATOM     97  H   UNL A   1      46.879  28.841  27.220  1.00  0.00     0.167 HD
ATOM     98  C   UNL A   1      45.197  30.817  28.382  1.00  0.00     0.074 A 
ATOM     99  C   UNL A   1      44.028  31.473  28.932  1.00  0.00    -0.034 C 
ATOM    100  H   UNL A   1      42.029  30.833  29.309  1.00  0.00     0.065 H 
ATOM    101  H   UNL A   1      49.184  32.204  27.935  1.00  0.00     0.065 H 
ATOM    102  C   UNL A   1      46.424  31.389  28.296  1.00  0.00     0.037 A 
ATOM    103  H   UNL A   1      44.014  32.447  29.272  1.00  0.00     0.065 H 
BRANCH  84 104
ATOM    104  C   UNL A   1      50.764  27.723  25.848  1.00  0.00     0.064 A 
ATOM    105  C   UNL A   1      51.742  27.363  26.789  1.00  0.00     0.173 A 
ATOM    106  C   UNL A   1      51.169  27.885  24.514  1.00  0.00     0.173 A 
ATOM    107  F   UNL A   1      51.412  27.206  28.079  1.00  0.00    -0.203 F 
ATOM    108  C   UNL A   1      53.075  27.208  26.417  1.00  0.00     0.198 A 
ATOM    109  C   UNL A   1      52.497  27.696  24.139  1.00  0.00     0.198 A 
ATOM    110  F   UNL A   1      50.276  28.223  23.571  1.00  0.00    -0.203 F 
ATOM    111  F   UNL A   1      53.999  26.922  27.344  1.00  0.00    -0.200 F 
ATOM    112  C   UNL A   1      53.450  27.369  25.092  1.00  0.00     0.200 A 
ATOM    113  F   UNL A   1      52.856  27.837  22.856  1.00  0.00    -0.200 F 
ATOM    114  F   UNL A   1      54.733  27.216  24.733  1.00  0.00    -0.200 F 
ENDBRANCH  84 104
BRANCH  87 115
ATOM    115  C   UNL A   1      41.149  28.409  28.508  1.00  0.00     0.064 A 
ATOM    116  C   UNL A   1      40.161  28.917  27.654  1.00  0.00     0.173 A 
ATOM    117  C   UNL A   1      40.751  27.976  29.782  1.00  0.00     0.173 A 
ATOM    118  F   UNL A   1      40.495  29.359  26.433  1.00  0.00    -0.203 F 
ATOM    119  C   UNL A   1      38.833  29.009  28.065  1.00  0.00     0.198 A 
ATOM    120  C   UNL A   1      39.417  28.041  30.180  1.00  0.00     0.198 A 
ATOM    121  F   UNL A   1      41.656  27.473  30.633  1.00  0.00    -0.203 F 
ATOM    122  F   UNL A   1      37.916  29.540  27.244  1.00  0.00    -0.200 F 
ATOM    123  C   UNL A   1      38.461  28.564  29.325  1.00  0.00     0.200 A 
ATOM    124  F   UNL A   1      39.059  27.592  31.390  1.00  0.00    -0.200 F 
ATOM    125  F   UNL A   1      37.182  28.646  29.715  1.00  0.00    -0.200 F 
ENDBRANCH  87 115
BRANCH 102 126
ATOM    126  C   UNL A   1      46.558  32.805  28.777  1.00  0.00     0.064 A 
ATOM    127  C   UNL A   1      46.882  33.104  30.109  1.00  0.00     0.173 A 
ATOM    128  C   UNL A   1      46.396  33.875  27.884  1.00  0.00     0.173 A 
ATOM    129  F   UNL A   1      47.031  32.117  31.006  1.00  0.00    -0.203 F 
ATOM    130  C   UNL A   1      47.013  34.423  30.534  1.00  0.00     0.198 A 
ATOM    131  C   UNL A   1      46.561  35.192  28.306  1.00  0.00     0.198 A 
ATOM    132  F   UNL A   1      46.092  33.644  26.599  1.00  0.00    -0.203 F 
ATOM    133  F   UNL A   1      47.273  34.688  31.822  1.00  0.00    -0.200 F 
ATOM    134  C   UNL A   1      46.861  35.465  29.631  1.00  0.00     0.200 A 
ATOM    135  F   UNL A   1      46.428  36.195  27.428  1.00  0.00    -0.200 F 
ATOM    136  F   UNL A   1      46.996  36.734  30.041  1.00  0.00    -0.200 F 
ENDBRANCH 102 126
ENDBRANCH  67  70
ENDBRANCH  57  60
ENDBRANCH  53  56
ENDBRANCH  50  53
ENDBRANCH  47  50
ENDBRANCH  44  47
ENDBRANCH  41  44
ENDBRANCH  38  41
ENDBRANCH   3  38
TORSDOF 22
ENDMDL
MODEL 5
REMARK VINA RESULT:     -10.0      5.367     10.776
REMARK SMILES CC(=O)Oc1ccccc1SCCCCCC(=O)NCCCCCCNC(=O)c1ccc(-c2c3nc(c(-c4c(F)c(F)c(F)c(F)c4F)c4ccc([nH]4)c(-c4c(F)c(F)c(F)c(F)c4F)c4nc(c(-c5c(F)c(F)c(F)c(F)c5F)c5ccc2[nH]5)C=C4)C=C3)cc1
REMARK SMILES IDX 17 1 18 2 19 3 16 5 15 8 14 11 13 14 12 17 11 20 10 21 5 22
REMARK SMILES IDX 6 23 7 24 9 26 8 27 4 31 2 32 3 33 1 34 20 38 21 41 22 44
REMARK SMILES IDX 23 47 24 50 25 53 26 56 27 57 28 59 29 60 30 61 91 62 31 63
REMARK SMILES IDX 90 65 32 67 33 70 34 71 84 72 35 73 89 74 83 75 85 76 36 77
REMARK SMILES IDX 88 78 82 80 81 82 37 84 69 87 49 88 68 89 50 90 53 91 67 92
REMARK SMILES IDX 86 93 51 94 52 96 66 98 87 99 54 102 38 104 39 105 47 106
REMARK SMILES IDX 40 107 41 108 45 109 48 110 42 111 43 112 46 113 44 114
REMARK SMILES IDX 70 115 71 116 79 117 72 118 73 119 77 120 80 121 74 122
REMARK SMILES IDX 75 123 78 124 76 125 55 126 56 127 64 128 57 129 58 130
REMARK SMILES IDX 62 131 65 132 59 133 60 134 63 135 61 136
REMARK H PARENT 19 4 16 6 16 7 15 9 15 10 14 12 14 13 13 15 13 16 12 18 12 19
REMARK H PARENT 6 25 7 28 9 29 8 30 1 35 1 36 1 37 20 39 20 40 21 42 21 43
REMARK H PARENT 22 45 22 46 23 48 23 49 24 51 24 52 25 54 25 55 26 58 30 64
REMARK H PARENT 91 66 31 68 90 69 89 79 83 81 85 83 88 85 82 86 50 95 53 97
REMARK H PARENT 86 100 51 101 87 103
REMARK Flexibility Score: inf
ROOT
ATOM      1  C   UNL A   1      33.039  21.856  26.889  1.00  0.00     0.219 C 
ATOM      2  O   UNL A   1      33.633  22.471  27.775  1.00  0.00    -0.275 OA
ATOM      3  N   UNL A   1      33.461  20.606  26.560  1.00  0.00    -0.356 N 
ATOM      4  H   UNL A   1      34.165  20.227  27.132  1.00  0.00     0.163 HD
ENDROOT
BRANCH   1   5
ATOM      5  C   UNL A   1      31.840  22.454  26.184  1.00  0.00     0.026 C 
ATOM      6  H   UNL A   1      32.140  22.744  25.199  1.00  0.00     0.037 H 
ATOM      7  H   UNL A   1      31.078  21.702  26.180  1.00  0.00     0.037 H 
BRANCH   5   8
ATOM      8  C   UNL A   1      31.244  23.677  26.884  1.00  0.00    -0.044 C 
ATOM      9  H   UNL A   1      30.439  23.324  27.493  1.00  0.00     0.027 H 
ATOM     10  H   UNL A   1      32.085  24.109  27.385  1.00  0.00     0.027 H 
BRANCH   8  11
ATOM     11  C   UNL A   1      30.688  24.847  26.045  1.00  0.00    -0.052 C 
ATOM     12  H   UNL A   1      30.803  24.575  25.016  1.00  0.00     0.027 H 
ATOM     13  H   UNL A   1      29.689  24.964  26.409  1.00  0.00     0.027 H 
BRANCH  11  14
ATOM     14  C   UNL A   1      31.291  26.248  26.203  1.00  0.00    -0.044 C 
ATOM     15  H   UNL A   1      30.548  26.823  26.715  1.00  0.00     0.028 H 
ATOM     16  H   UNL A   1      32.227  26.007  26.661  1.00  0.00     0.028 H 
BRANCH  14  17
ATOM     17  C   UNL A   1      31.766  27.134  25.038  1.00  0.00    -0.002 C 
ATOM     18  H   UNL A   1      30.966  27.099  24.328  1.00  0.00     0.038 H 
ATOM     19  H   UNL A   1      32.044  28.002  25.599  1.00  0.00     0.038 H 
BRANCH  17  20
ATOM     20  S   UNL A   1      33.275  26.962  24.037  1.00  0.00    -0.122 SA
BRANCH  20  21
ATOM     21  C   UNL A   1      33.349  25.291  23.446  1.00  0.00     0.050 A 
ATOM     22  C   UNL A   1      34.286  24.286  23.706  1.00  0.00     0.144 A 
ATOM     23  C   UNL A   1      34.001  22.945  23.386  1.00  0.00    -0.018 A 
ATOM     24  C   UNL A   1      32.808  22.603  22.752  1.00  0.00    -0.058 A 
ATOM     25  H   UNL A   1      34.683  22.208  23.626  1.00  0.00     0.066 H 
ATOM     26  C   UNL A   1      32.197  24.929  22.715  1.00  0.00    -0.045 A 
ATOM     27  C   UNL A   1      31.918  23.602  22.387  1.00  0.00    -0.061 A 
ATOM     28  H   UNL A   1      32.590  21.613  22.555  1.00  0.00     0.062 H 
ATOM     29  H   UNL A   1      31.542  25.669  22.414  1.00  0.00     0.064 H 
ATOM     30  H   UNL A   1      31.053  23.364  21.875  1.00  0.00     0.062 H 
BRANCH  22  31
ATOM     31  O   UNL A   1      35.430  24.414  24.541  1.00  0.00    -0.426 OA
BRANCH  31  32
ATOM     32  C   UNL A   1      36.551  23.599  24.684  1.00  0.00     0.308 C 
ATOM     33  O   UNL A   1      37.243  23.144  23.793  1.00  0.00    -0.252 OA
BRANCH  32  34
ATOM     34  C   UNL A   1      36.770  23.390  26.161  1.00  0.00     0.034 C 
ATOM     35  H   UNL A   1      36.265  22.501  26.475  1.00  0.00     0.035 H 
ATOM     36  H   UNL A   1      36.385  24.230  26.702  1.00  0.00     0.035 H 
ATOM     37  H   UNL A   1      37.819  23.292  26.355  1.00  0.00     0.035 H 
ENDBRANCH  32  34
ENDBRANCH  31  32
ENDBRANCH  22  31
ENDBRANCH  20  21
ENDBRANCH  17  20
ENDBRANCH  14  17
ENDBRANCH  11  14
ENDBRANCH   8  11
ENDBRANCH   5   8
ENDBRANCH   1   5
BRANCH   3  38
ATOM     38  C   UNL A   1      33.009  19.763  25.478  1.00  0.00     0.017 C 
ATOM     39  H   UNL A   1      32.286  20.292  24.895  1.00  0.00     0.049 H 
ATOM     40  H   UNL A   1      32.570  18.876  25.887  1.00  0.00     0.049 H 
BRANCH  38  41
ATOM     41  C   UNL A   1      34.186  19.372  24.588  1.00  0.00    -0.036 C 
ATOM     42  H   UNL A   1      33.944  19.624  23.577  1.00  0.00     0.028 H 
ATOM     43  H   UNL A   1      34.344  18.322  24.720  1.00  0.00     0.028 H 
BRANCH  41  44
ATOM     44  C   UNL A   1      35.488  20.068  24.958  1.00  0.00    -0.052 C 
ATOM     45  H   UNL A   1      35.387  20.473  25.943  1.00  0.00     0.027 H 
ATOM     46  H   UNL A   1      35.659  20.827  24.224  1.00  0.00     0.027 H 
BRANCH  44  47
ATOM     47  C   UNL A   1      36.703  19.135  24.938  1.00  0.00    -0.052 C 
ATOM     48  H   UNL A   1      36.534  18.388  24.191  1.00  0.00     0.027 H 
ATOM     49  H   UNL A   1      36.788  18.738  25.928  1.00  0.00     0.027 H 
BRANCH  47  50
ATOM     50  C   UNL A   1      38.044  19.816  24.636  1.00  0.00    -0.036 C 
ATOM     51  H   UNL A   1      37.844  20.731  24.118  1.00  0.00     0.028 H 
ATOM     52  H   UNL A   1      38.613  19.121  24.055  1.00  0.00     0.028 H 
BRANCH  50  53
ATOM     53  C   UNL A   1      38.882  20.140  25.871  1.00  0.00     0.018 C 
ATOM     54  H   UNL A   1      38.260  20.082  26.739  1.00  0.00     0.049 H 
ATOM     55  H   UNL A   1      39.283  21.126  25.756  1.00  0.00     0.049 H 
BRANCH  53  56
ATOM     56  N   UNL A   1      39.989  19.209  26.017  1.00  0.00    -0.352 N 
ATOM     57  C   UNL A   1      41.333  19.456  26.103  1.00  0.00     0.251 C 
ATOM     58  H   UNL A   1      39.734  18.259  26.060  1.00  0.00     0.163 HD
ATOM     59  O   UNL A   1      42.141  18.556  25.899  1.00  0.00    -0.269 OA
BRANCH  57  60
ATOM     60  C   UNL A   1      41.806  20.808  26.448  1.00  0.00     0.039 A 
ATOM     61  C   UNL A   1      42.109  21.103  27.780  1.00  0.00    -0.049 A 
ATOM     62  C   UNL A   1      41.907  21.796  25.464  1.00  0.00    -0.049 A 
ATOM     63  C   UNL A   1      42.554  22.381  28.117  1.00  0.00    -0.053 A 
ATOM     64  H   UNL A   1      42.003  20.380  28.508  1.00  0.00     0.063 H 
ATOM     65  C   UNL A   1      42.422  23.045  25.788  1.00  0.00    -0.053 A 
ATOM     66  H   UNL A   1      41.599  21.598  24.499  1.00  0.00     0.063 H 
ATOM     67  C   UNL A   1      42.737  23.353  27.120  1.00  0.00    -0.014 A 
ATOM     68  H   UNL A   1      42.749  22.613  29.103  1.00  0.00     0.063 H 
ATOM     69  H   UNL A   1      42.573  23.748  25.048  1.00  0.00     0.063 H 
BRANCH  67  70
ATOM     70  C   UNL A   1      43.248  24.705  27.453  1.00  0.00     0.031 A 
ATOM     71  C   UNL A   1      42.324  25.737  28.035  1.00  0.00     0.074 A 
ATOM     72  C   UNL A   1      44.527  25.017  27.173  1.00  0.00     0.049 A 
ATOM     73  N   UNL A   1      42.562  26.989  28.330  1.00  0.00    -0.248 NA
ATOM     74  C   UNL A   1      40.939  25.312  28.292  1.00  0.00    -0.034 C 
ATOM     75  C   UNL A   1      45.502  24.112  26.562  1.00  0.00    -0.036 A 
ATOM     76  N   UNL A   1      45.222  26.185  27.353  1.00  0.00    -0.354 N 
ATOM     77  C   UNL A   1      41.359  27.501  28.799  1.00  0.00     0.074 A 
ATOM     78  C   UNL A   1      40.377  26.444  28.689  1.00  0.00    -0.034 C 
ATOM     79  H   UNL A   1      40.515  24.377  28.190  1.00  0.00     0.065 H 
ATOM     80  C   UNL A   1      46.672  24.753  26.431  1.00  0.00    -0.036 A 
ATOM     81  H   UNL A   1      45.317  23.138  26.277  1.00  0.00     0.065 H 
ATOM     82  C   UNL A   1      46.522  26.123  26.913  1.00  0.00     0.049 A 
ATOM     83  H   UNL A   1      44.828  26.990  27.758  1.00  0.00     0.167 HD
ATOM     84  C   UNL A   1      41.104  28.733  29.302  1.00  0.00     0.037 A 
ATOM     85  H   UNL A   1      39.372  26.558  28.893  1.00  0.00     0.065 H 
ATOM     86  H   UNL A   1      47.541  24.344  26.051  1.00  0.00     0.065 H 
ATOM     87  C   UNL A   1      47.479  27.069  26.891  1.00  0.00     0.037 A 
ATOM     88  C   UNL A   1      42.090  29.775  29.417  1.00  0.00     0.049 A 
ATOM     89  C   UNL A   1      47.169  28.434  27.442  1.00  0.00     0.074 A 
ATOM     90  C   UNL A   1      41.949  31.044  29.952  1.00  0.00    -0.036 A 
ATOM     91  N   UNL A   1      43.404  29.670  28.980  1.00  0.00    -0.354 N 
ATOM     92  N   UNL A   1      46.048  28.888  27.948  1.00  0.00    -0.248 NA
ATOM     93  C   UNL A   1      48.261  29.416  27.431  1.00  0.00    -0.034 C 
ATOM     94  C   UNL A   1      43.163  31.722  29.795  1.00  0.00    -0.036 A 
ATOM     95  H   UNL A   1      41.096  31.423  30.391  1.00  0.00     0.065 H 
ATOM     96  C   UNL A   1      44.078  30.858  29.215  1.00  0.00     0.049 A 
ATOM     97  H   UNL A   1      43.799  28.869  28.565  1.00  0.00     0.167 HD
ATOM     98  C   UNL A   1      46.303  30.195  28.337  1.00  0.00     0.074 A 
ATOM     99  C   UNL A   1      47.694  30.456  28.025  1.00  0.00    -0.034 C 
ATOM    100  H   UNL A   1      49.219  29.321  27.058  1.00  0.00     0.065 H 
ATOM    101  H   UNL A   1      43.345  32.701  30.066  1.00  0.00     0.065 H 
ATOM    102  C   UNL A   1      45.464  31.099  28.900  1.00  0.00     0.037 A 
ATOM    103  H   UNL A   1      48.181  31.341  28.238  1.00  0.00     0.065 H 
BRANCH  84 104
ATOM    104  C   UNL A   1      39.704  29.015  29.766  1.00  0.00     0.064 A 
ATOM    105  C   UNL A   1      39.312  28.796  31.096  1.00  0.00     0.173 A 
ATOM    106  C   UNL A   1      38.746  29.529  28.879  1.00  0.00     0.173 A 
ATOM    107  F   UNL A   1      40.184  28.295  31.984  1.00  0.00    -0.203 F 
ATOM    108  C   UNL A   1      38.007  29.047  31.511  1.00  0.00     0.198 A 
ATOM    109  C   UNL A   1      37.451  29.811  29.306  1.00  0.00     0.198 A 
ATOM    110  F   UNL A   1      39.066  29.763  27.597  1.00  0.00    -0.203 F 
ATOM    111  F   UNL A   1      37.642  28.774  32.771  1.00  0.00    -0.200 F 
ATOM    112  C   UNL A   1      37.079  29.560  30.618  1.00  0.00     0.200 A 
ATOM    113  F   UNL A   1      36.559  30.321  28.445  1.00  0.00    -0.200 F 
ATOM    114  F   UNL A   1      35.824  29.805  31.019  1.00  0.00    -0.200 F 
ENDBRANCH  84 104
BRANCH  87 115
ATOM    115  C   UNL A   1      48.822  26.748  26.342  1.00  0.00     0.064 A 
ATOM    116  C   UNL A   1      49.810  26.166  27.147  1.00  0.00     0.173 A 
ATOM    117  C   UNL A   1      49.141  27.005  25.001  1.00  0.00     0.173 A 
ATOM    118  F   UNL A   1      49.559  25.917  28.441  1.00  0.00    -0.203 F 
ATOM    119  C   UNL A   1      51.074  25.874  26.637  1.00  0.00     0.198 A 
ATOM    120  C   UNL A   1      50.394  26.684  24.484  1.00  0.00     0.198 A 
ATOM    121  F   UNL A   1      48.227  27.552  24.186  1.00  0.00    -0.203 F 
ATOM    122  F   UNL A   1      52.015  25.359  27.441  1.00  0.00    -0.200 F 
ATOM    123  C   UNL A   1      51.362  26.126  25.304  1.00  0.00     0.200 A 
ATOM    124  F   UNL A   1      50.662  26.911  23.192  1.00  0.00    -0.200 F 
ATOM    125  F   UNL A   1      52.575  25.837  24.813  1.00  0.00    -0.200 F 
ENDBRANCH  87 115
BRANCH 102 126
ATOM    126  C   UNL A   1      46.034  32.445  29.246  1.00  0.00     0.064 A 
ATOM    127  C   UNL A   1      45.977  33.522  28.350  1.00  0.00     0.173 A 
ATOM    128  C   UNL A   1      46.610  32.667  30.506  1.00  0.00     0.173 A 
ATOM    129  F   UNL A   1      45.450  33.357  27.127  1.00  0.00    -0.203 F 
ATOM    130  C   UNL A   1      46.501  34.766  28.693  1.00  0.00     0.198 A 
ATOM    131  C   UNL A   1      47.103  33.920  30.857  1.00  0.00     0.198 A 
ATOM    132  F   UNL A   1      46.684  31.672  31.402  1.00  0.00    -0.203 F 
ATOM    133  F   UNL A   1      46.482  35.768  27.803  1.00  0.00    -0.200 F 
ATOM    134  C   UNL A   1      47.055  34.967  29.948  1.00  0.00     0.200 A 
ATOM    135  F   UNL A   1      47.625  34.116  32.076  1.00  0.00    -0.200 F 
ATOM    136  F   UNL A   1      47.552  36.167  30.279  1.00  0.00    -0.200 F 
ENDBRANCH 102 126
ENDBRANCH  67  70
ENDBRANCH  57  60
ENDBRANCH  53  56
ENDBRANCH  50  53
ENDBRANCH  47  50
ENDBRANCH  44  47
ENDBRANCH  41  44
ENDBRANCH  38  41
ENDBRANCH   3  38
TORSDOF 22
ENDMDL
MODEL 6
REMARK VINA RESULT:     -10.0      6.347     11.105
REMARK SMILES CC(=O)Oc1ccccc1SCCCCCC(=O)NCCCCCCNC(=O)c1ccc(-c2c3nc(c(-c4c(F)c(F)c(F)c(F)c4F)c4ccc([nH]4)c(-c4c(F)c(F)c(F)c(F)c4F)c4nc(c(-c5c(F)c(F)c(F)c(F)c5F)c5ccc2[nH]5)C=C4)C=C3)cc1
REMARK SMILES IDX 17 1 18 2 19 3 16 5 15 8 14 11 13 14 12 17 11 20 10 21 5 22
REMARK SMILES IDX 6 23 7 24 9 26 8 27 4 31 2 32 3 33 1 34 20 38 21 41 22 44
REMARK SMILES IDX 23 47 24 50 25 53 26 56 27 57 28 59 29 60 30 61 91 62 31 63
REMARK SMILES IDX 90 65 32 67 33 70 34 71 84 72 35 73 89 74 83 75 85 76 36 77
REMARK SMILES IDX 88 78 82 80 81 82 37 84 69 87 49 88 68 89 50 90 53 91 67 92
REMARK SMILES IDX 86 93 51 94 52 96 66 98 87 99 54 102 38 104 39 105 47 106
REMARK SMILES IDX 40 107 41 108 45 109 48 110 42 111 43 112 46 113 44 114
REMARK SMILES IDX 70 115 71 116 79 117 72 118 73 119 77 120 80 121 74 122
REMARK SMILES IDX 75 123 78 124 76 125 55 126 56 127 64 128 57 129 58 130
REMARK SMILES IDX 62 131 65 132 59 133 60 134 63 135 61 136
REMARK H PARENT 19 4 16 6 16 7 15 9 15 10 14 12 14 13 13 15 13 16 12 18 12 19
REMARK H PARENT 6 25 7 28 9 29 8 30 1 35 1 36 1 37 20 39 20 40 21 42 21 43
REMARK H PARENT 22 45 22 46 23 48 23 49 24 51 24 52 25 54 25 55 26 58 30 64
REMARK H PARENT 91 66 31 68 90 69 89 79 83 81 85 83 88 85 82 86 50 95 53 97
REMARK H PARENT 86 100 51 101 87 103
REMARK Flexibility Score: inf
ROOT
ATOM      1  C   UNL A   1      37.892  22.249  25.296  1.00  0.00     0.219 C 
ATOM      2  O   UNL A   1      37.342  21.527  24.463  1.00  0.00    -0.275 OA
ATOM      3  N   UNL A   1      39.122  21.900  25.757  1.00  0.00    -0.356 N 
ATOM      4  H   UNL A   1      39.545  21.131  25.312  1.00  0.00     0.163 HD
ENDROOT
BRANCH   1   5
ATOM      5  C   UNL A   1      37.237  23.521  25.789  1.00  0.00     0.026 C 
ATOM      6  H   UNL A   1      37.603  23.727  26.773  1.00  0.00     0.037 H 
ATOM      7  H   UNL A   1      37.486  24.289  25.086  1.00  0.00     0.037 H 
BRANCH   5   8
ATOM      8  C   UNL A   1      35.709  23.461  25.847  1.00  0.00    -0.044 C 
ATOM      9  H   UNL A   1      35.426  22.474  25.546  1.00  0.00     0.027 H 
ATOM     10  H   UNL A   1      35.489  23.748  26.854  1.00  0.00     0.027 H 
BRANCH   8  11
ATOM     11  C   UNL A   1      34.869  24.443  25.003  1.00  0.00    -0.052 C 
ATOM     12  H   UNL A   1      35.495  24.780  24.204  1.00  0.00     0.027 H 
ATOM     13  H   UNL A   1      34.006  23.869  24.737  1.00  0.00     0.027 H 
BRANCH  11  14
ATOM     14  C   UNL A   1      34.276  25.693  25.662  1.00  0.00    -0.044 C 
ATOM     15  H   UNL A   1      33.584  25.331  26.394  1.00  0.00     0.028 H 
ATOM     16  H   UNL A   1      35.169  26.208  25.944  1.00  0.00     0.028 H 
BRANCH  14  17
ATOM     17  C   UNL A   1      33.532  26.810  24.909  1.00  0.00    -0.002 C 
ATOM     18  H   UNL A   1      32.647  26.982  25.485  1.00  0.00     0.038 H 
ATOM     19  H   UNL A   1      34.340  27.505  24.812  1.00  0.00     0.038 H 
BRANCH  17  20
ATOM     20  S   UNL A   1      32.962  26.815  23.181  1.00  0.00    -0.122 SA
BRANCH  20  21
ATOM     21  C   UNL A   1      31.189  26.897  23.193  1.00  0.00     0.050 A 
ATOM     22  C   UNL A   1      30.256  26.075  23.831  1.00  0.00     0.144 A 
ATOM     23  C   UNL A   1      28.917  26.485  23.966  1.00  0.00    -0.018 A 
ATOM     24  C   UNL A   1      28.484  27.690  23.415  1.00  0.00    -0.058 A 
ATOM     25  H   UNL A   1      28.250  25.889  24.479  1.00  0.00     0.066 H 
ATOM     26  C   UNL A   1      30.702  28.060  22.560  1.00  0.00    -0.045 A 
ATOM     27  C   UNL A   1      29.372  28.465  22.683  1.00  0.00    -0.061 A 
ATOM     28  H   UNL A   1      27.510  28.003  23.550  1.00  0.00     0.062 H 
ATOM     29  H   UNL A   1      31.349  28.629  21.990  1.00  0.00     0.064 H 
ATOM     30  H   UNL A   1      29.050  29.336  22.231  1.00  0.00     0.062 H 
BRANCH  22  31
ATOM     31  O   UNL A   1      30.561  24.945  24.640  1.00  0.00    -0.426 OA
BRANCH  31  32
ATOM     32  C   UNL A   1      31.009  23.671  24.297  1.00  0.00     0.308 C 
ATOM     33  O   UNL A   1      31.356  23.289  23.195  1.00  0.00    -0.252 OA
BRANCH  32  34
ATOM     34  C   UNL A   1      31.005  22.838  25.554  1.00  0.00     0.034 C 
ATOM     35  H   UNL A   1      31.353  21.852  25.330  1.00  0.00     0.035 H 
ATOM     36  H   UNL A   1      30.009  22.786  25.944  1.00  0.00     0.035 H 
ATOM     37  H   UNL A   1      31.649  23.289  26.282  1.00  0.00     0.035 H 
ENDBRANCH  32  34
ENDBRANCH  31  32
ENDBRANCH  22  31
ENDBRANCH  20  21
ENDBRANCH  17  20
ENDBRANCH  14  17
ENDBRANCH  11  14
ENDBRANCH   8  11
ENDBRANCH   5   8
ENDBRANCH   1   5
BRANCH   3  38
ATOM     38  C   UNL A   1      39.889  22.512  26.817  1.00  0.00     0.017 C 
ATOM     39  H   UNL A   1      39.221  22.929  27.541  1.00  0.00     0.049 H 
ATOM     40  H   UNL A   1      40.505  23.283  26.402  1.00  0.00     0.049 H 
BRANCH  38  41
ATOM     41  C   UNL A   1      40.779  21.472  27.492  1.00  0.00    -0.036 C 
ATOM     42  H   UNL A   1      40.166  20.652  27.802  1.00  0.00     0.028 H 
ATOM     43  H   UNL A   1      41.259  21.957  28.316  1.00  0.00     0.028 H 
BRANCH  41  44
ATOM     44  C   UNL A   1      41.880  20.934  26.590  1.00  0.00    -0.052 C 
ATOM     45  H   UNL A   1      42.756  20.772  27.183  1.00  0.00     0.027 H 
ATOM     46  H   UNL A   1      42.040  21.660  25.820  1.00  0.00     0.027 H 
BRANCH  44  47
ATOM     47  C   UNL A   1      41.511  19.617  25.900  1.00  0.00    -0.052 C 
ATOM     48  H   UNL A   1      41.584  19.766  24.842  1.00  0.00     0.027 H 
ATOM     49  H   UNL A   1      40.523  19.376  26.230  1.00  0.00     0.027 H 
BRANCH  47  50
ATOM     50  C   UNL A   1      42.390  18.416  26.272  1.00  0.00    -0.036 C 
ATOM     51  H   UNL A   1      42.167  17.618  25.594  1.00  0.00     0.028 H 
ATOM     52  H   UNL A   1      42.162  18.177  27.290  1.00  0.00     0.028 H 
BRANCH  50  53
ATOM     53  C   UNL A   1      43.892  18.687  26.214  1.00  0.00     0.018 C 
ATOM     54  H   UNL A   1      44.401  17.948  26.796  1.00  0.00     0.049 H 
ATOM     55  H   UNL A   1      44.072  19.667  26.602  1.00  0.00     0.049 H 
BRANCH  53  56
ATOM     56  N   UNL A   1      44.385  18.636  24.847  1.00  0.00    -0.352 N 
ATOM     57  C   UNL A   1      44.640  19.658  23.972  1.00  0.00     0.251 C 
ATOM     58  H   UNL A   1      44.561  17.732  24.498  1.00  0.00     0.163 HD
ATOM     59  O   UNL A   1      44.740  19.432  22.771  1.00  0.00    -0.269 OA
BRANCH  57  60
ATOM     60  C   UNL A   1      44.802  21.031  24.481  1.00  0.00     0.039 A 
ATOM     61  C   UNL A   1      45.481  21.235  25.684  1.00  0.00    -0.049 A 
ATOM     62  C   UNL A   1      44.242  22.112  23.792  1.00  0.00    -0.049 A 
ATOM     63  C   UNL A   1      45.636  22.530  26.176  1.00  0.00    -0.053 A 
ATOM     64  H   UNL A   1      45.865  20.432  26.206  1.00  0.00     0.063 H 
ATOM     65  C   UNL A   1      44.462  23.408  24.243  1.00  0.00    -0.053 A 
ATOM     66  H   UNL A   1      43.668  21.947  22.951  1.00  0.00     0.063 H 
ATOM     67  C   UNL A   1      45.149  23.628  25.446  1.00  0.00    -0.014 A 
ATOM     68  H   UNL A   1      46.110  22.684  27.079  1.00  0.00     0.063 H 
ATOM     69  H   UNL A   1      44.119  24.210  23.692  1.00  0.00     0.063 H 
BRANCH  67  70
ATOM     70  C   UNL A   1      45.339  25.016  25.932  1.00  0.00     0.031 A 
ATOM     71  C   UNL A   1      46.699  25.652  25.884  1.00  0.00     0.074 A 
ATOM     72  C   UNL A   1      44.297  25.676  26.473  1.00  0.00     0.049 A 
ATOM     73  N   UNL A   1      47.080  26.825  26.321  1.00  0.00    -0.248 NA
ATOM     74  C   UNL A   1      47.781  24.850  25.293  1.00  0.00    -0.034 C 
ATOM     75  C   UNL A   1      42.943  25.140  26.618  1.00  0.00    -0.036 A 
ATOM     76  N   UNL A   1      44.218  26.934  27.012  1.00  0.00    -0.354 N 
ATOM     77  C   UNL A   1      48.443  26.898  26.063  1.00  0.00     0.074 A 
ATOM     78  C   UNL A   1      48.835  25.628  25.493  1.00  0.00    -0.034 C 
ATOM     79  H   UNL A   1      47.733  23.924  24.840  1.00  0.00     0.065 H 
ATOM     80  C   UNL A   1      42.164  26.068  27.194  1.00  0.00    -0.036 A 
ATOM     81  H   UNL A   1      42.636  24.199  26.325  1.00  0.00     0.065 H 
ATOM     82  C   UNL A   1      42.971  27.248  27.493  1.00  0.00     0.049 A 
ATOM     83  H   UNL A   1      44.983  27.552  27.051  1.00  0.00     0.167 HD
ATOM     84  C   UNL A   1      49.285  27.941  26.261  1.00  0.00     0.037 A 
ATOM     85  H   UNL A   1      49.807  25.363  25.271  1.00  0.00     0.065 H 
ATOM     86  H   UNL A   1      41.157  25.966  27.394  1.00  0.00     0.065 H 
ATOM     87  C   UNL A   1      42.532  28.358  28.114  1.00  0.00     0.037 A 
ATOM     88  C   UNL A   1      48.884  29.205  26.820  1.00  0.00     0.049 A 
ATOM     89  C   UNL A   1      43.489  29.498  28.334  1.00  0.00     0.074 A 
ATOM     90  C   UNL A   1      49.646  30.342  27.022  1.00  0.00    -0.036 A 
ATOM     91  N   UNL A   1      47.605  29.495  27.276  1.00  0.00    -0.354 N 
ATOM     92  N   UNL A   1      44.759  29.584  28.024  1.00  0.00    -0.248 NA
ATOM     93  C   UNL A   1      42.946  30.701  28.980  1.00  0.00    -0.034 C 
ATOM     94  C   UNL A   1      48.842  31.303  27.643  1.00  0.00    -0.036 A 
ATOM     95  H   UNL A   1      50.637  30.461  26.758  1.00  0.00     0.065 H 
ATOM     96  C   UNL A   1      47.563  30.787  27.778  1.00  0.00     0.049 A 
ATOM     97  H   UNL A   1      46.841  28.875  27.248  1.00  0.00     0.167 HD
ATOM     98  C   UNL A   1      45.164  30.853  28.412  1.00  0.00     0.074 A 
ATOM     99  C   UNL A   1      43.997  31.510  28.965  1.00  0.00    -0.034 C 
ATOM    100  H   UNL A   1      41.998  30.871  29.349  1.00  0.00     0.065 H 
ATOM    101  H   UNL A   1      49.150  32.239  27.951  1.00  0.00     0.065 H 
ATOM    102  C   UNL A   1      46.391  31.425  28.322  1.00  0.00     0.037 A 
ATOM    103  H   UNL A   1      43.984  32.485  29.304  1.00  0.00     0.065 H 
BRANCH  84 104
ATOM    104  C   UNL A   1      50.722  27.754  25.865  1.00  0.00     0.064 A 
ATOM    105  C   UNL A   1      51.143  27.902  24.533  1.00  0.00     0.173 A 
ATOM    106  C   UNL A   1      51.695  27.445  26.827  1.00  0.00     0.173 A 
ATOM    107  F   UNL A   1      50.253  28.186  23.571  1.00  0.00    -0.203 F 
ATOM    108  C   UNL A   1      52.475  27.712  24.176  1.00  0.00     0.198 A 
ATOM    109  C   UNL A   1      53.032  27.289  26.471  1.00  0.00     0.198 A 
ATOM    110  F   UNL A   1      51.351  27.298  28.115  1.00  0.00    -0.203 F 
ATOM    111  F   UNL A   1      52.842  27.800  22.890  1.00  0.00    -0.200 F 
ATOM    112  C   UNL A   1      53.419  27.412  25.146  1.00  0.00     0.200 A 
ATOM    113  F   UNL A   1      53.946  27.014  27.412  1.00  0.00    -0.200 F 
ATOM    114  F   UNL A   1      54.703  27.233  24.801  1.00  0.00    -0.200 F 
ENDBRANCH  84 104
BRANCH  87 115
ATOM    115  C   UNL A   1      41.115  28.446  28.554  1.00  0.00     0.064 A 
ATOM    116  C   UNL A   1      40.739  28.079  29.853  1.00  0.00     0.173 A 
ATOM    117  C   UNL A   1      40.112  28.909  27.691  1.00  0.00     0.173 A 
ATOM    118  F   UNL A   1      41.660  27.614  30.710  1.00  0.00    -0.203 F 
ATOM    119  C   UNL A   1      39.410  28.151  30.265  1.00  0.00     0.198 A 
ATOM    120  C   UNL A   1      38.788  29.010  28.113  1.00  0.00     0.198 A 
ATOM    121  F   UNL A   1      40.421  29.283  26.440  1.00  0.00    -0.203 F 
ATOM    122  F   UNL A   1      39.071  27.751  31.499  1.00  0.00    -0.200 F 
ATOM    123  C   UNL A   1      38.436  28.623  29.397  1.00  0.00     0.200 A 
ATOM    124  F   UNL A   1      37.855  29.484  27.278  1.00  0.00    -0.200 F 
ATOM    125  F   UNL A   1      37.160  28.699  29.797  1.00  0.00    -0.200 F 
ENDBRANCH  87 115
BRANCH 102 126
ATOM    126  C   UNL A   1      46.526  32.841  28.801  1.00  0.00     0.064 A 
ATOM    127  C   UNL A   1      46.299  33.933  27.949  1.00  0.00     0.173 A 
ATOM    128  C   UNL A   1      46.850  33.109  30.139  1.00  0.00     0.173 A 
ATOM    129  F   UNL A   1      46.002  33.731  26.657  1.00  0.00    -0.203 F 
ATOM    130  C   UNL A   1      46.419  35.240  28.415  1.00  0.00     0.198 A 
ATOM    131  C   UNL A   1      46.936  34.416  30.609  1.00  0.00     0.198 A 
ATOM    132  F   UNL A   1      47.072  32.101  30.997  1.00  0.00    -0.203 F 
ATOM    133  F   UNL A   1      46.247  36.268  27.572  1.00  0.00    -0.200 F 
ATOM    134  C   UNL A   1      46.728  35.481  29.745  1.00  0.00     0.200 A 
ATOM    135  F   UNL A   1      47.221  34.646  31.898  1.00  0.00    -0.200 F 
ATOM    136  F   UNL A   1      46.834  36.739  30.192  1.00  0.00    -0.200 F 
ENDBRANCH 102 126
ENDBRANCH  67  70
ENDBRANCH  57  60
ENDBRANCH  53  56
ENDBRANCH  50  53
ENDBRANCH  47  50
ENDBRANCH  44  47
ENDBRANCH  41  44
ENDBRANCH  38  41
ENDBRANCH   3  38
TORSDOF 22
ENDMDL
MODEL 7
REMARK VINA RESULT:     -10.0      6.375     11.001
REMARK SMILES CC(=O)Oc1ccccc1SCCCCCC(=O)NCCCCCCNC(=O)c1ccc(-c2c3nc(c(-c4c(F)c(F)c(F)c(F)c4F)c4ccc([nH]4)c(-c4c(F)c(F)c(F)c(F)c4F)c4nc(c(-c5c(F)c(F)c(F)c(F)c5F)c5ccc2[nH]5)C=C4)C=C3)cc1
REMARK SMILES IDX 17 1 18 2 19 3 16 5 15 8 14 11 13 14 12 17 11 20 10 21 5 22
REMARK SMILES IDX 6 23 7 24 9 26 8 27 4 31 2 32 3 33 1 34 20 38 21 41 22 44
REMARK SMILES IDX 23 47 24 50 25 53 26 56 27 57 28 59 29 60 30 61 91 62 31 63
REMARK SMILES IDX 90 65 32 67 33 70 34 71 84 72 35 73 89 74 83 75 85 76 36 77
REMARK SMILES IDX 88 78 82 80 81 82 37 84 69 87 49 88 68 89 50 90 53 91 67 92
REMARK SMILES IDX 86 93 51 94 52 96 66 98 87 99 54 102 38 104 39 105 47 106
REMARK SMILES IDX 40 107 41 108 45 109 48 110 42 111 43 112 46 113 44 114
REMARK SMILES IDX 70 115 71 116 79 117 72 118 73 119 77 120 80 121 74 122
REMARK SMILES IDX 75 123 78 124 76 125 55 126 56 127 64 128 57 129 58 130
REMARK SMILES IDX 62 131 65 132 59 133 60 134 63 135 61 136
REMARK H PARENT 19 4 16 6 16 7 15 9 15 10 14 12 14 13 13 15 13 16 12 18 12 19
REMARK H PARENT 6 25 7 28 9 29 8 30 1 35 1 36 1 37 20 39 20 40 21 42 21 43
REMARK H PARENT 22 45 22 46 23 48 23 49 24 51 24 52 25 54 25 55 26 58 30 64
REMARK H PARENT 91 66 31 68 90 69 89 79 83 81 85 83 88 85 82 86 50 95 53 97
REMARK H PARENT 86 100 51 101 87 103
REMARK Flexibility Score: inf
ROOT
ATOM      1  C   UNL A   1      37.637  21.831  25.343  1.00  0.00     0.219 C 
ATOM      2  O   UNL A   1      36.810  20.953  25.091  1.00  0.00    -0.275 OA
ATOM      3  N   UNL A   1      38.817  21.477  25.918  1.00  0.00    -0.356 N 
ATOM      4  H   UNL A   1      38.979  20.511  26.005  1.00  0.00     0.163 HD
ENDROOT
BRANCH   1   5
ATOM      5  C   UNL A   1      37.372  23.282  25.002  1.00  0.00     0.026 C 
ATOM      6  H   UNL A   1      38.314  23.783  24.916  1.00  0.00     0.037 H 
ATOM      7  H   UNL A   1      36.816  23.287  24.088  1.00  0.00     0.037 H 
BRANCH   5   8
ATOM      8  C   UNL A   1      36.524  24.027  26.035  1.00  0.00    -0.044 C 
ATOM      9  H   UNL A   1      36.525  23.432  26.924  1.00  0.00     0.027 H 
ATOM     10  H   UNL A   1      36.988  24.989  26.088  1.00  0.00     0.027 H 
BRANCH   8  11
ATOM     11  C   UNL A   1      35.049  24.359  25.722  1.00  0.00    -0.052 C 
ATOM     12  H   UNL A   1      34.471  23.504  26.005  1.00  0.00     0.027 H 
ATOM     13  H   UNL A   1      34.876  25.265  26.264  1.00  0.00     0.027 H 
BRANCH  11  14
ATOM     14  C   UNL A   1      34.640  24.717  24.289  1.00  0.00    -0.044 C 
ATOM     15  H   UNL A   1      35.285  25.521  23.999  1.00  0.00     0.028 H 
ATOM     16  H   UNL A   1      34.700  23.757  23.822  1.00  0.00     0.028 H 
BRANCH  14  17
ATOM     17  C   UNL A   1      33.226  25.151  23.864  1.00  0.00    -0.002 C 
ATOM     18  H   UNL A   1      32.845  25.692  24.704  1.00  0.00     0.038 H 
ATOM     19  H   UNL A   1      33.470  25.588  22.917  1.00  0.00     0.038 H 
BRANCH  17  20
ATOM     20  S   UNL A   1      31.841  24.100  23.329  1.00  0.00    -0.122 SA
BRANCH  20  21
ATOM     21  C   UNL A   1      32.218  22.428  23.788  1.00  0.00     0.050 A 
ATOM     22  C   UNL A   1      32.351  21.852  25.055  1.00  0.00     0.144 A 
ATOM     23  C   UNL A   1      32.351  20.453  25.207  1.00  0.00    -0.018 A 
ATOM     24  C   UNL A   1      32.277  19.617  24.094  1.00  0.00    -0.058 A 
ATOM     25  H   UNL A   1      32.404  20.043  26.152  1.00  0.00     0.066 H 
ATOM     26  C   UNL A   1      32.246  21.560  22.676  1.00  0.00    -0.045 A 
ATOM     27  C   UNL A   1      32.257  20.171  22.823  1.00  0.00    -0.061 A 
ATOM     28  H   UNL A   1      32.239  18.593  24.216  1.00  0.00     0.062 H 
ATOM     29  H   UNL A   1      32.259  21.963  21.725  1.00  0.00     0.064 H 
ATOM     30  H   UNL A   1      32.249  19.561  21.991  1.00  0.00     0.062 H 
BRANCH  22  31
ATOM     31  O   UNL A   1      32.205  22.533  26.295  1.00  0.00    -0.426 OA
BRANCH  31  32
ATOM     32  C   UNL A   1      31.255  23.458  26.722  1.00  0.00     0.308 C 
ATOM     33  O   UNL A   1      31.422  24.649  26.901  1.00  0.00    -0.252 OA
BRANCH  32  34
ATOM     34  C   UNL A   1      29.956  22.715  26.910  1.00  0.00     0.034 C 
ATOM     35  H   UNL A   1      29.607  22.852  27.912  1.00  0.00     0.035 H 
ATOM     36  H   UNL A   1      30.111  21.672  26.725  1.00  0.00     0.035 H 
ATOM     37  H   UNL A   1      29.227  23.093  26.223  1.00  0.00     0.035 H 
ENDBRANCH  32  34
ENDBRANCH  31  32
ENDBRANCH  22  31
ENDBRANCH  20  21
ENDBRANCH  17  20
ENDBRANCH  14  17
ENDBRANCH  11  14
ENDBRANCH   8  11
ENDBRANCH   5   8
ENDBRANCH   1   5
BRANCH   3  38
ATOM     38  C   UNL A   1      39.865  22.336  26.417  1.00  0.00     0.017 C 
ATOM     39  H   UNL A   1      39.427  23.156  26.947  1.00  0.00     0.049 H 
ATOM     40  H   UNL A   1      40.441  22.701  25.592  1.00  0.00     0.049 H 
BRANCH  38  41
ATOM     41  C   UNL A   1      40.780  21.558  27.360  1.00  0.00    -0.036 C 
ATOM     42  H   UNL A   1      40.213  20.769  27.807  1.00  0.00     0.028 H 
ATOM     43  H   UNL A   1      41.150  22.254  28.083  1.00  0.00     0.028 H 
BRANCH  41  44
ATOM     44  C   UNL A   1      41.990  20.948  26.668  1.00  0.00    -0.052 C 
ATOM     45  H   UNL A   1      42.745  20.767  27.404  1.00  0.00     0.027 H 
ATOM     46  H   UNL A   1      42.311  21.645  25.922  1.00  0.00     0.027 H 
BRANCH  44  47
ATOM     47  C   UNL A   1      41.682  19.629  25.954  1.00  0.00    -0.052 C 
ATOM     48  H   UNL A   1      41.812  19.784  24.903  1.00  0.00     0.027 H 
ATOM     49  H   UNL A   1      40.679  19.372  26.226  1.00  0.00     0.027 H 
BRANCH  47  50
ATOM     50  C   UNL A   1      42.555  18.440  26.372  1.00  0.00    -0.036 C 
ATOM     51  H   UNL A   1      42.282  17.598  25.770  1.00  0.00     0.028 H 
ATOM     52  H   UNL A   1      42.378  18.284  27.416  1.00  0.00     0.028 H 
BRANCH  50  53
ATOM     53  C   UNL A   1      44.057  18.670  26.216  1.00  0.00     0.018 C 
ATOM     54  H   UNL A   1      44.583  17.922  26.769  1.00  0.00     0.049 H 
ATOM     55  H   UNL A   1      44.288  19.648  26.584  1.00  0.00     0.049 H 
BRANCH  53  56
ATOM     56  N   UNL A   1      44.460  18.599  24.821  1.00  0.00    -0.352 N 
ATOM     57  C   UNL A   1      44.672  19.608  23.920  1.00  0.00     0.251 C 
ATOM     58  H   UNL A   1      44.601  17.689  24.471  1.00  0.00     0.163 HD
ATOM     59  O   UNL A   1      44.691  19.369  22.717  1.00  0.00    -0.269 OA
BRANCH  57  60
ATOM     60  C   UNL A   1      44.884  20.984  24.402  1.00  0.00     0.039 A 
ATOM     61  C   UNL A   1      44.442  22.054  23.619  1.00  0.00    -0.049 A 
ATOM     62  C   UNL A   1      45.560  21.217  25.603  1.00  0.00    -0.049 A 
ATOM     63  C   UNL A   1      44.641  23.360  24.064  1.00  0.00    -0.053 A 
ATOM     64  H   UNL A   1      43.971  21.878  22.718  1.00  0.00     0.063 H 
ATOM     65  C   UNL A   1      45.692  22.516  26.081  1.00  0.00    -0.053 A 
ATOM     66  H   UNL A   1      45.961  20.428  26.132  1.00  0.00     0.063 H 
ATOM     67  C   UNL A   1      45.245  23.599  25.310  1.00  0.00    -0.014 A 
ATOM     68  H   UNL A   1      44.344  24.154  23.477  1.00  0.00     0.063 H 
ATOM     69  H   UNL A   1      46.117  22.683  27.006  1.00  0.00     0.063 H 
BRANCH  67  70
ATOM     70  C   UNL A   1      45.430  24.979  25.819  1.00  0.00     0.031 A 
ATOM     71  C   UNL A   1      46.791  25.616  25.795  1.00  0.00     0.074 A 
ATOM     72  C   UNL A   1      44.382  25.632  26.358  1.00  0.00     0.049 A 
ATOM     73  N   UNL A   1      47.168  26.782  26.253  1.00  0.00    -0.248 NA
ATOM     74  C   UNL A   1      47.879  24.822  25.204  1.00  0.00    -0.034 C 
ATOM     75  C   UNL A   1      43.027  25.095  26.480  1.00  0.00    -0.036 A 
ATOM     76  N   UNL A   1      44.298  26.882  26.914  1.00  0.00    -0.354 N 
ATOM     77  C   UNL A   1      48.533  26.858  26.011  1.00  0.00     0.074 A 
ATOM     78  C   UNL A   1      48.931  25.596  25.427  1.00  0.00    -0.034 C 
ATOM     79  H   UNL A   1      47.836  23.903  24.737  1.00  0.00     0.065 H 
ATOM     80  C   UNL A   1      42.242  26.015  27.061  1.00  0.00    -0.036 A 
ATOM     81  H   UNL A   1      42.723  24.159  26.170  1.00  0.00     0.065 H 
ATOM     82  C   UNL A   1      43.046  27.190  27.386  1.00  0.00     0.049 A 
ATOM     83  H   UNL A   1      45.062  27.500  26.971  1.00  0.00     0.167 HD
ATOM     84  C   UNL A   1      49.373  27.897  26.233  1.00  0.00     0.037 A 
ATOM     85  H   UNL A   1      49.905  25.334  25.212  1.00  0.00     0.065 H 
ATOM     86  H   UNL A   1      41.233  25.910  27.248  1.00  0.00     0.065 H 
ATOM     87  C   UNL A   1      42.600  28.291  28.018  1.00  0.00     0.037 A 
ATOM     88  C   UNL A   1      48.966  29.153  26.807  1.00  0.00     0.049 A 
ATOM     89  C   UNL A   1      43.555  29.428  28.265  1.00  0.00     0.074 A 
ATOM     90  C   UNL A   1      49.727  30.287  27.033  1.00  0.00    -0.036 A 
ATOM     91  N   UNL A   1      47.683  29.438  27.253  1.00  0.00    -0.354 N 
ATOM     92  N   UNL A   1      44.829  29.517  27.970  1.00  0.00    -0.248 NA
ATOM     93  C   UNL A   1      43.006  30.621  28.922  1.00  0.00    -0.034 C 
ATOM     94  C   UNL A   1      48.916  31.239  27.660  1.00  0.00    -0.036 A 
ATOM     95  H   UNL A   1      50.720  30.409  26.782  1.00  0.00     0.065 H 
ATOM     96  C   UNL A   1      47.636  30.722  27.773  1.00  0.00     0.049 A 
ATOM     97  H   UNL A   1      46.919  28.819  27.207  1.00  0.00     0.167 HD
ATOM     98  C   UNL A   1      45.230  30.781  28.381  1.00  0.00     0.074 A 
ATOM     99  C   UNL A   1      44.057  31.430  28.931  1.00  0.00    -0.034 C 
ATOM    100  H   UNL A   1      42.054  30.786  29.283  1.00  0.00     0.065 H 
ATOM    101  H   UNL A   1      49.221  32.170  27.984  1.00  0.00     0.065 H 
ATOM    102  C   UNL A   1      46.458  31.352  28.313  1.00  0.00     0.037 A 
ATOM    103  H   UNL A   1      44.041  32.399  29.284  1.00  0.00     0.065 H 
BRANCH  84 104
ATOM    104  C   UNL A   1      50.814  27.716  25.850  1.00  0.00     0.064 A 
ATOM    105  C   UNL A   1      51.785  27.346  26.795  1.00  0.00     0.173 A 
ATOM    106  C   UNL A   1      51.229  27.891  24.522  1.00  0.00     0.173 A 
ATOM    107  F   UNL A   1      51.445  27.176  28.082  1.00  0.00    -0.203 F 
ATOM    108  C   UNL A   1      53.121  27.195  26.431  1.00  0.00     0.198 A 
ATOM    109  C   UNL A   1      52.560  27.707  24.155  1.00  0.00     0.198 A 
ATOM    110  F   UNL A   1      50.344  28.239  23.576  1.00  0.00    -0.203 F 
ATOM    111  F   UNL A   1      54.038  26.900  27.362  1.00  0.00    -0.200 F 
ATOM    112  C   UNL A   1      53.506  27.369  25.111  1.00  0.00     0.200 A 
ATOM    113  F   UNL A   1      52.929  27.861  22.876  1.00  0.00    -0.200 F 
ATOM    114  F   UNL A   1      54.792  27.220  24.761  1.00  0.00    -0.200 F 
ENDBRANCH  84 104
BRANCH  87 115
ATOM    115  C   UNL A   1      41.179  28.374  28.444  1.00  0.00     0.064 A 
ATOM    116  C   UNL A   1      40.778  27.928  29.711  1.00  0.00     0.173 A 
ATOM    117  C   UNL A   1      40.196  28.908  27.599  1.00  0.00     0.173 A 
ATOM    118  F   UNL A   1      41.679  27.393  30.548  1.00  0.00    -0.203 F 
ATOM    119  C   UNL A   1      39.445  27.995  30.108  1.00  0.00     0.198 A 
ATOM    120  C   UNL A   1      38.867  29.003  28.010  1.00  0.00     0.198 A 
ATOM    121  F   UNL A   1      40.529  29.358  26.380  1.00  0.00    -0.203 F 
ATOM    122  F   UNL A   1      39.082  27.521  31.308  1.00  0.00    -0.200 F 
ATOM    123  C   UNL A   1      38.491  28.539  29.260  1.00  0.00     0.200 A 
ATOM    124  F   UNL A   1      37.954  29.547  27.195  1.00  0.00    -0.200 F 
ATOM    125  F   UNL A   1      37.211  28.610  29.647  1.00  0.00    -0.200 F 
ENDBRANCH  87 115
BRANCH 102 126
ATOM    126  C   UNL A   1      46.589  32.762  28.814  1.00  0.00     0.064 A 
ATOM    127  C   UNL A   1      46.943  33.043  30.142  1.00  0.00     0.173 A 
ATOM    128  C   UNL A   1      46.393  33.844  27.943  1.00  0.00     0.173 A 
ATOM    129  F   UNL A   1      47.126  32.044  31.018  1.00  0.00    -0.203 F 
ATOM    130  C   UNL A   1      47.071  34.357  30.585  1.00  0.00     0.198 A 
ATOM    131  C   UNL A   1      46.554  35.156  28.382  1.00  0.00     0.198 A 
ATOM    132  F   UNL A   1      46.058  33.631  26.662  1.00  0.00    -0.203 F 
ATOM    133  F   UNL A   1      47.362  34.603  31.870  1.00  0.00    -0.200 F 
ATOM    134  C   UNL A   1      46.886  35.411  29.704  1.00  0.00     0.200 A 
ATOM    135  F   UNL A   1      46.389  36.172  27.525  1.00  0.00    -0.200 F 
ATOM    136  F   UNL A   1      47.017  36.674  30.131  1.00  0.00    -0.200 F 
ENDBRANCH 102 126
ENDBRANCH  67  70
ENDBRANCH  57  60
ENDBRANCH  53  56
ENDBRANCH  50  53
ENDBRANCH  47  50
ENDBRANCH  44  47
ENDBRANCH  41  44
ENDBRANCH  38  41
ENDBRANCH   3  38
TORSDOF 22
ENDMDL
MODEL 8
REMARK VINA RESULT:     -10.0      5.209      9.558
REMARK SMILES CC(=O)Oc1ccccc1SCCCCCC(=O)NCCCCCCNC(=O)c1ccc(-c2c3nc(c(-c4c(F)c(F)c(F)c(F)c4F)c4ccc([nH]4)c(-c4c(F)c(F)c(F)c(F)c4F)c4nc(c(-c5c(F)c(F)c(F)c(F)c5F)c5ccc2[nH]5)C=C4)C=C3)cc1
REMARK SMILES IDX 17 1 18 2 19 3 16 5 15 8 14 11 13 14 12 17 11 20 10 21 5 22
REMARK SMILES IDX 6 23 7 24 9 26 8 27 4 31 2 32 3 33 1 34 20 38 21 41 22 44
REMARK SMILES IDX 23 47 24 50 25 53 26 56 27 57 28 59 29 60 30 61 91 62 31 63
REMARK SMILES IDX 90 65 32 67 33 70 34 71 84 72 35 73 89 74 83 75 85 76 36 77
REMARK SMILES IDX 88 78 82 80 81 82 37 84 69 87 49 88 68 89 50 90 53 91 67 92
REMARK SMILES IDX 86 93 51 94 52 96 66 98 87 99 54 102 38 104 39 105 47 106
REMARK SMILES IDX 40 107 41 108 45 109 48 110 42 111 43 112 46 113 44 114
REMARK SMILES IDX 70 115 71 116 79 117 72 118 73 119 77 120 80 121 74 122
REMARK SMILES IDX 75 123 78 124 76 125 55 126 56 127 64 128 57 129 58 130
REMARK SMILES IDX 62 131 65 132 59 133 60 134 63 135 61 136
REMARK H PARENT 19 4 16 6 16 7 15 9 15 10 14 12 14 13 13 15 13 16 12 18 12 19
REMARK H PARENT 6 25 7 28 9 29 8 30 1 35 1 36 1 37 20 39 20 40 21 42 21 43
REMARK H PARENT 22 45 22 46 23 48 23 49 24 51 24 52 25 54 25 55 26 58 30 64
REMARK H PARENT 91 66 31 68 90 69 89 79 83 81 85 83 88 85 82 86 50 95 53 97
REMARK H PARENT 86 100 51 101 87 103
REMARK Flexibility Score: inf
ROOT
ATOM      1  C   UNL A   1      33.094  21.534  26.798  1.00  0.00     0.219 C 
ATOM      2  O   UNL A   1      33.607  22.008  27.812  1.00  0.00    -0.275 OA
ATOM      3  N   UNL A   1      33.390  20.255  26.447  1.00  0.00    -0.356 N 
ATOM      4  H   UNL A   1      33.928  19.746  27.095  1.00  0.00     0.163 HD
ENDROOT
BRANCH   1   5
ATOM      5  C   UNL A   1      32.126  22.339  25.957  1.00  0.00     0.026 C 
ATOM      6  H   UNL A   1      32.504  22.379  24.956  1.00  0.00     0.037 H 
ATOM      7  H   UNL A   1      31.178  21.846  26.022  1.00  0.00     0.037 H 
BRANCH   5   8
ATOM      8  C   UNL A   1      31.909  23.772  26.445  1.00  0.00    -0.044 C 
ATOM      9  H   UNL A   1      32.098  23.773  27.498  1.00  0.00     0.027 H 
ATOM     10  H   UNL A   1      32.568  24.346  25.829  1.00  0.00     0.027 H 
BRANCH   8  11
ATOM     11  C   UNL A   1      30.541  24.456  26.237  1.00  0.00    -0.052 C 
ATOM     12  H   UNL A   1      29.795  23.695  26.337  1.00  0.00     0.027 H 
ATOM     13  H   UNL A   1      30.539  25.239  26.966  1.00  0.00     0.027 H 
BRANCH  11  14
ATOM     14  C   UNL A   1      30.252  25.190  24.923  1.00  0.00    -0.044 C 
ATOM     15  H   UNL A   1      29.189  25.310  24.889  1.00  0.00     0.028 H 
ATOM     16  H   UNL A   1      30.907  26.030  25.020  1.00  0.00     0.028 H 
BRANCH  14  17
ATOM     17  C   UNL A   1      30.653  24.679  23.528  1.00  0.00    -0.002 C 
ATOM     18  H   UNL A   1      30.798  23.627  23.656  1.00  0.00     0.038 H 
ATOM     19  H   UNL A   1      29.858  25.120  22.961  1.00  0.00     0.038 H 
BRANCH  17  20
ATOM     20  S   UNL A   1      32.051  25.213  22.494  1.00  0.00    -0.122 SA
BRANCH  20  21
ATOM     21  C   UNL A   1      33.549  24.830  23.365  1.00  0.00     0.050 A 
ATOM     22  C   UNL A   1      34.127  25.453  24.475  1.00  0.00     0.144 A 
ATOM     23  C   UNL A   1      35.151  24.814  25.199  1.00  0.00    -0.018 A 
ATOM     24  C   UNL A   1      35.649  23.579  24.787  1.00  0.00    -0.058 A 
ATOM     25  H   UNL A   1      35.537  25.265  26.043  1.00  0.00     0.066 H 
ATOM     26  C   UNL A   1      34.139  23.630  22.915  1.00  0.00    -0.045 A 
ATOM     27  C   UNL A   1      35.163  23.000  23.624  1.00  0.00    -0.061 A 
ATOM     28  H   UNL A   1      36.373  23.099  25.344  1.00  0.00     0.062 H 
ATOM     29  H   UNL A   1      33.804  23.206  22.035  1.00  0.00     0.064 H 
ATOM     30  H   UNL A   1      35.557  22.108  23.285  1.00  0.00     0.062 H 
BRANCH  22  31
ATOM     31  O   UNL A   1      33.599  26.580  25.163  1.00  0.00    -0.426 OA
BRANCH  31  32
ATOM     32  C   UNL A   1      33.883  27.939  25.040  1.00  0.00     0.308 C 
ATOM     33  O   UNL A   1      33.981  28.576  24.008  1.00  0.00    -0.252 OA
BRANCH  32  34
ATOM     34  C   UNL A   1      34.032  28.496  26.433  1.00  0.00     0.034 C 
ATOM     35  H   UNL A   1      34.703  27.880  26.994  1.00  0.00     0.035 H 
ATOM     36  H   UNL A   1      33.076  28.514  26.915  1.00  0.00     0.035 H 
ATOM     37  H   UNL A   1      34.421  29.492  26.379  1.00  0.00     0.035 H 
ENDBRANCH  32  34
ENDBRANCH  31  32
ENDBRANCH  22  31
ENDBRANCH  20  21
ENDBRANCH  17  20
ENDBRANCH  14  17
ENDBRANCH  11  14
ENDBRANCH   8  11
ENDBRANCH   5   8
ENDBRANCH   1   5
BRANCH   3  38
ATOM     38  C   UNL A   1      33.017  19.544  25.247  1.00  0.00     0.017 C 
ATOM     39  H   UNL A   1      32.539  20.220  24.570  1.00  0.00     0.049 H 
ATOM     40  H   UNL A   1      32.347  18.751  25.504  1.00  0.00     0.049 H 
BRANCH  38  41
ATOM     41  C   UNL A   1      34.256  18.953  24.578  1.00  0.00    -0.036 C 
ATOM     42  H   UNL A   1      34.057  18.845  23.532  1.00  0.00     0.028 H 
ATOM     43  H   UNL A   1      34.453  18.016  25.054  1.00  0.00     0.028 H 
BRANCH  41  44
ATOM     44  C   UNL A   1      35.504  19.808  24.743  1.00  0.00    -0.052 C 
ATOM     45  H   UNL A   1      35.357  20.466  25.574  1.00  0.00     0.027 H 
ATOM     46  H   UNL A   1      35.646  20.340  23.825  1.00  0.00     0.027 H 
BRANCH  44  47
ATOM     47  C   UNL A   1      36.774  18.989  24.992  1.00  0.00    -0.052 C 
ATOM     48  H   UNL A   1      36.721  18.106  24.389  1.00  0.00     0.027 H 
ATOM     49  H   UNL A   1      36.796  18.787  26.042  1.00  0.00     0.027 H 
BRANCH  47  50
ATOM     50  C   UNL A   1      38.090  19.708  24.668  1.00  0.00    -0.036 C 
ATOM     51  H   UNL A   1      37.858  20.595  24.116  1.00  0.00     0.028 H 
ATOM     52  H   UNL A   1      38.687  19.014  24.114  1.00  0.00     0.028 H 
BRANCH  50  53
ATOM     53  C   UNL A   1      38.911  20.108  25.892  1.00  0.00     0.018 C 
ATOM     54  H   UNL A   1      38.287  20.062  26.760  1.00  0.00     0.049 H 
ATOM     55  H   UNL A   1      39.278  21.101  25.740  1.00  0.00     0.049 H 
BRANCH  53  56
ATOM     56  N   UNL A   1      40.048  19.222  26.078  1.00  0.00    -0.352 N 
ATOM     57  C   UNL A   1      41.382  19.516  26.155  1.00  0.00     0.251 C 
ATOM     58  H   UNL A   1      39.824  18.266  26.161  1.00  0.00     0.163 HD
ATOM     59  O   UNL A   1      42.220  18.636  25.990  1.00  0.00    -0.269 OA
BRANCH  57  60
ATOM     60  C   UNL A   1      41.810  20.897  26.444  1.00  0.00     0.039 A 
ATOM     61  C   UNL A   1      42.144  21.741  25.382  1.00  0.00    -0.049 A 
ATOM     62  C   UNL A   1      41.923  21.342  27.764  1.00  0.00    -0.049 A 
ATOM     63  C   UNL A   1      42.553  23.047  25.644  1.00  0.00    -0.053 A 
ATOM     64  H   UNL A   1      42.089  21.398  24.410  1.00  0.00     0.063 H 
ATOM     65  C   UNL A   1      42.258  22.666  28.021  1.00  0.00    -0.053 A 
ATOM     66  H   UNL A   1      41.759  20.689  28.545  1.00  0.00     0.063 H 
ATOM     67  C   UNL A   1      42.589  23.527  26.964  1.00  0.00    -0.014 A 
ATOM     68  H   UNL A   1      42.831  23.665  24.866  1.00  0.00     0.063 H 
ATOM     69  H   UNL A   1      42.262  23.017  28.991  1.00  0.00     0.063 H 
BRANCH  67  70
ATOM     70  C   UNL A   1      42.983  24.925  27.260  1.00  0.00     0.031 A 
ATOM     71  C   UNL A   1      44.389  25.384  26.999  1.00  0.00     0.074 A 
ATOM     72  C   UNL A   1      42.088  25.760  27.823  1.00  0.00     0.049 A 
ATOM     73  N   UNL A   1      44.943  26.542  27.252  1.00  0.00    -0.248 NA
ATOM     74  C   UNL A   1      45.303  24.399  26.399  1.00  0.00    -0.034 C 
ATOM     75  C   UNL A   1      40.710  25.410  28.168  1.00  0.00    -0.036 A 
ATOM     76  N   UNL A   1      42.209  27.068  28.214  1.00  0.00    -0.354 N 
ATOM     77  C   UNL A   1      46.267  26.422  26.849  1.00  0.00     0.074 A 
ATOM     78  C   UNL A   1      46.450  25.060  26.396  1.00  0.00    -0.034 C 
ATOM     79  H   UNL A   1      45.102  23.443  26.066  1.00  0.00     0.065 H 
ATOM     80  C   UNL A   1      40.108  26.481  28.706  1.00  0.00    -0.036 A 
ATOM     81  H   UNL A   1      40.271  24.487  28.021  1.00  0.00     0.065 H 
ATOM     82  C   UNL A   1      41.066  27.580  28.779  1.00  0.00     0.049 A 
ATOM     83  H   UNL A   1      43.035  27.591  28.101  1.00  0.00     0.167 HD
ATOM     84  C   UNL A   1      47.234  27.370  26.835  1.00  0.00     0.037 A 
ATOM     85  H   UNL A   1      47.356  24.658  26.110  1.00  0.00     0.065 H 
ATOM     86  H   UNL A   1      39.125  26.523  29.018  1.00  0.00     0.065 H 
ATOM     87  C   UNL A   1      40.825  28.795  29.305  1.00  0.00     0.037 A 
ATOM     88  C   UNL A   1      47.040  28.726  27.279  1.00  0.00     0.049 A 
ATOM     89  C   UNL A   1      41.919  29.828  29.290  1.00  0.00     0.074 A 
ATOM     90  C   UNL A   1      47.939  29.777  27.265  1.00  0.00    -0.036 A 
ATOM     91  N   UNL A   1      45.861  29.215  27.825  1.00  0.00    -0.354 N 
ATOM     92  N   UNL A   1      43.147  29.726  28.843  1.00  0.00    -0.248 NA
ATOM     93  C   UNL A   1      41.588  31.149  29.840  1.00  0.00    -0.034 C 
ATOM     94  C   UNL A   1      47.321  30.889  27.847  1.00  0.00    -0.036 A 
ATOM     95  H   UNL A   1      48.900  29.747  26.888  1.00  0.00     0.065 H 
ATOM     96  C   UNL A   1      46.017  30.548  28.171  1.00  0.00     0.049 A 
ATOM     97  H   UNL A   1      45.036  28.692  27.948  1.00  0.00     0.167 HD
ATOM     98  C   UNL A   1      43.729  30.971  29.035  1.00  0.00     0.074 A 
ATOM     99  C   UNL A   1      42.711  31.819  29.622  1.00  0.00    -0.034 C 
ATOM    100  H   UNL A   1      40.713  31.470  30.281  1.00  0.00     0.065 H 
ATOM    101  H   UNL A   1      47.762  31.808  28.008  1.00  0.00     0.065 H 
ATOM    102  C   UNL A   1      44.992  31.377  28.753  1.00  0.00     0.037 A 
ATOM    103  H   UNL A   1      42.843  32.818  29.843  1.00  0.00     0.065 H 
BRANCH  84 104
ATOM    104  C   UNL A   1      48.587  26.970  26.319  1.00  0.00     0.064 A 
ATOM    105  C   UNL A   1      48.924  27.100  24.962  1.00  0.00     0.173 A 
ATOM    106  C   UNL A   1      49.566  26.472  27.191  1.00  0.00     0.173 A 
ATOM    107  F   UNL A   1      48.022  27.561  24.083  1.00  0.00    -0.203 F 
ATOM    108  C   UNL A   1      50.177  26.712  24.493  1.00  0.00     0.198 A 
ATOM    109  C   UNL A   1      50.830  26.117  26.724  1.00  0.00     0.198 A 
ATOM    110  F   UNL A   1      49.301  26.332  28.499  1.00  0.00    -0.203 F 
ATOM    111  F   UNL A   1      50.455  26.790  23.184  1.00  0.00    -0.200 F 
ATOM    112  C   UNL A   1      51.130  26.227  25.375  1.00  0.00     0.200 A 
ATOM    113  F   UNL A   1      51.755  25.661  27.580  1.00  0.00    -0.200 F 
ATOM    114  F   UNL A   1      52.337  25.857  24.923  1.00  0.00    -0.200 F 
ENDBRANCH  84 104
BRANCH  87 115
ATOM    115  C   UNL A   1      39.486  29.100  29.875  1.00  0.00     0.064 A 
ATOM    116  C   UNL A   1      38.480  29.672  29.085  1.00  0.00     0.173 A 
ATOM    117  C   UNL A   1      39.183  28.815  31.214  1.00  0.00     0.173 A 
ATOM    118  F   UNL A   1      38.728  29.978  27.803  1.00  0.00    -0.203 F 
ATOM    119  C   UNL A   1      37.228  29.969  29.620  1.00  0.00     0.198 A 
ATOM    120  C   UNL A   1      37.920  29.084  31.739  1.00  0.00     0.198 A 
ATOM    121  F   UNL A   1      40.108  28.258  32.009  1.00  0.00    -0.203 F 
ATOM    122  F   UNL A   1      36.298  30.557  28.854  1.00  0.00    -0.200 F 
ATOM    123  C   UNL A   1      36.947  29.668  30.944  1.00  0.00     0.200 A 
ATOM    124  F   UNL A   1      37.648  28.773  33.013  1.00  0.00    -0.200 F 
ATOM    125  F   UNL A   1      35.739  29.945  31.454  1.00  0.00    -0.200 F 
ENDBRANCH  87 115
BRANCH 102 126
ATOM    126  C   UNL A   1      45.335  32.810  29.044  1.00  0.00     0.064 A 
ATOM    127  C   UNL A   1      45.901  33.199  30.267  1.00  0.00     0.173 A 
ATOM    128  C   UNL A   1      45.128  33.799  28.071  1.00  0.00     0.173 A 
ATOM    129  F   UNL A   1      46.104  32.293  31.235  1.00  0.00    -0.203 F 
ATOM    130  C   UNL A   1      46.223  34.531  30.514  1.00  0.00     0.198 A 
ATOM    131  C   UNL A   1      45.482  35.125  28.310  1.00  0.00     0.198 A 
ATOM    132  F   UNL A   1      44.595  33.480  26.882  1.00  0.00    -0.203 F 
ATOM    133  F   UNL A   1      46.717  34.888  31.708  1.00  0.00    -0.200 F 
ATOM    134  C   UNL A   1      46.022  35.490  29.533  1.00  0.00     0.200 A 
ATOM    135  F   UNL A   1      45.300  36.047  27.356  1.00  0.00    -0.200 F 
ATOM    136  F   UNL A   1      46.340  36.770  29.771  1.00  0.00    -0.200 F 
ENDBRANCH 102 126
ENDBRANCH  67  70
ENDBRANCH  57  60
ENDBRANCH  53  56
ENDBRANCH  50  53
ENDBRANCH  47  50
ENDBRANCH  44  47
ENDBRANCH  41  44
ENDBRANCH  38  41
ENDBRANCH   3  38
TORSDOF 22
ENDMDL
MODEL 9
REMARK VINA RESULT:     -10.0      6.356     11.024
REMARK SMILES CC(=O)Oc1ccccc1SCCCCCC(=O)NCCCCCCNC(=O)c1ccc(-c2c3nc(c(-c4c(F)c(F)c(F)c(F)c4F)c4ccc([nH]4)c(-c4c(F)c(F)c(F)c(F)c4F)c4nc(c(-c5c(F)c(F)c(F)c(F)c5F)c5ccc2[nH]5)C=C4)C=C3)cc1
REMARK SMILES IDX 17 1 18 2 19 3 16 5 15 8 14 11 13 14 12 17 11 20 10 21 5 22
REMARK SMILES IDX 6 23 7 24 9 26 8 27 4 31 2 32 3 33 1 34 20 38 21 41 22 44
REMARK SMILES IDX 23 47 24 50 25 53 26 56 27 57 28 59 29 60 30 61 91 62 31 63
REMARK SMILES IDX 90 65 32 67 33 70 34 71 84 72 35 73 89 74 83 75 85 76 36 77
REMARK SMILES IDX 88 78 82 80 81 82 37 84 69 87 49 88 68 89 50 90 53 91 67 92
REMARK SMILES IDX 86 93 51 94 52 96 66 98 87 99 54 102 38 104 39 105 47 106
REMARK SMILES IDX 40 107 41 108 45 109 48 110 42 111 43 112 46 113 44 114
REMARK SMILES IDX 70 115 71 116 79 117 72 118 73 119 77 120 80 121 74 122
REMARK SMILES IDX 75 123 78 124 76 125 55 126 56 127 64 128 57 129 58 130
REMARK SMILES IDX 62 131 65 132 59 133 60 134 63 135 61 136
REMARK H PARENT 19 4 16 6 16 7 15 9 15 10 14 12 14 13 13 15 13 16 12 18 12 19
REMARK H PARENT 6 25 7 28 9 29 8 30 1 35 1 36 1 37 20 39 20 40 21 42 21 43
REMARK H PARENT 22 45 22 46 23 48 23 49 24 51 24 52 25 54 25 55 26 58 30 64
REMARK H PARENT 91 66 31 68 90 69 89 79 83 81 85 83 88 85 82 86 50 95 53 97
REMARK H PARENT 86 100 51 101 87 103
REMARK Flexibility Score: inf
ROOT
ATOM      1  C   UNL A   1      37.768  21.815  25.317  1.00  0.00     0.219 C 
ATOM      2  O   UNL A   1      36.993  20.912  25.000  1.00  0.00    -0.275 OA
ATOM      3  N   UNL A   1      38.898  21.500  26.004  1.00  0.00    -0.356 N 
ATOM      4  H   UNL A   1      39.077  20.539  26.117  1.00  0.00     0.163 HD
ENDROOT
BRANCH   1   5
ATOM      5  C   UNL A   1      37.498  23.255  24.936  1.00  0.00     0.026 C 
ATOM      6  H   UNL A   1      38.285  23.861  25.333  1.00  0.00     0.037 H 
ATOM      7  H   UNL A   1      37.451  23.286  23.867  1.00  0.00     0.037 H 
BRANCH   5   8
ATOM      8  C   UNL A   1      36.165  23.803  25.449  1.00  0.00    -0.044 C 
ATOM      9  H   UNL A   1      35.806  23.110  26.181  1.00  0.00     0.027 H 
ATOM     10  H   UNL A   1      36.416  24.786  25.787  1.00  0.00     0.027 H 
BRANCH   8  11
ATOM     11  C   UNL A   1      35.004  24.049  24.462  1.00  0.00    -0.052 C 
ATOM     12  H   UNL A   1      34.120  24.187  25.049  1.00  0.00     0.027 H 
ATOM     13  H   UNL A   1      35.340  24.885  23.884  1.00  0.00     0.027 H 
BRANCH  11  14
ATOM     14  C   UNL A   1      34.674  22.993  23.401  1.00  0.00    -0.044 C 
ATOM     15  H   UNL A   1      35.494  23.012  22.713  1.00  0.00     0.028 H 
ATOM     16  H   UNL A   1      34.485  22.144  24.022  1.00  0.00     0.028 H 
BRANCH  14  17
ATOM     17  C   UNL A   1      33.406  22.995  22.529  1.00  0.00    -0.002 C 
ATOM     18  H   UNL A   1      32.986  23.969  22.664  1.00  0.00     0.038 H 
ATOM     19  H   UNL A   1      33.838  22.639  21.616  1.00  0.00     0.038 H 
BRANCH  17  20
ATOM     20  S   UNL A   1      31.982  21.865  22.613  1.00  0.00    -0.122 SA
BRANCH  20  21
ATOM     21  C   UNL A   1      32.465  20.452  23.572  1.00  0.00     0.050 A 
ATOM     22  C   UNL A   1      32.724  20.342  24.941  1.00  0.00     0.144 A 
ATOM     23  C   UNL A   1      32.795  19.077  25.554  1.00  0.00    -0.018 A 
ATOM     24  C   UNL A   1      32.667  17.912  24.799  1.00  0.00    -0.058 A 
ATOM     25  H   UNL A   1      32.942  19.011  26.574  1.00  0.00     0.066 H 
ATOM     26  C   UNL A   1      32.440  19.259  22.819  1.00  0.00    -0.045 A 
ATOM     27  C   UNL A   1      32.521  18.003  23.423  1.00  0.00    -0.061 A 
ATOM     28  H   UNL A   1      32.682  16.990  25.261  1.00  0.00     0.062 H 
ATOM     29  H   UNL A   1      32.359  19.317  21.791  1.00  0.00     0.064 H 
ATOM     30  H   UNL A   1      32.472  17.147  22.849  1.00  0.00     0.062 H 
BRANCH  22  31
ATOM     31  O   UNL A   1      32.651  21.400  25.888  1.00  0.00    -0.426 OA
BRANCH  31  32
ATOM     32  C   UNL A   1      33.474  21.719  26.966  1.00  0.00     0.308 C 
ATOM     33  O   UNL A   1      34.616  21.343  27.152  1.00  0.00    -0.252 OA
BRANCH  32  34
ATOM     34  C   UNL A   1      32.696  22.642  27.870  1.00  0.00     0.034 C 
ATOM     35  H   UNL A   1      33.360  23.357  28.308  1.00  0.00     0.035 H 
ATOM     36  H   UNL A   1      32.224  22.071  28.643  1.00  0.00     0.035 H 
ATOM     37  H   UNL A   1      31.947  23.152  27.298  1.00  0.00     0.035 H 
ENDBRANCH  32  34
ENDBRANCH  31  32
ENDBRANCH  22  31
ENDBRANCH  20  21
ENDBRANCH  17  20
ENDBRANCH  14  17
ENDBRANCH  11  14
ENDBRANCH   8  11
ENDBRANCH   5   8
ENDBRANCH   1   5
BRANCH   3  38
ATOM     38  C   UNL A   1      39.871  22.392  26.588  1.00  0.00     0.017 C 
ATOM     39  H   UNL A   1      39.365  23.139  27.163  1.00  0.00     0.049 H 
ATOM     40  H   UNL A   1      40.436  22.854  25.806  1.00  0.00     0.049 H 
BRANCH  38  41
ATOM     41  C   UNL A   1      40.821  21.615  27.497  1.00  0.00    -0.036 C 
ATOM     42  H   UNL A   1      40.269  20.829  27.970  1.00  0.00     0.028 H 
ATOM     43  H   UNL A   1      41.221  22.313  28.202  1.00  0.00     0.028 H 
BRANCH  41  44
ATOM     44  C   UNL A   1      42.000  20.998  26.760  1.00  0.00    -0.052 C 
ATOM     45  H   UNL A   1      42.755  20.749  27.477  1.00  0.00     0.027 H 
ATOM     46  H   UNL A   1      42.341  21.721  26.048  1.00  0.00     0.027 H 
BRANCH  44  47
ATOM     47  C   UNL A   1      41.635  19.731  25.981  1.00  0.00    -0.052 C 
ATOM     48  H   UNL A   1      41.759  19.938  24.937  1.00  0.00     0.027 H 
ATOM     49  H   UNL A   1      40.627  19.496  26.253  1.00  0.00     0.027 H 
BRANCH  47  50
ATOM     50  C   UNL A   1      42.470  18.490  26.322  1.00  0.00    -0.036 C 
ATOM     51  H   UNL A   1      42.189  17.705  25.651  1.00  0.00     0.028 H 
ATOM     52  H   UNL A   1      42.266  18.259  27.346  1.00  0.00     0.028 H 
BRANCH  50  53
ATOM     53  C   UNL A   1      43.980  18.693  26.213  1.00  0.00     0.018 C 
ATOM     54  H   UNL A   1      44.474  17.936  26.785  1.00  0.00     0.049 H 
ATOM     55  H   UNL A   1      44.217  19.667  26.587  1.00  0.00     0.049 H 
BRANCH  53  56
ATOM     56  N   UNL A   1      44.426  18.610  24.832  1.00  0.00    -0.352 N 
ATOM     57  C   UNL A   1      44.679  19.612  23.935  1.00  0.00     0.251 C 
ATOM     58  H   UNL A   1      44.567  17.697  24.491  1.00  0.00     0.163 HD
ATOM     59  O   UNL A   1      44.734  19.367  22.734  1.00  0.00    -0.269 OA
BRANCH  57  60
ATOM     60  C   UNL A   1      44.893  20.988  24.417  1.00  0.00     0.039 A 
ATOM     61  C   UNL A   1      44.441  22.058  23.641  1.00  0.00    -0.049 A 
ATOM     62  C   UNL A   1      45.580  21.220  25.613  1.00  0.00    -0.049 A 
ATOM     63  C   UNL A   1      44.642  23.364  24.087  1.00  0.00    -0.053 A 
ATOM     64  H   UNL A   1      43.963  21.883  22.744  1.00  0.00     0.063 H 
ATOM     65  C   UNL A   1      45.712  22.518  26.093  1.00  0.00    -0.053 A 
ATOM     66  H   UNL A   1      45.987  20.431  26.137  1.00  0.00     0.063 H 
ATOM     67  C   UNL A   1      45.257  23.602  25.328  1.00  0.00    -0.014 A 
ATOM     68  H   UNL A   1      44.338  24.158  23.504  1.00  0.00     0.063 H 
ATOM     69  H   UNL A   1      46.146  22.684  27.013  1.00  0.00     0.063 H 
BRANCH  67  70
ATOM     70  C   UNL A   1      45.443  24.982  25.838  1.00  0.00     0.031 A 
ATOM     71  C   UNL A   1      46.804  25.617  25.812  1.00  0.00     0.074 A 
ATOM     72  C   UNL A   1      44.397  25.634  26.379  1.00  0.00     0.049 A 
ATOM     73  N   UNL A   1      47.183  26.783  26.271  1.00  0.00    -0.248 NA
ATOM     74  C   UNL A   1      47.891  24.824  25.219  1.00  0.00    -0.034 C 
ATOM     75  C   UNL A   1      43.041  25.098  26.503  1.00  0.00    -0.036 A 
ATOM     76  N   UNL A   1      44.314  26.884  26.937  1.00  0.00    -0.354 N 
ATOM     77  C   UNL A   1      48.548  26.859  26.027  1.00  0.00     0.074 A 
ATOM     78  C   UNL A   1      48.944  25.597  25.440  1.00  0.00    -0.034 C 
ATOM     79  H   UNL A   1      47.846  23.905  24.750  1.00  0.00     0.065 H 
ATOM     80  C   UNL A   1      42.258  26.018  27.086  1.00  0.00    -0.036 A 
ATOM     81  H   UNL A   1      42.736  24.162  26.193  1.00  0.00     0.065 H 
ATOM     82  C   UNL A   1      43.063  27.192  27.411  1.00  0.00     0.049 A 
ATOM     83  H   UNL A   1      45.079  27.501  26.993  1.00  0.00     0.167 HD
ATOM     84  C   UNL A   1      49.389  27.897  26.248  1.00  0.00     0.037 A 
ATOM     85  H   UNL A   1      49.918  25.334  25.223  1.00  0.00     0.065 H 
ATOM     86  H   UNL A   1      41.249  25.913  27.275  1.00  0.00     0.065 H 
ATOM     87  C   UNL A   1      42.619  28.293  28.045  1.00  0.00     0.037 A 
ATOM     88  C   UNL A   1      48.984  29.152  26.824  1.00  0.00     0.049 A 
ATOM     89  C   UNL A   1      43.575  29.428  28.292  1.00  0.00     0.074 A 
ATOM     90  C   UNL A   1      49.745  30.285  27.050  1.00  0.00    -0.036 A 
ATOM     91  N   UNL A   1      47.701  29.437  27.273  1.00  0.00    -0.354 N 
ATOM     92  N   UNL A   1      44.849  29.518  27.995  1.00  0.00    -0.248 NA
ATOM     93  C   UNL A   1      43.028  30.621  28.951  1.00  0.00    -0.034 C 
ATOM     94  C   UNL A   1      48.936  31.237  27.679  1.00  0.00    -0.036 A 
ATOM     95  H   UNL A   1      50.738  30.407  26.797  1.00  0.00     0.065 H 
ATOM     96  C   UNL A   1      47.655  30.721  27.794  1.00  0.00     0.049 A 
ATOM     97  H   UNL A   1      46.937  28.819  27.227  1.00  0.00     0.167 HD
ATOM     98  C   UNL A   1      45.251  30.780  28.407  1.00  0.00     0.074 A 
ATOM     99  C   UNL A   1      44.079  31.429  28.959  1.00  0.00    -0.034 C 
ATOM    100  H   UNL A   1      42.077  30.787  29.314  1.00  0.00     0.065 H 
ATOM    101  H   UNL A   1      49.242  32.168  28.004  1.00  0.00     0.065 H 
ATOM    102  C   UNL A   1      46.479  31.351  28.337  1.00  0.00     0.037 A 
ATOM    103  H   UNL A   1      44.064  32.399  29.313  1.00  0.00     0.065 H 
BRANCH  84 104
ATOM    104  C   UNL A   1      50.829  27.715  25.863  1.00  0.00     0.064 A 
ATOM    105  C   UNL A   1      51.271  27.928  24.547  1.00  0.00     0.173 A 
ATOM    106  C   UNL A   1      51.785  27.344  26.821  1.00  0.00     0.173 A 
ATOM    107  F   UNL A   1      50.398  28.274  23.589  1.00  0.00    -0.203 F 
ATOM    108  C   UNL A   1      52.606  27.742  24.199  1.00  0.00     0.198 A 
ATOM    109  C   UNL A   1      53.125  27.191  26.476  1.00  0.00     0.198 A 
ATOM    110  F   UNL A   1      51.420  27.132  28.095  1.00  0.00    -0.203 F 
ATOM    111  F   UNL A   1      52.992  27.894  22.925  1.00  0.00    -0.200 F 
ATOM    112  C   UNL A   1      53.533  27.380  25.164  1.00  0.00     0.200 A 
ATOM    113  F   UNL A   1      54.023  26.855  27.413  1.00  0.00    -0.200 F 
ATOM    114  F   UNL A   1      54.819  27.204  24.828  1.00  0.00    -0.200 F 
ENDBRANCH  84 104
BRANCH  87 115
ATOM    115  C   UNL A   1      41.199  28.376  28.474  1.00  0.00     0.064 A 
ATOM    116  C   UNL A   1      40.216  28.891  27.618  1.00  0.00     0.173 A 
ATOM    117  C   UNL A   1      40.794  27.933  29.741  1.00  0.00     0.173 A 
ATOM    118  F   UNL A   1      40.557  29.343  26.402  1.00  0.00    -0.203 F 
ATOM    119  C   UNL A   1      38.885  28.979  28.021  1.00  0.00     0.198 A 
ATOM    120  C   UNL A   1      39.457  27.993  30.132  1.00  0.00     0.198 A 
ATOM    121  F   UNL A   1      41.694  27.422  30.594  1.00  0.00    -0.203 F 
ATOM    122  F   UNL A   1      37.973  29.517  27.199  1.00  0.00    -0.200 F 
ATOM    123  C   UNL A   1      38.506  28.524  29.276  1.00  0.00     0.200 A 
ATOM    124  F   UNL A   1      39.093  27.534  31.336  1.00  0.00    -0.200 F 
ATOM    125  F   UNL A   1      37.224  28.601  29.659  1.00  0.00    -0.200 F 
ENDBRANCH  87 115
BRANCH 102 126
ATOM    126  C   UNL A   1      46.611  32.760  28.839  1.00  0.00     0.064 A 
ATOM    127  C   UNL A   1      46.389  33.865  28.004  1.00  0.00     0.173 A 
ATOM    128  C   UNL A   1      46.928  33.006  30.184  1.00  0.00     0.173 A 
ATOM    129  F   UNL A   1      46.099  33.684  26.707  1.00  0.00    -0.203 F 
ATOM    130  C   UNL A   1      46.505  35.164  28.491  1.00  0.00     0.198 A 
ATOM    131  C   UNL A   1      47.011  34.306  30.675  1.00  0.00     0.198 A 
ATOM    132  F   UNL A   1      47.144  31.985  31.026  1.00  0.00    -0.203 F 
ATOM    133  F   UNL A   1      46.339  36.206  27.664  1.00  0.00    -0.200 F 
ATOM    134  C   UNL A   1      46.807  35.384  29.827  1.00  0.00     0.200 A 
ATOM    135  F   UNL A   1      47.288  34.515  31.969  1.00  0.00    -0.200 F 
ATOM    136  F   UNL A   1      46.910  36.636  30.295  1.00  0.00    -0.200 F 
ENDBRANCH 102 126
ENDBRANCH  67  70
ENDBRANCH  57  60
ENDBRANCH  53  56
ENDBRANCH  50  53
ENDBRANCH  47  50
ENDBRANCH  44  47
ENDBRANCH  41  44
ENDBRANCH  38  41
ENDBRANCH   3  38
TORSDOF 22
ENDMDL
MODEL 10
REMARK VINA RESULT:      -9.9      9.347     14.474
REMARK SMILES CC(=O)Oc1ccccc1SCCCCCC(=O)NCCCCCCNC(=O)c1ccc(-c2c3nc(c(-c4c(F)c(F)c(F)c(F)c4F)c4ccc([nH]4)c(-c4c(F)c(F)c(F)c(F)c4F)c4nc(c(-c5c(F)c(F)c(F)c(F)c5F)c5ccc2[nH]5)C=C4)C=C3)cc1
REMARK SMILES IDX 17 1 18 2 19 3 16 5 15 8 14 11 13 14 12 17 11 20 10 21 5 22
REMARK SMILES IDX 6 23 7 24 9 26 8 27 4 31 2 32 3 33 1 34 20 38 21 41 22 44
REMARK SMILES IDX 23 47 24 50 25 53 26 56 27 57 28 59 29 60 30 61 91 62 31 63
REMARK SMILES IDX 90 65 32 67 33 70 34 71 84 72 35 73 89 74 83 75 85 76 36 77
REMARK SMILES IDX 88 78 82 80 81 82 37 84 69 87 49 88 68 89 50 90 53 91 67 92
REMARK SMILES IDX 86 93 51 94 52 96 66 98 87 99 54 102 38 104 39 105 47 106
REMARK SMILES IDX 40 107 41 108 45 109 48 110 42 111 43 112 46 113 44 114
REMARK SMILES IDX 70 115 71 116 79 117 72 118 73 119 77 120 80 121 74 122
REMARK SMILES IDX 75 123 78 124 76 125 55 126 56 127 64 128 57 129 58 130
REMARK SMILES IDX 62 131 65 132 59 133 60 134 63 135 61 136
REMARK H PARENT 19 4 16 6 16 7 15 9 15 10 14 12 14 13 13 15 13 16 12 18 12 19
REMARK H PARENT 6 25 7 28 9 29 8 30 1 35 1 36 1 37 20 39 20 40 21 42 21 43
REMARK H PARENT 22 45 22 46 23 48 23 49 24 51 24 52 25 54 25 55 26 58 30 64
REMARK H PARENT 91 66 31 68 90 69 89 79 83 81 85 83 88 85 82 86 50 95 53 97
REMARK H PARENT 86 100 51 101 87 103
REMARK Flexibility Score: inf
ROOT
ATOM      1  C   UNL A   1      42.646  42.175  24.205  1.00  0.00     0.219 C 
ATOM      2  O   UNL A   1      43.746  42.709  24.060  1.00  0.00    -0.275 OA
ATOM      3  N   UNL A   1      42.293  41.721  25.436  1.00  0.00    -0.356 N 
ATOM      4  H   UNL A   1      42.912  41.943  26.169  1.00  0.00     0.163 HD
ENDROOT
BRANCH   1   5
ATOM      5  C   UNL A   1      41.677  42.042  23.049  1.00  0.00     0.026 C 
ATOM      6  H   UNL A   1      41.258  41.058  23.074  1.00  0.00     0.037 H 
ATOM      7  H   UNL A   1      40.941  42.809  23.174  1.00  0.00     0.037 H 
BRANCH   5   8
ATOM      8  C   UNL A   1      42.307  42.260  21.672  1.00  0.00    -0.044 C 
ATOM      9  H   UNL A   1      43.368  42.201  21.803  1.00  0.00     0.027 H 
ATOM     10  H   UNL A   1      41.845  41.508  21.067  1.00  0.00     0.027 H 
BRANCH   8  11
ATOM     11  C   UNL A   1      42.026  43.565  20.897  1.00  0.00    -0.052 C 
ATOM     12  H   UNL A   1      41.199  44.041  21.380  1.00  0.00     0.027 H 
ATOM     13  H   UNL A   1      42.965  44.078  20.920  1.00  0.00     0.027 H 
BRANCH  11  14
ATOM     14  C   UNL A   1      41.692  43.502  19.402  1.00  0.00    -0.044 C 
ATOM     15  H   UNL A   1      40.971  42.717  19.302  1.00  0.00     0.028 H 
ATOM     16  H   UNL A   1      41.437  44.523  19.215  1.00  0.00     0.028 H 
BRANCH  14  17
ATOM     17  C   UNL A   1      42.721  43.258  18.284  1.00  0.00    -0.002 C 
ATOM     18  H   UNL A   1      43.660  43.185  18.792  1.00  0.00     0.038 H 
ATOM     19  H   UNL A   1      42.231  42.445  17.789  1.00  0.00     0.038 H 
BRANCH  17  20
ATOM     20  S   UNL A   1      43.067  44.293  16.828  1.00  0.00    -0.122 SA
BRANCH  20  21
ATOM     21  C   UNL A   1      42.960  45.992  17.331  1.00  0.00     0.050 A 
ATOM     22  C   UNL A   1      43.799  46.737  18.164  1.00  0.00     0.144 A 
ATOM     23  C   UNL A   1      43.712  48.141  18.192  1.00  0.00    -0.018 A 
ATOM     24  C   UNL A   1      42.750  48.810  17.438  1.00  0.00    -0.058 A 
ATOM     25  H   UNL A   1      44.369  48.681  18.778  1.00  0.00     0.066 H 
ATOM     26  C   UNL A   1      41.933  46.687  16.657  1.00  0.00    -0.045 A 
ATOM     27  C   UNL A   1      41.837  48.079  16.692  1.00  0.00    -0.061 A 
ATOM     28  H   UNL A   1      42.717  49.842  17.435  1.00  0.00     0.062 H 
ATOM     29  H   UNL A   1      41.232  46.149  16.121  1.00  0.00     0.064 H 
ATOM     30  H   UNL A   1      41.091  48.561  16.167  1.00  0.00     0.062 H 
BRANCH  22  31
ATOM     31  O   UNL A   1      44.969  46.252  18.811  1.00  0.00    -0.426 OA
BRANCH  31  32
ATOM     32  C   UNL A   1      45.266  46.096  20.163  1.00  0.00     0.308 C 
ATOM     33  O   UNL A   1      45.376  46.977  20.995  1.00  0.00    -0.252 OA
BRANCH  32  34
ATOM     34  C   UNL A   1      45.411  44.618  20.424  1.00  0.00     0.034 C 
ATOM     35  H   UNL A   1      44.658  44.084  19.884  1.00  0.00     0.035 H 
ATOM     36  H   UNL A   1      45.301  44.428  21.472  1.00  0.00     0.035 H 
ATOM     37  H   UNL A   1      46.380  44.293  20.104  1.00  0.00     0.035 H 
ENDBRANCH  32  34
ENDBRANCH  31  32
ENDBRANCH  22  31
ENDBRANCH  20  21
ENDBRANCH  17  20
ENDBRANCH  14  17
ENDBRANCH  11  14
ENDBRANCH   8  11
ENDBRANCH   5   8
ENDBRANCH   1   5
BRANCH   3  38
ATOM     38  C   UNL A   1      41.127  40.955  25.810  1.00  0.00     0.017 C 
ATOM     39  H   UNL A   1      40.584  40.687  24.929  1.00  0.00     0.049 H 
ATOM     40  H   UNL A   1      40.511  41.548  26.453  1.00  0.00     0.049 H 
BRANCH  38  41
ATOM     41  C   UNL A   1      41.545  39.687  26.551  1.00  0.00    -0.036 C 
ATOM     42  H   UNL A   1      42.504  39.383  26.186  1.00  0.00     0.028 H 
ATOM     43  H   UNL A   1      40.788  38.954  26.369  1.00  0.00     0.028 H 
BRANCH  41  44
ATOM     44  C   UNL A   1      41.640  39.865  28.059  1.00  0.00    -0.052 C 
ATOM     45  H   UNL A   1      40.916  39.227  28.521  1.00  0.00     0.027 H 
ATOM     46  H   UNL A   1      41.460  40.899  28.266  1.00  0.00     0.027 H 
BRANCH  44  47
ATOM     47  C   UNL A   1      43.021  39.524  28.626  1.00  0.00    -0.052 C 
ATOM     48  H   UNL A   1      43.151  40.074  29.535  1.00  0.00     0.027 H 
ATOM     49  H   UNL A   1      43.727  39.784  27.865  1.00  0.00     0.027 H 
BRANCH  47  50
ATOM     50  C   UNL A   1      43.253  38.038  28.931  1.00  0.00    -0.036 C 
ATOM     51  H   UNL A   1      43.523  37.548  28.019  1.00  0.00     0.028 H 
ATOM     52  H   UNL A   1      42.341  37.668  29.352  1.00  0.00     0.028 H 
BRANCH  50  53
ATOM     53  C   UNL A   1      44.349  37.766  29.961  1.00  0.00     0.018 C 
ATOM     54  H   UNL A   1      44.218  36.781  30.356  1.00  0.00     0.049 H 
ATOM     55  H   UNL A   1      44.272  38.500  30.736  1.00  0.00     0.049 H 
BRANCH  53  56
ATOM     56  N   UNL A   1      45.671  37.866  29.364  1.00  0.00    -0.352 N 
ATOM     57  C   UNL A   1      46.539  36.876  28.994  1.00  0.00     0.251 C 
ATOM     58  H   UNL A   1      45.989  38.785  29.202  1.00  0.00     0.163 HD
ATOM     59  O   UNL A   1      47.725  37.130  28.810  1.00  0.00    -0.269 OA
BRANCH  57  60
ATOM     60  C   UNL A   1      46.043  35.500  28.812  1.00  0.00     0.039 A 
ATOM     61  C   UNL A   1      46.325  34.541  29.787  1.00  0.00    -0.049 A 
ATOM     62  C   UNL A   1      45.340  35.149  27.655  1.00  0.00    -0.049 A 
ATOM     63  C   UNL A   1      45.863  33.236  29.622  1.00  0.00    -0.053 A 
ATOM     64  H   UNL A   1      46.871  34.797  30.624  1.00  0.00     0.063 H 
ATOM     65  C   UNL A   1      44.816  33.868  27.527  1.00  0.00    -0.053 A 
ATOM     66  H   UNL A   1      45.211  35.838  26.899  1.00  0.00     0.063 H 
ATOM     67  C   UNL A   1      45.084  32.897  28.503  1.00  0.00    -0.014 A 
ATOM     68  H   UNL A   1      46.094  32.517  30.324  1.00  0.00     0.063 H 
ATOM     69  H   UNL A   1      44.229  33.631  26.714  1.00  0.00     0.063 H 
BRANCH  67  70
ATOM     70  C   UNL A   1      44.551  31.524  28.330  1.00  0.00     0.031 A 
ATOM     71  C   UNL A   1      45.313  30.516  27.518  1.00  0.00     0.074 A 
ATOM     72  C   UNL A   1      43.350  31.210  28.852  1.00  0.00     0.049 A 
ATOM     73  N   UNL A   1      44.983  29.291  27.196  1.00  0.00    -0.248 NA
ATOM     74  C   UNL A   1      46.607  30.953  26.971  1.00  0.00    -0.034 C 
ATOM     75  C   UNL A   1      42.498  32.122  29.616  1.00  0.00    -0.036 A 
ATOM     76  N   UNL A   1      42.635  30.041  28.809  1.00  0.00    -0.354 N 
ATOM     77  C   UNL A   1      46.022  28.816  26.406  1.00  0.00     0.074 A 
ATOM     78  C   UNL A   1      46.962  29.904  26.243  1.00  0.00    -0.034 C 
ATOM     79  H   UNL A   1      47.109  31.843  27.116  1.00  0.00     0.065 H 
ATOM     80  C   UNL A   1      41.381  31.475  29.982  1.00  0.00    -0.036 A 
ATOM     81  H   UNL A   1      42.719  33.105  29.836  1.00  0.00     0.065 H 
ATOM     82  C   UNL A   1      41.421  30.117  29.448  1.00  0.00     0.049 A 
ATOM     83  H   UNL A   1      42.959  29.226  28.363  1.00  0.00     0.167 HD
ATOM     84  C   UNL A   1      46.189  27.577  25.886  1.00  0.00     0.037 A 
ATOM     85  H   UNL A   1      47.797  29.868  25.639  1.00  0.00     0.065 H 
ATOM     86  H   UNL A   1      40.616  31.873  30.549  1.00  0.00     0.065 H 
ATOM     87  C   UNL A   1      40.448  29.196  29.578  1.00  0.00     0.037 A 
ATOM     88  C   UNL A   1      45.252  26.497  26.061  1.00  0.00     0.049 A 
ATOM     89  C   UNL A   1      40.650  27.830  28.981  1.00  0.00     0.074 A 
ATOM     90  C   UNL A   1      45.346  25.191  25.616  1.00  0.00    -0.036 A 
ATOM     91  N   UNL A   1      44.043  26.604  26.734  1.00  0.00    -0.354 N 
ATOM     92  N   UNL A   1      41.667  27.369  28.294  1.00  0.00    -0.248 NA
ATOM     93  C   UNL A   1      39.573  26.853  29.188  1.00  0.00    -0.034 C 
ATOM     94  C   UNL A   1      44.172  24.521  25.976  1.00  0.00    -0.036 A 
ATOM     95  H   UNL A   1      46.145  24.781  25.106  1.00  0.00     0.065 H 
ATOM     96  C   UNL A   1      43.371  25.392  26.697  1.00  0.00     0.049 A 
ATOM     97  H   UNL A   1      43.711  27.420  27.173  1.00  0.00     0.167 HD
ATOM     98  C   UNL A   1      41.367  26.045  28.008  1.00  0.00     0.074 A 
ATOM     99  C   UNL A   1      40.079  25.771  28.612  1.00  0.00    -0.034 C 
ATOM    100  H   UNL A   1      38.663  26.976  29.656  1.00  0.00     0.065 H 
ATOM    101  H   UNL A   1      43.942  23.542  25.744  1.00  0.00     0.065 H 
ATOM    102  C   UNL A   1      42.091  25.137  27.307  1.00  0.00     0.037 A 
ATOM    103  H   UNL A   1      39.613  24.850  28.596  1.00  0.00     0.065 H 
BRANCH  84 104
ATOM    104  C   UNL A   1      47.432  27.326  25.082  1.00  0.00     0.064 A 
ATOM    105  C   UNL A   1      47.517  27.688  23.727  1.00  0.00     0.173 A 
ATOM    106  C   UNL A   1      48.559  26.736  25.672  1.00  0.00     0.173 A 
ATOM    107  F   UNL A   1      46.465  28.246  23.110  1.00  0.00    -0.203 F 
ATOM    108  C   UNL A   1      48.670  27.437  22.988  1.00  0.00     0.198 A 
ATOM    109  C   UNL A   1      49.723  26.516  24.938  1.00  0.00     0.198 A 
ATOM    110  F   UNL A   1      48.536  26.374  26.964  1.00  0.00    -0.203 F 
ATOM    111  F   UNL A   1      48.706  27.738  21.683  1.00  0.00    -0.200 F 
ATOM    112  C   UNL A   1      49.773  26.857  23.595  1.00  0.00     0.200 A 
ATOM    113  F   UNL A   1      50.793  25.969  25.530  1.00  0.00    -0.200 F 
ATOM    114  F   UNL A   1      50.884  26.619  22.883  1.00  0.00    -0.200 F 
ENDBRANCH  84 104
BRANCH  87 115
ATOM    115  C   UNL A   1      39.205  29.537  30.318  1.00  0.00     0.064 A 
ATOM    116  C   UNL A   1      39.091  29.284  31.692  1.00  0.00     0.173 A 
ATOM    117  C   UNL A   1      38.111  30.130  29.671  1.00  0.00     0.173 A 
ATOM    118  F   UNL A   1      40.103  28.703  32.352  1.00  0.00    -0.203 F 
ATOM    119  C   UNL A   1      37.923  29.593  32.386  1.00  0.00     0.198 A 
ATOM    120  C   UNL A   1      36.955  30.466  30.372  1.00  0.00     0.198 A 
ATOM    121  F   UNL A   1      38.173  30.401  28.359  1.00  0.00    -0.203 F 
ATOM    122  F   UNL A   1      37.824  29.300  33.690  1.00  0.00    -0.200 F 
ATOM    123  C   UNL A   1      36.858  30.190  31.727  1.00  0.00     0.200 A 
ATOM    124  F   UNL A   1      35.937  31.060  29.735  1.00  0.00    -0.200 F 
ATOM    125  F   UNL A   1      35.739  30.494  32.397  1.00  0.00    -0.200 F 
ENDBRANCH  87 115
BRANCH 102 126
ATOM    126  C   UNL A   1      41.522  23.753  27.183  1.00  0.00     0.064 A 
ATOM    127  C   UNL A   1      40.361  23.496  26.438  1.00  0.00     0.173 A 
ATOM    128  C   UNL A   1      42.170  22.664  27.786  1.00  0.00     0.173 A 
ATOM    129  F   UNL A   1      39.696  24.504  25.854  1.00  0.00    -0.203 F 
ATOM    130  C   UNL A   1      39.856  22.203  26.325  1.00  0.00     0.198 A 
ATOM    131  C   UNL A   1      41.680  21.369  27.643  1.00  0.00     0.198 A 
ATOM    132  F   UNL A   1      43.287  22.854  28.504  1.00  0.00    -0.203 F 
ATOM    133  F   UNL A   1      38.718  21.988  25.650  1.00  0.00    -0.200 F 
ATOM    134  C   UNL A   1      40.519  21.141  26.919  1.00  0.00     0.200 A 
ATOM    135  F   UNL A   1      42.331  20.342  28.206  1.00  0.00    -0.200 F 
ATOM    136  F   UNL A   1      40.035  19.897  26.802  1.00  0.00    -0.200 F 
ENDBRANCH 102 126
ENDBRANCH  67  70
ENDBRANCH  57  60
ENDBRANCH  53  56
ENDBRANCH  50  53
ENDBRANCH  47  50
ENDBRANCH  44  47
ENDBRANCH  41  44
ENDBRANCH  38  41
ENDBRANCH   3  38
TORSDOF 22
ENDMDL
