MODEL 1
REMARK VINA RESULT:     -12.0      0.000      0.000
REMARK SMILES C[C@@H](C(=O)NCCCCCCNC(=O)c1ccc(-c2c3nc(c(-c4c(F)c(F)c(F)c(F)c4F)c4ccc([nH]4)c(-c4c(F)c(F)c(F)c(F)c4F)c4nc(c(-c5c(F)c(F)c(F)c(F)c5F)c5ccc2[nH]5)C=C4)C=C3)cc1)c1ccc(Cc2ccco2)cc1F
REMARK SMILES IDX 8 1 7 4 6 7 5 10 3 11 4 12 2 14 1 16 78 20 79 21 89 22 80 23
REMARK SMILES IDX 88 25 90 26 81 27 82 30 83 33 84 34 87 35 85 36 86 38 9 41
REMARK SMILES IDX 10 44 11 47 12 50 13 51 14 53 15 54 16 55 77 56 17 57 76 59
REMARK SMILES IDX 18 61 19 64 20 65 70 66 21 67 75 68 69 69 71 70 22 71 74 72
REMARK SMILES IDX 68 74 67 76 23 78 55 81 35 82 54 83 36 84 39 85 53 86 72 87
REMARK SMILES IDX 37 88 38 90 52 92 73 93 40 96 24 98 25 99 33 100 26 101
REMARK SMILES IDX 27 102 31 103 34 104 28 105 29 106 32 107 30 108 56 109
REMARK SMILES IDX 57 110 65 111 58 112 59 113 63 114 66 115 60 116 61 117
REMARK SMILES IDX 64 118 62 119 41 120 42 121 50 122 43 123 44 124 48 125
REMARK SMILES IDX 51 126 45 127 46 128 49 129 47 130
REMARK H PARENT 8 2 8 3 7 5 7 6 6 8 6 9 5 13 2 15 1 17 1 18 1 19 79 24 80 28
REMARK H PARENT 88 29 82 31 82 32 84 37 85 39 86 40 9 42 9 43 10 45 10 46
REMARK H PARENT 11 48 11 49 12 52 16 58 77 60 17 62 76 63 75 73 69 75 71 77
REMARK H PARENT 74 79 68 80 36 89 39 91 72 94 37 95 73 97
REMARK Flexibility Score: inf
ROOT
ATOM      1  C   UNL A   1      31.787  29.558  25.780  1.00  0.00    -0.052 C 
ATOM      2  H   UNL A   1      31.994  29.588  26.829  1.00  0.00     0.027 H 
ATOM      3  H   UNL A   1      31.149  28.750  25.489  1.00  0.00     0.027 H 
ENDROOT
BRANCH   1   4
ATOM      4  C   UNL A   1      33.113  29.335  25.041  1.00  0.00    -0.036 C 
ATOM      5  H   UNL A   1      32.970  29.593  24.012  1.00  0.00     0.028 H 
ATOM      6  H   UNL A   1      33.841  29.949  25.529  1.00  0.00     0.028 H 
BRANCH   4   7
ATOM      7  C   UNL A   1      33.642  27.901  25.105  1.00  0.00     0.017 C 
ATOM      8  H   UNL A   1      34.499  27.873  25.744  1.00  0.00     0.049 H 
ATOM      9  H   UNL A   1      32.866  27.271  25.487  1.00  0.00     0.049 H 
BRANCH   7  10
ATOM     10  N   UNL A   1      34.016  27.421  23.792  1.00  0.00    -0.356 N 
ATOM     11  C   UNL A   1      33.466  26.450  23.008  1.00  0.00     0.227 C 
ATOM     12  O   UNL A   1      34.002  26.265  21.913  1.00  0.00    -0.274 OA
ATOM     13  H   UNL A   1      34.798  27.872  23.399  1.00  0.00     0.163 HD
BRANCH  11  14
ATOM     14  C   UNL A   1      32.197  25.712  23.465  1.00  0.00     0.063 C 
ATOM     15  H   UNL A   1      32.362  25.515  24.504  1.00  0.00     0.045 H 
BRANCH  14  16
ATOM     16  C   UNL A   1      31.980  24.364  22.768  1.00  0.00    -0.049 C 
ATOM     17  H   UNL A   1      32.839  23.744  22.914  1.00  0.00     0.024 H 
ATOM     18  H   UNL A   1      31.831  24.524  21.720  1.00  0.00     0.024 H 
ATOM     19  H   UNL A   1      31.119  23.883  23.182  1.00  0.00     0.024 H 
ENDBRANCH  14  16
BRANCH  14  20
ATOM     20  C   UNL A   1      30.946  26.567  23.310  1.00  0.00    -0.000 A 
ATOM     21  C   UNL A   1      30.954  27.690  22.472  1.00  0.00    -0.055 A 
ATOM     22  C   UNL A   1      29.768  26.269  24.008  1.00  0.00     0.127 A 
ATOM     23  C   UNL A   1      29.819  28.501  22.364  1.00  0.00    -0.058 A 
ATOM     24  H   UNL A   1      31.802  27.922  21.933  1.00  0.00     0.063 H 
ATOM     25  C   UNL A   1      28.639  27.079  23.912  1.00  0.00    -0.022 A 
ATOM     26  F   UNL A   1      29.715  25.200  24.815  1.00  0.00    -0.207 F 
ATOM     27  C   UNL A   1      28.656  28.214  23.094  1.00  0.00    -0.038 A 
ATOM     28  H   UNL A   1      29.838  29.322  21.738  1.00  0.00     0.063 H 
ATOM     29  H   UNL A   1      27.789  26.841  24.446  1.00  0.00     0.066 H 
BRANCH  27  30
ATOM     30  C   UNL A   1      27.450  29.123  23.020  1.00  0.00     0.031 C 
ATOM     31  H   UNL A   1      26.965  29.124  23.973  1.00  0.00     0.040 H 
ATOM     32  H   UNL A   1      26.815  28.746  22.246  1.00  0.00     0.040 H 
BRANCH  30  33
ATOM     33  C   UNL A   1      27.797  30.529  22.664  1.00  0.00     0.108 A 
ATOM     34  C   UNL A   1      28.079  31.659  23.407  1.00  0.00    -0.020 A 
ATOM     35  O   UNL A   1      27.896  30.816  21.334  1.00  0.00    -0.469 OA
ATOM     36  C   UNL A   1      28.357  32.691  22.480  1.00  0.00    -0.024 A 
ATOM     37  H   UNL A   1      28.087  31.735  24.436  1.00  0.00     0.066 H 
ATOM     38  C   UNL A   1      28.234  32.127  21.233  1.00  0.00     0.091 A 
ATOM     39  H   UNL A   1      28.602  33.670  22.698  1.00  0.00     0.066 H 
ATOM     40  H   UNL A   1      28.379  32.631  20.344  1.00  0.00     0.104 H 
ENDBRANCH  30  33
ENDBRANCH  27  30
ENDBRANCH  14  20
ENDBRANCH  11  14
ENDBRANCH   7  10
ENDBRANCH   4   7
ENDBRANCH   1   4
BRANCH   1  41
ATOM     41  C   UNL A   1      31.035  30.842  25.410  1.00  0.00    -0.052 C 
ATOM     42  H   UNL A   1      30.020  30.580  25.196  1.00  0.00     0.027 H 
ATOM     43  H   UNL A   1      31.556  31.258  24.573  1.00  0.00     0.027 H 
BRANCH  41  44
ATOM     44  C   UNL A   1      31.027  31.927  26.487  1.00  0.00    -0.036 C 
ATOM     45  H   UNL A   1      30.557  31.526  27.361  1.00  0.00     0.028 H 
ATOM     46  H   UNL A   1      30.502  32.761  26.069  1.00  0.00     0.028 H 
BRANCH  44  47
ATOM     47  C   UNL A   1      32.404  32.446  26.886  1.00  0.00     0.018 C 
ATOM     48  H   UNL A   1      33.050  32.395  26.034  1.00  0.00     0.049 H 
ATOM     49  H   UNL A   1      32.764  31.835  27.687  1.00  0.00     0.049 H 
BRANCH  47  50
ATOM     50  N   UNL A   1      32.362  33.818  27.361  1.00  0.00    -0.352 N 
ATOM     51  C   UNL A   1      33.136  34.432  28.310  1.00  0.00     0.251 C 
ATOM     52  H   UNL A   1      31.679  34.389  26.939  1.00  0.00     0.163 HD
ATOM     53  O   UNL A   1      32.847  35.561  28.703  1.00  0.00    -0.269 OA
BRANCH  51  54
ATOM     54  C   UNL A   1      34.314  33.741  28.880  1.00  0.00     0.039 A 
ATOM     55  C   UNL A   1      34.104  32.687  29.775  1.00  0.00    -0.049 A 
ATOM     56  C   UNL A   1      35.615  34.154  28.580  1.00  0.00    -0.049 A 
ATOM     57  C   UNL A   1      35.196  32.030  30.347  1.00  0.00    -0.053 A 
ATOM     58  H   UNL A   1      33.143  32.394  30.012  1.00  0.00     0.063 H 
ATOM     59  C   UNL A   1      36.705  33.456  29.098  1.00  0.00    -0.053 A 
ATOM     60  H   UNL A   1      35.770  34.976  27.974  1.00  0.00     0.063 H 
ATOM     61  C   UNL A   1      36.506  32.403  30.004  1.00  0.00    -0.014 A 
ATOM     62  H   UNL A   1      35.039  31.269  31.024  1.00  0.00     0.063 H 
ATOM     63  H   UNL A   1      37.662  33.715  28.814  1.00  0.00     0.063 H 
BRANCH  61  64
ATOM     64  C   UNL A   1      37.675  31.739  30.630  1.00  0.00     0.031 A 
ATOM     65  C   UNL A   1      38.082  32.104  32.032  1.00  0.00     0.074 A 
ATOM     66  C   UNL A   1      38.394  30.840  29.930  1.00  0.00     0.049 A 
ATOM     67  N   UNL A   1      39.090  31.665  32.745  1.00  0.00    -0.248 NA
ATOM     68  C   UNL A   1      37.263  33.117  32.714  1.00  0.00    -0.034 C 
ATOM     69  C   UNL A   1      38.128  30.436  28.550  1.00  0.00    -0.036 A 
ATOM     70  N   UNL A   1      39.498  30.109  30.286  1.00  0.00    -0.354 N 
ATOM     71  C   UNL A   1      39.038  32.366  33.942  1.00  0.00     0.074 A 
ATOM     72  C   UNL A   1      37.931  33.291  33.846  1.00  0.00    -0.034 C 
ATOM     73  H   UNL A   1      36.394  33.573  32.395  1.00  0.00     0.065 H 
ATOM     74  C   UNL A   1      39.028  29.510  28.184  1.00  0.00    -0.036 A 
ATOM     75  H   UNL A   1      37.370  30.805  27.953  1.00  0.00     0.065 H 
ATOM     76  C   UNL A   1      39.947  29.273  29.292  1.00  0.00     0.049 A 
ATOM     77  H   UNL A   1      39.928  30.176  31.168  1.00  0.00     0.167 HD
ATOM     78  C   UNL A   1      39.829  32.234  35.035  1.00  0.00     0.037 A 
ATOM     79  H   UNL A   1      37.692  33.993  34.562  1.00  0.00     0.065 H 
ATOM     80  H   UNL A   1      39.063  29.039  27.266  1.00  0.00     0.065 H 
ATOM     81  C   UNL A   1      40.980  28.410  29.284  1.00  0.00     0.037 A 
ATOM     82  C   UNL A   1      40.900  31.281  35.146  1.00  0.00     0.049 A 
ATOM     83  C   UNL A   1      41.822  28.256  30.523  1.00  0.00     0.074 A 
ATOM     84  C   UNL A   1      41.717  31.021  36.234  1.00  0.00    -0.036 A 
ATOM     85  N   UNL A   1      41.302  30.426  34.132  1.00  0.00    -0.354 N 
ATOM     86  N   UNL A   1      41.721  28.875  31.674  1.00  0.00    -0.248 NA
ATOM     87  C   UNL A   1      42.913  27.274  30.463  1.00  0.00    -0.034 C 
ATOM     88  C   UNL A   1      42.634  30.032  35.865  1.00  0.00    -0.036 A 
ATOM     89  H   UNL A   1      41.659  31.480  37.156  1.00  0.00     0.065 H 
ATOM     90  C   UNL A   1      42.362  29.644  34.563  1.00  0.00     0.049 A 
ATOM     91  H   UNL A   1      40.894  30.379  33.237  1.00  0.00     0.167 HD
ATOM     92  C   UNL A   1      42.707  28.332  32.486  1.00  0.00     0.074 A 
ATOM     93  C   UNL A   1      43.392  27.329  31.698  1.00  0.00    -0.034 C 
ATOM     94  H   UNL A   1      43.225  26.694  29.668  1.00  0.00     0.065 H 
ATOM     95  H   UNL A   1      43.387  29.654  36.462  1.00  0.00     0.065 H 
ATOM     96  C   UNL A   1      43.017  28.636  33.771  1.00  0.00     0.037 A 
ATOM     97  H   UNL A   1      44.156  26.733  32.052  1.00  0.00     0.065 H 
BRANCH  78  98
ATOM     98  C   UNL A   1      39.557  33.141  36.199  1.00  0.00     0.064 A 
ATOM     99  C   UNL A   1      40.208  34.376  36.339  1.00  0.00     0.173 A 
ATOM    100  C   UNL A   1      38.616  32.781  37.177  1.00  0.00     0.173 A 
ATOM    101  F   UNL A   1      41.126  34.760  35.439  1.00  0.00    -0.203 F 
ATOM    102  C   UNL A   1      39.951  35.203  37.430  1.00  0.00     0.198 A 
ATOM    103  C   UNL A   1      38.340  33.623  38.250  1.00  0.00     0.198 A 
ATOM    104  F   UNL A   1      37.962  31.613  37.089  1.00  0.00    -0.203 F 
ATOM    105  F   UNL A   1      40.624  36.353  37.569  1.00  0.00    -0.200 F 
ATOM    106  C   UNL A   1      39.013  34.829  38.381  1.00  0.00     0.200 A 
ATOM    107  F   UNL A   1      37.425  33.267  39.162  1.00  0.00    -0.200 F 
ATOM    108  F   UNL A   1      38.764  35.626  39.428  1.00  0.00    -0.200 F 
ENDBRANCH  78  98
BRANCH  81 109
ATOM    109  C   UNL A   1      41.246  27.582  28.080  1.00  0.00     0.064 A 
ATOM    110  C   UNL A   1      40.677  26.308  27.948  1.00  0.00     0.173 A 
ATOM    111  C   UNL A   1      42.072  28.040  27.045  1.00  0.00     0.173 A 
ATOM    112  F   UNL A   1      39.896  25.820  28.922  1.00  0.00    -0.203 F 
ATOM    113  C   UNL A   1      40.942  25.513  26.834  1.00  0.00     0.198 A 
ATOM    114  C   UNL A   1      42.317  27.255  25.920  1.00  0.00     0.198 A 
ATOM    115  F   UNL A   1      42.637  29.254  27.122  1.00  0.00    -0.203 F 
ATOM    116  F   UNL A   1      40.420  24.282  26.754  1.00  0.00    -0.200 F 
ATOM    117  C   UNL A   1      41.758  25.989  25.819  1.00  0.00     0.200 A 
ATOM    118  F   UNL A   1      43.095  27.722  24.935  1.00  0.00    -0.200 F 
ATOM    119  F   UNL A   1      42.011  25.226  24.748  1.00  0.00    -0.200 F 
ENDBRANCH  81 109
BRANCH  96 120
ATOM    120  C   UNL A   1      44.109  27.839  34.421  1.00  0.00     0.064 A 
ATOM    121  C   UNL A   1      45.441  28.277  34.423  1.00  0.00     0.173 A 
ATOM    122  C   UNL A   1      43.810  26.636  35.079  1.00  0.00     0.173 A 
ATOM    123  F   UNL A   1      45.779  29.413  33.793  1.00  0.00    -0.203 F 
ATOM    124  C   UNL A   1      46.439  27.525  35.037  1.00  0.00     0.198 A 
ATOM    125  C   UNL A   1      44.806  25.902  35.716  1.00  0.00     0.198 A 
ATOM    126  F   UNL A   1      42.549  26.179  35.111  1.00  0.00    -0.203 F 
ATOM    127  F   UNL A   1      47.713  27.938  34.986  1.00  0.00    -0.200 F 
ATOM    128  C   UNL A   1      46.120  26.343  35.688  1.00  0.00     0.200 A 
ATOM    129  F   UNL A   1      44.494  24.766  36.355  1.00  0.00    -0.200 F 
ATOM    130  F   UNL A   1      47.082  25.624  36.283  1.00  0.00    -0.200 F 
ENDBRANCH  96 120
ENDBRANCH  61  64
ENDBRANCH  51  54
ENDBRANCH  47  50
ENDBRANCH  44  47
ENDBRANCH  41  44
ENDBRANCH   1  41
TORSDOF 17
ENDMDL
MODEL 2
REMARK VINA RESULT:     -11.9      0.544      1.761
REMARK SMILES C[C@@H](C(=O)NCCCCCCNC(=O)c1ccc(-c2c3nc(c(-c4c(F)c(F)c(F)c(F)c4F)c4ccc([nH]4)c(-c4c(F)c(F)c(F)c(F)c4F)c4nc(c(-c5c(F)c(F)c(F)c(F)c5F)c5ccc2[nH]5)C=C4)C=C3)cc1)c1ccc(Cc2ccco2)cc1F
REMARK SMILES IDX 8 1 7 4 6 7 5 10 3 11 4 12 2 14 1 16 78 20 79 21 89 22 80 23
REMARK SMILES IDX 88 25 90 26 81 27 82 30 83 33 84 34 87 35 85 36 86 38 9 41
REMARK SMILES IDX 10 44 11 47 12 50 13 51 14 53 15 54 16 55 77 56 17 57 76 59
REMARK SMILES IDX 18 61 19 64 20 65 70 66 21 67 75 68 69 69 71 70 22 71 74 72
REMARK SMILES IDX 68 74 67 76 23 78 55 81 35 82 54 83 36 84 39 85 53 86 72 87
REMARK SMILES IDX 37 88 38 90 52 92 73 93 40 96 24 98 25 99 33 100 26 101
REMARK SMILES IDX 27 102 31 103 34 104 28 105 29 106 32 107 30 108 56 109
REMARK SMILES IDX 57 110 65 111 58 112 59 113 63 114 66 115 60 116 61 117
REMARK SMILES IDX 64 118 62 119 41 120 42 121 50 122 43 123 44 124 48 125
REMARK SMILES IDX 51 126 45 127 46 128 49 129 47 130
REMARK H PARENT 8 2 8 3 7 5 7 6 6 8 6 9 5 13 2 15 1 17 1 18 1 19 79 24 80 28
REMARK H PARENT 88 29 82 31 82 32 84 37 85 39 86 40 9 42 9 43 10 45 10 46
REMARK H PARENT 11 48 11 49 12 52 16 58 77 60 17 62 76 63 75 73 69 75 71 77
REMARK H PARENT 74 79 68 80 36 89 39 91 72 94 37 95 73 97
REMARK Flexibility Score: inf
ROOT
ATOM      1  C   UNL A   1      32.314  29.717  25.993  1.00  0.00    -0.052 C 
ATOM      2  H   UNL A   1      32.729  29.263  25.118  1.00  0.00     0.027 H 
ATOM      3  H   UNL A   1      33.027  30.259  26.577  1.00  0.00     0.027 H 
ENDROOT
BRANCH   1   4
ATOM      4  C   UNL A   1      31.786  28.599  26.902  1.00  0.00    -0.036 C 
ATOM      5  H   UNL A   1      31.957  28.887  27.918  1.00  0.00     0.028 H 
ATOM      6  H   UNL A   1      30.749  28.481  26.668  1.00  0.00     0.028 H 
BRANCH   4   7
ATOM      7  C   UNL A   1      32.441  27.235  26.675  1.00  0.00     0.017 C 
ATOM      8  H   UNL A   1      32.985  26.959  27.555  1.00  0.00     0.049 H 
ATOM      9  H   UNL A   1      31.673  26.521  26.466  1.00  0.00     0.049 H 
BRANCH   7  10
ATOM     10  N   UNL A   1      33.351  27.272  25.550  1.00  0.00    -0.356 N 
ATOM     11  C   UNL A   1      33.282  26.669  24.328  1.00  0.00     0.227 C 
ATOM     12  O   UNL A   1      34.215  26.896  23.555  1.00  0.00    -0.274 OA
ATOM     13  H   UNL A   1      34.154  27.825  25.690  1.00  0.00     0.163 HD
BRANCH  11  14
ATOM     14  C   UNL A   1      32.050  25.832  23.947  1.00  0.00     0.063 C 
ATOM     15  H   UNL A   1      31.831  25.263  24.825  1.00  0.00     0.045 H 
BRANCH  14  16
ATOM     16  C   UNL A   1      32.304  24.842  22.804  1.00  0.00    -0.049 C 
ATOM     17  H   UNL A   1      32.413  25.379  21.885  1.00  0.00     0.024 H 
ATOM     18  H   UNL A   1      31.478  24.167  22.726  1.00  0.00     0.024 H 
ATOM     19  H   UNL A   1      33.199  24.291  23.002  1.00  0.00     0.024 H 
ENDBRANCH  14  16
BRANCH  14  20
ATOM     20  C   UNL A   1      30.848  26.702  23.601  1.00  0.00    -0.000 A 
ATOM     21  C   UNL A   1      31.002  27.837  22.794  1.00  0.00    -0.055 A 
ATOM     22  C   UNL A   1      29.569  26.407  24.091  1.00  0.00     0.127 A 
ATOM     23  C   UNL A   1      29.908  28.661  22.513  1.00  0.00    -0.058 A 
ATOM     24  H   UNL A   1      31.930  28.068  22.405  1.00  0.00     0.063 H 
ATOM     25  C   UNL A   1      28.477  27.230  23.823  1.00  0.00    -0.022 A 
ATOM     26  F   UNL A   1      29.375  25.327  24.861  1.00  0.00    -0.207 F 
ATOM     27  C   UNL A   1      28.637  28.376  23.038  1.00  0.00    -0.038 A 
ATOM     28  H   UNL A   1      30.036  29.491  21.913  1.00  0.00     0.063 H 
ATOM     29  H   UNL A   1      27.549  26.992  24.206  1.00  0.00     0.066 H 
BRANCH  27  30
ATOM     30  C   UNL A   1      27.468  29.298  22.780  1.00  0.00     0.031 C 
ATOM     31  H   UNL A   1      26.771  29.198  23.586  1.00  0.00     0.040 H 
ATOM     32  H   UNL A   1      27.040  29.015  21.841  1.00  0.00     0.040 H 
BRANCH  30  33
ATOM     33  C   UNL A   1      27.864  30.731  22.673  1.00  0.00     0.108 A 
ATOM     34  C   UNL A   1      28.224  31.693  23.597  1.00  0.00    -0.020 A 
ATOM     35  O   UNL A   1      27.926  31.256  21.415  1.00  0.00    -0.469 OA
ATOM     36  C   UNL A   1      28.513  32.868  22.864  1.00  0.00    -0.024 A 
ATOM     37  H   UNL A   1      28.274  31.577  24.622  1.00  0.00     0.066 H 
ATOM     38  C   UNL A   1      28.318  32.550  21.541  1.00  0.00     0.091 A 
ATOM     39  H   UNL A   1      28.809  33.780  23.246  1.00  0.00     0.066 H 
ATOM     40  H   UNL A   1      28.452  33.204  20.754  1.00  0.00     0.104 H 
ENDBRANCH  30  33
ENDBRANCH  27  30
ENDBRANCH  14  20
ENDBRANCH  11  14
ENDBRANCH   7  10
ENDBRANCH   4   7
ENDBRANCH   1   4
BRANCH   1  41
ATOM     41  C   UNL A   1      31.270  30.745  25.541  1.00  0.00    -0.052 C 
ATOM     42  H   UNL A   1      30.321  30.255  25.498  1.00  0.00     0.027 H 
ATOM     43  H   UNL A   1      31.607  31.111  24.594  1.00  0.00     0.027 H 
BRANCH  41  44
ATOM     44  C   UNL A   1      31.129  31.972  26.444  1.00  0.00    -0.036 C 
ATOM     45  H   UNL A   1      30.475  31.717  27.252  1.00  0.00     0.028 H 
ATOM     46  H   UNL A   1      30.751  32.758  25.825  1.00  0.00     0.028 H 
BRANCH  44  47
ATOM     47  C   UNL A   1      32.436  32.487  27.036  1.00  0.00     0.018 C 
ATOM     48  H   UNL A   1      33.209  32.390  26.301  1.00  0.00     0.049 H 
ATOM     49  H   UNL A   1      32.652  31.905  27.908  1.00  0.00     0.049 H 
BRANCH  47  50
ATOM     50  N   UNL A   1      32.349  33.878  27.443  1.00  0.00    -0.352 N 
ATOM     51  C   UNL A   1      33.063  34.549  28.401  1.00  0.00     0.251 C 
ATOM     52  H   UNL A   1      31.681  34.417  26.961  1.00  0.00     0.163 HD
ATOM     53  O   UNL A   1      32.737  35.690  28.725  1.00  0.00    -0.269 OA
BRANCH  51  54
ATOM     54  C   UNL A   1      34.219  33.905  29.064  1.00  0.00     0.039 A 
ATOM     55  C   UNL A   1      35.507  34.343  28.739  1.00  0.00    -0.049 A 
ATOM     56  C   UNL A   1      34.047  32.847  29.961  1.00  0.00    -0.049 A 
ATOM     57  C   UNL A   1      36.618  33.740  29.331  1.00  0.00    -0.053 A 
ATOM     58  H   UNL A   1      35.636  35.112  28.062  1.00  0.00     0.063 H 
ATOM     59  C   UNL A   1      35.152  32.289  30.602  1.00  0.00    -0.053 A 
ATOM     60  H   UNL A   1      33.101  32.477  30.148  1.00  0.00     0.063 H 
ATOM     61  C   UNL A   1      36.448  32.714  30.276  1.00  0.00    -0.014 A 
ATOM     62  H   UNL A   1      37.568  34.048  29.073  1.00  0.00     0.063 H 
ATOM     63  H   UNL A   1      35.015  31.561  31.319  1.00  0.00     0.063 H 
BRANCH  61  64
ATOM     64  C   UNL A   1      37.620  32.040  30.887  1.00  0.00     0.031 A 
ATOM     65  C   UNL A   1      38.063  32.420  32.274  1.00  0.00     0.074 A 
ATOM     66  C   UNL A   1      38.309  31.120  30.186  1.00  0.00     0.049 A 
ATOM     67  N   UNL A   1      39.080  31.976  32.972  1.00  0.00    -0.248 NA
ATOM     68  C   UNL A   1      37.275  33.457  32.958  1.00  0.00    -0.034 C 
ATOM     69  C   UNL A   1      38.007  30.698  28.818  1.00  0.00    -0.036 A 
ATOM     70  N   UNL A   1      39.409  30.376  30.529  1.00  0.00    -0.354 N 
ATOM     71  C   UNL A   1      39.065  32.696  34.159  1.00  0.00     0.074 A 
ATOM     72  C   UNL A   1      37.970  33.637  34.072  1.00  0.00    -0.034 C 
ATOM     73  H   UNL A   1      36.407  33.922  32.651  1.00  0.00     0.065 H 
ATOM     74  C   UNL A   1      38.884  29.752  28.447  1.00  0.00    -0.036 A 
ATOM     75  H   UNL A   1      37.243  31.071  28.233  1.00  0.00     0.065 H 
ATOM     76  C   UNL A   1      39.823  29.518  29.540  1.00  0.00     0.049 A 
ATOM     77  H   UNL A   1      39.860  30.449  31.401  1.00  0.00     0.167 HD
ATOM     78  C   UNL A   1      39.877  32.568  35.236  1.00  0.00     0.037 A 
ATOM     79  H   UNL A   1      37.759  34.354  34.782  1.00  0.00     0.065 H 
ATOM     80  H   UNL A   1      38.892  29.267  27.536  1.00  0.00     0.065 H 
ATOM     81  C   UNL A   1      40.842  28.637  29.523  1.00  0.00     0.037 A 
ATOM     82  C   UNL A   1      40.935  31.599  35.340  1.00  0.00     0.049 A 
ATOM     83  C   UNL A   1      41.708  28.490  30.745  1.00  0.00     0.074 A 
ATOM     84  C   UNL A   1      41.771  31.343  36.413  1.00  0.00    -0.036 A 
ATOM     85  N   UNL A   1      41.301  30.722  34.330  1.00  0.00    -0.354 N 
ATOM     86  N   UNL A   1      41.642  29.128  31.889  1.00  0.00    -0.248 NA
ATOM     87  C   UNL A   1      42.781  27.489  30.677  1.00  0.00    -0.034 C 
ATOM     88  C   UNL A   1      42.664  30.333  36.040  1.00  0.00    -0.036 A 
ATOM     89  H   UNL A   1      41.741  31.816  37.330  1.00  0.00     0.065 H 
ATOM     90  C   UNL A   1      42.358  29.930  34.751  1.00  0.00     0.049 A 
ATOM     91  H   UNL A   1      40.873  30.668  33.445  1.00  0.00     0.167 HD
ATOM     92  C   UNL A   1      42.636  28.581  32.688  1.00  0.00     0.074 A 
ATOM     93  C   UNL A   1      43.288  27.555  31.901  1.00  0.00    -0.034 C 
ATOM     94  H   UNL A   1      43.067  26.892  29.886  1.00  0.00     0.065 H 
ATOM     95  H   UNL A   1      43.424  29.952  36.627  1.00  0.00     0.065 H 
ATOM     96  C   UNL A   1      42.979  28.899  33.961  1.00  0.00     0.037 A 
ATOM     97  H   UNL A   1      44.050  26.951  32.248  1.00  0.00     0.065 H 
BRANCH  78  98
ATOM     98  C   UNL A   1      39.645  33.496  36.392  1.00  0.00     0.064 A 
ATOM     99  C   UNL A   1      40.249  34.761  36.453  1.00  0.00     0.173 A 
ATOM    100  C   UNL A   1      38.789  33.127  37.441  1.00  0.00     0.173 A 
ATOM    101  F   UNL A   1      41.086  35.157  35.482  1.00  0.00    -0.203 F 
ATOM    102  C   UNL A   1      40.030  35.609  37.537  1.00  0.00     0.198 A 
ATOM    103  C   UNL A   1      38.549  33.988  38.508  1.00  0.00     0.198 A 
ATOM    104  F   UNL A   1      38.183  31.930  37.430  1.00  0.00    -0.203 F 
ATOM    105  F   UNL A   1      40.659  36.790  37.599  1.00  0.00    -0.200 F 
ATOM    106  C   UNL A   1      39.176  35.224  38.560  1.00  0.00     0.200 A 
ATOM    107  F   UNL A   1      37.715  33.621  39.490  1.00  0.00    -0.200 F 
ATOM    108  F   UNL A   1      38.964  36.041  39.600  1.00  0.00    -0.200 F 
ENDBRANCH  78  98
BRANCH  81 109
ATOM    109  C   UNL A   1      41.068  27.787  28.327  1.00  0.00     0.064 A 
ATOM    110  C   UNL A   1      41.890  28.229  27.280  1.00  0.00     0.173 A 
ATOM    111  C   UNL A   1      40.471  26.526  28.201  1.00  0.00     0.173 A 
ATOM    112  F   UNL A   1      42.466  29.438  27.347  1.00  0.00    -0.203 F 
ATOM    113  C   UNL A   1      42.087  27.450  26.142  1.00  0.00     0.198 A 
ATOM    114  C   UNL A   1      40.689  25.736  27.074  1.00  0.00     0.198 A 
ATOM    115  F   UNL A   1      39.681  26.055  29.177  1.00  0.00    -0.203 F 
ATOM    116  F   UNL A   1      42.841  27.916  25.137  1.00  0.00    -0.200 F 
ATOM    117  C   UNL A   1      41.491  26.202  26.042  1.00  0.00     0.200 A 
ATOM    118  F   UNL A   1      40.122  24.526  26.985  1.00  0.00    -0.200 F 
ATOM    119  F   UNL A   1      41.682  25.453  24.948  1.00  0.00    -0.200 F 
ENDBRANCH  81 109
BRANCH  96 120
ATOM    120  C   UNL A   1      44.072  28.095  34.599  1.00  0.00     0.064 A 
ATOM    121  C   UNL A   1      43.806  26.901  35.285  1.00  0.00     0.173 A 
ATOM    122  C   UNL A   1      45.409  28.511  34.494  1.00  0.00     0.173 A 
ATOM    123  F   UNL A   1      42.543  26.471  35.425  1.00  0.00    -0.203 F 
ATOM    124  C   UNL A   1      44.836  26.166  35.866  1.00  0.00     0.198 A 
ATOM    125  C   UNL A   1      46.438  27.758  35.053  1.00  0.00     0.198 A 
ATOM    126  F   UNL A   1      45.715  29.642  33.843  1.00  0.00    -0.203 F 
ATOM    127  F   UNL A   1      44.554  25.053  36.557  1.00  0.00    -0.200 F 
ATOM    128  C   UNL A   1      46.150  26.591  35.744  1.00  0.00     0.200 A 
ATOM    129  F   UNL A   1      47.708  28.165  34.923  1.00  0.00    -0.200 F 
ATOM    130  F   UNL A   1      47.140  25.879  36.300  1.00  0.00    -0.200 F 
ENDBRANCH  96 120
ENDBRANCH  61  64
ENDBRANCH  51  54
ENDBRANCH  47  50
ENDBRANCH  44  47
ENDBRANCH  41  44
ENDBRANCH   1  41
TORSDOF 17
ENDMDL
MODEL 3
REMARK VINA RESULT:     -11.9      0.525      1.754
REMARK SMILES C[C@@H](C(=O)NCCCCCCNC(=O)c1ccc(-c2c3nc(c(-c4c(F)c(F)c(F)c(F)c4F)c4ccc([nH]4)c(-c4c(F)c(F)c(F)c(F)c4F)c4nc(c(-c5c(F)c(F)c(F)c(F)c5F)c5ccc2[nH]5)C=C4)C=C3)cc1)c1ccc(Cc2ccco2)cc1F
REMARK SMILES IDX 8 1 7 4 6 7 5 10 3 11 4 12 2 14 1 16 78 20 79 21 89 22 80 23
REMARK SMILES IDX 88 25 90 26 81 27 82 30 83 33 84 34 87 35 85 36 86 38 9 41
REMARK SMILES IDX 10 44 11 47 12 50 13 51 14 53 15 54 16 55 77 56 17 57 76 59
REMARK SMILES IDX 18 61 19 64 20 65 70 66 21 67 75 68 69 69 71 70 22 71 74 72
REMARK SMILES IDX 68 74 67 76 23 78 55 81 35 82 54 83 36 84 39 85 53 86 72 87
REMARK SMILES IDX 37 88 38 90 52 92 73 93 40 96 24 98 25 99 33 100 26 101
REMARK SMILES IDX 27 102 31 103 34 104 28 105 29 106 32 107 30 108 56 109
REMARK SMILES IDX 57 110 65 111 58 112 59 113 63 114 66 115 60 116 61 117
REMARK SMILES IDX 64 118 62 119 41 120 42 121 50 122 43 123 44 124 48 125
REMARK SMILES IDX 51 126 45 127 46 128 49 129 47 130
REMARK H PARENT 8 2 8 3 7 5 7 6 6 8 6 9 5 13 2 15 1 17 1 18 1 19 79 24 80 28
REMARK H PARENT 88 29 82 31 82 32 84 37 85 39 86 40 9 42 9 43 10 45 10 46
REMARK H PARENT 11 48 11 49 12 52 16 58 77 60 17 62 76 63 75 73 69 75 71 77
REMARK H PARENT 74 79 68 80 36 89 39 91 72 94 37 95 73 97
REMARK Flexibility Score: inf
ROOT
ATOM      1  C   UNL A   1      32.263  29.732  25.816  1.00  0.00    -0.052 C 
ATOM      2  H   UNL A   1      32.499  29.222  24.907  1.00  0.00     0.027 H 
ATOM      3  H   UNL A   1      33.096  30.241  26.254  1.00  0.00     0.027 H 
ENDROOT
BRANCH   1   4
ATOM      4  C   UNL A   1      31.820  28.684  26.846  1.00  0.00    -0.036 C 
ATOM      5  H   UNL A   1      32.069  29.048  27.821  1.00  0.00     0.028 H 
ATOM      6  H   UNL A   1      30.769  28.545  26.707  1.00  0.00     0.028 H 
BRANCH   4   7
ATOM      7  C   UNL A   1      32.467  27.309  26.671  1.00  0.00     0.017 C 
ATOM      8  H   UNL A   1      33.011  27.063  27.559  1.00  0.00     0.049 H 
ATOM      9  H   UNL A   1      31.694  26.591  26.490  1.00  0.00     0.049 H 
BRANCH   7  10
ATOM     10  N   UNL A   1      33.374  27.298  25.543  1.00  0.00    -0.356 N 
ATOM     11  C   UNL A   1      33.306  26.638  24.351  1.00  0.00     0.227 C 
ATOM     12  O   UNL A   1      34.237  26.833  23.566  1.00  0.00    -0.274 OA
ATOM     13  H   UNL A   1      34.174  27.861  25.655  1.00  0.00     0.163 HD
BRANCH  11  14
ATOM     14  C   UNL A   1      32.078  25.777  24.012  1.00  0.00     0.063 C 
ATOM     15  H   UNL A   1      31.880  25.229  24.908  1.00  0.00     0.045 H 
BRANCH  14  16
ATOM     16  C   UNL A   1      32.326  24.759  22.892  1.00  0.00    -0.049 C 
ATOM     17  H   UNL A   1      33.152  25.082  22.293  1.00  0.00     0.024 H 
ATOM     18  H   UNL A   1      31.452  24.681  22.281  1.00  0.00     0.024 H 
ATOM     19  H   UNL A   1      32.549  23.805  23.321  1.00  0.00     0.024 H 
ENDBRANCH  14  16
BRANCH  14  20
ATOM     20  C   UNL A   1      30.861  26.624  23.661  1.00  0.00    -0.000 A 
ATOM     21  C   UNL A   1      30.988  27.732  22.813  1.00  0.00    -0.055 A 
ATOM     22  C   UNL A   1      29.595  26.335  24.188  1.00  0.00     0.127 A 
ATOM     23  C   UNL A   1      29.880  28.536  22.527  1.00  0.00    -0.058 A 
ATOM     24  H   UNL A   1      31.905  27.957  22.397  1.00  0.00     0.063 H 
ATOM     25  C   UNL A   1      28.491  27.138  23.916  1.00  0.00    -0.022 A 
ATOM     26  F   UNL A   1      29.429  25.280  24.999  1.00  0.00    -0.207 F 
ATOM     27  C   UNL A   1      28.623  28.258  23.088  1.00  0.00    -0.038 A 
ATOM     28  H   UNL A   1      29.987  29.345  21.896  1.00  0.00     0.063 H 
ATOM     29  H   UNL A   1      27.573  26.906  24.326  1.00  0.00     0.066 H 
BRANCH  27  30
ATOM     30  C   UNL A   1      27.440  29.160  22.824  1.00  0.00     0.031 C 
ATOM     31  H   UNL A   1      26.763  29.085  23.649  1.00  0.00     0.040 H 
ATOM     32  H   UNL A   1      26.992  28.837  21.907  1.00  0.00     0.040 H 
BRANCH  30  33
ATOM     33  C   UNL A   1      27.820  30.591  22.652  1.00  0.00     0.108 A 
ATOM     34  C   UNL A   1      28.157  31.601  23.533  1.00  0.00    -0.020 A 
ATOM     35  O   UNL A   1      27.893  31.054  21.371  1.00  0.00    -0.469 OA
ATOM     36  C   UNL A   1      28.442  32.742  22.746  1.00  0.00    -0.024 A 
ATOM     37  H   UNL A   1      28.194  31.535  24.562  1.00  0.00     0.066 H 
ATOM     38  C   UNL A   1      28.269  32.358  21.439  1.00  0.00     0.091 A 
ATOM     39  H   UNL A   1      28.723  33.675  23.087  1.00  0.00     0.066 H 
ATOM     40  H   UNL A   1      28.406  32.974  20.622  1.00  0.00     0.104 H 
ENDBRANCH  30  33
ENDBRANCH  27  30
ENDBRANCH  14  20
ENDBRANCH  11  14
ENDBRANCH   7  10
ENDBRANCH   4   7
ENDBRANCH   1   4
BRANCH   1  41
ATOM     41  C   UNL A   1      31.228  30.816  25.495  1.00  0.00    -0.052 C 
ATOM     42  H   UNL A   1      30.271  30.345  25.411  1.00  0.00     0.027 H 
ATOM     43  H   UNL A   1      31.558  31.280  24.589  1.00  0.00     0.027 H 
BRANCH  41  44
ATOM     44  C   UNL A   1      31.115  31.938  26.528  1.00  0.00    -0.036 C 
ATOM     45  H   UNL A   1      30.566  31.564  27.367  1.00  0.00     0.028 H 
ATOM     46  H   UNL A   1      30.630  32.754  26.034  1.00  0.00     0.028 H 
BRANCH  44  47
ATOM     47  C   UNL A   1      32.447  32.479  27.038  1.00  0.00     0.018 C 
ATOM     48  H   UNL A   1      33.174  32.391  26.257  1.00  0.00     0.049 H 
ATOM     49  H   UNL A   1      32.725  31.905  27.897  1.00  0.00     0.049 H 
BRANCH  47  50
ATOM     50  N   UNL A   1      32.361  33.870  27.443  1.00  0.00    -0.352 N 
ATOM     51  C   UNL A   1      33.074  34.541  28.402  1.00  0.00     0.251 C 
ATOM     52  H   UNL A   1      31.694  34.409  26.959  1.00  0.00     0.163 HD
ATOM     53  O   UNL A   1      32.748  35.682  28.724  1.00  0.00    -0.269 OA
BRANCH  51  54
ATOM     54  C   UNL A   1      34.229  33.896  29.066  1.00  0.00     0.039 A 
ATOM     55  C   UNL A   1      35.518  34.302  28.710  1.00  0.00    -0.049 A 
ATOM     56  C   UNL A   1      34.051  32.868  29.996  1.00  0.00    -0.049 A 
ATOM     57  C   UNL A   1      36.628  33.697  29.304  1.00  0.00    -0.053 A 
ATOM     58  H   UNL A   1      35.651  35.048  28.009  1.00  0.00     0.063 H 
ATOM     59  C   UNL A   1      35.156  32.310  30.638  1.00  0.00    -0.053 A 
ATOM     60  H   UNL A   1      33.102  32.521  30.208  1.00  0.00     0.063 H 
ATOM     61  C   UNL A   1      36.455  32.703  30.281  1.00  0.00    -0.014 A 
ATOM     62  H   UNL A   1      37.579  33.981  29.023  1.00  0.00     0.063 H 
ATOM     63  H   UNL A   1      35.018  31.606  31.378  1.00  0.00     0.063 H 
BRANCH  61  64
ATOM     64  C   UNL A   1      37.624  32.026  30.894  1.00  0.00     0.031 A 
ATOM     65  C   UNL A   1      38.058  32.397  32.287  1.00  0.00     0.074 A 
ATOM     66  C   UNL A   1      38.319  31.112  30.191  1.00  0.00     0.049 A 
ATOM     67  N   UNL A   1      39.070  31.950  32.988  1.00  0.00    -0.248 NA
ATOM     68  C   UNL A   1      37.264  33.427  32.973  1.00  0.00    -0.034 C 
ATOM     69  C   UNL A   1      38.026  30.700  28.818  1.00  0.00    -0.036 A 
ATOM     70  N   UNL A   1      39.418  30.367  30.536  1.00  0.00    -0.354 N 
ATOM     71  C   UNL A   1      39.047  32.661  34.180  1.00  0.00     0.074 A 
ATOM     72  C   UNL A   1      37.951  33.601  34.093  1.00  0.00    -0.034 C 
ATOM     73  H   UNL A   1      36.397  33.894  32.663  1.00  0.00     0.065 H 
ATOM     74  C   UNL A   1      38.907  29.758  28.446  1.00  0.00    -0.036 A 
ATOM     75  H   UNL A   1      37.265  31.075  28.231  1.00  0.00     0.065 H 
ATOM     76  C   UNL A   1      39.840  29.517  29.543  1.00  0.00     0.049 A 
ATOM     77  H   UNL A   1      39.863  30.435  31.411  1.00  0.00     0.167 HD
ATOM     78  C   UNL A   1      39.852  32.526  35.261  1.00  0.00     0.037 A 
ATOM     79  H   UNL A   1      37.734  34.312  34.807  1.00  0.00     0.065 H 
ATOM     80  H   UNL A   1      38.921  29.280  27.532  1.00  0.00     0.065 H 
ATOM     81  C   UNL A   1      40.860  28.639  29.527  1.00  0.00     0.037 A 
ATOM     82  C   UNL A   1      40.912  31.559  35.365  1.00  0.00     0.049 A 
ATOM     83  C   UNL A   1      41.718  28.484  30.753  1.00  0.00     0.074 A 
ATOM     84  C   UNL A   1      41.741  31.296  36.441  1.00  0.00    -0.036 A 
ATOM     85  N   UNL A   1      41.285  30.690  34.351  1.00  0.00    -0.354 N 
ATOM     86  N   UNL A   1      41.645  29.113  31.901  1.00  0.00    -0.248 NA
ATOM     87  C   UNL A   1      42.794  27.485  30.685  1.00  0.00    -0.034 C 
ATOM     88  C   UNL A   1      42.638  30.291  36.067  1.00  0.00    -0.036 A 
ATOM     89  H   UNL A   1      41.704  31.763  37.361  1.00  0.00     0.065 H 
ATOM     90  C   UNL A   1      42.341  29.897  34.773  1.00  0.00     0.049 A 
ATOM     91  H   UNL A   1      40.863  30.642  33.463  1.00  0.00     0.167 HD
ATOM     92  C   UNL A   1      42.635  28.563  32.702  1.00  0.00     0.074 A 
ATOM     93  C   UNL A   1      43.293  27.543  31.912  1.00  0.00    -0.034 C 
ATOM     94  H   UNL A   1      43.086  26.895  29.891  1.00  0.00     0.065 H 
ATOM     95  H   UNL A   1      43.395  29.907  36.656  1.00  0.00     0.065 H 
ATOM     96  C   UNL A   1      42.969  28.872  33.979  1.00  0.00     0.037 A 
ATOM     97  H   UNL A   1      44.054  26.939  32.260  1.00  0.00     0.065 H 
BRANCH  78  98
ATOM     98  C   UNL A   1      39.612  33.446  36.422  1.00  0.00     0.064 A 
ATOM     99  C   UNL A   1      38.758  33.094  37.478  1.00  0.00     0.173 A 
ATOM    100  C   UNL A   1      40.262  34.688  36.492  1.00  0.00     0.173 A 
ATOM    101  F   UNL A   1      38.101  31.923  37.453  1.00  0.00    -0.203 F 
ATOM    102  C   UNL A   1      38.540  33.962  38.545  1.00  0.00     0.198 A 
ATOM    103  C   UNL A   1      40.065  35.541  37.574  1.00  0.00     0.198 A 
ATOM    104  F   UNL A   1      41.093  35.072  35.512  1.00  0.00    -0.203 F 
ATOM    105  F   UNL A   1      37.679  33.625  39.515  1.00  0.00    -0.200 F 
ATOM    106  C   UNL A   1      39.197  35.182  38.595  1.00  0.00     0.200 A 
ATOM    107  F   UNL A   1      40.710  36.714  37.628  1.00  0.00    -0.200 F 
ATOM    108  F   UNL A   1      38.989  36.015  39.623  1.00  0.00    -0.200 F 
ENDBRANCH  78  98
BRANCH  81 109
ATOM    109  C   UNL A   1      41.096  27.798  28.326  1.00  0.00     0.064 A 
ATOM    110  C   UNL A   1      41.956  28.230  27.307  1.00  0.00     0.173 A 
ATOM    111  C   UNL A   1      40.469  26.554  28.168  1.00  0.00     0.173 A 
ATOM    112  F   UNL A   1      42.562  29.422  27.405  1.00  0.00    -0.203 F 
ATOM    113  C   UNL A   1      42.163  27.460  26.164  1.00  0.00     0.198 A 
ATOM    114  C   UNL A   1      40.696  25.773  27.037  1.00  0.00     0.198 A 
ATOM    115  F   UNL A   1      39.641  26.093  29.117  1.00  0.00    -0.203 F 
ATOM    116  F   UNL A   1      42.955  27.918  25.185  1.00  0.00    -0.200 F 
ATOM    117  C   UNL A   1      41.536  26.230  26.032  1.00  0.00     0.200 A 
ATOM    118  F   UNL A   1      40.099  24.580  26.917  1.00  0.00    -0.200 F 
ATOM    119  F   UNL A   1      41.737  25.489  24.934  1.00  0.00    -0.200 F 
ENDBRANCH  81 109
BRANCH  96 120
ATOM    120  C   UNL A   1      44.059  28.065  34.619  1.00  0.00     0.064 A 
ATOM    121  C   UNL A   1      45.397  28.484  34.597  1.00  0.00     0.173 A 
ATOM    122  C   UNL A   1      43.753  26.872  35.293  1.00  0.00     0.173 A 
ATOM    123  F   UNL A   1      45.741  29.609  33.953  1.00  0.00    -0.203 F 
ATOM    124  C   UNL A   1      46.394  27.723  35.203  1.00  0.00     0.198 A 
ATOM    125  C   UNL A   1      44.748  26.129  35.920  1.00  0.00     0.198 A 
ATOM    126  F   UNL A   1      42.486  26.433  35.347  1.00  0.00    -0.203 F 
ATOM    127  F   UNL A   1      47.672  28.117  35.128  1.00  0.00    -0.200 F 
ATOM    128  C   UNL A   1      46.067  26.551  35.869  1.00  0.00     0.200 A 
ATOM    129  F   UNL A   1      44.429  25.003  36.573  1.00  0.00    -0.200 F 
ATOM    130  F   UNL A   1      47.028  25.822  36.454  1.00  0.00    -0.200 F 
ENDBRANCH  96 120
ENDBRANCH  61  64
ENDBRANCH  51  54
ENDBRANCH  47  50
ENDBRANCH  44  47
ENDBRANCH  41  44
ENDBRANCH   1  41
TORSDOF 17
ENDMDL
MODEL 4
REMARK VINA RESULT:     -11.8      1.091      7.532
REMARK SMILES C[C@@H](C(=O)NCCCCCCNC(=O)c1ccc(-c2c3nc(c(-c4c(F)c(F)c(F)c(F)c4F)c4ccc([nH]4)c(-c4c(F)c(F)c(F)c(F)c4F)c4nc(c(-c5c(F)c(F)c(F)c(F)c5F)c5ccc2[nH]5)C=C4)C=C3)cc1)c1ccc(Cc2ccco2)cc1F
REMARK SMILES IDX 8 1 7 4 6 7 5 10 3 11 4 12 2 14 1 16 78 20 79 21 89 22 80 23
REMARK SMILES IDX 88 25 90 26 81 27 82 30 83 33 84 34 87 35 85 36 86 38 9 41
REMARK SMILES IDX 10 44 11 47 12 50 13 51 14 53 15 54 16 55 77 56 17 57 76 59
REMARK SMILES IDX 18 61 19 64 20 65 70 66 21 67 75 68 69 69 71 70 22 71 74 72
REMARK SMILES IDX 68 74 67 76 23 78 55 81 35 82 54 83 36 84 39 85 53 86 72 87
REMARK SMILES IDX 37 88 38 90 52 92 73 93 40 96 24 98 25 99 33 100 26 101
REMARK SMILES IDX 27 102 31 103 34 104 28 105 29 106 32 107 30 108 56 109
REMARK SMILES IDX 57 110 65 111 58 112 59 113 63 114 66 115 60 116 61 117
REMARK SMILES IDX 64 118 62 119 41 120 42 121 50 122 43 123 44 124 48 125
REMARK SMILES IDX 51 126 45 127 46 128 49 129 47 130
REMARK H PARENT 8 2 8 3 7 5 7 6 6 8 6 9 5 13 2 15 1 17 1 18 1 19 79 24 80 28
REMARK H PARENT 88 29 82 31 82 32 84 37 85 39 86 40 9 42 9 43 10 45 10 46
REMARK H PARENT 11 48 11 49 12 52 16 58 77 60 17 62 76 63 75 73 69 75 71 77
REMARK H PARENT 74 79 68 80 36 89 39 91 72 94 37 95 73 97
REMARK Flexibility Score: inf
ROOT
ATOM      1  C   UNL A   1      32.270  29.968  26.915  1.00  0.00    -0.052 C 
ATOM      2  H   UNL A   1      33.214  29.867  26.423  1.00  0.00     0.027 H 
ATOM      3  H   UNL A   1      32.328  30.461  27.863  1.00  0.00     0.027 H 
ENDROOT
BRANCH   1   4
ATOM      4  C   UNL A   1      31.733  28.560  27.204  1.00  0.00    -0.036 C 
ATOM      5  H   UNL A   1      31.529  28.489  28.252  1.00  0.00     0.028 H 
ATOM      6  H   UNL A   1      30.861  28.436  26.598  1.00  0.00     0.028 H 
BRANCH   4   7
ATOM      7  C   UNL A   1      32.689  27.427  26.826  1.00  0.00     0.017 C 
ATOM      8  H   UNL A   1      33.270  27.159  27.685  1.00  0.00     0.049 H 
ATOM      9  H   UNL A   1      32.110  26.594  26.488  1.00  0.00     0.049 H 
BRANCH   7  10
ATOM     10  N   UNL A   1      33.582  27.829  25.760  1.00  0.00    -0.356 N 
ATOM     11  C   UNL A   1      33.632  27.450  24.450  1.00  0.00     0.227 C 
ATOM     12  O   UNL A   1      34.510  27.977  23.764  1.00  0.00    -0.274 OA
ATOM     13  H   UNL A   1      34.266  28.485  26.023  1.00  0.00     0.163 HD
BRANCH  11  14
ATOM     14  C   UNL A   1      32.580  26.483  23.883  1.00  0.00     0.063 C 
ATOM     15  H   UNL A   1      32.388  25.799  24.682  1.00  0.00     0.045 H 
BRANCH  14  16
ATOM     16  C   UNL A   1      33.073  25.667  22.682  1.00  0.00    -0.049 C 
ATOM     17  H   UNL A   1      33.822  26.222  22.158  1.00  0.00     0.024 H 
ATOM     18  H   UNL A   1      32.252  25.467  22.025  1.00  0.00     0.024 H 
ATOM     19  H   UNL A   1      33.489  24.743  23.026  1.00  0.00     0.024 H 
ENDBRANCH  14  16
BRANCH  14  20
ATOM     20  C   UNL A   1      31.286  27.195  23.510  1.00  0.00    -0.000 A 
ATOM     21  C   UNL A   1      31.315  28.362  22.736  1.00  0.00    -0.055 A 
ATOM     22  C   UNL A   1      30.041  26.719  23.943  1.00  0.00     0.127 A 
ATOM     23  C   UNL A   1      30.131  29.041  22.432  1.00  0.00    -0.058 A 
ATOM     24  H   UNL A   1      32.217  28.725  22.389  1.00  0.00     0.063 H 
ATOM     25  C   UNL A   1      28.859  27.397  23.652  1.00  0.00    -0.022 A 
ATOM     26  F   UNL A   1      29.966  25.602  24.681  1.00  0.00    -0.207 F 
ATOM     27  C   UNL A   1      28.893  28.575  22.899  1.00  0.00    -0.038 A 
ATOM     28  H   UNL A   1      30.168  29.896  21.855  1.00  0.00     0.063 H 
ATOM     29  H   UNL A   1      27.958  27.028  23.993  1.00  0.00     0.066 H 
BRANCH  27  30
ATOM     30  C   UNL A   1      27.620  29.341  22.618  1.00  0.00     0.031 C 
ATOM     31  H   UNL A   1      26.950  29.204  23.441  1.00  0.00     0.040 H 
ATOM     32  H   UNL A   1      27.215  28.960  21.703  1.00  0.00     0.040 H 
BRANCH  30  33
ATOM     33  C   UNL A   1      27.845  30.803  22.429  1.00  0.00     0.108 A 
ATOM     34  C   UNL A   1      28.101  31.848  23.295  1.00  0.00    -0.020 A 
ATOM     35  O   UNL A   1      27.830  31.262  21.144  1.00  0.00    -0.469 OA
ATOM     36  C   UNL A   1      28.243  33.007  22.496  1.00  0.00    -0.024 A 
ATOM     37  H   UNL A   1      28.176  31.793  24.323  1.00  0.00     0.066 H 
ATOM     38  C   UNL A   1      28.070  32.598  21.196  1.00  0.00     0.091 A 
ATOM     39  H   UNL A   1      28.435  33.967  22.825  1.00  0.00     0.066 H 
ATOM     40  H   UNL A   1      28.118  33.219  20.373  1.00  0.00     0.104 H 
ENDBRANCH  30  33
ENDBRANCH  27  30
ENDBRANCH  14  20
ENDBRANCH  11  14
ENDBRANCH   7  10
ENDBRANCH   4   7
ENDBRANCH   1   4
BRANCH   1  41
ATOM     41  C   UNL A   1      31.372  30.847  26.038  1.00  0.00    -0.052 C 
ATOM     42  H   UNL A   1      30.387  30.429  26.050  1.00  0.00     0.027 H 
ATOM     43  H   UNL A   1      31.823  30.856  25.068  1.00  0.00     0.027 H 
BRANCH  41  44
ATOM     44  C   UNL A   1      31.269  32.311  26.470  1.00  0.00    -0.036 C 
ATOM     45  H   UNL A   1      30.439  32.404  27.139  1.00  0.00     0.028 H 
ATOM     46  H   UNL A   1      31.154  32.882  25.571  1.00  0.00     0.028 H 
BRANCH  44  47
ATOM     47  C   UNL A   1      32.506  32.863  27.170  1.00  0.00     0.018 C 
ATOM     48  H   UNL A   1      33.339  32.794  26.501  1.00  0.00     0.049 H 
ATOM     49  H   UNL A   1      32.667  32.282  28.054  1.00  0.00     0.049 H 
BRANCH  47  50
ATOM     50  N   UNL A   1      32.342  34.248  27.573  1.00  0.00    -0.352 N 
ATOM     51  C   UNL A   1      32.969  34.940  28.576  1.00  0.00     0.251 C 
ATOM     52  H   UNL A   1      31.686  34.764  27.050  1.00  0.00     0.163 HD
ATOM     53  O   UNL A   1      32.581  36.067  28.881  1.00  0.00    -0.269 OA
BRANCH  51  54
ATOM     54  C   UNL A   1      34.103  34.336  29.310  1.00  0.00     0.039 A 
ATOM     55  C   UNL A   1      35.397  34.526  28.815  1.00  0.00    -0.049 A 
ATOM     56  C   UNL A   1      33.898  33.549  30.446  1.00  0.00    -0.049 A 
ATOM     57  C   UNL A   1      36.486  33.950  29.473  1.00  0.00    -0.053 A 
ATOM     58  H   UNL A   1      35.548  35.092  27.965  1.00  0.00     0.063 H 
ATOM     59  C   UNL A   1      34.989  33.029  31.141  1.00  0.00    -0.053 A 
ATOM     60  H   UNL A   1      32.938  33.351  30.771  1.00  0.00     0.063 H 
ATOM     61  C   UNL A   1      36.291  33.205  30.648  1.00  0.00    -0.014 A 
ATOM     62  H   UNL A   1      37.437  34.071  29.094  1.00  0.00     0.063 H 
ATOM     63  H   UNL A   1      34.838  32.514  32.021  1.00  0.00     0.063 H 
BRANCH  61  64
ATOM     64  C   UNL A   1      37.433  32.558  31.338  1.00  0.00     0.031 A 
ATOM     65  C   UNL A   1      38.180  31.439  30.662  1.00  0.00     0.074 A 
ATOM     66  C   UNL A   1      37.776  32.944  32.581  1.00  0.00     0.049 A 
ATOM     67  N   UNL A   1      39.182  30.722  31.108  1.00  0.00    -0.248 NA
ATOM     68  C   UNL A   1      37.721  31.057  29.318  1.00  0.00    -0.034 C 
ATOM     69  C   UNL A   1      37.103  33.985  33.359  1.00  0.00    -0.036 A 
ATOM     70  N   UNL A   1      38.775  32.501  33.410  1.00  0.00    -0.354 N 
ATOM     71  C   UNL A   1      39.452  29.793  30.111  1.00  0.00     0.074 A 
ATOM     72  C   UNL A   1      38.483  30.005  29.059  1.00  0.00    -0.034 C 
ATOM     73  H   UNL A   1      36.995  31.495  28.730  1.00  0.00     0.065 H 
ATOM     74  C   UNL A   1      37.724  34.119  34.541  1.00  0.00    -0.036 A 
ATOM     75  H   UNL A   1      36.282  34.527  33.048  1.00  0.00     0.065 H 
ATOM     76  C   UNL A   1      38.822  33.159  34.615  1.00  0.00     0.049 A 
ATOM     77  H   UNL A   1      39.400  31.782  33.166  1.00  0.00     0.167 HD
ATOM     78  C   UNL A   1      40.436  28.863  30.067  1.00  0.00     0.037 A 
ATOM     79  H   UNL A   1      38.396  29.414  28.218  1.00  0.00     0.065 H 
ATOM     80  H   UNL A   1      37.467  34.793  35.279  1.00  0.00     0.065 H 
ATOM     81  C   UNL A   1      39.662  33.007  35.656  1.00  0.00     0.037 A 
ATOM     82  C   UNL A   1      41.427  28.685  31.094  1.00  0.00     0.049 A 
ATOM     83  C   UNL A   1      40.768  31.989  35.568  1.00  0.00     0.074 A 
ATOM     84  C   UNL A   1      42.506  27.817  31.114  1.00  0.00    -0.036 A 
ATOM     85  N   UNL A   1      41.464  29.395  32.284  1.00  0.00    -0.354 N 
ATOM     86  N   UNL A   1      41.057  31.163  34.592  1.00  0.00    -0.248 NA
ATOM     87  C   UNL A   1      41.672  31.894  36.722  1.00  0.00    -0.034 C 
ATOM     88  C   UNL A   1      43.174  27.979  32.332  1.00  0.00    -0.036 A 
ATOM     89  H   UNL A   1      42.769  27.162  30.361  1.00  0.00     0.065 H 
ATOM     90  C   UNL A   1      42.539  28.978  33.052  1.00  0.00     0.049 A 
ATOM     91  H   UNL A   1      40.821  30.094  32.545  1.00  0.00     0.167 HD
ATOM     92  C   UNL A   1      42.195  30.479  34.996  1.00  0.00     0.074 A 
ATOM     93  C   UNL A   1      42.547  30.991  36.304  1.00  0.00    -0.034 C 
ATOM     94  H   UNL A   1      41.635  32.398  37.622  1.00  0.00     0.065 H 
ATOM     95  H   UNL A   1      44.002  27.445  32.642  1.00  0.00     0.065 H 
ATOM     96  C   UNL A   1      42.887  29.514  34.342  1.00  0.00     0.037 A 
ATOM     97  H   UNL A   1      43.375  30.691  36.842  1.00  0.00     0.065 H 
BRANCH  78  98
ATOM     98  C   UNL A   1      40.489  27.968  28.863  1.00  0.00     0.064 A 
ATOM     99  C   UNL A   1      39.771  26.764  28.807  1.00  0.00     0.173 A 
ATOM    100  C   UNL A   1      41.249  28.331  27.740  1.00  0.00     0.173 A 
ATOM    101  F   UNL A   1      39.039  26.365  29.859  1.00  0.00    -0.203 F 
ATOM    102  C   UNL A   1      39.837  25.942  27.685  1.00  0.00     0.198 A 
ATOM    103  C   UNL A   1      41.290  27.521  26.609  1.00  0.00     0.198 A 
ATOM    104  F   UNL A   1      41.951  29.474  27.739  1.00  0.00    -0.203 F 
ATOM    105  F   UNL A   1      39.184  24.771  27.675  1.00  0.00    -0.200 F 
ATOM    106  C   UNL A   1      40.591  26.323  26.585  1.00  0.00     0.200 A 
ATOM    107  F   UNL A   1      42.009  27.896  25.543  1.00  0.00    -0.200 F 
ATOM    108  F   UNL A   1      40.651  25.532  25.506  1.00  0.00    -0.200 F 
ENDBRANCH  78  98
BRANCH  81 109
ATOM    109  C   UNL A   1      39.524  33.874  36.854  1.00  0.00     0.064 A 
ATOM    110  C   UNL A   1      40.136  35.135  36.898  1.00  0.00     0.173 A 
ATOM    111  C   UNL A   1      38.788  33.465  37.974  1.00  0.00     0.173 A 
ATOM    112  F   UNL A   1      40.868  35.560  35.858  1.00  0.00    -0.203 F 
ATOM    113  C   UNL A   1      40.036  35.945  38.027  1.00  0.00     0.198 A 
ATOM    114  C   UNL A   1      38.666  34.286  39.093  1.00  0.00     0.198 A 
ATOM    115  F   UNL A   1      38.179  32.270  37.979  1.00  0.00    -0.203 F 
ATOM    116  F   UNL A   1      40.667  37.125  38.060  1.00  0.00    -0.200 F 
ATOM    117  C   UNL A   1      39.296  35.522  39.122  1.00  0.00     0.200 A 
ATOM    118  F   UNL A   1      37.942  33.881  40.144  1.00  0.00    -0.200 F 
ATOM    119  F   UNL A   1      39.198  36.301  40.207  1.00  0.00    -0.200 F 
ENDBRANCH  81 109
BRANCH  96 120
ATOM    120  C   UNL A   1      44.124  28.987  35.006  1.00  0.00     0.064 A 
ATOM    121  C   UNL A   1      44.086  27.879  35.864  1.00  0.00     0.173 A 
ATOM    122  C   UNL A   1      45.371  29.580  34.751  1.00  0.00     0.173 A 
ATOM    123  F   UNL A   1      42.916  27.287  36.150  1.00  0.00    -0.203 F 
ATOM    124  C   UNL A   1      45.248  27.401  36.466  1.00  0.00     0.198 A 
ATOM    125  C   UNL A   1      46.533  29.083  35.332  1.00  0.00     0.198 A 
ATOM    126  F   UNL A   1      45.460  30.639  33.931  1.00  0.00    -0.203 F 
ATOM    127  F   UNL A   1      45.181  26.371  37.321  1.00  0.00    -0.200 F 
ATOM    128  C   UNL A   1      46.469  27.999  36.194  1.00  0.00     0.200 A 
ATOM    129  F   UNL A   1      47.714  29.654  35.060  1.00  0.00    -0.200 F 
ATOM    130  F   UNL A   1      47.586  27.534  36.772  1.00  0.00    -0.200 F 
ENDBRANCH  96 120
ENDBRANCH  61  64
ENDBRANCH  51  54
ENDBRANCH  47  50
ENDBRANCH  44  47
ENDBRANCH  41  44
ENDBRANCH   1  41
TORSDOF 17
ENDMDL
MODEL 5
REMARK VINA RESULT:     -11.7      5.727     11.356
REMARK SMILES C[C@@H](C(=O)NCCCCCCNC(=O)c1ccc(-c2c3nc(c(-c4c(F)c(F)c(F)c(F)c4F)c4ccc([nH]4)c(-c4c(F)c(F)c(F)c(F)c4F)c4nc(c(-c5c(F)c(F)c(F)c(F)c5F)c5ccc2[nH]5)C=C4)C=C3)cc1)c1ccc(Cc2ccco2)cc1F
REMARK SMILES IDX 8 1 7 4 6 7 5 10 3 11 4 12 2 14 1 16 78 20 79 21 89 22 80 23
REMARK SMILES IDX 88 25 90 26 81 27 82 30 83 33 84 34 87 35 85 36 86 38 9 41
REMARK SMILES IDX 10 44 11 47 12 50 13 51 14 53 15 54 16 55 77 56 17 57 76 59
REMARK SMILES IDX 18 61 19 64 20 65 70 66 21 67 75 68 69 69 71 70 22 71 74 72
REMARK SMILES IDX 68 74 67 76 23 78 55 81 35 82 54 83 36 84 39 85 53 86 72 87
REMARK SMILES IDX 37 88 38 90 52 92 73 93 40 96 24 98 25 99 33 100 26 101
REMARK SMILES IDX 27 102 31 103 34 104 28 105 29 106 32 107 30 108 56 109
REMARK SMILES IDX 57 110 65 111 58 112 59 113 63 114 66 115 60 116 61 117
REMARK SMILES IDX 64 118 62 119 41 120 42 121 50 122 43 123 44 124 48 125
REMARK SMILES IDX 51 126 45 127 46 128 49 129 47 130
REMARK H PARENT 8 2 8 3 7 5 7 6 6 8 6 9 5 13 2 15 1 17 1 18 1 19 79 24 80 28
REMARK H PARENT 88 29 82 31 82 32 84 37 85 39 86 40 9 42 9 43 10 45 10 46
REMARK H PARENT 11 48 11 49 12 52 16 58 77 60 17 62 76 63 75 73 69 75 71 77
REMARK H PARENT 74 79 68 80 36 89 39 91 72 94 37 95 73 97
REMARK Flexibility Score: inf
ROOT
ATOM      1  C   UNL A   1      36.444  21.656  25.232  1.00  0.00    -0.052 C 
ATOM      2  H   UNL A   1      35.765  21.836  26.039  1.00  0.00     0.027 H 
ATOM      3  H   UNL A   1      37.449  21.959  25.438  1.00  0.00     0.027 H 
ENDROOT
BRANCH   1   4
ATOM      4  C   UNL A   1      35.987  22.498  24.032  1.00  0.00    -0.036 C 
ATOM      5  H   UNL A   1      36.830  22.647  23.389  1.00  0.00     0.028 H 
ATOM      6  H   UNL A   1      35.194  21.954  23.564  1.00  0.00     0.028 H 
BRANCH   4   7
ATOM      7  C   UNL A   1      35.418  23.869  24.400  1.00  0.00     0.017 C 
ATOM      8  H   UNL A   1      36.213  24.585  24.412  1.00  0.00     0.049 H 
ATOM      9  H   UNL A   1      34.681  24.136  23.671  1.00  0.00     0.049 H 
BRANCH   7  10
ATOM     10  N   UNL A   1      34.786  23.842  25.702  1.00  0.00    -0.356 N 
ATOM     11  C   UNL A   1      33.475  23.709  26.053  1.00  0.00     0.227 C 
ATOM     12  O   UNL A   1      33.232  23.710  27.262  1.00  0.00    -0.274 OA
ATOM     13  H   UNL A   1      35.407  23.934  26.460  1.00  0.00     0.163 HD
BRANCH  11  14
ATOM     14  C   UNL A   1      32.403  23.485  24.974  1.00  0.00     0.063 C 
ATOM     15  H   UNL A   1      32.684  24.142  24.178  1.00  0.00     0.045 H 
BRANCH  14  16
ATOM     16  C   UNL A   1      30.988  23.875  25.418  1.00  0.00    -0.049 C 
ATOM     17  H   UNL A   1      30.641  23.180  26.153  1.00  0.00     0.024 H 
ATOM     18  H   UNL A   1      30.332  23.857  24.573  1.00  0.00     0.024 H 
ATOM     19  H   UNL A   1      31.004  24.859  25.837  1.00  0.00     0.024 H 
ENDBRANCH  14  16
BRANCH  14  20
ATOM     20  C   UNL A   1      32.392  22.051  24.462  1.00  0.00    -0.000 A 
ATOM     21  C   UNL A   1      32.522  20.978  25.353  1.00  0.00    -0.055 A 
ATOM     22  C   UNL A   1      32.274  21.766  23.095  1.00  0.00     0.127 A 
ATOM     23  C   UNL A   1      32.558  19.663  24.878  1.00  0.00    -0.058 A 
ATOM     24  H   UNL A   1      32.593  21.159  26.366  1.00  0.00     0.063 H 
ATOM     25  C   UNL A   1      32.320  20.459  22.615  1.00  0.00    -0.022 A 
ATOM     26  F   UNL A   1      32.142  22.762  22.208  1.00  0.00    -0.207 F 
ATOM     27  C   UNL A   1      32.474  19.390  23.504  1.00  0.00    -0.038 A 
ATOM     28  H   UNL A   1      32.647  18.882  25.548  1.00  0.00     0.063 H 
ATOM     29  H   UNL A   1      32.241  20.280  21.602  1.00  0.00     0.066 H 
BRANCH  27  30
ATOM     30  C   UNL A   1      32.569  17.972  22.988  1.00  0.00     0.031 C 
ATOM     31  H   UNL A   1      33.013  17.993  22.015  1.00  0.00     0.040 H 
ATOM     32  H   UNL A   1      31.577  17.573  22.969  1.00  0.00     0.040 H 
BRANCH  30  33
ATOM     33  C   UNL A   1      33.388  17.084  23.862  1.00  0.00     0.108 A 
ATOM     34  C   UNL A   1      34.745  16.954  24.086  1.00  0.00    -0.020 A 
ATOM     35  O   UNL A   1      32.705  16.208  24.654  1.00  0.00    -0.469 OA
ATOM     36  C   UNL A   1      34.898  15.938  25.059  1.00  0.00    -0.024 A 
ATOM     37  H   UNL A   1      35.500  17.492  23.632  1.00  0.00     0.066 H 
ATOM     38  C   UNL A   1      33.628  15.517  25.373  1.00  0.00     0.091 A 
ATOM     39  H   UNL A   1      35.784  15.585  25.452  1.00  0.00     0.066 H 
ATOM     40  H   UNL A   1      33.406  14.780  26.061  1.00  0.00     0.104 H 
ENDBRANCH  30  33
ENDBRANCH  27  30
ENDBRANCH  14  20
ENDBRANCH  11  14
ENDBRANCH   7  10
ENDBRANCH   4   7
ENDBRANCH   1   4
BRANCH   1  41
ATOM     41  C   UNL A   1      36.501  20.143  24.990  1.00  0.00    -0.052 C 
ATOM     42  H   UNL A   1      35.920  19.926  24.119  1.00  0.00     0.027 H 
ATOM     43  H   UNL A   1      36.124  19.688  25.882  1.00  0.00     0.027 H 
BRANCH  41  44
ATOM     44  C   UNL A   1      37.903  19.568  24.781  1.00  0.00    -0.036 C 
ATOM     45  H   UNL A   1      38.207  19.788  23.779  1.00  0.00     0.028 H 
ATOM     46  H   UNL A   1      37.830  18.519  24.981  1.00  0.00     0.028 H 
BRANCH  44  47
ATOM     47  C   UNL A   1      38.968  20.110  25.729  1.00  0.00     0.018 C 
ATOM     48  H   UNL A   1      38.518  20.290  26.684  1.00  0.00     0.049 H 
ATOM     49  H   UNL A   1      39.355  21.012  25.303  1.00  0.00     0.049 H 
BRANCH  47  50
ATOM     50  N   UNL A   1      40.077  19.189  25.900  1.00  0.00    -0.352 N 
ATOM     51  C   UNL A   1      41.401  19.458  26.126  1.00  0.00     0.251 C 
ATOM     52  H   UNL A   1      39.843  18.234  25.846  1.00  0.00     0.163 HD
ATOM     53  O   UNL A   1      42.230  18.549  26.079  1.00  0.00    -0.269 OA
BRANCH  51  54
ATOM     54  C   UNL A   1      41.849  20.838  26.414  1.00  0.00     0.039 A 
ATOM     55  C   UNL A   1      42.081  21.204  27.743  1.00  0.00    -0.049 A 
ATOM     56  C   UNL A   1      41.993  21.783  25.393  1.00  0.00    -0.049 A 
ATOM     57  C   UNL A   1      42.483  22.507  28.047  1.00  0.00    -0.053 A 
ATOM     58  H   UNL A   1      41.957  20.512  28.499  1.00  0.00     0.063 H 
ATOM     59  C   UNL A   1      42.458  23.063  25.689  1.00  0.00    -0.053 A 
ATOM     60  H   UNL A   1      41.755  21.533  24.420  1.00  0.00     0.063 H 
ATOM     61  C   UNL A   1      42.684  23.444  27.021  1.00  0.00    -0.014 A 
ATOM     62  H   UNL A   1      42.632  22.781  29.030  1.00  0.00     0.063 H 
ATOM     63  H   UNL A   1      42.636  23.734  24.926  1.00  0.00     0.063 H 
BRANCH  61  64
ATOM     64  C   UNL A   1      43.077  24.841  27.331  1.00  0.00     0.031 A 
ATOM     65  C   UNL A   1      44.473  25.312  27.025  1.00  0.00     0.074 A 
ATOM     66  C   UNL A   1      42.198  25.672  27.922  1.00  0.00     0.049 A 
ATOM     67  N   UNL A   1      45.023  26.479  27.250  1.00  0.00    -0.248 NA
ATOM     68  C   UNL A   1      45.380  24.331  26.409  1.00  0.00    -0.034 C 
ATOM     69  C   UNL A   1      40.831  25.321  28.309  1.00  0.00    -0.036 A 
ATOM     70  N   UNL A   1      42.326  26.983  28.303  1.00  0.00    -0.354 N 
ATOM     71  C   UNL A   1      46.341  26.363  26.828  1.00  0.00     0.074 A 
ATOM     72  C   UNL A   1      46.523  25.001  26.376  1.00  0.00    -0.034 C 
ATOM     73  H   UNL A   1      45.179  23.372  26.087  1.00  0.00     0.065 H 
ATOM     74  C   UNL A   1      40.238  26.397  28.849  1.00  0.00    -0.036 A 
ATOM     75  H   UNL A   1      40.394  24.393  28.187  1.00  0.00     0.065 H 
ATOM     76  C   UNL A   1      41.189  27.505  28.868  1.00  0.00     0.049 A 
ATOM     77  H   UNL A   1      43.154  27.501  28.183  1.00  0.00     0.167 HD
ATOM     78  C   UNL A   1      47.306  27.313  26.796  1.00  0.00     0.037 A 
ATOM     79  H   UNL A   1      47.424  24.603  26.070  1.00  0.00     0.065 H 
ATOM     80  H   UNL A   1      39.266  26.436  29.194  1.00  0.00     0.065 H 
ATOM     81  C   UNL A   1      40.942  28.742  29.341  1.00  0.00     0.037 A 
ATOM     82  C   UNL A   1      47.109  28.679  27.202  1.00  0.00     0.049 A 
ATOM     83  C   UNL A   1      42.021  29.789  29.263  1.00  0.00     0.074 A 
ATOM     84  C   UNL A   1      48.003  29.735  27.147  1.00  0.00    -0.036 A 
ATOM     85  N   UNL A   1      45.932  29.180  27.735  1.00  0.00    -0.354 N 
ATOM     86  N   UNL A   1      43.242  29.686  28.799  1.00  0.00    -0.248 NA
ATOM     87  C   UNL A   1      41.680  31.128  29.764  1.00  0.00    -0.034 C 
ATOM     88  C   UNL A   1      47.376  30.866  27.678  1.00  0.00    -0.036 A 
ATOM     89  H   UNL A   1      48.966  29.693  26.777  1.00  0.00     0.065 H 
ATOM     90  C   UNL A   1      46.078  30.527  28.024  1.00  0.00     0.049 A 
ATOM     91  H   UNL A   1      45.112  28.656  27.886  1.00  0.00     0.167 HD
ATOM     92  C   UNL A   1      43.802  30.951  28.915  1.00  0.00     0.074 A 
ATOM     93  C   UNL A   1      42.785  31.807  29.489  1.00  0.00    -0.034 C 
ATOM     94  H   UNL A   1      40.810  31.453  30.213  1.00  0.00     0.065 H 
ATOM     95  H   UNL A   1      47.807  31.798  27.792  1.00  0.00     0.065 H 
ATOM     96  C   UNL A   1      45.047  31.367  28.575  1.00  0.00     0.037 A 
ATOM     97  H   UNL A   1      42.904  32.817  29.661  1.00  0.00     0.065 H 
BRANCH  78  98
ATOM     98  C   UNL A   1      48.663  26.905  26.301  1.00  0.00     0.064 A 
ATOM     99  C   UNL A   1      49.019  27.022  24.949  1.00  0.00     0.173 A 
ATOM    100  C   UNL A   1      49.628  26.413  27.193  1.00  0.00     0.173 A 
ATOM    101  F   UNL A   1      48.129  27.474  24.052  1.00  0.00    -0.203 F 
ATOM    102  C   UNL A   1      50.280  26.633  24.504  1.00  0.00     0.198 A 
ATOM    103  C   UNL A   1      50.897  26.052  26.750  1.00  0.00     0.198 A 
ATOM    104  F   UNL A   1      49.340  26.286  28.497  1.00  0.00    -0.203 F 
ATOM    105  F   UNL A   1      50.579  26.703  23.199  1.00  0.00    -0.200 F 
ATOM    106  C   UNL A   1      51.219  26.154  25.404  1.00  0.00     0.200 A 
ATOM    107  F   UNL A   1      51.808  25.601  27.622  1.00  0.00    -0.200 F 
ATOM    108  F   UNL A   1      52.433  25.782  24.975  1.00  0.00    -0.200 F 
ENDBRANCH  78  98
BRANCH  81 109
ATOM    109  C   UNL A   1      39.600  29.075  29.883  1.00  0.00     0.064 A 
ATOM    110  C   UNL A   1      38.608  29.616  29.054  1.00  0.00     0.173 A 
ATOM    111  C   UNL A   1      39.283  28.867  31.232  1.00  0.00     0.173 A 
ATOM    112  F   UNL A   1      38.872  29.851  27.761  1.00  0.00    -0.203 F 
ATOM    113  C   UNL A   1      37.355  29.957  29.559  1.00  0.00     0.198 A 
ATOM    114  C   UNL A   1      38.022  29.184  31.731  1.00  0.00     0.198 A 
ATOM    115  F   UNL A   1      40.196  28.347  32.066  1.00  0.00    -0.203 F 
ATOM    116  F   UNL A   1      36.440  30.513  28.753  1.00  0.00    -0.200 F 
ATOM    117  C   UNL A   1      37.061  29.736  30.896  1.00  0.00     0.200 A 
ATOM    118  F   UNL A   1      37.736  28.959  33.020  1.00  0.00    -0.200 F 
ATOM    119  F   UNL A   1      35.856  30.062  31.381  1.00  0.00    -0.200 F 
ENDBRANCH  81 109
BRANCH  96 120
ATOM    120  C   UNL A   1      45.361  32.822  28.766  1.00  0.00     0.064 A 
ATOM    121  C   UNL A   1      45.941  33.303  29.947  1.00  0.00     0.173 A 
ATOM    122  C   UNL A   1      45.105  33.740  27.735  1.00  0.00     0.173 A 
ATOM    123  F   UNL A   1      46.190  32.466  30.966  1.00  0.00    -0.203 F 
ATOM    124  C   UNL A   1      46.231  34.656  30.102  1.00  0.00     0.198 A 
ATOM    125  C   UNL A   1      45.421  35.087  27.883  1.00  0.00     0.198 A 
ATOM    126  F   UNL A   1      44.556  33.328  26.583  1.00  0.00    -0.203 F 
ATOM    127  F   UNL A   1      46.742  35.102  31.258  1.00  0.00    -0.200 F 
ATOM    128  C   UNL A   1      45.976  35.545  29.068  1.00  0.00     0.200 A 
ATOM    129  F   UNL A   1      45.186  35.943  26.879  1.00  0.00    -0.200 F 
ATOM    130  F   UNL A   1      46.259  36.847  29.218  1.00  0.00    -0.200 F 
ENDBRANCH  96 120
ENDBRANCH  61  64
ENDBRANCH  51  54
ENDBRANCH  47  50
ENDBRANCH  44  47
ENDBRANCH  41  44
ENDBRANCH   1  41
TORSDOF 17
ENDMDL
MODEL 6
REMARK VINA RESULT:     -11.6      5.852     10.013
REMARK SMILES C[C@@H](C(=O)NCCCCCCNC(=O)c1ccc(-c2c3nc(c(-c4c(F)c(F)c(F)c(F)c4F)c4ccc([nH]4)c(-c4c(F)c(F)c(F)c(F)c4F)c4nc(c(-c5c(F)c(F)c(F)c(F)c5F)c5ccc2[nH]5)C=C4)C=C3)cc1)c1ccc(Cc2ccco2)cc1F
REMARK SMILES IDX 8 1 7 4 6 7 5 10 3 11 4 12 2 14 1 16 78 20 79 21 89 22 80 23
REMARK SMILES IDX 88 25 90 26 81 27 82 30 83 33 84 34 87 35 85 36 86 38 9 41
REMARK SMILES IDX 10 44 11 47 12 50 13 51 14 53 15 54 16 55 77 56 17 57 76 59
REMARK SMILES IDX 18 61 19 64 20 65 70 66 21 67 75 68 69 69 71 70 22 71 74 72
REMARK SMILES IDX 68 74 67 76 23 78 55 81 35 82 54 83 36 84 39 85 53 86 72 87
REMARK SMILES IDX 37 88 38 90 52 92 73 93 40 96 24 98 25 99 33 100 26 101
REMARK SMILES IDX 27 102 31 103 34 104 28 105 29 106 32 107 30 108 56 109
REMARK SMILES IDX 57 110 65 111 58 112 59 113 63 114 66 115 60 116 61 117
REMARK SMILES IDX 64 118 62 119 41 120 42 121 50 122 43 123 44 124 48 125
REMARK SMILES IDX 51 126 45 127 46 128 49 129 47 130
REMARK H PARENT 8 2 8 3 7 5 7 6 6 8 6 9 5 13 2 15 1 17 1 18 1 19 79 24 80 28
REMARK H PARENT 88 29 82 31 82 32 84 37 85 39 86 40 9 42 9 43 10 45 10 46
REMARK H PARENT 11 48 11 49 12 52 16 58 77 60 17 62 76 63 75 73 69 75 71 77
REMARK H PARENT 74 79 68 80 36 89 39 91 72 94 37 95 73 97
REMARK Flexibility Score: inf
ROOT
ATOM      1  C   UNL A   1      36.795  21.962  24.778  1.00  0.00    -0.052 C 
ATOM      2  H   UNL A   1      36.529  22.445  25.695  1.00  0.00     0.027 H 
ATOM      3  H   UNL A   1      37.831  22.057  24.525  1.00  0.00     0.027 H 
ENDROOT
BRANCH   1   4
ATOM      4  C   UNL A   1      36.019  22.642  23.642  1.00  0.00    -0.036 C 
ATOM      5  H   UNL A   1      36.708  22.861  22.852  1.00  0.00     0.028 H 
ATOM      6  H   UNL A   1      35.250  21.959  23.348  1.00  0.00     0.028 H 
BRANCH   4   7
ATOM      7  C   UNL A   1      35.319  23.942  24.041  1.00  0.00     0.017 C 
ATOM      8  H   UNL A   1      36.003  24.757  23.922  1.00  0.00     0.049 H 
ATOM      9  H   UNL A   1      34.463  24.073  23.412  1.00  0.00     0.049 H 
BRANCH   7  10
ATOM     10  N   UNL A   1      34.874  23.895  25.417  1.00  0.00    -0.356 N 
ATOM     11  C   UNL A   1      33.631  23.704  25.945  1.00  0.00     0.227 C 
ATOM     12  O   UNL A   1      33.556  23.704  27.176  1.00  0.00    -0.274 OA
ATOM     13  H   UNL A   1      35.588  24.023  26.083  1.00  0.00     0.163 HD
BRANCH  11  14
ATOM     14  C   UNL A   1      32.433  23.422  25.024  1.00  0.00     0.063 C 
ATOM     15  H   UNL A   1      32.565  24.093  24.202  1.00  0.00     0.045 H 
BRANCH  14  16
ATOM     16  C   UNL A   1      31.074  23.734  25.662  1.00  0.00    -0.049 C 
ATOM     17  H   UNL A   1      30.698  22.857  26.146  1.00  0.00     0.024 H 
ATOM     18  H   UNL A   1      30.387  24.045  24.904  1.00  0.00     0.024 H 
ATOM     19  H   UNL A   1      31.190  24.516  26.383  1.00  0.00     0.024 H 
ENDBRANCH  14  16
BRANCH  14  20
ATOM     20  C   UNL A   1      32.430  21.989  24.507  1.00  0.00    -0.000 A 
ATOM     21  C   UNL A   1      32.599  20.915  25.390  1.00  0.00    -0.055 A 
ATOM     22  C   UNL A   1      32.278  21.707  23.142  1.00  0.00     0.127 A 
ATOM     23  C   UNL A   1      32.642  19.602  24.910  1.00  0.00    -0.058 A 
ATOM     24  H   UNL A   1      32.696  21.094  26.402  1.00  0.00     0.063 H 
ATOM     25  C   UNL A   1      32.330  20.402  22.657  1.00  0.00    -0.022 A 
ATOM     26  F   UNL A   1      32.106  22.704  22.263  1.00  0.00    -0.207 F 
ATOM     27  C   UNL A   1      32.523  19.332  23.538  1.00  0.00    -0.038 A 
ATOM     28  H   UNL A   1      32.761  18.821  25.574  1.00  0.00     0.063 H 
ATOM     29  H   UNL A   1      32.225  20.225  21.646  1.00  0.00     0.066 H 
BRANCH  27  30
ATOM     30  C   UNL A   1      32.626  17.918  23.014  1.00  0.00     0.031 C 
ATOM     31  H   UNL A   1      33.109  17.942  22.060  1.00  0.00     0.040 H 
ATOM     32  H   UNL A   1      31.631  17.529  22.951  1.00  0.00     0.040 H 
BRANCH  30  33
ATOM     33  C   UNL A   1      33.399  17.015  23.914  1.00  0.00     0.108 A 
ATOM     34  C   UNL A   1      34.745  16.858  24.180  1.00  0.00    -0.020 A 
ATOM     35  O   UNL A   1      32.674  16.151  24.683  1.00  0.00    -0.469 OA
ATOM     36  C   UNL A   1      34.847  15.840  25.158  1.00  0.00    -0.024 A 
ATOM     37  H   UNL A   1      35.524  17.382  23.751  1.00  0.00     0.066 H 
ATOM     38  C   UNL A   1      33.559  15.444  25.431  1.00  0.00     0.091 A 
ATOM     39  H   UNL A   1      35.713  15.469  25.579  1.00  0.00     0.066 H 
ATOM     40  H   UNL A   1      33.302  14.711  26.110  1.00  0.00     0.104 H 
ENDBRANCH  30  33
ENDBRANCH  27  30
ENDBRANCH  14  20
ENDBRANCH  11  14
ENDBRANCH   7  10
ENDBRANCH   4   7
ENDBRANCH   1   4
BRANCH   1  41
ATOM     41  C   UNL A   1      36.539  20.460  24.943  1.00  0.00    -0.052 C 
ATOM     42  H   UNL A   1      35.891  20.146  24.152  1.00  0.00     0.027 H 
ATOM     43  H   UNL A   1      36.115  20.338  25.918  1.00  0.00     0.027 H 
BRANCH  41  44
ATOM     44  C   UNL A   1      37.788  19.577  24.911  1.00  0.00    -0.036 C 
ATOM     45  H   UNL A   1      38.087  19.461  23.890  1.00  0.00     0.028 H 
ATOM     46  H   UNL A   1      37.515  18.654  25.379  1.00  0.00     0.028 H 
BRANCH  44  47
ATOM     47  C   UNL A   1      38.978  20.118  25.696  1.00  0.00     0.018 C 
ATOM     48  H   UNL A   1      38.639  20.425  26.664  1.00  0.00     0.049 H 
ATOM     49  H   UNL A   1      39.385  20.940  25.145  1.00  0.00     0.049 H 
BRANCH  47  50
ATOM     50  N   UNL A   1      40.029  19.130  25.859  1.00  0.00    -0.352 N 
ATOM     51  C   UNL A   1      41.369  19.316  26.074  1.00  0.00     0.251 C 
ATOM     52  H   UNL A   1      39.736  18.191  25.808  1.00  0.00     0.163 HD
ATOM     53  O   UNL A   1      42.139  18.357  26.021  1.00  0.00    -0.269 OA
BRANCH  51  54
ATOM     54  C   UNL A   1      41.904  20.666  26.355  1.00  0.00     0.039 A 
ATOM     55  C   UNL A   1      42.176  21.016  27.682  1.00  0.00    -0.049 A 
ATOM     56  C   UNL A   1      42.093  21.601  25.333  1.00  0.00    -0.049 A 
ATOM     57  C   UNL A   1      42.660  22.291  27.980  1.00  0.00    -0.053 A 
ATOM     58  H   UNL A   1      42.019  20.333  28.439  1.00  0.00     0.063 H 
ATOM     59  C   UNL A   1      42.639  22.850  25.623  1.00  0.00    -0.053 A 
ATOM     60  H   UNL A   1      41.827  21.367  24.363  1.00  0.00     0.063 H 
ATOM     61  C   UNL A   1      42.906  23.215  26.951  1.00  0.00    -0.014 A 
ATOM     62  H   UNL A   1      42.838  22.556  28.961  1.00  0.00     0.063 H 
ATOM     63  H   UNL A   1      42.848  23.509  24.858  1.00  0.00     0.063 H 
BRANCH  61  64
ATOM     64  C   UNL A   1      43.387  24.585  27.257  1.00  0.00     0.031 A 
ATOM     65  C   UNL A   1      42.442  25.596  27.850  1.00  0.00     0.074 A 
ATOM     66  C   UNL A   1      44.655  24.934  26.968  1.00  0.00     0.049 A 
ATOM     67  N   UNL A   1      42.656  26.851  28.157  1.00  0.00    -0.248 NA
ATOM     68  C   UNL A   1      41.067  25.142  28.105  1.00  0.00    -0.034 C 
ATOM     69  C   UNL A   1      45.653  24.059  26.351  1.00  0.00    -0.036 A 
ATOM     70  N   UNL A   1      45.319  26.120  27.151  1.00  0.00    -0.354 N 
ATOM     71  C   UNL A   1      41.439  27.339  28.615  1.00  0.00     0.074 A 
ATOM     72  C   UNL A   1      40.481  26.262  28.505  1.00  0.00    -0.034 C 
ATOM     73  H   UNL A   1      40.663  24.198  28.002  1.00  0.00     0.065 H 
ATOM     74  C   UNL A   1      46.809  24.730  26.231  1.00  0.00    -0.036 A 
ATOM     75  H   UNL A   1      45.492  23.083  26.055  1.00  0.00     0.065 H 
ATOM     76  C   UNL A   1      46.628  26.087  26.738  1.00  0.00     0.049 A 
ATOM     77  H   UNL A   1      44.897  26.919  27.541  1.00  0.00     0.167 HD
ATOM     78  C   UNL A   1      41.153  28.568  29.108  1.00  0.00     0.037 A 
ATOM     79  H   UNL A   1      39.474  26.353  28.708  1.00  0.00     0.065 H 
ATOM     80  H   UNL A   1      47.686  24.347  25.843  1.00  0.00     0.065 H 
ATOM     81  C   UNL A   1      47.575  27.043  26.774  1.00  0.00     0.037 A 
ATOM     82  C   UNL A   1      42.118  29.623  29.261  1.00  0.00     0.049 A 
ATOM     83  C   UNL A   1      47.240  28.390  27.358  1.00  0.00     0.074 A 
ATOM     84  C   UNL A   1      41.945  30.882  29.811  1.00  0.00    -0.036 A 
ATOM     85  N   UNL A   1      43.445  29.539  28.866  1.00  0.00    -0.354 N 
ATOM     86  N   UNL A   1      46.104  28.819  27.853  1.00  0.00    -0.248 NA
ATOM     87  C   UNL A   1      48.325  29.380  27.401  1.00  0.00    -0.034 C 
ATOM     88  C   UNL A   1      43.158  31.571  29.718  1.00  0.00    -0.036 A 
ATOM     89  H   UNL A   1      41.070  31.248  30.219  1.00  0.00     0.065 H 
ATOM     90  C   UNL A   1      44.099  30.728  29.150  1.00  0.00     0.049 A 
ATOM     91  H   UNL A   1      43.861  28.752  28.447  1.00  0.00     0.167 HD
ATOM     92  C   UNL A   1      46.346  30.110  28.299  1.00  0.00     0.074 A 
ATOM     93  C   UNL A   1      47.739  30.394  28.021  1.00  0.00    -0.034 C 
ATOM     94  H   UNL A   1      49.289  29.306  27.041  1.00  0.00     0.065 H 
ATOM     95  H   UNL A   1      43.325  32.543  30.022  1.00  0.00     0.065 H 
ATOM     96  C   UNL A   1      45.491  30.984  28.886  1.00  0.00     0.037 A 
ATOM     97  H   UNL A   1      48.215  31.274  28.276  1.00  0.00     0.065 H 
BRANCH  78  98
ATOM     98  C   UNL A   1      39.735  28.834  29.522  1.00  0.00     0.064 A 
ATOM     99  C   UNL A   1      39.288  28.580  30.827  1.00  0.00     0.173 A 
ATOM    100  C   UNL A   1      38.817  29.373  28.608  1.00  0.00     0.173 A 
ATOM    101  F   UNL A   1      40.123  28.053  31.736  1.00  0.00    -0.203 F 
ATOM    102  C   UNL A   1      37.967  28.827  31.194  1.00  0.00     0.198 A 
ATOM    103  C   UNL A   1      37.504  29.645  28.985  1.00  0.00     0.198 A 
ATOM    104  F   UNL A   1      39.193  29.639  27.348  1.00  0.00    -0.203 F 
ATOM    105  F   UNL A   1      37.550  28.526  32.431  1.00  0.00    -0.200 F 
ATOM    106  C   UNL A   1      37.079  29.364  30.275  1.00  0.00     0.200 A 
ATOM    107  F   UNL A   1      36.650  30.175  28.100  1.00  0.00    -0.200 F 
ATOM    108  F   UNL A   1      35.809  29.602  30.629  1.00  0.00    -0.200 F 
ENDBRANCH  78  98
BRANCH  81 109
ATOM    109  C   UNL A   1      48.948  26.748  26.290  1.00  0.00     0.064 A 
ATOM    110  C   UNL A   1      49.913  26.216  27.156  1.00  0.00     0.173 A 
ATOM    111  C   UNL A   1      49.324  26.992  24.962  1.00  0.00     0.173 A 
ATOM    112  F   UNL A   1      49.604  25.984  28.440  1.00  0.00    -0.203 F 
ATOM    113  C   UNL A   1      51.211  25.960  26.718  1.00  0.00     0.198 A 
ATOM    114  C   UNL A   1      50.615  26.712  24.518  1.00  0.00     0.198 A 
ATOM    115  F   UNL A   1      48.436  27.495  24.093  1.00  0.00    -0.203 F 
ATOM    116  F   UNL A   1      52.125  25.493  27.579  1.00  0.00    -0.200 F 
ATOM    117  C   UNL A   1      51.559  26.204  25.398  1.00  0.00     0.200 A 
ATOM    118  F   UNL A   1      50.946  26.938  23.240  1.00  0.00    -0.200 F 
ATOM    119  F   UNL A   1      52.806  25.956  24.977  1.00  0.00    -0.200 F 
ENDBRANCH  81 109
BRANCH  96 120
ATOM    120  C   UNL A   1      46.050  32.307  29.317  1.00  0.00     0.064 A 
ATOM    121  C   UNL A   1      46.028  33.428  28.475  1.00  0.00     0.173 A 
ATOM    122  C   UNL A   1      46.587  32.462  30.605  1.00  0.00     0.173 A 
ATOM    123  F   UNL A   1      45.539  33.325  27.229  1.00  0.00    -0.203 F 
ATOM    124  C   UNL A   1      46.546  34.649  28.896  1.00  0.00     0.198 A 
ATOM    125  C   UNL A   1      47.079  33.691  31.033  1.00  0.00     0.198 A 
ATOM    126  F   UNL A   1      46.625  31.421  31.451  1.00  0.00    -0.203 F 
ATOM    127  F   UNL A   1      46.558  35.695  28.058  1.00  0.00    -0.200 F 
ATOM    128  C   UNL A   1      47.065  34.781  30.176  1.00  0.00     0.200 A 
ATOM    129  F   UNL A   1      47.569  33.820  32.273  1.00  0.00    -0.200 F 
ATOM    130  F   UNL A   1      47.560  35.959  30.581  1.00  0.00    -0.200 F 
ENDBRANCH  96 120
ENDBRANCH  61  64
ENDBRANCH  51  54
ENDBRANCH  47  50
ENDBRANCH  44  47
ENDBRANCH  41  44
ENDBRANCH   1  41
TORSDOF 17
ENDMDL
MODEL 7
REMARK VINA RESULT:     -11.4      4.242      8.930
REMARK SMILES C[C@@H](C(=O)NCCCCCCNC(=O)c1ccc(-c2c3nc(c(-c4c(F)c(F)c(F)c(F)c4F)c4ccc([nH]4)c(-c4c(F)c(F)c(F)c(F)c4F)c4nc(c(-c5c(F)c(F)c(F)c(F)c5F)c5ccc2[nH]5)C=C4)C=C3)cc1)c1ccc(Cc2ccco2)cc1F
REMARK SMILES IDX 8 1 7 4 6 7 5 10 3 11 4 12 2 14 1 16 78 20 79 21 89 22 80 23
REMARK SMILES IDX 88 25 90 26 81 27 82 30 83 33 84 34 87 35 85 36 86 38 9 41
REMARK SMILES IDX 10 44 11 47 12 50 13 51 14 53 15 54 16 55 77 56 17 57 76 59
REMARK SMILES IDX 18 61 19 64 20 65 70 66 21 67 75 68 69 69 71 70 22 71 74 72
REMARK SMILES IDX 68 74 67 76 23 78 55 81 35 82 54 83 36 84 39 85 53 86 72 87
REMARK SMILES IDX 37 88 38 90 52 92 73 93 40 96 24 98 25 99 33 100 26 101
REMARK SMILES IDX 27 102 31 103 34 104 28 105 29 106 32 107 30 108 56 109
REMARK SMILES IDX 57 110 65 111 58 112 59 113 63 114 66 115 60 116 61 117
REMARK SMILES IDX 64 118 62 119 41 120 42 121 50 122 43 123 44 124 48 125
REMARK SMILES IDX 51 126 45 127 46 128 49 129 47 130
REMARK H PARENT 8 2 8 3 7 5 7 6 6 8 6 9 5 13 2 15 1 17 1 18 1 19 79 24 80 28
REMARK H PARENT 88 29 82 31 82 32 84 37 85 39 86 40 9 42 9 43 10 45 10 46
REMARK H PARENT 11 48 11 49 12 52 16 58 77 60 17 62 76 63 75 73 69 75 71 77
REMARK H PARENT 74 79 68 80 36 89 39 91 72 94 37 95 73 97
REMARK Flexibility Score: inf
ROOT
ATOM      1  C   UNL A   1      33.054  23.836  26.558  1.00  0.00    -0.052 C 
ATOM      2  H   UNL A   1      33.116  24.851  26.890  1.00  0.00     0.027 H 
ATOM      3  H   UNL A   1      33.038  23.731  25.494  1.00  0.00     0.027 H 
ENDROOT
BRANCH   1   4
ATOM      4  C   UNL A   1      31.725  23.255  27.059  1.00  0.00    -0.036 C 
ATOM      5  H   UNL A   1      31.914  22.725  27.969  1.00  0.00     0.028 H 
ATOM      6  H   UNL A   1      31.059  24.082  27.186  1.00  0.00     0.028 H 
BRANCH   4   7
ATOM      7  C   UNL A   1      31.044  22.296  26.081  1.00  0.00     0.017 C 
ATOM      8  H   UNL A   1      30.236  21.803  26.581  1.00  0.00     0.049 H 
ATOM      9  H   UNL A   1      30.682  22.862  25.248  1.00  0.00     0.049 H 
BRANCH   7  10
ATOM     10  N   UNL A   1      31.973  21.301  25.590  1.00  0.00    -0.356 N 
ATOM     11  C   UNL A   1      32.318  20.955  24.316  1.00  0.00     0.227 C 
ATOM     12  O   UNL A   1      33.161  20.062  24.204  1.00  0.00    -0.274 OA
ATOM     13  H   UNL A   1      32.433  20.787  26.293  1.00  0.00     0.163 HD
BRANCH  11  14
ATOM     14  C   UNL A   1      31.731  21.722  23.120  1.00  0.00     0.063 C 
ATOM     15  H   UNL A   1      30.676  21.724  23.296  1.00  0.00     0.045 H 
BRANCH  14  16
ATOM     16  C   UNL A   1      31.973  21.039  21.769  1.00  0.00    -0.049 C 
ATOM     17  H   UNL A   1      31.581  21.652  20.985  1.00  0.00     0.024 H 
ATOM     18  H   UNL A   1      31.483  20.088  21.757  1.00  0.00     0.024 H 
ATOM     19  H   UNL A   1      33.024  20.902  21.622  1.00  0.00     0.024 H 
ENDBRANCH  14  16
BRANCH  14  20
ATOM     20  C   UNL A   1      32.231  23.159  23.055  1.00  0.00    -0.000 A 
ATOM     21  C   UNL A   1      33.604  23.431  22.999  1.00  0.00    -0.055 A 
ATOM     22  C   UNL A   1      31.342  24.242  23.070  1.00  0.00     0.127 A 
ATOM     23  C   UNL A   1      34.066  24.751  22.985  1.00  0.00    -0.058 A 
ATOM     24  H   UNL A   1      34.280  22.652  22.970  1.00  0.00     0.063 H 
ATOM     25  C   UNL A   1      31.796  25.559  23.067  1.00  0.00    -0.022 A 
ATOM     26  F   UNL A   1      30.020  24.027  23.116  1.00  0.00    -0.207 F 
ATOM     27  C   UNL A   1      33.168  25.829  23.035  1.00  0.00    -0.038 A 
ATOM     28  H   UNL A   1      35.080  24.935  22.938  1.00  0.00     0.063 H 
ATOM     29  H   UNL A   1      31.117  26.336  23.088  1.00  0.00     0.066 H 
BRANCH  27  30
ATOM     30  C   UNL A   1      33.669  27.254  23.077  1.00  0.00     0.031 C 
ATOM     31  H   UNL A   1      33.077  27.844  22.409  1.00  0.00     0.040 H 
ATOM     32  H   UNL A   1      34.701  27.237  22.793  1.00  0.00     0.040 H 
BRANCH  30  33
ATOM     33  C   UNL A   1      33.594  27.862  24.437  1.00  0.00     0.108 A 
ATOM     34  C   UNL A   1      33.860  27.391  25.708  1.00  0.00    -0.020 A 
ATOM     35  O   UNL A   1      33.210  29.170  24.501  1.00  0.00    -0.469 OA
ATOM     36  C   UNL A   1      33.617  28.467  26.595  1.00  0.00    -0.024 A 
ATOM     37  H   UNL A   1      34.174  26.441  25.961  1.00  0.00     0.066 H 
ATOM     38  C   UNL A   1      33.226  29.526  25.811  1.00  0.00     0.091 A 
ATOM     39  H   UNL A   1      33.714  28.457  27.622  1.00  0.00     0.066 H 
ATOM     40  H   UNL A   1      32.979  30.462  26.169  1.00  0.00     0.104 H 
ENDBRANCH  30  33
ENDBRANCH  27  30
ENDBRANCH  14  20
ENDBRANCH  11  14
ENDBRANCH   7  10
ENDBRANCH   4   7
ENDBRANCH   1   4
BRANCH   1  41
ATOM     41  C   UNL A   1      34.313  23.104  27.036  1.00  0.00    -0.052 C 
ATOM     42  H   UNL A   1      34.006  22.206  27.529  1.00  0.00     0.027 H 
ATOM     43  H   UNL A   1      34.829  23.790  27.675  1.00  0.00     0.027 H 
BRANCH  41  44
ATOM     44  C   UNL A   1      35.305  22.725  25.934  1.00  0.00    -0.036 C 
ATOM     45  H   UNL A   1      34.843  22.918  24.989  1.00  0.00     0.028 H 
ATOM     46  H   UNL A   1      35.542  21.692  26.087  1.00  0.00     0.028 H 
BRANCH  44  47
ATOM     47  C   UNL A   1      36.630  23.478  25.976  1.00  0.00     0.018 C 
ATOM     48  H   UNL A   1      36.648  24.093  26.852  1.00  0.00     0.049 H 
ATOM     49  H   UNL A   1      36.700  24.065  25.085  1.00  0.00     0.049 H 
BRANCH  47  50
ATOM     50  N   UNL A   1      37.774  22.584  26.009  1.00  0.00    -0.352 N 
ATOM     51  C   UNL A   1      39.074  22.850  26.348  1.00  0.00     0.251 C 
ATOM     52  H   UNL A   1      37.588  21.652  25.751  1.00  0.00     0.163 HD
ATOM     53  O   UNL A   1      39.946  22.003  26.157  1.00  0.00    -0.269 OA
BRANCH  51  54
ATOM     54  C   UNL A   1      39.446  24.159  26.931  1.00  0.00     0.039 A 
ATOM     55  C   UNL A   1      40.065  25.106  26.110  1.00  0.00    -0.049 A 
ATOM     56  C   UNL A   1      39.233  24.438  28.284  1.00  0.00    -0.049 A 
ATOM     57  C   UNL A   1      40.447  26.342  26.638  1.00  0.00    -0.053 A 
ATOM     58  H   UNL A   1      40.240  24.894  25.115  1.00  0.00     0.063 H 
ATOM     59  C   UNL A   1      39.553  25.695  28.795  1.00  0.00    -0.053 A 
ATOM     60  H   UNL A   1      38.839  23.714  28.905  1.00  0.00     0.063 H 
ATOM     61  C   UNL A   1      40.184  26.649  27.983  1.00  0.00    -0.014 A 
ATOM     62  H   UNL A   1      40.925  27.031  26.037  1.00  0.00     0.063 H 
ATOM     63  H   UNL A   1      39.324  25.924  29.774  1.00  0.00     0.063 H 
BRANCH  61  64
ATOM     64  C   UNL A   1      40.615  27.944  28.566  1.00  0.00     0.031 A 
ATOM     65  C   UNL A   1      42.064  28.165  28.908  1.00  0.00     0.074 A 
ATOM     66  C   UNL A   1      39.706  28.902  28.825  1.00  0.00     0.049 A 
ATOM     67  N   UNL A   1      42.638  29.208  29.455  1.00  0.00    -0.248 NA
ATOM     68  C   UNL A   1      42.986  27.056  28.623  1.00  0.00    -0.034 C 
ATOM     69  C   UNL A   1      38.267  28.791  28.581  1.00  0.00    -0.036 A 
ATOM     70  N   UNL A   1      39.859  30.158  29.356  1.00  0.00    -0.354 N 
ATOM     71  C   UNL A   1      43.977  28.869  29.600  1.00  0.00     0.074 A 
ATOM     72  C   UNL A   1      44.124  27.510  29.128  1.00  0.00    -0.034 C 
ATOM     73  H   UNL A   1      42.797  26.157  28.151  1.00  0.00     0.065 H 
ATOM     74  C   UNL A   1      37.673  29.941  28.936  1.00  0.00    -0.036 A 
ATOM     75  H   UNL A   1      37.788  27.961  28.198  1.00  0.00     0.065 H 
ATOM     76  C   UNL A   1      38.682  30.859  29.455  1.00  0.00     0.049 A 
ATOM     77  H   UNL A   1      40.728  30.522  29.639  1.00  0.00     0.167 HD
ATOM     78  C   UNL A   1      44.997  29.630  30.063  1.00  0.00     0.037 A 
ATOM     79  H   UNL A   1      44.998  26.965  29.180  1.00  0.00     0.065 H 
ATOM     80  H   UNL A   1      36.664  30.144  28.855  1.00  0.00     0.065 H 
ATOM     81  C   UNL A   1      38.450  32.106  29.908  1.00  0.00     0.037 A 
ATOM     82  C   UNL A   1      44.857  30.997  30.488  1.00  0.00     0.049 A 
ATOM     83  C   UNL A   1      39.605  32.944  30.384  1.00  0.00     0.074 A 
ATOM     84  C   UNL A   1      45.839  31.877  30.910  1.00  0.00    -0.036 A 
ATOM     85  N   UNL A   1      43.654  31.687  30.540  1.00  0.00    -0.354 N 
ATOM     86  N   UNL A   1      40.878  32.637  30.453  1.00  0.00    -0.248 NA
ATOM     87  C   UNL A   1      39.292  34.308  30.834  1.00  0.00    -0.034 C 
ATOM     88  C   UNL A   1      45.225  33.087  31.249  1.00  0.00    -0.036 A 
ATOM     89  H   UNL A   1      46.849  31.674  30.966  1.00  0.00     0.065 H 
ATOM     90  C   UNL A   1      43.867  32.977  30.998  1.00  0.00     0.049 A 
ATOM     91  H   UNL A   1      42.778  31.314  30.288  1.00  0.00     0.167 HD
ATOM     92  C   UNL A   1      41.521  33.777  30.915  1.00  0.00     0.074 A 
ATOM     93  C   UNL A   1      40.499  34.785  31.105  1.00  0.00    -0.034 C 
ATOM     94  H   UNL A   1      38.374  34.771  30.917  1.00  0.00     0.065 H 
ATOM     95  H   UNL A   1      45.703  33.923  31.623  1.00  0.00     0.065 H 
ATOM     96  C   UNL A   1      42.840  33.973  31.160  1.00  0.00     0.037 A 
ATOM     97  H   UNL A   1      40.686  35.753  31.412  1.00  0.00     0.065 H 
BRANCH  78  98
ATOM     98  C   UNL A   1      46.357  29.000  30.128  1.00  0.00     0.064 A 
ATOM     99  C   UNL A   1      46.811  28.345  31.283  1.00  0.00     0.173 A 
ATOM    100  C   UNL A   1      47.209  29.030  29.014  1.00  0.00     0.173 A 
ATOM    101  F   UNL A   1      46.040  28.299  32.380  1.00  0.00    -0.203 F 
ATOM    102  C   UNL A   1      48.079  27.771  31.329  1.00  0.00     0.198 A 
ATOM    103  C   UNL A   1      48.465  28.431  29.054  1.00  0.00     0.198 A 
ATOM    104  F   UNL A   1      46.822  29.640  27.883  1.00  0.00    -0.203 F 
ATOM    105  F   UNL A   1      48.512  27.198  32.461  1.00  0.00    -0.200 F 
ATOM    106  C   UNL A   1      48.902  27.809  30.214  1.00  0.00     0.200 A 
ATOM    107  F   UNL A   1      49.254  28.458  27.972  1.00  0.00    -0.200 F 
ATOM    108  F   UNL A   1      50.121  27.255  30.260  1.00  0.00    -0.200 F 
ENDBRANCH  78  98
BRANCH  81 109
ATOM    109  C   UNL A   1      37.072  32.660  29.883  1.00  0.00     0.064 A 
ATOM    110  C   UNL A   1      36.213  32.490  30.978  1.00  0.00     0.173 A 
ATOM    111  C   UNL A   1      36.584  33.362  28.773  1.00  0.00     0.173 A 
ATOM    112  F   UNL A   1      36.629  31.807  32.055  1.00  0.00    -0.203 F 
ATOM    113  C   UNL A   1      34.910  32.982  30.954  1.00  0.00     0.198 A 
ATOM    114  C   UNL A   1      35.290  33.876  28.759  1.00  0.00     0.198 A 
ATOM    115  F   UNL A   1      37.369  33.556  27.702  1.00  0.00    -0.203 F 
ATOM    116  F   UNL A   1      34.096  32.767  31.996  1.00  0.00    -0.200 F 
ATOM    117  C   UNL A   1      34.450  33.679  29.846  1.00  0.00     0.200 A 
ATOM    118  F   UNL A   1      34.853  34.560  27.693  1.00  0.00    -0.200 F 
ATOM    119  F   UNL A   1      33.198  34.155  29.824  1.00  0.00    -0.200 F 
ENDBRANCH  81 109
BRANCH  96 120
ATOM    120  C   UNL A   1      43.260  35.341  31.607  1.00  0.00     0.064 A 
ATOM    121  C   UNL A   1      43.690  36.316  30.696  1.00  0.00     0.173 A 
ATOM    122  C   UNL A   1      43.201  35.689  32.966  1.00  0.00     0.173 A 
ATOM    123  F   UNL A   1      43.778  36.026  29.389  1.00  0.00    -0.203 F 
ATOM    124  C   UNL A   1      44.070  37.584  31.132  1.00  0.00     0.198 A 
ATOM    125  C   UNL A   1      43.555  36.965  33.394  1.00  0.00     0.198 A 
ATOM    126  F   UNL A   1      42.791  34.793  33.876  1.00  0.00    -0.203 F 
ATOM    127  F   UNL A   1      44.522  38.485  30.250  1.00  0.00    -0.200 F 
ATOM    128  C   UNL A   1      43.996  37.908  32.478  1.00  0.00     0.200 A 
ATOM    129  F   UNL A   1      43.472  37.281  34.694  1.00  0.00    -0.200 F 
ATOM    130  F   UNL A   1      44.359  39.129  32.894  1.00  0.00    -0.200 F 
ENDBRANCH  96 120
ENDBRANCH  61  64
ENDBRANCH  51  54
ENDBRANCH  47  50
ENDBRANCH  44  47
ENDBRANCH  41  44
ENDBRANCH   1  41
TORSDOF 17
ENDMDL
MODEL 8
REMARK VINA RESULT:     -11.4      5.524     11.057
REMARK SMILES C[C@@H](C(=O)NCCCCCCNC(=O)c1ccc(-c2c3nc(c(-c4c(F)c(F)c(F)c(F)c4F)c4ccc([nH]4)c(-c4c(F)c(F)c(F)c(F)c4F)c4nc(c(-c5c(F)c(F)c(F)c(F)c5F)c5ccc2[nH]5)C=C4)C=C3)cc1)c1ccc(Cc2ccco2)cc1F
REMARK SMILES IDX 8 1 7 4 6 7 5 10 3 11 4 12 2 14 1 16 78 20 79 21 89 22 80 23
REMARK SMILES IDX 88 25 90 26 81 27 82 30 83 33 84 34 87 35 85 36 86 38 9 41
REMARK SMILES IDX 10 44 11 47 12 50 13 51 14 53 15 54 16 55 77 56 17 57 76 59
REMARK SMILES IDX 18 61 19 64 20 65 70 66 21 67 75 68 69 69 71 70 22 71 74 72
REMARK SMILES IDX 68 74 67 76 23 78 55 81 35 82 54 83 36 84 39 85 53 86 72 87
REMARK SMILES IDX 37 88 38 90 52 92 73 93 40 96 24 98 25 99 33 100 26 101
REMARK SMILES IDX 27 102 31 103 34 104 28 105 29 106 32 107 30 108 56 109
REMARK SMILES IDX 57 110 65 111 58 112 59 113 63 114 66 115 60 116 61 117
REMARK SMILES IDX 64 118 62 119 41 120 42 121 50 122 43 123 44 124 48 125
REMARK SMILES IDX 51 126 45 127 46 128 49 129 47 130
REMARK H PARENT 8 2 8 3 7 5 7 6 6 8 6 9 5 13 2 15 1 17 1 18 1 19 79 24 80 28
REMARK H PARENT 88 29 82 31 82 32 84 37 85 39 86 40 9 42 9 43 10 45 10 46
REMARK H PARENT 11 48 11 49 12 52 16 58 77 60 17 62 76 63 75 73 69 75 71 77
REMARK H PARENT 74 79 68 80 36 89 39 91 72 94 37 95 73 97
REMARK Flexibility Score: inf
ROOT
ATOM      1  C   UNL A   1      43.127  20.840  25.829  1.00  0.00    -0.052 C 
ATOM      2  H   UNL A   1      42.562  21.665  25.450  1.00  0.00     0.027 H 
ATOM      3  H   UNL A   1      43.520  21.001  26.811  1.00  0.00     0.027 H 
ENDROOT
BRANCH   1   4
ATOM      4  C   UNL A   1      44.345  20.639  24.917  1.00  0.00    -0.036 C 
ATOM      5  H   UNL A   1      44.658  19.619  24.997  1.00  0.00     0.028 H 
ATOM      6  H   UNL A   1      44.032  20.905  23.929  1.00  0.00     0.028 H 
BRANCH   4   7
ATOM      7  C   UNL A   1      45.541  21.533  25.249  1.00  0.00     0.017 C 
ATOM      8  H   UNL A   1      46.430  20.937  25.261  1.00  0.00     0.049 H 
ATOM      9  H   UNL A   1      45.609  22.299  24.504  1.00  0.00     0.049 H 
BRANCH   7  10
ATOM     10  N   UNL A   1      45.379  22.165  26.541  1.00  0.00    -0.356 N 
ATOM     11  C   UNL A   1      45.610  23.449  26.941  1.00  0.00     0.227 C 
ATOM     12  O   UNL A   1      45.367  23.704  28.122  1.00  0.00    -0.274 OA
ATOM     13  H   UNL A   1      45.046  21.569  27.250  1.00  0.00     0.163 HD
BRANCH  11  14
ATOM     14  C   UNL A   1      46.066  24.506  25.922  1.00  0.00     0.063 C 
ATOM     15  H   UNL A   1      45.941  24.032  24.971  1.00  0.00     0.045 H 
BRANCH  14  16
ATOM     16  C   UNL A   1      47.542  24.898  26.054  1.00  0.00    -0.049 C 
ATOM     17  H   UNL A   1      47.616  25.946  26.258  1.00  0.00     0.024 H 
ATOM     18  H   UNL A   1      48.053  24.676  25.141  1.00  0.00     0.024 H 
ATOM     19  H   UNL A   1      47.986  24.347  26.856  1.00  0.00     0.024 H 
ENDBRANCH  14  16
BRANCH  14  20
ATOM     20  C   UNL A   1      45.205  25.762  25.972  1.00  0.00    -0.000 A 
ATOM     21  C   UNL A   1      45.665  26.912  26.628  1.00  0.00    -0.055 A 
ATOM     22  C   UNL A   1      43.932  25.798  25.388  1.00  0.00     0.127 A 
ATOM     23  C   UNL A   1      44.857  28.050  26.714  1.00  0.00    -0.058 A 
ATOM     24  H   UNL A   1      46.606  26.919  27.052  1.00  0.00     0.063 H 
ATOM     25  C   UNL A   1      43.119  26.925  25.479  1.00  0.00    -0.022 A 
ATOM     26  F   UNL A   1      43.456  24.723  24.745  1.00  0.00    -0.207 F 
ATOM     27  C   UNL A   1      43.570  28.064  26.155  1.00  0.00    -0.038 A 
ATOM     28  H   UNL A   1      45.212  28.891  27.195  1.00  0.00     0.063 H 
ATOM     29  H   UNL A   1      42.182  26.919  25.047  1.00  0.00     0.066 H 
BRANCH  27  30
ATOM     30  C   UNL A   1      42.676  29.274  26.297  1.00  0.00     0.031 C 
ATOM     31  H   UNL A   1      41.826  29.003  26.887  1.00  0.00     0.040 H 
ATOM     32  H   UNL A   1      42.398  29.583  25.311  1.00  0.00     0.040 H 
BRANCH  30  33
ATOM     33  C   UNL A   1      43.354  30.431  26.949  1.00  0.00     0.108 A 
ATOM     34  C   UNL A   1      43.499  30.835  28.262  1.00  0.00    -0.020 A 
ATOM     35  O   UNL A   1      44.013  31.297  26.125  1.00  0.00    -0.469 OA
ATOM     36  C   UNL A   1      44.280  32.015  28.236  1.00  0.00    -0.024 A 
ATOM     37  H   UNL A   1      43.114  30.368  29.098  1.00  0.00     0.066 H 
ATOM     38  C   UNL A   1      44.568  32.253  26.913  1.00  0.00     0.091 A 
ATOM     39  H   UNL A   1      44.573  32.582  29.047  1.00  0.00     0.066 H 
ATOM     40  H   UNL A   1      45.129  33.047  26.568  1.00  0.00     0.104 H 
ENDBRANCH  30  33
ENDBRANCH  27  30
ENDBRANCH  14  20
ENDBRANCH  11  14
ENDBRANCH   7  10
ENDBRANCH   4   7
ENDBRANCH   1   4
BRANCH   1  41
ATOM     41  C   UNL A   1      42.186  19.636  25.945  1.00  0.00    -0.052 C 
ATOM     42  H   UNL A   1      42.635  18.928  26.610  1.00  0.00     0.027 H 
ATOM     43  H   UNL A   1      42.057  19.265  24.949  1.00  0.00     0.027 H 
BRANCH  41  44
ATOM     44  C   UNL A   1      40.783  19.951  26.465  1.00  0.00    -0.036 C 
ATOM     45  H   UNL A   1      40.687  19.529  27.443  1.00  0.00     0.028 H 
ATOM     46  H   UNL A   1      40.099  19.534  25.755  1.00  0.00     0.028 H 
BRANCH  44  47
ATOM     47  C   UNL A   1      40.451  21.437  26.555  1.00  0.00     0.018 C 
ATOM     48  H   UNL A   1      41.295  21.999  26.213  1.00  0.00     0.049 H 
ATOM     49  H   UNL A   1      40.221  21.658  27.577  1.00  0.00     0.049 H 
BRANCH  47  50
ATOM     50  N   UNL A   1      39.294  21.795  25.754  1.00  0.00    -0.352 N 
ATOM     51  C   UNL A   1      38.541  22.939  25.779  1.00  0.00     0.251 C 
ATOM     52  H   UNL A   1      39.010  21.118  25.097  1.00  0.00     0.163 HD
ATOM     53  O   UNL A   1      37.492  23.000  25.140  1.00  0.00    -0.269 OA
BRANCH  51  54
ATOM     54  C   UNL A   1      38.972  24.104  26.584  1.00  0.00     0.039 A 
ATOM     55  C   UNL A   1      39.825  25.045  25.997  1.00  0.00    -0.049 A 
ATOM     56  C   UNL A   1      38.584  24.249  27.919  1.00  0.00    -0.049 A 
ATOM     57  C   UNL A   1      40.266  26.142  26.739  1.00  0.00    -0.053 A 
ATOM     58  H   UNL A   1      40.127  24.929  25.017  1.00  0.00     0.063 H 
ATOM     59  C   UNL A   1      38.971  25.378  28.638  1.00  0.00    -0.053 A 
ATOM     60  H   UNL A   1      38.012  23.519  28.373  1.00  0.00     0.063 H 
ATOM     61  C   UNL A   1      39.834  26.323  28.063  1.00  0.00    -0.014 A 
ATOM     62  H   UNL A   1      40.914  26.823  26.313  1.00  0.00     0.063 H 
ATOM     63  H   UNL A   1      38.620  25.520  29.598  1.00  0.00     0.063 H 
BRANCH  61  64
ATOM     64  C   UNL A   1      40.322  27.465  28.875  1.00  0.00     0.031 A 
ATOM     65  C   UNL A   1      41.729  27.456  29.409  1.00  0.00     0.074 A 
ATOM     66  C   UNL A   1      39.496  28.488  29.165  1.00  0.00     0.049 A 
ATOM     67  N   UNL A   1      42.336  28.338  30.165  1.00  0.00    -0.248 NA
ATOM     68  C   UNL A   1      42.556  26.287  29.073  1.00  0.00    -0.034 C 
ATOM     69  C   UNL A   1      38.099  28.592  28.743  1.00  0.00    -0.036 A 
ATOM     70  N   UNL A   1      39.713  29.634  29.887  1.00  0.00    -0.354 N 
ATOM     71  C   UNL A   1      43.600  27.817  30.411  1.00  0.00     0.074 A 
ATOM     72  C   UNL A   1      43.660  26.525  29.766  1.00  0.00    -0.034 C 
ATOM     73  H   UNL A   1      42.334  25.489  28.456  1.00  0.00     0.065 H 
ATOM     74  C   UNL A   1      37.591  29.750  29.192  1.00  0.00    -0.036 A 
ATOM     75  H   UNL A   1      37.587  27.886  28.191  1.00  0.00     0.065 H 
ATOM     76  C   UNL A   1      38.616  30.458  29.952  1.00  0.00     0.049 A 
ATOM     77  H   UNL A   1      40.572  29.846  30.317  1.00  0.00     0.167 HD
ATOM     78  C   UNL A   1      44.627  28.378  31.094  1.00  0.00     0.037 A 
ATOM     79  H   UNL A   1      44.456  25.873  29.838  1.00  0.00     0.065 H 
ATOM     80  H   UNL A   1      36.629  30.086  29.026  1.00  0.00     0.065 H 
ATOM     81  C   UNL A   1      38.463  31.654  30.551  1.00  0.00     0.037 A 
ATOM     82  C   UNL A   1      44.581  29.684  31.695  1.00  0.00     0.049 A 
ATOM     83  C   UNL A   1      39.630  32.271  31.275  1.00  0.00     0.074 A 
ATOM     84  C   UNL A   1      45.588  30.371  32.351  1.00  0.00    -0.036 A 
ATOM     85  N   UNL A   1      43.464  30.506  31.708  1.00  0.00    -0.354 N 
ATOM     86  N   UNL A   1      40.842  31.800  31.444  1.00  0.00    -0.248 NA
ATOM     87  C   UNL A   1      39.410  33.592  31.879  1.00  0.00    -0.034 C 
ATOM     88  C   UNL A   1      45.070  31.593  32.790  1.00  0.00    -0.036 A 
ATOM     89  H   UNL A   1      46.555  30.037  32.492  1.00  0.00     0.065 H 
ATOM     90  C   UNL A   1      43.753  31.688  32.371  1.00  0.00     0.049 A 
ATOM     91  H   UNL A   1      42.593  30.283  31.306  1.00  0.00     0.167 HD
ATOM     92  C   UNL A   1      41.538  32.780  32.137  1.00  0.00     0.074 A 
ATOM     93  C   UNL A   1      40.615  33.875  32.354  1.00  0.00    -0.034 C 
ATOM     94  H   UNL A   1      38.544  34.152  31.923  1.00  0.00     0.065 H 
ATOM     95  H   UNL A   1      45.583  32.305  33.334  1.00  0.00     0.065 H 
ATOM     96  C   UNL A   1      42.827  32.775  32.558  1.00  0.00     0.037 A 
ATOM     97  H   UNL A   1      40.864  34.762  32.818  1.00  0.00     0.065 H 
BRANCH  78  98
ATOM     98  C   UNL A   1      45.890  27.579  31.222  1.00  0.00     0.064 A 
ATOM     99  C   UNL A   1      46.076  26.656  32.262  1.00  0.00     0.173 A 
ATOM    100  C   UNL A   1      46.920  27.720  30.279  1.00  0.00     0.173 A 
ATOM    101  F   UNL A   1      45.128  26.492  33.198  1.00  0.00    -0.203 F 
ATOM    102  C   UNL A   1      47.258  25.927  32.371  1.00  0.00     0.198 A 
ATOM    103  C   UNL A   1      48.088  26.969  30.375  1.00  0.00     0.198 A 
ATOM    104  F   UNL A   1      46.792  28.586  29.262  1.00  0.00    -0.203 F 
ATOM    105  F   UNL A   1      47.434  25.090  33.403  1.00  0.00    -0.200 F 
ATOM    106  C   UNL A   1      48.260  26.080  31.425  1.00  0.00     0.200 A 
ATOM    107  F   UNL A   1      49.051  27.109  29.453  1.00  0.00    -0.200 F 
ATOM    108  F   UNL A   1      49.396  25.377  31.530  1.00  0.00    -0.200 F 
ENDBRANCH  78  98
BRANCH  81 109
ATOM    109  C   UNL A   1      37.168  32.375  30.450  1.00  0.00     0.064 A 
ATOM    110  C   UNL A   1      36.192  32.235  31.446  1.00  0.00     0.173 A 
ATOM    111  C   UNL A   1      36.878  33.209  29.362  1.00  0.00     0.173 A 
ATOM    112  F   UNL A   1      36.417  31.431  32.495  1.00  0.00    -0.203 F 
ATOM    113  C   UNL A   1      34.964  32.885  31.346  1.00  0.00     0.198 A 
ATOM    114  C   UNL A   1      35.660  33.880  29.276  1.00  0.00     0.198 A 
ATOM    115  F   UNL A   1      37.781  33.380  28.386  1.00  0.00    -0.203 F 
ATOM    116  F   UNL A   1      34.031  32.699  32.290  1.00  0.00    -0.200 F 
ATOM    117  C   UNL A   1      34.700  33.711  30.264  1.00  0.00     0.200 A 
ATOM    118  F   UNL A   1      35.412  34.686  28.235  1.00  0.00    -0.200 F 
ATOM    119  F   UNL A   1      33.521  34.338  30.169  1.00  0.00    -0.200 F 
ENDBRANCH  81 109
BRANCH  96 120
ATOM    120  C   UNL A   1      43.331  34.009  33.245  1.00  0.00     0.064 A 
ATOM    121  C   UNL A   1      43.844  35.097  32.526  1.00  0.00     0.173 A 
ATOM    122  C   UNL A   1      43.267  34.114  34.644  1.00  0.00     0.173 A 
ATOM    123  F   UNL A   1      43.940  35.037  31.189  1.00  0.00    -0.203 F 
ATOM    124  C   UNL A   1      44.301  36.237  33.183  1.00  0.00     0.198 A 
ATOM    125  C   UNL A   1      43.699  35.265  35.295  1.00  0.00     0.198 A 
ATOM    126  F   UNL A   1      42.778  33.102  35.376  1.00  0.00    -0.203 F 
ATOM    127  F   UNL A   1      44.832  37.246  32.479  1.00  0.00    -0.200 F 
ATOM    128  C   UNL A   1      44.222  36.322  34.565  1.00  0.00     0.200 A 
ATOM    129  F   UNL A   1      43.611  35.351  36.629  1.00  0.00    -0.200 F 
ATOM    130  F   UNL A   1      44.659  37.422  35.195  1.00  0.00    -0.200 F 
ENDBRANCH  96 120
ENDBRANCH  61  64
ENDBRANCH  51  54
ENDBRANCH  47  50
ENDBRANCH  44  47
ENDBRANCH  41  44
ENDBRANCH   1  41
TORSDOF 17
ENDMDL
MODEL 9
REMARK VINA RESULT:     -11.4      2.139      3.895
REMARK SMILES C[C@@H](C(=O)NCCCCCCNC(=O)c1ccc(-c2c3nc(c(-c4c(F)c(F)c(F)c(F)c4F)c4ccc([nH]4)c(-c4c(F)c(F)c(F)c(F)c4F)c4nc(c(-c5c(F)c(F)c(F)c(F)c5F)c5ccc2[nH]5)C=C4)C=C3)cc1)c1ccc(Cc2ccco2)cc1F
REMARK SMILES IDX 8 1 7 4 6 7 5 10 3 11 4 12 2 14 1 16 78 20 79 21 89 22 80 23
REMARK SMILES IDX 88 25 90 26 81 27 82 30 83 33 84 34 87 35 85 36 86 38 9 41
REMARK SMILES IDX 10 44 11 47 12 50 13 51 14 53 15 54 16 55 77 56 17 57 76 59
REMARK SMILES IDX 18 61 19 64 20 65 70 66 21 67 75 68 69 69 71 70 22 71 74 72
REMARK SMILES IDX 68 74 67 76 23 78 55 81 35 82 54 83 36 84 39 85 53 86 72 87
REMARK SMILES IDX 37 88 38 90 52 92 73 93 40 96 24 98 25 99 33 100 26 101
REMARK SMILES IDX 27 102 31 103 34 104 28 105 29 106 32 107 30 108 56 109
REMARK SMILES IDX 57 110 65 111 58 112 59 113 63 114 66 115 60 116 61 117
REMARK SMILES IDX 64 118 62 119 41 120 42 121 50 122 43 123 44 124 48 125
REMARK SMILES IDX 51 126 45 127 46 128 49 129 47 130
REMARK H PARENT 8 2 8 3 7 5 7 6 6 8 6 9 5 13 2 15 1 17 1 18 1 19 79 24 80 28
REMARK H PARENT 88 29 82 31 82 32 84 37 85 39 86 40 9 42 9 43 10 45 10 46
REMARK H PARENT 11 48 11 49 12 52 16 58 77 60 17 62 76 63 75 73 69 75 71 77
REMARK H PARENT 74 79 68 80 36 89 39 91 72 94 37 95 73 97
REMARK Flexibility Score: inf
ROOT
ATOM      1  C   UNL A   1      35.242  33.510  28.855  1.00  0.00    -0.052 C 
ATOM      2  H   UNL A   1      36.154  33.318  28.330  1.00  0.00     0.027 H 
ATOM      3  H   UNL A   1      35.385  33.909  29.837  1.00  0.00     0.027 H 
ENDROOT
BRANCH   1   4
ATOM      4  C   UNL A   1      34.514  32.172  29.046  1.00  0.00    -0.036 C 
ATOM      5  H   UNL A   1      35.013  31.629  29.821  1.00  0.00     0.028 H 
ATOM      6  H   UNL A   1      33.499  32.409  29.286  1.00  0.00     0.028 H 
BRANCH   4   7
ATOM      7  C   UNL A   1      34.471  31.290  27.796  1.00  0.00     0.017 C 
ATOM      8  H   UNL A   1      34.117  31.872  26.971  1.00  0.00     0.049 H 
ATOM      9  H   UNL A   1      35.458  30.924  27.605  1.00  0.00     0.049 H 
BRANCH   7  10
ATOM     10  N   UNL A   1      33.591  30.157  27.986  1.00  0.00    -0.356 N 
ATOM     11  C   UNL A   1      32.580  29.674  27.207  1.00  0.00     0.227 C 
ATOM     12  O   UNL A   1      32.003  28.668  27.627  1.00  0.00    -0.274 OA
ATOM     13  H   UNL A   1      33.748  29.650  28.815  1.00  0.00     0.163 HD
BRANCH  11  14
ATOM     14  C   UNL A   1      32.270  30.324  25.849  1.00  0.00     0.063 C 
ATOM     15  H   UNL A   1      33.113  30.953  25.656  1.00  0.00     0.045 H 
BRANCH  14  16
ATOM     16  C   UNL A   1      31.022  31.214  25.860  1.00  0.00    -0.049 C 
ATOM     17  H   UNL A   1      30.844  31.566  26.855  1.00  0.00     0.024 H 
ATOM     18  H   UNL A   1      30.177  30.648  25.526  1.00  0.00     0.024 H 
ATOM     19  H   UNL A   1      31.173  32.049  25.209  1.00  0.00     0.024 H 
ENDBRANCH  14  16
BRANCH  14  20
ATOM     20  C   UNL A   1      32.145  29.295  24.733  1.00  0.00    -0.000 A 
ATOM     21  C   UNL A   1      30.916  29.090  24.092  1.00  0.00    -0.055 A 
ATOM     22  C   UNL A   1      33.240  28.517  24.332  1.00  0.00     0.127 A 
ATOM     23  C   UNL A   1      30.790  28.114  23.098  1.00  0.00    -0.058 A 
ATOM     24  H   UNL A   1      30.099  29.661  24.355  1.00  0.00     0.063 H 
ATOM     25  C   UNL A   1      33.117  27.537  23.351  1.00  0.00    -0.022 A 
ATOM     26  F   UNL A   1      34.435  28.686  24.915  1.00  0.00    -0.207 F 
ATOM     27  C   UNL A   1      31.884  27.316  22.728  1.00  0.00    -0.038 A 
ATOM     28  H   UNL A   1      29.880  27.978  22.630  1.00  0.00     0.063 H 
ATOM     29  H   UNL A   1      33.938  26.972  23.084  1.00  0.00     0.066 H 
BRANCH  27  30
ATOM     30  C   UNL A   1      31.733  26.223  21.695  1.00  0.00     0.031 C 
ATOM     31  H   UNL A   1      32.353  26.459  20.856  1.00  0.00     0.040 H 
ATOM     32  H   UNL A   1      30.697  26.178  21.429  1.00  0.00     0.040 H 
BRANCH  30  33
ATOM     33  C   UNL A   1      32.119  24.876  22.205  1.00  0.00     0.108 A 
ATOM     34  C   UNL A   1      31.544  23.994  23.099  1.00  0.00    -0.020 A 
ATOM     35  O   UNL A   1      33.265  24.336  21.697  1.00  0.00    -0.469 OA
ATOM     36  C   UNL A   1      32.389  22.860  23.145  1.00  0.00    -0.024 A 
ATOM     37  H   UNL A   1      30.670  24.135  23.629  1.00  0.00     0.066 H 
ATOM     38  C   UNL A   1      33.420  23.117  22.273  1.00  0.00     0.091 A 
ATOM     39  H   UNL A   1      32.257  22.011  23.718  1.00  0.00     0.066 H 
ATOM     40  H   UNL A   1      34.202  22.471  22.083  1.00  0.00     0.104 H 
ENDBRANCH  30  33
ENDBRANCH  27  30
ENDBRANCH  14  20
ENDBRANCH  11  14
ENDBRANCH   7  10
ENDBRANCH   4   7
ENDBRANCH   1   4
BRANCH   1  41
ATOM     41  C   UNL A   1      34.464  34.577  28.076  1.00  0.00    -0.052 C 
ATOM     42  H   UNL A   1      34.220  34.173  27.116  1.00  0.00     0.027 H 
ATOM     43  H   UNL A   1      35.102  35.434  28.031  1.00  0.00     0.027 H 
BRANCH  41  44
ATOM     44  C   UNL A   1      33.165  35.048  28.734  1.00  0.00    -0.036 C 
ATOM     45  H   UNL A   1      32.800  34.257  29.354  1.00  0.00     0.028 H 
ATOM     46  H   UNL A   1      32.500  35.303  27.935  1.00  0.00     0.028 H 
BRANCH  44  47
ATOM     47  C   UNL A   1      33.300  36.301  29.593  1.00  0.00     0.018 C 
ATOM     48  H   UNL A   1      33.042  37.154  29.000  1.00  0.00     0.049 H 
ATOM     49  H   UNL A   1      34.312  36.355  29.936  1.00  0.00     0.049 H 
BRANCH  47  50
ATOM     50  N   UNL A   1      32.438  36.265  30.761  1.00  0.00    -0.352 N 
ATOM     51  C   UNL A   1      32.592  35.571  31.933  1.00  0.00     0.251 C 
ATOM     52  H   UNL A   1      31.626  36.820  30.703  1.00  0.00     0.163 HD
ATOM     53  O   UNL A   1      31.673  35.532  32.749  1.00  0.00    -0.269 OA
BRANCH  51  54
ATOM     54  C   UNL A   1      33.854  34.853  32.220  1.00  0.00     0.039 A 
ATOM     55  C   UNL A   1      33.793  33.494  32.540  1.00  0.00    -0.049 A 
ATOM     56  C   UNL A   1      35.083  35.518  32.223  1.00  0.00    -0.049 A 
ATOM     57  C   UNL A   1      34.965  32.795  32.838  1.00  0.00    -0.053 A 
ATOM     58  H   UNL A   1      32.883  33.006  32.557  1.00  0.00     0.063 H 
ATOM     59  C   UNL A   1      36.260  34.806  32.454  1.00  0.00    -0.053 A 
ATOM     60  H   UNL A   1      35.121  36.536  32.054  1.00  0.00     0.063 H 
ATOM     61  C   UNL A   1      36.209  33.444  32.786  1.00  0.00    -0.014 A 
ATOM     62  H   UNL A   1      34.916  31.798  33.097  1.00  0.00     0.063 H 
ATOM     63  H   UNL A   1      37.171  35.283  32.380  1.00  0.00     0.063 H 
BRANCH  61  64
ATOM     64  C   UNL A   1      37.459  32.724  33.134  1.00  0.00     0.031 A 
ATOM     65  C   UNL A   1      38.154  33.016  34.436  1.00  0.00     0.074 A 
ATOM     66  C   UNL A   1      37.990  31.840  32.268  1.00  0.00     0.049 A 
ATOM     67  N   UNL A   1      39.271  32.522  34.910  1.00  0.00    -0.248 NA
ATOM     68  C   UNL A   1      37.524  34.017  35.310  1.00  0.00    -0.034 C 
ATOM     69  C   UNL A   1      37.436  31.504  30.956  1.00  0.00    -0.036 A 
ATOM     70  N   UNL A   1      39.119  31.067  32.362  1.00  0.00    -0.354 N 
ATOM     71  C   UNL A   1      39.487  33.170  36.120  1.00  0.00     0.074 A 
ATOM     72  C   UNL A   1      38.413  34.124  36.287  1.00  0.00    -0.034 C 
ATOM     73  H   UNL A   1      36.624  34.509  35.193  1.00  0.00     0.065 H 
ATOM     74  C   UNL A   1      38.211  30.573  30.379  1.00  0.00    -0.036 A 
ATOM     75  H   UNL A   1      36.586  31.918  30.542  1.00  0.00     0.065 H 
ATOM     76  C   UNL A   1      39.329  30.265  31.266  1.00  0.00     0.049 A 
ATOM     77  H   UNL A   1      39.721  31.083  33.140  1.00  0.00     0.167 HD
ATOM     78  C   UNL A   1      40.477  32.969  37.021  1.00  0.00     0.037 A 
ATOM     79  H   UNL A   1      38.349  34.800  37.064  1.00  0.00     0.065 H 
ATOM     80  H   UNL A   1      38.044  30.143  29.455  1.00  0.00     0.065 H 
ATOM     81  C   UNL A   1      40.310  29.378  31.014  1.00  0.00     0.037 A 
ATOM     82  C   UNL A   1      41.517  31.987  36.875  1.00  0.00     0.049 A 
ATOM     83  C   UNL A   1      41.380  29.149  32.047  1.00  0.00     0.074 A 
ATOM     84  C   UNL A   1      42.529  31.659  37.761  1.00  0.00    -0.036 A 
ATOM     85  N   UNL A   1      41.676  31.167  35.767  1.00  0.00    -0.354 N 
ATOM     86  N   UNL A   1      41.536  29.718  33.218  1.00  0.00    -0.248 NA
ATOM     87  C   UNL A   1      42.403  28.144  31.728  1.00  0.00    -0.034 C 
ATOM     88  C   UNL A   1      43.319  30.665  37.175  1.00  0.00    -0.036 A 
ATOM     89  H   UNL A   1      42.675  32.077  38.693  1.00  0.00     0.065 H 
ATOM     90  C   UNL A   1      42.775  30.342  35.942  1.00  0.00     0.049 A 
ATOM     91  H   UNL A   1      41.093  31.171  34.973  1.00  0.00     0.167 HD
ATOM     92  C   UNL A   1      42.647  29.116  33.790  1.00  0.00     0.074 A 
ATOM     93  C   UNL A   1      43.125  28.132  32.840  1.00  0.00    -0.034 C 
ATOM     94  H   UNL A   1      42.527  27.593  30.865  1.00  0.00     0.065 H 
ATOM     95  H   UNL A   1      44.164  30.242  37.591  1.00  0.00     0.065 H 
ATOM     96  C   UNL A   1      43.222  29.354  34.995  1.00  0.00     0.037 A 
ATOM     97  H   UNL A   1      43.924  27.502  33.008  1.00  0.00     0.065 H 
BRANCH  78  98
ATOM     98  C   UNL A   1      40.479  33.830  38.251  1.00  0.00     0.064 A 
ATOM     99  C   UNL A   1      39.717  33.500  39.382  1.00  0.00     0.173 A 
ATOM    100  C   UNL A   1      41.270  34.987  38.308  1.00  0.00     0.173 A 
ATOM    101  F   UNL A   1      38.933  32.411  39.374  1.00  0.00    -0.203 F 
ATOM    102  C   UNL A   1      39.724  34.313  40.513  1.00  0.00     0.198 A 
ATOM    103  C   UNL A   1      41.297  35.782  39.451  1.00  0.00     0.198 A 
ATOM    104  F   UNL A   1      42.021  35.346  37.256  1.00  0.00    -0.203 F 
ATOM    105  F   UNL A   1      38.947  34.006  41.561  1.00  0.00    -0.200 F 
ATOM    106  C   UNL A   1      40.518  35.449  40.548  1.00  0.00     0.200 A 
ATOM    107  F   UNL A   1      42.073  36.873  39.489  1.00  0.00    -0.200 F 
ATOM    108  F   UNL A   1      40.525  36.229  41.638  1.00  0.00    -0.200 F 
ENDBRANCH  78  98
BRANCH  81 109
ATOM    109  C   UNL A   1      40.298  28.598  29.750  1.00  0.00     0.064 A 
ATOM    110  C   UNL A   1      39.582  27.397  29.657  1.00  0.00     0.173 A 
ATOM    111  C   UNL A   1      40.999  29.031  28.616  1.00  0.00     0.173 A 
ATOM    112  F   UNL A   1      38.912  26.933  30.722  1.00  0.00    -0.203 F 
ATOM    113  C   UNL A   1      39.587  26.645  28.484  1.00  0.00     0.198 A 
ATOM    114  C   UNL A   1      40.983  28.291  27.435  1.00  0.00     0.198 A 
ATOM    115  F   UNL A   1      41.695  30.177  28.653  1.00  0.00    -0.203 F 
ATOM    116  F   UNL A   1      38.931  25.478  28.437  1.00  0.00    -0.200 F 
ATOM    117  C   UNL A   1      40.283  27.095  27.372  1.00  0.00     0.200 A 
ATOM    118  F   UNL A   1      41.647  28.735  26.360  1.00  0.00    -0.200 F 
ATOM    119  F   UNL A   1      40.286  26.373  26.244  1.00  0.00    -0.200 F 
ENDBRANCH  81 109
BRANCH  96 120
ATOM    120  C   UNL A   1      44.396  28.503  35.377  1.00  0.00     0.064 A 
ATOM    121  C   UNL A   1      45.712  28.884  35.078  1.00  0.00     0.173 A 
ATOM    122  C   UNL A   1      44.200  27.304  36.080  1.00  0.00     0.173 A 
ATOM    123  F   UNL A   1      45.949  30.014  34.395  1.00  0.00    -0.203 F 
ATOM    124  C   UNL A   1      46.789  28.082  35.448  1.00  0.00     0.198 A 
ATOM    125  C   UNL A   1      45.281  26.519  36.471  1.00  0.00     0.198 A 
ATOM    126  F   UNL A   1      42.961  26.899  36.394  1.00  0.00    -0.203 F 
ATOM    127  F   UNL A   1      48.035  28.442  35.111  1.00  0.00    -0.200 F 
ATOM    128  C   UNL A   1      46.573  26.905  36.148  1.00  0.00     0.200 A 
ATOM    129  F   UNL A   1      45.071  25.388  37.158  1.00  0.00    -0.200 F 
ATOM    130  F   UNL A   1      47.612  26.137  36.506  1.00  0.00    -0.200 F 
ENDBRANCH  96 120
ENDBRANCH  61  64
ENDBRANCH  51  54
ENDBRANCH  47  50
ENDBRANCH  44  47
ENDBRANCH  41  44
ENDBRANCH   1  41
TORSDOF 17
ENDMDL
MODEL 10
REMARK VINA RESULT:     -11.4      2.338      4.615
REMARK SMILES C[C@@H](C(=O)NCCCCCCNC(=O)c1ccc(-c2c3nc(c(-c4c(F)c(F)c(F)c(F)c4F)c4ccc([nH]4)c(-c4c(F)c(F)c(F)c(F)c4F)c4nc(c(-c5c(F)c(F)c(F)c(F)c5F)c5ccc2[nH]5)C=C4)C=C3)cc1)c1ccc(Cc2ccco2)cc1F
REMARK SMILES IDX 8 1 7 4 6 7 5 10 3 11 4 12 2 14 1 16 78 20 79 21 89 22 80 23
REMARK SMILES IDX 88 25 90 26 81 27 82 30 83 33 84 34 87 35 85 36 86 38 9 41
REMARK SMILES IDX 10 44 11 47 12 50 13 51 14 53 15 54 16 55 77 56 17 57 76 59
REMARK SMILES IDX 18 61 19 64 20 65 70 66 21 67 75 68 69 69 71 70 22 71 74 72
REMARK SMILES IDX 68 74 67 76 23 78 55 81 35 82 54 83 36 84 39 85 53 86 72 87
REMARK SMILES IDX 37 88 38 90 52 92 73 93 40 96 24 98 25 99 33 100 26 101
REMARK SMILES IDX 27 102 31 103 34 104 28 105 29 106 32 107 30 108 56 109
REMARK SMILES IDX 57 110 65 111 58 112 59 113 63 114 66 115 60 116 61 117
REMARK SMILES IDX 64 118 62 119 41 120 42 121 50 122 43 123 44 124 48 125
REMARK SMILES IDX 51 126 45 127 46 128 49 129 47 130
REMARK H PARENT 8 2 8 3 7 5 7 6 6 8 6 9 5 13 2 15 1 17 1 18 1 19 79 24 80 28
REMARK H PARENT 88 29 82 31 82 32 84 37 85 39 86 40 9 42 9 43 10 45 10 46
REMARK H PARENT 11 48 11 49 12 52 16 58 77 60 17 62 76 63 75 73 69 75 71 77
REMARK H PARENT 74 79 68 80 36 89 39 91 72 94 37 95 73 97
REMARK Flexibility Score: inf
ROOT
ATOM      1  C   UNL A   1      32.371  29.932  26.802  1.00  0.00    -0.052 C 
ATOM      2  H   UNL A   1      33.204  29.721  26.165  1.00  0.00     0.027 H 
ATOM      3  H   UNL A   1      32.634  30.462  27.694  1.00  0.00     0.027 H 
ENDROOT
BRANCH   1   4
ATOM      4  C   UNL A   1      31.778  28.595  27.266  1.00  0.00    -0.036 C 
ATOM      5  H   UNL A   1      32.309  28.280  28.140  1.00  0.00     0.028 H 
ATOM      6  H   UNL A   1      30.739  28.769  27.447  1.00  0.00     0.028 H 
BRANCH   4   7
ATOM      7  C   UNL A   1      31.857  27.473  26.229  1.00  0.00     0.017 C 
ATOM      8  H   UNL A   1      31.475  27.832  25.297  1.00  0.00     0.049 H 
ATOM      9  H   UNL A   1      32.880  27.176  26.128  1.00  0.00     0.049 H 
BRANCH   7  10
ATOM     10  N   UNL A   1      31.085  26.321  26.644  1.00  0.00    -0.356 N 
ATOM     11  C   UNL A   1      30.817  25.149  26.000  1.00  0.00     0.227 C 
ATOM     12  O   UNL A   1      30.127  24.334  26.616  1.00  0.00    -0.274 OA
ATOM     13  H   UNL A   1      30.687  26.396  27.541  1.00  0.00     0.163 HD
BRANCH  11  14
ATOM     14  C   UNL A   1      31.433  24.866  24.620  1.00  0.00     0.063 C 
ATOM     15  H   UNL A   1      32.036  25.724  24.415  1.00  0.00     0.045 H 
BRANCH  14  16
ATOM     16  C   UNL A   1      30.399  24.748  23.494  1.00  0.00    -0.049 C 
ATOM     17  H   UNL A   1      29.979  25.711  23.294  1.00  0.00     0.024 H 
ATOM     18  H   UNL A   1      29.622  24.075  23.792  1.00  0.00     0.024 H 
ATOM     19  H   UNL A   1      30.874  24.376  22.611  1.00  0.00     0.024 H 
ENDBRANCH  14  16
BRANCH  14  20
ATOM     20  C   UNL A   1      32.314  23.623  24.626  1.00  0.00    -0.000 A 
ATOM     21  C   UNL A   1      31.997  22.524  23.817  1.00  0.00    -0.055 A 
ATOM     22  C   UNL A   1      33.445  23.535  25.449  1.00  0.00     0.127 A 
ATOM     23  C   UNL A   1      32.780  21.366  23.856  1.00  0.00    -0.058 A 
ATOM     24  H   UNL A   1      31.180  22.569  23.189  1.00  0.00     0.063 H 
ATOM     25  C   UNL A   1      34.222  22.381  25.501  1.00  0.00    -0.022 A 
ATOM     26  F   UNL A   1      33.787  24.566  26.235  1.00  0.00    -0.207 F 
ATOM     27  C   UNL A   1      33.891  21.275  24.710  1.00  0.00    -0.038 A 
ATOM     28  H   UNL A   1      32.538  20.567  23.250  1.00  0.00     0.063 H 
ATOM     29  H   UNL A   1      35.043  22.342  26.124  1.00  0.00     0.066 H 
BRANCH  27  30
ATOM     30  C   UNL A   1      34.702  20.003  24.793  1.00  0.00     0.031 C 
ATOM     31  H   UNL A   1      35.286  20.029  25.689  1.00  0.00     0.040 H 
ATOM     32  H   UNL A   1      35.314  19.958  23.916  1.00  0.00     0.040 H 
BRANCH  30  33
ATOM     33  C   UNL A   1      33.862  18.772  24.812  1.00  0.00     0.108 A 
ATOM     34  C   UNL A   1      32.802  18.352  25.593  1.00  0.00    -0.020 A 
ATOM     35  O   UNL A   1      34.134  17.831  23.862  1.00  0.00    -0.469 OA
ATOM     36  C   UNL A   1      32.414  17.085  25.097  1.00  0.00    -0.024 A 
ATOM     37  H   UNL A   1      32.377  18.863  26.382  1.00  0.00     0.066 H 
ATOM     38  C   UNL A   1      33.254  16.814  24.044  1.00  0.00     0.091 A 
ATOM     39  H   UNL A   1      31.653  16.486  25.455  1.00  0.00     0.066 H 
ATOM     40  H   UNL A   1      33.219  15.956  23.471  1.00  0.00     0.104 H 
ENDBRANCH  30  33
ENDBRANCH  27  30
ENDBRANCH  14  20
ENDBRANCH  11  14
ENDBRANCH   7  10
ENDBRANCH   4   7
ENDBRANCH   1   4
BRANCH   1  41
ATOM     41  C   UNL A   1      31.410  30.848  26.036  1.00  0.00    -0.052 C 
ATOM     42  H   UNL A   1      30.435  30.410  26.076  1.00  0.00     0.027 H 
ATOM     43  H   UNL A   1      31.804  30.927  25.045  1.00  0.00     0.027 H 
BRANCH  41  44
ATOM     44  C   UNL A   1      31.309  32.279  26.567  1.00  0.00    -0.036 C 
ATOM     45  H   UNL A   1      30.606  32.286  27.374  1.00  0.00     0.028 H 
ATOM     46  H   UNL A   1      31.008  32.886  25.738  1.00  0.00     0.028 H 
BRANCH  44  47
ATOM     47  C   UNL A   1      32.619  32.870  27.075  1.00  0.00     0.018 C 
ATOM     48  H   UNL A   1      33.311  32.923  26.259  1.00  0.00     0.049 H 
ATOM     49  H   UNL A   1      32.984  32.234  27.855  1.00  0.00     0.049 H 
BRANCH  47  50
ATOM     50  N   UNL A   1      32.448  34.199  27.631  1.00  0.00    -0.352 N 
ATOM     51  C   UNL A   1      33.087  34.785  28.693  1.00  0.00     0.251 C 
ATOM     52  H   UNL A   1      31.776  34.761  27.181  1.00  0.00     0.163 HD
ATOM     53  O   UNL A   1      32.692  35.866  29.127  1.00  0.00    -0.269 OA
BRANCH  51  54
ATOM     54  C   UNL A   1      34.243  34.120  29.333  1.00  0.00     0.039 A 
ATOM     55  C   UNL A   1      35.532  34.474  28.922  1.00  0.00    -0.049 A 
ATOM     56  C   UNL A   1      34.066  33.122  30.295  1.00  0.00    -0.049 A 
ATOM     57  C   UNL A   1      36.642  33.847  29.492  1.00  0.00    -0.053 A 
ATOM     58  H   UNL A   1      35.663  35.197  28.197  1.00  0.00     0.063 H 
ATOM     59  C   UNL A   1      35.174  32.544  30.913  1.00  0.00    -0.053 A 
ATOM     60  H   UNL A   1      33.114  32.812  30.549  1.00  0.00     0.063 H 
ATOM     61  C   UNL A   1      36.472  32.884  30.500  1.00  0.00    -0.014 A 
ATOM     62  H   UNL A   1      37.591  34.092  29.171  1.00  0.00     0.063 H 
ATOM     63  H   UNL A   1      35.040  31.863  31.676  1.00  0.00     0.063 H 
BRANCH  61  64
ATOM     64  C   UNL A   1      37.639  32.185  31.090  1.00  0.00     0.031 A 
ATOM     65  C   UNL A   1      38.109  32.548  32.473  1.00  0.00     0.074 A 
ATOM     66  C   UNL A   1      38.301  31.256  30.374  1.00  0.00     0.049 A 
ATOM     67  N   UNL A   1      39.127  32.081  33.154  1.00  0.00    -0.248 NA
ATOM     68  C   UNL A   1      37.350  33.594  33.174  1.00  0.00    -0.034 C 
ATOM     69  C   UNL A   1      37.971  30.849  29.008  1.00  0.00    -0.036 A 
ATOM     70  N   UNL A   1      39.392  30.490  30.697  1.00  0.00    -0.354 N 
ATOM     71  C   UNL A   1      39.142  32.794  34.345  1.00  0.00     0.074 A 
ATOM     72  C   UNL A   1      38.064  33.755  34.280  1.00  0.00    -0.034 C 
ATOM     73  H   UNL A   1      36.486  34.078  32.882  1.00  0.00     0.065 H 
ATOM     74  C   UNL A   1      38.825  29.889  28.619  1.00  0.00    -0.036 A 
ATOM     75  H   UNL A   1      37.206  31.239  28.436  1.00  0.00     0.065 H 
ATOM     76  C   UNL A   1      39.776  29.631  29.697  1.00  0.00     0.049 A 
ATOM     77  H   UNL A   1      39.856  30.549  31.563  1.00  0.00     0.167 HD
ATOM     78  C   UNL A   1      39.967  32.643  35.410  1.00  0.00     0.037 A 
ATOM     79  H   UNL A   1      37.876  34.471  34.997  1.00  0.00     0.065 H 
ATOM     80  H   UNL A   1      38.811  29.410  27.705  1.00  0.00     0.065 H 
ATOM     81  C   UNL A   1      40.778  28.732  29.660  1.00  0.00     0.037 A 
ATOM     82  C   UNL A   1      41.009  31.655  35.492  1.00  0.00     0.049 A 
ATOM     83  C   UNL A   1      41.658  28.560  30.869  1.00  0.00     0.074 A 
ATOM     84  C   UNL A   1      41.855  31.377  36.552  1.00  0.00    -0.036 A 
ATOM     85  N   UNL A   1      41.344  30.777  34.473  1.00  0.00    -0.354 N 
ATOM     86  N   UNL A   1      41.621  29.192  32.017  1.00  0.00    -0.248 NA
ATOM     87  C   UNL A   1      42.712  27.540  30.779  1.00  0.00    -0.034 C 
ATOM     88  C   UNL A   1      42.724  30.353  36.160  1.00  0.00    -0.036 A 
ATOM     89  H   UNL A   1      41.846  31.845  37.472  1.00  0.00     0.065 H 
ATOM     90  C   UNL A   1      42.392  29.964  34.873  1.00  0.00     0.049 A 
ATOM     91  H   UNL A   1      40.902  30.737  33.593  1.00  0.00     0.167 HD
ATOM     92  C   UNL A   1      42.616  28.623  32.798  1.00  0.00     0.074 A 
ATOM     93  C   UNL A   1      43.238  27.590  31.996  1.00  0.00    -0.034 C 
ATOM     94  H   UNL A   1      42.975  26.944  29.980  1.00  0.00     0.065 H 
ATOM     95  H   UNL A   1      43.484  29.954  36.734  1.00  0.00     0.065 H 
ATOM     96  C   UNL A   1      42.983  28.927  34.068  1.00  0.00     0.037 A 
ATOM     97  H   UNL A   1      43.993  26.970  32.329  1.00  0.00     0.065 H 
BRANCH  78  98
ATOM     98  C   UNL A   1      39.769  33.569  36.574  1.00  0.00     0.064 A 
ATOM     99  C   UNL A   1      38.919  33.241  37.641  1.00  0.00     0.173 A 
ATOM    100  C   UNL A   1      40.457  34.790  36.637  1.00  0.00     0.173 A 
ATOM    101  F   UNL A   1      38.227  32.091  37.624  1.00  0.00    -0.203 F 
ATOM    102  C   UNL A   1      38.741  34.114  38.711  1.00  0.00     0.198 A 
ATOM    103  C   UNL A   1      40.300  35.648  37.722  1.00  0.00     0.198 A 
ATOM    104  F   UNL A   1      41.286  35.151  35.646  1.00  0.00    -0.203 F 
ATOM    105  F   UNL A   1      37.883  33.802  39.692  1.00  0.00    -0.200 F 
ATOM    106  C   UNL A   1      39.435  35.314  38.753  1.00  0.00     0.200 A 
ATOM    107  F   UNL A   1      40.980  36.801  37.768  1.00  0.00    -0.200 F 
ATOM    108  F   UNL A   1      39.265  36.152  39.785  1.00  0.00    -0.200 F 
ENDBRANCH  78  98
BRANCH  81 109
ATOM    109  C   UNL A   1      40.972  27.885  28.455  1.00  0.00     0.064 A 
ATOM    110  C   UNL A   1      41.795  28.313  27.405  1.00  0.00     0.173 A 
ATOM    111  C   UNL A   1      40.341  26.640  28.326  1.00  0.00     0.173 A 
ATOM    112  F   UNL A   1      42.403  29.506  27.476  1.00  0.00    -0.203 F 
ATOM    113  C   UNL A   1      41.962  27.539  26.259  1.00  0.00     0.198 A 
ATOM    114  C   UNL A   1      40.528  25.854  27.191  1.00  0.00     0.198 A 
ATOM    115  F   UNL A   1      39.548  26.183  29.306  1.00  0.00    -0.203 F 
ATOM    116  F   UNL A   1      42.719  27.992  25.251  1.00  0.00    -0.200 F 
ATOM    117  C   UNL A   1      41.332  26.307  26.155  1.00  0.00     0.200 A 
ATOM    118  F   UNL A   1      39.929  24.660  27.098  1.00  0.00    -0.200 F 
ATOM    119  F   UNL A   1      41.495  25.561  25.055  1.00  0.00    -0.200 F 
ENDBRANCH  81 109
BRANCH  96 120
ATOM    120  C   UNL A   1      44.070  28.099  34.686  1.00  0.00     0.064 A 
ATOM    121  C   UNL A   1      45.417  28.480  34.619  1.00  0.00     0.173 A 
ATOM    122  C   UNL A   1      43.752  26.922  35.384  1.00  0.00     0.173 A 
ATOM    123  F   UNL A   1      45.772  29.588  33.951  1.00  0.00    -0.203 F 
ATOM    124  C   UNL A   1      46.411  27.700  35.205  1.00  0.00     0.198 A 
ATOM    125  C   UNL A   1      44.745  26.160  35.991  1.00  0.00     0.198 A 
ATOM    126  F   UNL A   1      42.476  26.518  35.481  1.00  0.00    -0.203 F 
ATOM    127  F   UNL A   1      47.696  28.059  35.089  1.00  0.00    -0.200 F 
ATOM    128  C   UNL A   1      46.073  26.546  35.896  1.00  0.00     0.200 A 
ATOM    129  F   UNL A   1      44.416  25.051  36.668  1.00  0.00    -0.200 F 
ATOM    130  F   UNL A   1      47.031  25.799  36.462  1.00  0.00    -0.200 F 
ENDBRANCH  96 120
ENDBRANCH  61  64
ENDBRANCH  51  54
ENDBRANCH  47  50
ENDBRANCH  44  47
ENDBRANCH  41  44
ENDBRANCH   1  41
TORSDOF 17
ENDMDL
