MODEL 1
REMARK VINA RESULT:      -8.5      0.000      0.000
REMARK SMILES CC1CC[NH+]([C@H](c2ccc(F)cc2)c2ccc([C@@H](C)C(=O)NCCCCCCNC(=O)c3ccc(-c4c5nc(c(-c6c(F)c(F)c(F)c(F)c6F)c6ccc([nH]6)c(-c6c(F)c(F)c(F)c(F)c6F)c6nc(c(-c7c(F)c(F)c(F)c(F)c7F)c7ccc4[nH]7)C=C6)C=C5)cc3)cc2-c2ccc(C(F)(F)F)cc2)CC1
REMARK SMILES IDX 24 1 23 4 22 7 20 8 21 9 18 11 17 13 14 14 15 15 96 16 16 17
REMARK SMILES IDX 95 19 6 22 5 24 2 25 3 26 108 27 4 29 107 32 1 40 7 44 8 45
REMARK SMILES IDX 13 46 9 47 12 49 10 51 11 54 97 55 98 56 106 57 99 58 105 60
REMARK SMILES IDX 100 62 101 65 102 66 103 67 104 68 19 69 25 73 26 76 27 79
REMARK SMILES IDX 28 82 29 85 30 86 31 88 32 89 33 90 94 91 34 92 93 94 35 96
REMARK SMILES IDX 36 99 37 100 87 101 38 102 92 103 86 104 88 105 39 106
REMARK SMILES IDX 91 107 85 109 84 111 40 113 72 116 52 117 71 118 53 119
REMARK SMILES IDX 56 120 70 121 89 122 54 123 55 125 69 127 90 128 57 131
REMARK SMILES IDX 41 133 42 134 50 135 43 136 44 137 48 138 51 139 45 140
REMARK SMILES IDX 46 141 49 142 47 143 73 144 74 145 82 146 75 147 76 148
REMARK SMILES IDX 80 149 83 150 77 151 78 152 81 153 79 154 58 155 59 156
REMARK SMILES IDX 67 157 60 158 61 159 65 160 68 161 62 162 63 163 66 164
REMARK SMILES IDX 64 165
REMARK H PARENT 24 2 24 3 23 5 23 6 22 10 18 12 15 18 16 20 95 21 6 23 2 28
REMARK H PARENT 3 30 3 31 108 33 108 34 4 35 4 36 107 37 107 38 5 39 1 41 1 42
REMARK H PARENT 1 43 8 48 13 50 9 52 12 53 98 59 106 61 99 63 105 64 19 70
REMARK H PARENT 19 71 19 72 25 74 25 75 26 77 26 78 27 80 27 81 28 83 28 84
REMARK H PARENT 29 87 33 93 94 95 34 97 93 98 92 108 86 110 88 112 91 114
REMARK H PARENT 85 115 53 124 56 126 89 129 54 130 90 132
REMARK Flexibility Score: inf
ROOT
ATOM      1  C   UNL A   1      37.019  32.808  32.600  1.00  0.00    -0.036 C 
ATOM      2  H   UNL A   1      35.992  32.662  32.862  1.00  0.00     0.028 H 
ATOM      3  H   UNL A   1      37.491  31.908  32.264  1.00  0.00     0.028 H 
ENDROOT
BRANCH   1   4
ATOM      4  C   UNL A   1      37.778  33.265  33.853  1.00  0.00     0.017 C 
ATOM      5  H   UNL A   1      38.805  33.425  33.598  1.00  0.00     0.049 H 
ATOM      6  H   UNL A   1      37.325  34.169  34.206  1.00  0.00     0.049 H 
BRANCH   4   7
ATOM      7  N   UNL A   1      37.705  32.280  34.913  1.00  0.00    -0.356 N 
ATOM      8  C   UNL A   1      38.277  31.057  35.084  1.00  0.00     0.227 C 
ATOM      9  O   UNL A   1      37.933  30.439  36.099  1.00  0.00    -0.274 OA
ATOM     10  H   UNL A   1      37.124  32.550  35.661  1.00  0.00     0.163 HD
BRANCH   8  11
ATOM     11  C   UNL A   1      39.302  30.427  34.120  1.00  0.00     0.060 C 
ATOM     12  H   UNL A   1      39.662  31.231  33.512  1.00  0.00     0.045 H 
BRANCH  11  13
ATOM     13  C   UNL A   1      40.545  29.912  34.823  1.00  0.00    -0.035 A 
ATOM     14  C   UNL A   1      43.108  29.200  35.894  1.00  0.00     0.022 A 
ATOM     15  C   UNL A   1      42.331  30.248  36.409  1.00  0.00    -0.052 A 
ATOM     16  C   UNL A   1      42.493  28.392  34.897  1.00  0.00    -0.009 A 
ATOM     17  C   UNL A   1      41.048  30.525  35.956  1.00  0.00    -0.058 A 
ATOM     18  H   UNL A   1      42.731  30.840  37.155  1.00  0.00     0.063 H 
ATOM     19  C   UNL A   1      41.263  28.817  34.327  1.00  0.00    -0.050 A 
ATOM     20  H   UNL A   1      40.460  31.197  36.473  1.00  0.00     0.063 H 
ATOM     21  H   UNL A   1      40.884  28.299  33.518  1.00  0.00     0.063 H 
BRANCH  14  22
ATOM     22  C   UNL A   1      44.532  28.915  36.456  1.00  0.00     0.139 C 
ATOM     23  H   UNL A   1      44.718  27.958  36.013  1.00  0.00     0.107 H 
BRANCH  22  24
ATOM     24  N   UNL A   1      44.673  28.671  37.932  1.00  0.00    -0.325 N 
ATOM     25  C   UNL A   1      46.372  28.118  40.251  1.00  0.00    -0.034 C 
ATOM     26  C   UNL A   1      45.746  29.501  40.098  1.00  0.00    -0.001 C 
ATOM     27  C   UNL A   1      45.359  27.091  39.771  1.00  0.00    -0.001 C 
ATOM     28  H   UNL A   1      47.269  28.061  39.669  1.00  0.00     0.030 H 
ATOM     29  C   UNL A   1      45.274  29.790  38.666  1.00  0.00     0.078 C 
ATOM     30  H   UNL A   1      46.473  30.237  40.371  1.00  0.00     0.033 H 
ATOM     31  H   UNL A   1      44.885  29.536  40.732  1.00  0.00     0.033 H 
ATOM     32  C   UNL A   1      45.057  27.308  38.296  1.00  0.00     0.078 C 
ATOM     33  H   UNL A   1      44.457  27.193  40.336  1.00  0.00     0.033 H 
ATOM     34  H   UNL A   1      45.765  26.110  39.906  1.00  0.00     0.033 H 
ATOM     35  H   UNL A   1      46.123  30.125  38.108  1.00  0.00     0.092 H 
ATOM     36  H   UNL A   1      44.491  30.511  38.769  1.00  0.00     0.092 H 
ATOM     37  H   UNL A   1      45.933  27.050  37.736  1.00  0.00     0.092 H 
ATOM     38  H   UNL A   1      44.212  26.691  38.072  1.00  0.00     0.092 H 
ATOM     39  H   UNL A   1      43.727  28.684  38.313  1.00  0.00     0.348 HD
BRANCH  25  40
ATOM     40  C   UNL A   1      46.757  27.845  41.695  1.00  0.00    -0.062 C 
ATOM     41  H   UNL A   1      45.895  27.516  42.238  1.00  0.00     0.023 H 
ATOM     42  H   UNL A   1      47.136  28.742  42.139  1.00  0.00     0.023 H 
ATOM     43  H   UNL A   1      47.510  27.086  41.728  1.00  0.00     0.023 H 
ENDBRANCH  25  40
ENDBRANCH  22  24
BRANCH  22  44
ATOM     44  C   UNL A   1      45.594  29.927  35.980  1.00  0.00     0.014 A 
ATOM     45  C   UNL A   1      45.325  31.309  35.898  1.00  0.00    -0.050 A 
ATOM     46  C   UNL A   1      46.875  29.474  35.615  1.00  0.00    -0.050 A 
ATOM     47  C   UNL A   1      46.312  32.207  35.486  1.00  0.00    -0.026 A 
ATOM     48  H   UNL A   1      44.387  31.662  36.144  1.00  0.00     0.063 H 
ATOM     49  C   UNL A   1      47.848  30.368  35.164  1.00  0.00    -0.026 A 
ATOM     50  H   UNL A   1      47.099  28.468  35.681  1.00  0.00     0.063 H 
ATOM     51  C   UNL A   1      47.561  31.726  35.114  1.00  0.00     0.123 A 
ATOM     52  H   UNL A   1      46.116  33.219  35.459  1.00  0.00     0.065 H 
ATOM     53  H   UNL A   1      48.775  30.023  34.869  1.00  0.00     0.065 H 
ATOM     54  F   UNL A   1      48.501  32.585  34.701  1.00  0.00    -0.207 F 
ENDBRANCH  22  44
ENDBRANCH  14  22
BRANCH  16  55
ATOM     55  C   UNL A   1      43.028  27.088  34.458  1.00  0.00    -0.018 A 
ATOM     56  C   UNL A   1      43.854  26.974  33.330  1.00  0.00    -0.054 A 
ATOM     57  C   UNL A   1      42.675  25.911  35.139  1.00  0.00    -0.054 A 
ATOM     58  C   UNL A   1      44.341  25.729  32.919  1.00  0.00    -0.049 A 
ATOM     59  H   UNL A   1      44.106  27.821  32.796  1.00  0.00     0.063 H 
ATOM     60  C   UNL A   1      43.170  24.666  34.740  1.00  0.00    -0.049 A 
ATOM     61  H   UNL A   1      42.037  25.967  35.949  1.00  0.00     0.063 H 
ATOM     62  C   UNL A   1      44.017  24.564  33.630  1.00  0.00     0.056 A 
ATOM     63  H   UNL A   1      44.944  25.667  32.084  1.00  0.00     0.063 H 
ATOM     64  H   UNL A   1      42.911  23.819  35.268  1.00  0.00     0.063 H 
BRANCH  62  65
ATOM     65  C   UNL A   1      44.556  23.227  33.185  1.00  0.00     0.416 C 
ATOM     66  F   UNL A   1      44.459  23.049  31.839  1.00  0.00    -0.166 F 
ATOM     67  F   UNL A   1      45.873  23.064  33.492  1.00  0.00    -0.166 F 
ATOM     68  F   UNL A   1      43.910  22.168  33.750  1.00  0.00    -0.166 F 
ENDBRANCH  62  65
ENDBRANCH  16  55
ENDBRANCH  11  13
BRANCH  11  69
ATOM     69  C   UNL A   1      38.688  29.473  33.097  1.00  0.00    -0.049 C 
ATOM     70  H   UNL A   1      38.585  29.976  32.158  1.00  0.00     0.024 H 
ATOM     71  H   UNL A   1      37.725  29.156  33.438  1.00  0.00     0.024 H 
ATOM     72  H   UNL A   1      39.323  28.621  32.977  1.00  0.00     0.024 H 
ENDBRANCH  11  69
ENDBRANCH   8  11
ENDBRANCH   4   7
ENDBRANCH   1   4
BRANCH   1  73
ATOM     73  C   UNL A   1      37.082  33.801  31.438  1.00  0.00    -0.052 C 
ATOM     74  H   UNL A   1      38.079  34.183  31.379  1.00  0.00     0.027 H 
ATOM     75  H   UNL A   1      36.354  34.556  31.645  1.00  0.00     0.027 H 
BRANCH  73  76
ATOM     76  C   UNL A   1      36.715  33.210  30.070  1.00  0.00    -0.052 C 
ATOM     77  H   UNL A   1      36.951  32.167  30.086  1.00  0.00     0.027 H 
ATOM     78  H   UNL A   1      37.276  33.764  29.347  1.00  0.00     0.027 H 
BRANCH  76  79
ATOM     79  C   UNL A   1      35.243  33.358  29.672  1.00  0.00    -0.036 C 
ATOM     80  H   UNL A   1      34.935  34.358  29.892  1.00  0.00     0.028 H 
ATOM     81  H   UNL A   1      34.698  32.625  30.231  1.00  0.00     0.028 H 
BRANCH  79  82
ATOM     82  C   UNL A   1      34.966  33.083  28.198  1.00  0.00     0.018 C 
ATOM     83  H   UNL A   1      35.889  32.854  27.707  1.00  0.00     0.049 H 
ATOM     84  H   UNL A   1      34.516  33.956  27.771  1.00  0.00     0.049 H 
BRANCH  82  85
ATOM     85  N   UNL A   1      34.047  31.963  28.029  1.00  0.00    -0.352 N 
ATOM     86  C   UNL A   1      34.330  30.633  27.825  1.00  0.00     0.251 C 
ATOM     87  H   UNL A   1      33.091  32.191  28.065  1.00  0.00     0.163 HD
ATOM     88  O   UNL A   1      33.468  29.858  27.436  1.00  0.00    -0.269 OA
BRANCH  86  89
ATOM     89  C   UNL A   1      35.697  30.148  28.097  1.00  0.00     0.039 A 
ATOM     90  C   UNL A   1      36.689  30.235  27.120  1.00  0.00    -0.049 A 
ATOM     91  C   UNL A   1      35.986  29.613  29.350  1.00  0.00    -0.049 A 
ATOM     92  C   UNL A   1      38.000  29.861  27.438  1.00  0.00    -0.053 A 
ATOM     93  H   UNL A   1      36.459  30.572  26.173  1.00  0.00     0.063 H 
ATOM     94  C   UNL A   1      37.300  29.324  29.689  1.00  0.00    -0.053 A 
ATOM     95  H   UNL A   1      35.227  29.433  30.025  1.00  0.00     0.063 H 
ATOM     96  C   UNL A   1      38.325  29.448  28.741  1.00  0.00    -0.014 A 
ATOM     97  H   UNL A   1      38.732  29.889  26.711  1.00  0.00     0.063 H 
ATOM     98  H   UNL A   1      37.525  29.016  30.649  1.00  0.00     0.063 H 
BRANCH  96  99
ATOM     99  C   UNL A   1      39.714  29.140  29.167  1.00  0.00     0.031 A 
ATOM    100  C   UNL A   1      40.514  30.176  29.908  1.00  0.00     0.074 A 
ATOM    101  C   UNL A   1      40.300  27.992  28.772  1.00  0.00     0.049 A 
ATOM    102  N   UNL A   1      41.789  30.182  30.207  1.00  0.00    -0.248 NA
ATOM    103  C   UNL A   1      39.794  31.387  30.335  1.00  0.00    -0.034 C 
ATOM    104  C   UNL A   1      39.647  26.932  28.006  1.00  0.00    -0.036 A 
ATOM    105  N   UNL A   1      41.585  27.538  28.941  1.00  0.00    -0.354 N 
ATOM    106  C   UNL A   1      42.024  31.401  30.828  1.00  0.00     0.074 A 
ATOM    107  C   UNL A   1      40.778  32.134  30.812  1.00  0.00    -0.034 C 
ATOM    108  H   UNL A   1      38.785  31.599  30.277  1.00  0.00     0.065 H 
ATOM    109  C   UNL A   1      40.526  25.942  27.788  1.00  0.00    -0.036 A 
ATOM    110  H   UNL A   1      38.666  26.942  27.684  1.00  0.00     0.065 H 
ATOM    111  C   UNL A   1      41.820  26.319  28.351  1.00  0.00     0.049 A 
ATOM    112  H   UNL A   1      42.272  28.038  29.437  1.00  0.00     0.167 HD
ATOM    113  C   UNL A   1      43.170  31.855  31.386  1.00  0.00     0.037 A 
ATOM    114  H   UNL A   1      40.670  33.111  31.130  1.00  0.00     0.065 H 
ATOM    115  H   UNL A   1      40.322  25.055  27.300  1.00  0.00     0.065 H 
ATOM    116  C   UNL A   1      42.952  25.595  28.256  1.00  0.00     0.037 A 
ATOM    117  C   UNL A   1      44.395  31.103  31.433  1.00  0.00     0.049 A 
ATOM    118  C   UNL A   1      44.219  26.123  28.872  1.00  0.00     0.074 A 
ATOM    119  C   UNL A   1      45.587  31.443  32.046  1.00  0.00    -0.036 A 
ATOM    120  N   UNL A   1      44.583  29.861  30.844  1.00  0.00    -0.354 N 
ATOM    121  N   UNL A   1      44.415  27.249  29.513  1.00  0.00    -0.248 NA
ATOM    122  C   UNL A   1      45.422  25.285  28.753  1.00  0.00    -0.034 C 
ATOM    123  C   UNL A   1      46.516  30.436  31.776  1.00  0.00    -0.036 A 
ATOM    124  H   UNL A   1      45.760  32.293  32.604  1.00  0.00     0.065 H 
ATOM    125  C   UNL A   1      45.885  29.436  31.053  1.00  0.00     0.049 A 
ATOM    126  H   UNL A   1      43.896  29.357  30.353  1.00  0.00     0.167 HD
ATOM    127  C   UNL A   1      45.750  27.245  29.897  1.00  0.00     0.074 A 
ATOM    128  C   UNL A   1      46.319  26.003  29.419  1.00  0.00    -0.034 C 
ATOM    129  H   UNL A   1      45.539  24.377  28.277  1.00  0.00     0.065 H 
ATOM    130  H   UNL A   1      47.507  30.437  32.066  1.00  0.00     0.065 H 
ATOM    131  C   UNL A   1      46.436  28.188  30.585  1.00  0.00     0.037 A 
ATOM    132  H   UNL A   1      47.296  25.712  29.577  1.00  0.00     0.065 H 
BRANCH 113 133
ATOM    133  C   UNL A   1      43.160  33.224  32.005  1.00  0.00     0.064 A 
ATOM    134  C   UNL A   1      42.915  33.382  33.377  1.00  0.00     0.173 A 
ATOM    135  C   UNL A   1      43.323  34.383  31.230  1.00  0.00     0.173 A 
ATOM    136  F   UNL A   1      42.744  32.309  34.163  1.00  0.00    -0.203 F 
ATOM    137  C   UNL A   1      42.821  34.650  33.948  1.00  0.00     0.198 A 
ATOM    138  C   UNL A   1      43.264  35.647  31.811  1.00  0.00     0.198 A 
ATOM    139  F   UNL A   1      43.567  34.288  29.915  1.00  0.00    -0.203 F 
ATOM    140  F   UNL A   1      42.550  34.775  35.254  1.00  0.00    -0.200 F 
ATOM    141  C   UNL A   1      43.003  35.780  33.165  1.00  0.00     0.200 A 
ATOM    142  F   UNL A   1      43.467  36.737  31.058  1.00  0.00    -0.200 F 
ATOM    143  F   UNL A   1      42.928  36.998  33.719  1.00  0.00    -0.200 F 
ENDBRANCH 113 133
BRANCH 116 144
ATOM    144  C   UNL A   1      42.917  24.276  27.571  1.00  0.00     0.064 A 
ATOM    145  C   UNL A   1      43.151  24.158  26.192  1.00  0.00     0.173 A 
ATOM    146  C   UNL A   1      42.587  23.111  28.278  1.00  0.00     0.173 A 
ATOM    147  F   UNL A   1      43.463  25.243  25.468  1.00  0.00    -0.203 F 
ATOM    148  C   UNL A   1      43.027  22.930  25.544  1.00  0.00     0.198 A 
ATOM    149  C   UNL A   1      42.490  21.880  27.632  1.00  0.00     0.198 A 
ATOM    150  F   UNL A   1      42.373  23.170  29.600  1.00  0.00    -0.203 F 
ATOM    151  F   UNL A   1      43.210  22.854  24.218  1.00  0.00    -0.200 F 
ATOM    152  C   UNL A   1      42.700  21.792  26.265  1.00  0.00     0.200 A 
ATOM    153  F   UNL A   1      42.194  20.780  28.336  1.00  0.00    -0.200 F 
ATOM    154  F   UNL A   1      42.582  20.612  25.641  1.00  0.00    -0.200 F 
ENDBRANCH 116 144
BRANCH 131 155
ATOM    155  C   UNL A   1      47.878  27.927  30.906  1.00  0.00     0.064 A 
ATOM    156  C   UNL A   1      48.246  27.478  32.185  1.00  0.00     0.173 A 
ATOM    157  C   UNL A   1      48.900  28.257  30.006  1.00  0.00     0.173 A 
ATOM    158  F   UNL A   1      47.303  27.159  33.085  1.00  0.00    -0.203 F 
ATOM    159  C   UNL A   1      49.582  27.407  32.563  1.00  0.00     0.198 A 
ATOM    160  C   UNL A   1      50.238  28.157  30.378  1.00  0.00     0.198 A 
ATOM    161  F   UNL A   1      48.600  28.680  28.769  1.00  0.00    -0.203 F 
ATOM    162  F   UNL A   1      49.907  27.033  33.808  1.00  0.00    -0.200 F 
ATOM    163  C   UNL A   1      50.578  27.749  31.660  1.00  0.00     0.200 A 
ATOM    164  F   UNL A   1      51.201  28.470  29.499  1.00  0.00    -0.200 F 
ATOM    165  F   UNL A   1      51.866  27.691  32.027  1.00  0.00    -0.200 F 
ENDBRANCH 131 155
ENDBRANCH  96  99
ENDBRANCH  86  89
ENDBRANCH  82  85
ENDBRANCH  79  82
ENDBRANCH  76  79
ENDBRANCH  73  76
ENDBRANCH   1  73
TORSDOF 21
ENDMDL
MODEL 2
REMARK VINA RESULT:      -8.5      5.746     13.289
REMARK SMILES CC1CC[NH+]([C@H](c2ccc(F)cc2)c2ccc([C@@H](C)C(=O)NCCCCCCNC(=O)c3ccc(-c4c5nc(c(-c6c(F)c(F)c(F)c(F)c6F)c6ccc([nH]6)c(-c6c(F)c(F)c(F)c(F)c6F)c6nc(c(-c7c(F)c(F)c(F)c(F)c7F)c7ccc4[nH]7)C=C6)C=C5)cc3)cc2-c2ccc(C(F)(F)F)cc2)CC1
REMARK SMILES IDX 24 1 23 4 22 7 20 8 21 9 18 11 17 13 14 14 15 15 96 16 16 17
REMARK SMILES IDX 95 19 6 22 5 24 2 25 3 26 108 27 4 29 107 32 1 40 7 44 8 45
REMARK SMILES IDX 13 46 9 47 12 49 10 51 11 54 97 55 98 56 106 57 99 58 105 60
REMARK SMILES IDX 100 62 101 65 102 66 103 67 104 68 19 69 25 73 26 76 27 79
REMARK SMILES IDX 28 82 29 85 30 86 31 88 32 89 33 90 94 91 34 92 93 94 35 96
REMARK SMILES IDX 36 99 37 100 87 101 38 102 92 103 86 104 88 105 39 106
REMARK SMILES IDX 91 107 85 109 84 111 40 113 72 116 52 117 71 118 53 119
REMARK SMILES IDX 56 120 70 121 89 122 54 123 55 125 69 127 90 128 57 131
REMARK SMILES IDX 41 133 42 134 50 135 43 136 44 137 48 138 51 139 45 140
REMARK SMILES IDX 46 141 49 142 47 143 73 144 74 145 82 146 75 147 76 148
REMARK SMILES IDX 80 149 83 150 77 151 78 152 81 153 79 154 58 155 59 156
REMARK SMILES IDX 67 157 60 158 61 159 65 160 68 161 62 162 63 163 66 164
REMARK SMILES IDX 64 165
REMARK H PARENT 24 2 24 3 23 5 23 6 22 10 18 12 15 18 16 20 95 21 6 23 2 28
REMARK H PARENT 3 30 3 31 108 33 108 34 4 35 4 36 107 37 107 38 5 39 1 41 1 42
REMARK H PARENT 1 43 8 48 13 50 9 52 12 53 98 59 106 61 99 63 105 64 19 70
REMARK H PARENT 19 71 19 72 25 74 25 75 26 77 26 78 27 80 27 81 28 83 28 84
REMARK H PARENT 29 87 33 93 94 95 34 97 93 98 92 108 86 110 88 112 91 114
REMARK H PARENT 85 115 53 124 56 126 89 129 54 130 90 132
REMARK Flexibility Score: inf
ROOT
ATOM      1  C   UNL A   1      42.757  22.810  28.164  1.00  0.00    -0.036 C 
ATOM      2  H   UNL A   1      43.088  22.483  29.127  1.00  0.00     0.028 H 
ATOM      3  H   UNL A   1      43.105  23.792  27.920  1.00  0.00     0.028 H 
ENDROOT
BRANCH   1   4
ATOM      4  C   UNL A   1      41.224  22.874  28.176  1.00  0.00     0.017 C 
ATOM      5  H   UNL A   1      40.874  22.638  29.159  1.00  0.00     0.049 H 
ATOM      6  H   UNL A   1      40.928  23.862  27.891  1.00  0.00     0.049 H 
BRANCH   4   7
ATOM      7  N   UNL A   1      40.641  21.939  27.234  1.00  0.00    -0.356 N 
ATOM      8  C   UNL A   1      39.591  22.025  26.372  1.00  0.00     0.227 C 
ATOM      9  O   UNL A   1      39.317  20.989  25.753  1.00  0.00    -0.274 OA
ATOM     10  H   UNL A   1      41.097  21.067  27.212  1.00  0.00     0.163 HD
BRANCH   8  11
ATOM     11  C   UNL A   1      38.759  23.300  26.126  1.00  0.00     0.060 C 
ATOM     12  H   UNL A   1      39.163  23.743  25.240  1.00  0.00     0.045 H 
BRANCH  11  13
ATOM     13  C   UNL A   1      37.313  23.010  25.768  1.00  0.00    -0.035 A 
ATOM     14  C   UNL A   1      34.733  22.330  24.717  1.00  0.00     0.022 A 
ATOM     15  C   UNL A   1      35.526  21.424  25.437  1.00  0.00    -0.052 A 
ATOM     16  C   UNL A   1      35.205  23.671  24.660  1.00  0.00    -0.009 A 
ATOM     17  C   UNL A   1      36.728  21.786  26.032  1.00  0.00    -0.058 A 
ATOM     18  H   UNL A   1      35.203  20.447  25.528  1.00  0.00     0.063 H 
ATOM     19  C   UNL A   1      36.520  23.960  25.112  1.00  0.00    -0.050 A 
ATOM     20  H   UNL A   1      37.191  21.131  26.682  1.00  0.00     0.063 H 
ATOM     21  H   UNL A   1      36.905  24.904  24.952  1.00  0.00     0.063 H 
BRANCH  14  22
ATOM     22  C   UNL A   1      33.380  21.880  24.093  1.00  0.00     0.139 C 
ATOM     23  H   UNL A   1      33.447  22.360  23.138  1.00  0.00     0.107 H 
BRANCH  22  24
ATOM     24  N   UNL A   1      32.112  22.422  24.688  1.00  0.00    -0.325 N 
ATOM     25  C   UNL A   1      30.626  24.651  25.870  1.00  0.00    -0.034 C 
ATOM     26  C   UNL A   1      30.278  24.187  24.459  1.00  0.00    -0.001 C 
ATOM     27  C   UNL A   1      30.961  23.419  26.697  1.00  0.00    -0.001 C 
ATOM     28  H   UNL A   1      31.461  25.319  25.836  1.00  0.00     0.030 H 
ATOM     29  C   UNL A   1      31.390  23.351  23.812  1.00  0.00     0.078 C 
ATOM     30  H   UNL A   1      30.102  25.050  23.850  1.00  0.00     0.033 H 
ATOM     31  H   UNL A   1      29.410  23.565  24.529  1.00  0.00     0.033 H 
ATOM     32  C   UNL A   1      32.183  22.722  26.118  1.00  0.00     0.078 C 
ATOM     33  H   UNL A   1      30.130  22.747  26.683  1.00  0.00     0.033 H 
ATOM     34  H   UNL A   1      31.171  23.719  27.702  1.00  0.00     0.033 H 
ATOM     35  H   UNL A   1      32.107  24.031  23.400  1.00  0.00     0.092 H 
ATOM     36  H   UNL A   1      30.895  22.732  23.094  1.00  0.00     0.092 H 
ATOM     37  H   UNL A   1      33.033  23.351  26.282  1.00  0.00     0.092 H 
ATOM     38  H   UNL A   1      32.250  21.777  26.616  1.00  0.00     0.092 H 
ATOM     39  H   UNL A   1      31.455  21.642  24.716  1.00  0.00     0.348 HD
BRANCH  25  40
ATOM     40  C   UNL A   1      29.470  25.410  26.500  1.00  0.00    -0.062 C 
ATOM     41  H   UNL A   1      29.558  25.375  27.566  1.00  0.00     0.023 H 
ATOM     42  H   UNL A   1      28.545  24.960  26.205  1.00  0.00     0.023 H 
ATOM     43  H   UNL A   1      29.490  26.428  26.174  1.00  0.00     0.023 H 
ENDBRANCH  25  40
ENDBRANCH  22  24
BRANCH  22  44
ATOM     44  C   UNL A   1      33.268  20.353  23.904  1.00  0.00     0.014 A 
ATOM     45  C   UNL A   1      34.060  19.449  24.642  1.00  0.00    -0.050 A 
ATOM     46  C   UNL A   1      32.351  19.831  22.973  1.00  0.00    -0.050 A 
ATOM     47  C   UNL A   1      33.922  18.071  24.469  1.00  0.00    -0.026 A 
ATOM     48  H   UNL A   1      34.751  19.811  25.318  1.00  0.00     0.063 H 
ATOM     49  C   UNL A   1      32.245  18.453  22.772  1.00  0.00    -0.026 A 
ATOM     50  H   UNL A   1      31.751  20.473  22.432  1.00  0.00     0.063 H 
ATOM     51  C   UNL A   1      33.022  17.587  23.528  1.00  0.00     0.123 A 
ATOM     52  H   UNL A   1      34.484  17.417  25.035  1.00  0.00     0.065 H 
ATOM     53  H   UNL A   1      31.592  18.080  22.065  1.00  0.00     0.065 H 
ATOM     54  F   UNL A   1      32.904  16.265  23.349  1.00  0.00    -0.207 F 
ENDBRANCH  22  44
ENDBRANCH  14  22
BRANCH  16  55
ATOM     55  C   UNL A   1      34.378  24.810  24.212  1.00  0.00    -0.018 A 
ATOM     56  C   UNL A   1      34.031  24.981  22.864  1.00  0.00    -0.054 A 
ATOM     57  C   UNL A   1      33.958  25.786  25.131  1.00  0.00    -0.054 A 
ATOM     58  C   UNL A   1      33.259  26.074  22.455  1.00  0.00    -0.049 A 
ATOM     59  H   UNL A   1      34.350  24.293  22.164  1.00  0.00     0.063 H 
ATOM     60  C   UNL A   1      33.174  26.871  24.729  1.00  0.00    -0.049 A 
ATOM     61  H   UNL A   1      34.234  25.699  26.122  1.00  0.00     0.063 H 
ATOM     62  C   UNL A   1      32.809  27.021  23.387  1.00  0.00     0.056 A 
ATOM     63  H   UNL A   1      33.018  26.184  21.457  1.00  0.00     0.063 H 
ATOM     64  H   UNL A   1      32.863  27.564  25.427  1.00  0.00     0.063 H 
BRANCH  62  65
ATOM     65  C   UNL A   1      31.967  28.189  22.937  1.00  0.00     0.416 C 
ATOM     66  F   UNL A   1      32.711  29.182  22.376  1.00  0.00    -0.166 F 
ATOM     67  F   UNL A   1      31.040  27.840  22.002  1.00  0.00    -0.166 F 
ATOM     68  F   UNL A   1      31.267  28.774  23.950  1.00  0.00    -0.166 F 
ENDBRANCH  62  65
ENDBRANCH  16  55
ENDBRANCH  11  13
BRANCH  11  69
ATOM     69  C   UNL A   1      38.967  24.388  27.178  1.00  0.00    -0.049 C 
ATOM     70  H   UNL A   1      38.190  25.119  27.092  1.00  0.00     0.024 H 
ATOM     71  H   UNL A   1      39.916  24.857  27.023  1.00  0.00     0.024 H 
ATOM     72  H   UNL A   1      38.939  23.952  28.154  1.00  0.00     0.024 H 
ENDBRANCH  11  69
ENDBRANCH   8  11
ENDBRANCH   4   7
ENDBRANCH   1   4
BRANCH   1  73
ATOM     73  C   UNL A   1      43.331  21.862  27.110  1.00  0.00    -0.052 C 
ATOM     74  H   UNL A   1      42.524  21.299  26.692  1.00  0.00     0.027 H 
ATOM     75  H   UNL A   1      44.053  21.252  27.612  1.00  0.00     0.027 H 
BRANCH  73  76
ATOM     76  C   UNL A   1      44.075  22.556  25.962  1.00  0.00    -0.052 C 
ATOM     77  H   UNL A   1      44.663  21.821  25.455  1.00  0.00     0.027 H 
ATOM     78  H   UNL A   1      44.658  23.333  26.411  1.00  0.00     0.027 H 
BRANCH  76  79
ATOM     79  C   UNL A   1      43.177  23.242  24.927  1.00  0.00    -0.036 C 
ATOM     80  H   UNL A   1      42.178  22.885  25.061  1.00  0.00     0.028 H 
ATOM     81  H   UNL A   1      43.576  22.999  23.964  1.00  0.00     0.028 H 
BRANCH  79  82
ATOM     82  C   UNL A   1      43.161  24.763  25.027  1.00  0.00     0.018 C 
ATOM     83  H   UNL A   1      42.912  25.044  26.030  1.00  0.00     0.049 H 
ATOM     84  H   UNL A   1      42.433  25.139  24.337  1.00  0.00     0.049 H 
BRANCH  82  85
ATOM     85  N   UNL A   1      44.459  25.333  24.683  1.00  0.00    -0.352 N 
ATOM     86  C   UNL A   1      45.078  26.449  25.195  1.00  0.00     0.251 C 
ATOM     87  H   UNL A   1      44.961  24.852  23.988  1.00  0.00     0.163 HD
ATOM     88  O   UNL A   1      46.036  26.954  24.626  1.00  0.00    -0.269 OA
BRANCH  86  89
ATOM     89  C   UNL A   1      44.575  27.025  26.456  1.00  0.00     0.039 A 
ATOM     90  C   UNL A   1      44.538  28.408  26.641  1.00  0.00    -0.049 A 
ATOM     91  C   UNL A   1      44.125  26.168  27.458  1.00  0.00    -0.049 A 
ATOM     92  C   UNL A   1      43.964  28.930  27.805  1.00  0.00    -0.053 A 
ATOM     93  H   UNL A   1      44.930  29.039  25.925  1.00  0.00     0.063 H 
ATOM     94  C   UNL A   1      43.480  26.688  28.571  1.00  0.00    -0.053 A 
ATOM     95  H   UNL A   1      44.269  25.150  27.372  1.00  0.00     0.063 H 
ATOM     96  C   UNL A   1      43.386  28.074  28.758  1.00  0.00    -0.014 A 
ATOM     97  H   UNL A   1      43.964  29.949  27.965  1.00  0.00     0.063 H 
ATOM     98  H   UNL A   1      43.064  26.048  29.266  1.00  0.00     0.063 H 
BRANCH  96  99
ATOM     99  C   UNL A   1      42.669  28.571  29.960  1.00  0.00     0.031 A 
ATOM    100  C   UNL A   1      41.275  29.119  29.824  1.00  0.00     0.074 A 
ATOM    101  C   UNL A   1      43.314  28.657  31.140  1.00  0.00     0.049 A 
ATOM    102  N   UNL A   1      40.548  29.765  30.700  1.00  0.00    -0.248 NA
ATOM    103  C   UNL A   1      40.625  28.956  28.513  1.00  0.00    -0.034 C 
ATOM    104  C   UNL A   1      44.683  28.208  31.388  1.00  0.00    -0.036 A 
ATOM    105  N   UNL A   1      42.910  29.175  32.347  1.00  0.00    -0.354 N 
ATOM    106  C   UNL A   1      39.376  30.106  30.040  1.00  0.00     0.074 A 
ATOM    107  C   UNL A   1      39.508  29.650  28.674  1.00  0.00    -0.034 C 
ATOM    108  H   UNL A   1      40.955  28.438  27.683  1.00  0.00     0.065 H 
ATOM    109  C   UNL A   1      45.000  28.450  32.669  1.00  0.00    -0.036 A 
ATOM    110  H   UNL A   1      45.308  27.774  30.689  1.00  0.00     0.065 H 
ATOM    111  C   UNL A   1      43.877  29.119  33.321  1.00  0.00     0.049 A 
ATOM    112  H   UNL A   1      42.013  29.550  32.499  1.00  0.00     0.167 HD
ATOM    113  C   UNL A   1      38.277  30.719  30.537  1.00  0.00     0.037 A 
ATOM    114  H   UNL A   1      38.824  29.840  27.925  1.00  0.00     0.065 H 
ATOM    115  H   UNL A   1      45.894  28.202  33.122  1.00  0.00     0.065 H 
ATOM    116  C   UNL A   1      43.871  29.573  34.590  1.00  0.00     0.037 A 
ATOM    117  C   UNL A   1      38.136  31.133  31.907  1.00  0.00     0.049 A 
ATOM    118  C   UNL A   1      42.644  30.263  35.120  1.00  0.00     0.074 A 
ATOM    119  C   UNL A   1      37.033  31.690  32.526  1.00  0.00    -0.036 A 
ATOM    120  N   UNL A   1      39.132  31.036  32.868  1.00  0.00    -0.354 N 
ATOM    121  N   UNL A   1      41.516  30.523  34.505  1.00  0.00    -0.248 NA
ATOM    122  C   UNL A   1      42.684  30.724  36.516  1.00  0.00    -0.034 C 
ATOM    123  C   UNL A   1      37.379  31.987  33.845  1.00  0.00    -0.036 A 
ATOM    124  H   UNL A   1      36.113  31.857  32.089  1.00  0.00     0.065 H 
ATOM    125  C   UNL A   1      38.676  31.554  34.069  1.00  0.00     0.049 A 
ATOM    126  H   UNL A   1      40.028  30.656  32.720  1.00  0.00     0.167 HD
ATOM    127  C   UNL A   1      40.705  31.151  35.440  1.00  0.00     0.074 A 
ATOM    128  C   UNL A   1      41.467  31.233  36.668  1.00  0.00    -0.034 C 
ATOM    129  H   UNL A   1      43.456  30.668  37.198  1.00  0.00     0.065 H 
ATOM    130  H   UNL A   1      36.771  32.452  34.538  1.00  0.00     0.065 H 
ATOM    131  C   UNL A   1      39.441  31.615  35.290  1.00  0.00     0.037 A 
ATOM    132  H   UNL A   1      41.110  31.634  37.549  1.00  0.00     0.065 H 
BRANCH 113 133
ATOM    133  C   UNL A   1      37.127  30.972  29.604  1.00  0.00     0.064 A 
ATOM    134  C   UNL A   1      36.255  29.930  29.250  1.00  0.00     0.173 A 
ATOM    135  C   UNL A   1      36.928  32.225  29.004  1.00  0.00     0.173 A 
ATOM    136  F   UNL A   1      36.404  28.710  29.787  1.00  0.00    -0.203 F 
ATOM    137  C   UNL A   1      35.235  30.132  28.323  1.00  0.00     0.198 A 
ATOM    138  C   UNL A   1      35.885  32.431  28.105  1.00  0.00     0.198 A 
ATOM    139  F   UNL A   1      37.728  33.256  29.313  1.00  0.00    -0.203 F 
ATOM    140  F   UNL A   1      34.439  29.112  27.974  1.00  0.00    -0.200 F 
ATOM    141  C   UNL A   1      35.047  31.384  27.756  1.00  0.00     0.200 A 
ATOM    142  F   UNL A   1      35.689  33.648  27.580  1.00  0.00    -0.200 F 
ATOM    143  F   UNL A   1      34.056  31.579  26.876  1.00  0.00    -0.200 F 
ENDBRANCH 113 133
BRANCH 116 144
ATOM    144  C   UNL A   1      45.065  29.354  35.447  1.00  0.00     0.064 A 
ATOM    145  C   UNL A   1      45.184  28.221  36.266  1.00  0.00     0.173 A 
ATOM    146  C   UNL A   1      46.088  30.311  35.506  1.00  0.00     0.173 A 
ATOM    147  F   UNL A   1      44.229  27.279  36.252  1.00  0.00    -0.203 F 
ATOM    148  C   UNL A   1      46.265  28.069  37.133  1.00  0.00     0.198 A 
ATOM    149  C   UNL A   1      47.182  30.144  36.354  1.00  0.00     0.198 A 
ATOM    150  F   UNL A   1      46.029  31.401  34.730  1.00  0.00    -0.203 F 
ATOM    151  F   UNL A   1      46.330  27.000  37.938  1.00  0.00    -0.200 F 
ATOM    152  C   UNL A   1      47.264  29.029  37.174  1.00  0.00     0.200 A 
ATOM    153  F   UNL A   1      48.155  31.064  36.376  1.00  0.00    -0.200 F 
ATOM    154  F   UNL A   1      48.304  28.882  38.007  1.00  0.00    -0.200 F 
ENDBRANCH 116 144
BRANCH 131 155
ATOM    155  C   UNL A   1      38.763  32.232  36.479  1.00  0.00     0.064 A 
ATOM    156  C   UNL A   1      39.043  33.560  36.839  1.00  0.00     0.173 A 
ATOM    157  C   UNL A   1      37.960  31.472  37.340  1.00  0.00     0.173 A 
ATOM    158  F   UNL A   1      39.816  34.324  36.052  1.00  0.00    -0.203 F 
ATOM    159  C   UNL A   1      38.575  34.092  38.036  1.00  0.00     0.198 A 
ATOM    160  C   UNL A   1      37.469  32.017  38.523  1.00  0.00     0.198 A 
ATOM    161  F   UNL A   1      37.656  30.202  37.033  1.00  0.00    -0.203 F 
ATOM    162  F   UNL A   1      38.904  35.343  38.387  1.00  0.00    -0.200 F 
ATOM    163  C   UNL A   1      37.790  33.319  38.878  1.00  0.00     0.200 A 
ATOM    164  F   UNL A   1      36.695  31.275  39.328  1.00  0.00    -0.200 F 
ATOM    165  F   UNL A   1      37.348  33.828  40.037  1.00  0.00    -0.200 F 
ENDBRANCH 131 155
ENDBRANCH  96  99
ENDBRANCH  86  89
ENDBRANCH  82  85
ENDBRANCH  79  82
ENDBRANCH  76  79
ENDBRANCH  73  76
ENDBRANCH   1  73
TORSDOF 21
ENDMDL
MODEL 3
REMARK VINA RESULT:      -8.5      3.905     10.299
REMARK SMILES CC1CC[NH+]([C@H](c2ccc(F)cc2)c2ccc([C@@H](C)C(=O)NCCCCCCNC(=O)c3ccc(-c4c5nc(c(-c6c(F)c(F)c(F)c(F)c6F)c6ccc([nH]6)c(-c6c(F)c(F)c(F)c(F)c6F)c6nc(c(-c7c(F)c(F)c(F)c(F)c7F)c7ccc4[nH]7)C=C6)C=C5)cc3)cc2-c2ccc(C(F)(F)F)cc2)CC1
REMARK SMILES IDX 24 1 23 4 22 7 20 8 21 9 18 11 17 13 14 14 15 15 96 16 16 17
REMARK SMILES IDX 95 19 6 22 5 24 2 25 3 26 108 27 4 29 107 32 1 40 7 44 8 45
REMARK SMILES IDX 13 46 9 47 12 49 10 51 11 54 97 55 98 56 106 57 99 58 105 60
REMARK SMILES IDX 100 62 101 65 102 66 103 67 104 68 19 69 25 73 26 76 27 79
REMARK SMILES IDX 28 82 29 85 30 86 31 88 32 89 33 90 94 91 34 92 93 94 35 96
REMARK SMILES IDX 36 99 37 100 87 101 38 102 92 103 86 104 88 105 39 106
REMARK SMILES IDX 91 107 85 109 84 111 40 113 72 116 52 117 71 118 53 119
REMARK SMILES IDX 56 120 70 121 89 122 54 123 55 125 69 127 90 128 57 131
REMARK SMILES IDX 41 133 42 134 50 135 43 136 44 137 48 138 51 139 45 140
REMARK SMILES IDX 46 141 49 142 47 143 73 144 74 145 82 146 75 147 76 148
REMARK SMILES IDX 80 149 83 150 77 151 78 152 81 153 79 154 58 155 59 156
REMARK SMILES IDX 67 157 60 158 61 159 65 160 68 161 62 162 63 163 66 164
REMARK SMILES IDX 64 165
REMARK H PARENT 24 2 24 3 23 5 23 6 22 10 18 12 15 18 16 20 95 21 6 23 2 28
REMARK H PARENT 3 30 3 31 108 33 108 34 4 35 4 36 107 37 107 38 5 39 1 41 1 42
REMARK H PARENT 1 43 8 48 13 50 9 52 12 53 98 59 106 61 99 63 105 64 19 70
REMARK H PARENT 19 71 19 72 25 74 25 75 26 77 26 78 27 80 27 81 28 83 28 84
REMARK H PARENT 29 87 33 93 94 95 34 97 93 98 92 108 86 110 88 112 91 114
REMARK H PARENT 85 115 53 124 56 126 89 129 54 130 90 132
REMARK Flexibility Score: inf
ROOT
ATOM      1  C   UNL A   1      45.820  24.049  27.286  1.00  0.00    -0.036 C 
ATOM      2  H   UNL A   1      45.755  23.691  28.292  1.00  0.00     0.028 H 
ATOM      3  H   UNL A   1      46.265  23.338  26.622  1.00  0.00     0.028 H 
ENDROOT
BRANCH   1   4
ATOM      4  C   UNL A   1      46.720  25.292  27.273  1.00  0.00     0.017 C 
ATOM      5  H   UNL A   1      46.353  25.994  27.992  1.00  0.00     0.049 H 
ATOM      6  H   UNL A   1      47.717  24.985  27.511  1.00  0.00     0.049 H 
BRANCH   4   7
ATOM      7  N   UNL A   1      46.742  25.924  25.969  1.00  0.00    -0.356 N 
ATOM      8  C   UNL A   1      46.099  27.006  25.452  1.00  0.00     0.227 C 
ATOM      9  O   UNL A   1      46.300  27.229  24.251  1.00  0.00    -0.274 OA
ATOM     10  H   UNL A   1      47.344  25.481  25.328  1.00  0.00     0.163 HD
BRANCH   8  11
ATOM     11  C   UNL A   1      45.173  27.942  26.254  1.00  0.00     0.060 C 
ATOM     12  H   UNL A   1      45.102  27.512  27.232  1.00  0.00     0.045 H 
BRANCH  11  13
ATOM     13  C   UNL A   1      45.777  29.314  26.499  1.00  0.00    -0.035 A 
ATOM     14  C   UNL A   1      46.982  31.769  27.357  1.00  0.00     0.022 A 
ATOM     15  C   UNL A   1      47.719  30.710  26.807  1.00  0.00    -0.052 A 
ATOM     16  C   UNL A   1      45.566  31.631  27.331  1.00  0.00    -0.009 A 
ATOM     17  C   UNL A   1      47.121  29.564  26.298  1.00  0.00    -0.058 A 
ATOM     18  H   UNL A   1      48.749  30.785  26.780  1.00  0.00     0.063 H 
ATOM     19  C   UNL A   1      45.002  30.376  26.982  1.00  0.00    -0.050 A 
ATOM     20  H   UNL A   1      47.689  28.890  25.761  1.00  0.00     0.063 H 
ATOM     21  H   UNL A   1      43.984  30.241  27.086  1.00  0.00     0.063 H 
BRANCH  14  22
ATOM     22  C   UNL A   1      47.700  33.044  27.890  1.00  0.00     0.139 C 
ATOM     23  H   UNL A   1      46.921  33.766  27.754  1.00  0.00     0.107 H 
BRANCH  22  24
ATOM     24  N   UNL A   1      48.851  33.591  27.095  1.00  0.00    -0.325 N 
ATOM     25  C   UNL A   1      50.363  35.886  26.086  1.00  0.00    -0.034 C 
ATOM     26  C   UNL A   1      50.968  35.020  27.187  1.00  0.00    -0.001 C 
ATOM     27  C   UNL A   1      49.615  34.971  25.129  1.00  0.00    -0.001 C 
ATOM     28  H   UNL A   1      49.697  36.604  26.517  1.00  0.00     0.030 H 
ATOM     29  C   UNL A   1      49.925  34.162  27.915  1.00  0.00     0.078 C 
ATOM     30  H   UNL A   1      51.443  35.659  27.902  1.00  0.00     0.033 H 
ATOM     31  H   UNL A   1      51.665  34.352  26.723  1.00  0.00     0.033 H 
ATOM     32  C   UNL A   1      48.475  34.276  25.859  1.00  0.00     0.078 C 
ATOM     33  H   UNL A   1      50.289  34.236  24.743  1.00  0.00     0.033 H 
ATOM     34  H   UNL A   1      49.214  35.555  24.328  1.00  0.00     0.033 H 
ATOM     35  H   UNL A   1      49.469  34.774  28.664  1.00  0.00     0.092 H 
ATOM     36  H   UNL A   1      50.467  33.320  28.292  1.00  0.00     0.092 H 
ATOM     37  H   UNL A   1      47.737  35.013  26.101  1.00  0.00     0.092 H 
ATOM     38  H   UNL A   1      48.117  33.516  25.195  1.00  0.00     0.092 H 
ATOM     39  H   UNL A   1      49.330  32.783  26.696  1.00  0.00     0.348 HD
BRANCH  25  40
ATOM     40  C   UNL A   1      51.438  36.662  25.342  1.00  0.00    -0.062 C 
ATOM     41  H   UNL A   1      51.442  36.369  24.313  1.00  0.00     0.023 H 
ATOM     42  H   UNL A   1      52.393  36.452  25.777  1.00  0.00     0.023 H 
ATOM     43  H   UNL A   1      51.237  37.710  25.413  1.00  0.00     0.023 H 
ENDBRANCH  25  40
ENDBRANCH  22  24
BRANCH  22  44
ATOM     44  C   UNL A   1      48.078  32.958  29.383  1.00  0.00     0.014 A 
ATOM     45  C   UNL A   1      48.881  31.916  29.891  1.00  0.00    -0.050 A 
ATOM     46  C   UNL A   1      47.617  33.942  30.277  1.00  0.00    -0.050 A 
ATOM     47  C   UNL A   1      49.228  31.874  31.243  1.00  0.00    -0.026 A 
ATOM     48  H   UNL A   1      49.216  31.174  29.257  1.00  0.00     0.063 H 
ATOM     49  C   UNL A   1      47.931  33.876  31.636  1.00  0.00    -0.026 A 
ATOM     50  H   UNL A   1      47.040  34.722  29.925  1.00  0.00     0.063 H 
ATOM     51  C   UNL A   1      48.741  32.850  32.104  1.00  0.00     0.123 A 
ATOM     52  H   UNL A   1      49.840  31.125  31.600  1.00  0.00     0.065 H 
ATOM     53  H   UNL A   1      47.563  34.585  32.290  1.00  0.00     0.065 H 
ATOM     54  F   UNL A   1      49.059  32.799  33.404  1.00  0.00    -0.207 F 
ENDBRANCH  22  44
ENDBRANCH  14  22
BRANCH  16  55
ATOM     55  C   UNL A   1      44.632  32.746  27.587  1.00  0.00    -0.018 A 
ATOM     56  C   UNL A   1      43.921  32.848  28.791  1.00  0.00    -0.054 A 
ATOM     57  C   UNL A   1      44.395  33.713  26.595  1.00  0.00    -0.054 A 
ATOM     58  C   UNL A   1      43.028  33.903  29.010  1.00  0.00    -0.049 A 
ATOM     59  H   UNL A   1      44.056  32.136  29.525  1.00  0.00     0.063 H 
ATOM     60  C   UNL A   1      43.515  34.776  26.816  1.00  0.00    -0.049 A 
ATOM     61  H   UNL A   1      44.879  33.635  25.686  1.00  0.00     0.063 H 
ATOM     62  C   UNL A   1      42.829  34.887  28.030  1.00  0.00     0.056 A 
ATOM     63  H   UNL A   1      42.512  33.957  29.901  1.00  0.00     0.063 H 
ATOM     64  H   UNL A   1      43.372  35.484  26.078  1.00  0.00     0.063 H 
BRANCH  62  65
ATOM     65  C   UNL A   1      41.874  36.027  28.282  1.00  0.00     0.416 C 
ATOM     66  F   UNL A   1      41.506  36.661  27.134  1.00  0.00    -0.166 F 
ATOM     67  F   UNL A   1      40.716  35.623  28.874  1.00  0.00    -0.166 F 
ATOM     68  F   UNL A   1      42.387  36.994  29.094  1.00  0.00    -0.166 F 
ENDBRANCH  62  65
ENDBRANCH  16  55
ENDBRANCH  11  13
BRANCH  11  69
ATOM     69  C   UNL A   1      43.723  27.942  25.774  1.00  0.00    -0.049 C 
ATOM     70  H   UNL A   1      43.526  28.846  25.236  1.00  0.00     0.024 H 
ATOM     71  H   UNL A   1      43.068  27.880  26.618  1.00  0.00     0.024 H 
ATOM     72  H   UNL A   1      43.560  27.103  25.133  1.00  0.00     0.024 H 
ENDBRANCH  11  69
ENDBRANCH   8  11
ENDBRANCH   4   7
ENDBRANCH   1   4
BRANCH   1  73
ATOM     73  C   UNL A   1      44.401  24.304  26.774  1.00  0.00    -0.052 C 
ATOM     74  H   UNL A   1      44.385  24.108  25.723  1.00  0.00     0.027 H 
ATOM     75  H   UNL A   1      44.169  25.320  27.016  1.00  0.00     0.027 H 
BRANCH  73  76
ATOM     76  C   UNL A   1      43.317  23.444  27.437  1.00  0.00    -0.052 C 
ATOM     77  H   UNL A   1      42.623  24.098  27.919  1.00  0.00     0.027 H 
ATOM     78  H   UNL A   1      43.829  22.790  28.113  1.00  0.00     0.027 H 
BRANCH  76  79
ATOM     79  C   UNL A   1      42.531  22.539  26.482  1.00  0.00    -0.036 C 
ATOM     80  H   UNL A   1      43.179  21.752  26.157  1.00  0.00     0.028 H 
ATOM     81  H   UNL A   1      42.197  23.159  25.676  1.00  0.00     0.028 H 
BRANCH  79  82
ATOM     82  C   UNL A   1      41.287  21.912  27.101  1.00  0.00     0.018 C 
ATOM     83  H   UNL A   1      41.052  22.427  28.009  1.00  0.00     0.049 H 
ATOM     84  H   UNL A   1      41.490  20.878  27.293  1.00  0.00     0.049 H 
BRANCH  82  85
ATOM     85  N   UNL A   1      40.144  21.996  26.199  1.00  0.00    -0.352 N 
ATOM     86  C   UNL A   1      39.166  22.960  26.127  1.00  0.00     0.251 C 
ATOM     87  H   UNL A   1      40.061  21.261  25.551  1.00  0.00     0.163 HD
ATOM     88  O   UNL A   1      38.131  22.762  25.506  1.00  0.00    -0.269 OA
BRANCH  86  89
ATOM     89  C   UNL A   1      39.390  24.252  26.803  1.00  0.00     0.039 A 
ATOM     90  C   UNL A   1      38.936  24.460  28.106  1.00  0.00    -0.049 A 
ATOM     91  C   UNL A   1      40.075  25.258  26.127  1.00  0.00    -0.049 A 
ATOM     92  C   UNL A   1      39.250  25.656  28.761  1.00  0.00    -0.053 A 
ATOM     93  H   UNL A   1      38.375  23.738  28.583  1.00  0.00     0.063 H 
ATOM     94  C   UNL A   1      40.458  26.407  26.805  1.00  0.00    -0.053 A 
ATOM     95  H   UNL A   1      40.298  25.150  25.125  1.00  0.00     0.063 H 
ATOM     96  C   UNL A   1      40.055  26.620  28.130  1.00  0.00    -0.014 A 
ATOM     97  H   UNL A   1      38.888  25.832  29.711  1.00  0.00     0.063 H 
ATOM     98  H   UNL A   1      41.046  27.110  26.329  1.00  0.00     0.063 H 
BRANCH  96  99
ATOM     99  C   UNL A   1      40.511  27.860  28.810  1.00  0.00     0.031 A 
ATOM    100  C   UNL A   1      41.895  27.927  29.394  1.00  0.00     0.074 A 
ATOM    101  C   UNL A   1      39.641  28.868  29.020  1.00  0.00     0.049 A 
ATOM    102  N   UNL A   1      42.422  28.832  30.178  1.00  0.00    -0.248 NA
ATOM    103  C   UNL A   1      42.795  26.802  29.090  1.00  0.00    -0.034 C 
ATOM    104  C   UNL A   1      38.258  28.902  28.550  1.00  0.00    -0.036 A 
ATOM    105  N   UNL A   1      39.788  30.049  29.707  1.00  0.00    -0.354 N 
ATOM    106  C   UNL A   1      43.697  28.374  30.480  1.00  0.00     0.074 A 
ATOM    107  C   UNL A   1      43.847  27.084  29.845  1.00  0.00    -0.034 C 
ATOM    108  H   UNL A   1      42.646  26.002  28.454  1.00  0.00     0.065 H 
ATOM    109  C   UNL A   1      37.688  30.052  28.942  1.00  0.00    -0.036 A 
ATOM    110  H   UNL A   1      37.792  28.161  28.002  1.00  0.00     0.065 H 
ATOM    111  C   UNL A   1      38.647  30.813  29.738  1.00  0.00     0.049 A 
ATOM    112  H   UNL A   1      40.631  30.321  30.137  1.00  0.00     0.167 HD
ATOM    113  C   UNL A   1      44.664  28.989  31.198  1.00  0.00     0.037 A 
ATOM    114  H   UNL A   1      44.664  26.464  29.965  1.00  0.00     0.065 H 
ATOM    115  H   UNL A   1      36.725  30.351  28.718  1.00  0.00     0.065 H 
ATOM    116  C   UNL A   1      38.393  31.985  30.353  1.00  0.00     0.037 A 
ATOM    117  C   UNL A   1      44.522  30.290  31.793  1.00  0.00     0.049 A 
ATOM    118  C   UNL A   1      39.478  32.647  31.157  1.00  0.00     0.074 A 
ATOM    119  C   UNL A   1      45.471  31.032  32.472  1.00  0.00    -0.036 A 
ATOM    120  N   UNL A   1      43.356  31.042  31.779  1.00  0.00    -0.354 N 
ATOM    121  N   UNL A   1      40.702  32.235  31.383  1.00  0.00    -0.248 NA
ATOM    122  C   UNL A   1      39.153  33.932  31.793  1.00  0.00    -0.034 C 
ATOM    123  C   UNL A   1      44.864  32.205  32.923  1.00  0.00    -0.036 A 
ATOM    124  H   UNL A   1      46.457  30.765  32.619  1.00  0.00     0.065 H 
ATOM    125  C   UNL A   1      43.555  32.228  32.467  1.00  0.00     0.049 A 
ATOM    126  H   UNL A   1      42.514  30.775  31.345  1.00  0.00     0.167 HD
ATOM    127  C   UNL A   1      41.300  33.217  32.161  1.00  0.00     0.074 A 
ATOM    128  C   UNL A   1      40.307  34.249  32.369  1.00  0.00    -0.034 C 
ATOM    129  H   UNL A   1      38.261  34.451  31.794  1.00  0.00     0.065 H 
ATOM    130  H   UNL A   1      45.314  32.934  33.499  1.00  0.00     0.065 H 
ATOM    131  C   UNL A   1      42.561  33.255  32.654  1.00  0.00     0.037 A 
ATOM    132  H   UNL A   1      40.474  35.120  32.896  1.00  0.00     0.065 H 
BRANCH 113 133
ATOM    133  C   UNL A   1      45.974  28.273  31.376  1.00  0.00     0.064 A 
ATOM    134  C   UNL A   1      47.055  28.546  30.525  1.00  0.00     0.173 A 
ATOM    135  C   UNL A   1      46.137  27.268  32.342  1.00  0.00     0.173 A 
ATOM    136  F   UNL A   1      46.951  29.492  29.579  1.00  0.00    -0.203 F 
ATOM    137  C   UNL A   1      48.247  27.832  30.627  1.00  0.00     0.198 A 
ATOM    138  C   UNL A   1      47.342  26.581  32.464  1.00  0.00     0.198 A 
ATOM    139  F   UNL A   1      45.137  26.973  33.186  1.00  0.00    -0.203 F 
ATOM    140  F   UNL A   1      49.253  28.086  29.779  1.00  0.00    -0.200 F 
ATOM    141  C   UNL A   1      48.391  26.855  31.601  1.00  0.00     0.200 A 
ATOM    142  F   UNL A   1      47.488  25.656  33.423  1.00  0.00    -0.200 F 
ATOM    143  F   UNL A   1      49.543  26.179  31.707  1.00  0.00    -0.200 F 
ENDBRANCH 113 133
BRANCH 116 144
ATOM    144  C   UNL A   1      37.055  32.614  30.196  1.00  0.00     0.064 A 
ATOM    145  C   UNL A   1      36.068  32.498  31.188  1.00  0.00     0.173 A 
ATOM    146  C   UNL A   1      36.718  33.295  29.018  1.00  0.00     0.173 A 
ATOM    147  F   UNL A   1      36.337  31.849  32.330  1.00  0.00    -0.203 F 
ATOM    148  C   UNL A   1      34.788  33.014  30.994  1.00  0.00     0.198 A 
ATOM    149  C   UNL A   1      35.445  33.834  28.837  1.00  0.00     0.198 A 
ATOM    150  F   UNL A   1      37.631  33.448  28.050  1.00  0.00    -0.203 F 
ATOM    151  F   UNL A   1      33.851  32.848  31.937  1.00  0.00    -0.200 F 
ATOM    152  C   UNL A   1      34.478  33.683  29.820  1.00  0.00     0.200 A 
ATOM    153  F   UNL A   1      35.156  34.498  27.710  1.00  0.00    -0.200 F 
ATOM    154  F   UNL A   1      33.248  34.180  29.634  1.00  0.00    -0.200 F 
ENDBRANCH 116 144
BRANCH 131 155
ATOM    155  C   UNL A   1      42.978  34.459  33.448  1.00  0.00     0.064 A 
ATOM    156  C   UNL A   1      42.803  34.479  34.842  1.00  0.00     0.173 A 
ATOM    157  C   UNL A   1      43.407  35.637  32.822  1.00  0.00     0.173 A 
ATOM    158  F   UNL A   1      42.384  33.378  35.486  1.00  0.00    -0.203 F 
ATOM    159  C   UNL A   1      43.006  35.644  35.573  1.00  0.00     0.198 A 
ATOM    160  C   UNL A   1      43.637  36.794  33.562  1.00  0.00     0.198 A 
ATOM    161  F   UNL A   1      43.598  35.664  31.495  1.00  0.00    -0.203 F 
ATOM    162  F   UNL A   1      42.777  35.655  36.893  1.00  0.00    -0.200 F 
ATOM    163  C   UNL A   1      43.421  36.802  34.932  1.00  0.00     0.200 A 
ATOM    164  F   UNL A   1      44.055  37.908  32.944  1.00  0.00    -0.200 F 
ATOM    165  F   UNL A   1      43.606  37.928  35.634  1.00  0.00    -0.200 F 
ENDBRANCH 131 155
ENDBRANCH  96  99
ENDBRANCH  86  89
ENDBRANCH  82  85
ENDBRANCH  79  82
ENDBRANCH  76  79
ENDBRANCH  73  76
ENDBRANCH   1  73
TORSDOF 21
ENDMDL
MODEL 4
REMARK VINA RESULT:      -8.5      5.744     13.110
REMARK SMILES CC1CC[NH+]([C@H](c2ccc(F)cc2)c2ccc([C@@H](C)C(=O)NCCCCCCNC(=O)c3ccc(-c4c5nc(c(-c6c(F)c(F)c(F)c(F)c6F)c6ccc([nH]6)c(-c6c(F)c(F)c(F)c(F)c6F)c6nc(c(-c7c(F)c(F)c(F)c(F)c7F)c7ccc4[nH]7)C=C6)C=C5)cc3)cc2-c2ccc(C(F)(F)F)cc2)CC1
REMARK SMILES IDX 24 1 23 4 22 7 20 8 21 9 18 11 17 13 14 14 15 15 96 16 16 17
REMARK SMILES IDX 95 19 6 22 5 24 2 25 3 26 108 27 4 29 107 32 1 40 7 44 8 45
REMARK SMILES IDX 13 46 9 47 12 49 10 51 11 54 97 55 98 56 106 57 99 58 105 60
REMARK SMILES IDX 100 62 101 65 102 66 103 67 104 68 19 69 25 73 26 76 27 79
REMARK SMILES IDX 28 82 29 85 30 86 31 88 32 89 33 90 94 91 34 92 93 94 35 96
REMARK SMILES IDX 36 99 37 100 87 101 38 102 92 103 86 104 88 105 39 106
REMARK SMILES IDX 91 107 85 109 84 111 40 113 72 116 52 117 71 118 53 119
REMARK SMILES IDX 56 120 70 121 89 122 54 123 55 125 69 127 90 128 57 131
REMARK SMILES IDX 41 133 42 134 50 135 43 136 44 137 48 138 51 139 45 140
REMARK SMILES IDX 46 141 49 142 47 143 73 144 74 145 82 146 75 147 76 148
REMARK SMILES IDX 80 149 83 150 77 151 78 152 81 153 79 154 58 155 59 156
REMARK SMILES IDX 67 157 60 158 61 159 65 160 68 161 62 162 63 163 66 164
REMARK SMILES IDX 64 165
REMARK H PARENT 24 2 24 3 23 5 23 6 22 10 18 12 15 18 16 20 95 21 6 23 2 28
REMARK H PARENT 3 30 3 31 108 33 108 34 4 35 4 36 107 37 107 38 5 39 1 41 1 42
REMARK H PARENT 1 43 8 48 13 50 9 52 12 53 98 59 106 61 99 63 105 64 19 70
REMARK H PARENT 19 71 19 72 25 74 25 75 26 77 26 78 27 80 27 81 28 83 28 84
REMARK H PARENT 29 87 33 93 94 95 34 97 93 98 92 108 86 110 88 112 91 114
REMARK H PARENT 85 115 53 124 56 126 89 129 54 130 90 132
REMARK Flexibility Score: inf
ROOT
ATOM      1  C   UNL A   1      42.543  22.572  28.265  1.00  0.00    -0.036 C 
ATOM      2  H   UNL A   1      42.888  22.256  29.227  1.00  0.00     0.028 H 
ATOM      3  H   UNL A   1      42.887  23.551  28.004  1.00  0.00     0.028 H 
ENDROOT
BRANCH   1   4
ATOM      4  C   UNL A   1      41.010  22.634  28.297  1.00  0.00     0.017 C 
ATOM      5  H   UNL A   1      40.671  22.338  29.268  1.00  0.00     0.049 H 
ATOM      6  H   UNL A   1      40.712  23.639  28.077  1.00  0.00     0.049 H 
BRANCH   4   7
ATOM      7  N   UNL A   1      40.417  21.760  27.305  1.00  0.00    -0.356 N 
ATOM      8  C   UNL A   1      39.429  21.937  26.386  1.00  0.00     0.227 C 
ATOM      9  O   UNL A   1      39.116  20.933  25.732  1.00  0.00    -0.274 OA
ATOM     10  H   UNL A   1      40.807  20.856  27.294  1.00  0.00     0.163 HD
BRANCH   8  11
ATOM     11  C   UNL A   1      38.710  23.274  26.116  1.00  0.00     0.060 C 
ATOM     12  H   UNL A   1      39.032  23.586  25.144  1.00  0.00     0.045 H 
BRANCH  11  13
ATOM     13  C   UNL A   1      37.206  23.126  25.976  1.00  0.00    -0.035 A 
ATOM     14  C   UNL A   1      34.438  22.819  25.295  1.00  0.00     0.022 A 
ATOM     15  C   UNL A   1      35.277  21.732  25.584  1.00  0.00    -0.052 A 
ATOM     16  C   UNL A   1      34.990  24.113  25.506  1.00  0.00    -0.009 A 
ATOM     17  C   UNL A   1      36.589  21.890  26.013  1.00  0.00    -0.058 A 
ATOM     18  H   UNL A   1      34.905  20.776  25.472  1.00  0.00     0.063 H 
ATOM     19  C   UNL A   1      36.382  24.237  25.759  1.00  0.00    -0.050 A 
ATOM     20  H   UNL A   1      37.110  21.072  26.365  1.00  0.00     0.063 H 
ATOM     21  H   UNL A   1      36.801  25.180  25.785  1.00  0.00     0.063 H 
BRANCH  14  22
ATOM     22  C   UNL A   1      32.966  22.588  24.843  1.00  0.00     0.139 C 
ATOM     23  H   UNL A   1      32.452  22.850  25.744  1.00  0.00     0.107 H 
BRANCH  22  24
ATOM     24  N   UNL A   1      32.525  21.179  24.564  1.00  0.00    -0.325 N 
ATOM     25  C   UNL A   1      33.184  18.422  23.831  1.00  0.00    -0.034 C 
ATOM     26  C   UNL A   1      32.764  18.733  25.264  1.00  0.00    -0.001 C 
ATOM     27  C   UNL A   1      32.353  19.293  22.902  1.00  0.00    -0.001 C 
ATOM     28  H   UNL A   1      34.227  18.629  23.707  1.00  0.00     0.030 H 
ATOM     29  C   UNL A   1      32.886  20.222  25.615  1.00  0.00     0.078 C 
ATOM     30  H   UNL A   1      33.387  18.173  25.931  1.00  0.00     0.033 H 
ATOM     31  H   UNL A   1      31.733  18.465  25.362  1.00  0.00     0.033 H 
ATOM     32  C   UNL A   1      32.644  20.762  23.167  1.00  0.00     0.078 C 
ATOM     33  H   UNL A   1      31.315  19.101  23.071  1.00  0.00     0.033 H 
ATOM     34  H   UNL A   1      32.606  19.063  21.887  1.00  0.00     0.033 H 
ATOM     35  H   UNL A   1      33.905  20.407  25.886  1.00  0.00     0.092 H 
ATOM     36  H   UNL A   1      32.177  20.385  26.399  1.00  0.00     0.092 H 
ATOM     37  H   UNL A   1      33.644  20.966  22.845  1.00  0.00     0.092 H 
ATOM     38  H   UNL A   1      31.901  21.314  22.629  1.00  0.00     0.092 H 
ATOM     39  H   UNL A   1      31.509  21.178  24.651  1.00  0.00     0.348 HD
BRANCH  25  40
ATOM     40  C   UNL A   1      32.977  16.953  23.503  1.00  0.00    -0.062 C 
ATOM     41  H   UNL A   1      33.167  16.789  22.462  1.00  0.00     0.023 H 
ATOM     42  H   UNL A   1      31.969  16.676  23.729  1.00  0.00     0.023 H 
ATOM     43  H   UNL A   1      33.649  16.358  24.085  1.00  0.00     0.023 H 
ENDBRANCH  25  40
ENDBRANCH  22  24
BRANCH  22  44
ATOM     44  C   UNL A   1      32.522  23.520  23.696  1.00  0.00     0.014 A 
ATOM     45  C   UNL A   1      31.324  24.260  23.757  1.00  0.00    -0.050 A 
ATOM     46  C   UNL A   1      33.328  23.648  22.550  1.00  0.00    -0.050 A 
ATOM     47  C   UNL A   1      30.957  25.115  22.716  1.00  0.00    -0.026 A 
ATOM     48  H   UNL A   1      30.709  24.169  24.581  1.00  0.00     0.063 H 
ATOM     49  C   UNL A   1      32.939  24.471  21.491  1.00  0.00    -0.026 A 
ATOM     50  H   UNL A   1      34.217  23.127  22.490  1.00  0.00     0.063 H 
ATOM     51  C   UNL A   1      31.764  25.204  21.589  1.00  0.00     0.123 A 
ATOM     52  H   UNL A   1      30.094  25.675  22.783  1.00  0.00     0.065 H 
ATOM     53  H   UNL A   1      33.521  24.535  20.641  1.00  0.00     0.065 H 
ATOM     54  F   UNL A   1      31.402  26.010  20.582  1.00  0.00    -0.207 F 
ENDBRANCH  22  44
ENDBRANCH  14  22
BRANCH  16  55
ATOM     55  C   UNL A   1      34.182  25.349  25.542  1.00  0.00    -0.018 A 
ATOM     56  C   UNL A   1      33.168  25.537  26.493  1.00  0.00    -0.054 A 
ATOM     57  C   UNL A   1      34.380  26.354  24.580  1.00  0.00    -0.054 A 
ATOM     58  C   UNL A   1      32.403  26.708  26.504  1.00  0.00    -0.049 A 
ATOM     59  H   UNL A   1      32.985  24.803  27.194  1.00  0.00     0.063 H 
ATOM     60  C   UNL A   1      33.627  27.531  24.596  1.00  0.00    -0.049 A 
ATOM     61  H   UNL A   1      35.094  26.219  23.847  1.00  0.00     0.063 H 
ATOM     62  C   UNL A   1      32.635  27.724  25.565  1.00  0.00     0.056 A 
ATOM     63  H   UNL A   1      31.659  26.825  27.210  1.00  0.00     0.063 H 
ATOM     64  H   UNL A   1      33.803  28.261  23.889  1.00  0.00     0.063 H 
BRANCH  62  65
ATOM     65  C   UNL A   1      31.812  28.988  25.593  1.00  0.00     0.416 C 
ATOM     66  F   UNL A   1      31.412  29.320  26.851  1.00  0.00    -0.166 F 
ATOM     67  F   UNL A   1      32.491  30.068  25.117  1.00  0.00    -0.166 F 
ATOM     68  F   UNL A   1      30.673  28.908  24.848  1.00  0.00    -0.166 F 
ENDBRANCH  62  65
ENDBRANCH  16  55
ENDBRANCH  11  13
BRANCH  11  69
ATOM     69  C   UNL A   1      39.174  24.419  27.013  1.00  0.00    -0.049 C 
ATOM     70  H   UNL A   1      39.460  24.031  27.969  1.00  0.00     0.024 H 
ATOM     71  H   UNL A   1      38.375  25.120  27.139  1.00  0.00     0.024 H 
ATOM     72  H   UNL A   1      40.011  24.909  26.563  1.00  0.00     0.024 H 
ENDBRANCH  11  69
ENDBRANCH   8  11
ENDBRANCH   4   7
ENDBRANCH   1   4
BRANCH   1  73
ATOM     73  C   UNL A   1      43.104  21.611  27.214  1.00  0.00    -0.052 C 
ATOM     74  H   UNL A   1      42.286  21.073  26.784  1.00  0.00     0.027 H 
ATOM     75  H   UNL A   1      43.802  20.980  27.723  1.00  0.00     0.027 H 
BRANCH  73  76
ATOM     76  C   UNL A   1      43.881  22.288  26.078  1.00  0.00    -0.052 C 
ATOM     77  H   UNL A   1      44.479  21.545  25.596  1.00  0.00     0.027 H 
ATOM     78  H   UNL A   1      44.454  23.069  26.533  1.00  0.00     0.027 H 
BRANCH  76  79
ATOM     79  C   UNL A   1      43.013  22.964  25.010  1.00  0.00    -0.036 C 
ATOM     80  H   UNL A   1      41.995  22.683  25.179  1.00  0.00     0.028 H 
ATOM     81  H   UNL A   1      43.382  22.635  24.061  1.00  0.00     0.028 H 
BRANCH  79  82
ATOM     82  C   UNL A   1      43.097  24.487  25.012  1.00  0.00     0.018 C 
ATOM     83  H   UNL A   1      42.800  24.851  25.974  1.00  0.00     0.049 H 
ATOM     84  H   UNL A   1      42.448  24.861  24.247  1.00  0.00     0.049 H 
BRANCH  82  85
ATOM     85  N   UNL A   1      44.453  24.945  24.730  1.00  0.00    -0.352 N 
ATOM     86  C   UNL A   1      45.141  26.004  25.275  1.00  0.00     0.251 C 
ATOM     87  H   UNL A   1      44.944  24.424  24.056  1.00  0.00     0.163 HD
ATOM     88  O   UNL A   1      46.163  26.427  24.753  1.00  0.00    -0.269 OA
BRANCH  86  89
ATOM     89  C   UNL A   1      44.632  26.619  26.516  1.00  0.00     0.039 A 
ATOM     90  C   UNL A   1      44.609  28.006  26.664  1.00  0.00    -0.049 A 
ATOM     91  C   UNL A   1      44.161  25.794  27.534  1.00  0.00    -0.049 A 
ATOM     92  C   UNL A   1      44.029  28.566  27.807  1.00  0.00    -0.053 A 
ATOM     93  H   UNL A   1      45.015  28.614  25.936  1.00  0.00     0.063 H 
ATOM     94  C   UNL A   1      43.511  26.350  28.626  1.00  0.00    -0.053 A 
ATOM     95  H   UNL A   1      44.295  24.772  27.477  1.00  0.00     0.063 H 
ATOM     96  C   UNL A   1      43.432  27.741  28.776  1.00  0.00    -0.014 A 
ATOM     97  H   UNL A   1      44.039  29.589  27.940  1.00  0.00     0.063 H 
ATOM     98  H   UNL A   1      43.081  25.733  29.334  1.00  0.00     0.063 H 
BRANCH  96  99
ATOM     99  C   UNL A   1      42.708  28.278  29.957  1.00  0.00     0.031 A 
ATOM    100  C   UNL A   1      41.331  28.859  29.788  1.00  0.00     0.074 A 
ATOM    101  C   UNL A   1      43.336  28.368  31.146  1.00  0.00     0.049 A 
ATOM    102  N   UNL A   1      40.607  29.539  30.641  1.00  0.00    -0.248 NA
ATOM    103  C   UNL A   1      40.699  28.690  28.469  1.00  0.00    -0.034 C 
ATOM    104  C   UNL A   1      44.688  27.888  31.425  1.00  0.00    -0.036 A 
ATOM    105  N   UNL A   1      42.926  28.917  32.337  1.00  0.00    -0.354 N 
ATOM    106  C   UNL A   1      39.455  29.899  29.955  1.00  0.00     0.074 A 
ATOM    107  C   UNL A   1      39.598  29.415  28.600  1.00  0.00    -0.034 C 
ATOM    108  H   UNL A   1      41.029  28.149  27.655  1.00  0.00     0.065 H 
ATOM    109  C   UNL A   1      44.990  28.144  32.707  1.00  0.00    -0.036 A 
ATOM    110  H   UNL A   1      45.313  27.426  30.745  1.00  0.00     0.065 H 
ATOM    111  C   UNL A   1      43.875  28.854  33.328  1.00  0.00     0.049 A 
ATOM    112  H   UNL A   1      42.036  29.318  32.467  1.00  0.00     0.167 HD
ATOM    113  C   UNL A   1      38.365  30.548  30.423  1.00  0.00     0.037 A 
ATOM    114  H   UNL A   1      38.932  29.609  27.836  1.00  0.00     0.065 H 
ATOM    115  H   UNL A   1      45.870  27.881  33.180  1.00  0.00     0.065 H 
ATOM    116  C   UNL A   1      43.860  29.330  34.589  1.00  0.00     0.037 A 
ATOM    117  C   UNL A   1      38.213  30.990  31.783  1.00  0.00     0.049 A 
ATOM    118  C   UNL A   1      42.642  30.061  35.086  1.00  0.00     0.074 A 
ATOM    119  C   UNL A   1      37.114  31.587  32.374  1.00  0.00    -0.036 A 
ATOM    120  N   UNL A   1      39.190  30.885  32.763  1.00  0.00    -0.354 N 
ATOM    121  N   UNL A   1      41.532  30.340  34.448  1.00  0.00    -0.248 NA
ATOM    122  C   UNL A   1      42.672  30.545  36.474  1.00  0.00    -0.034 C 
ATOM    123  C   UNL A   1      37.446  31.898  33.694  1.00  0.00    -0.036 A 
ATOM    124  H   UNL A   1      36.206  31.770  31.918  1.00  0.00     0.065 H 
ATOM    125  C   UNL A   1      38.728  31.435  33.947  1.00  0.00     0.049 A 
ATOM    126  H   UNL A   1      40.077  30.479  32.636  1.00  0.00     0.167 HD
ATOM    127  C   UNL A   1      40.722  31.005  35.358  1.00  0.00     0.074 A 
ATOM    128  C   UNL A   1      41.467  31.088  36.597  1.00  0.00    -0.034 C 
ATOM    129  H   UNL A   1      43.431  30.481  37.170  1.00  0.00     0.065 H 
ATOM    130  H   UNL A   1      36.839  32.390  34.368  1.00  0.00     0.065 H 
ATOM    131  C   UNL A   1      39.474  31.498  35.179  1.00  0.00     0.037 A 
ATOM    132  H   UNL A   1      41.106  31.514  37.465  1.00  0.00     0.065 H 
BRANCH 113 133
ATOM    133  C   UNL A   1      37.237  30.814  29.466  1.00  0.00     0.064 A 
ATOM    134  C   UNL A   1      37.052  32.095  28.924  1.00  0.00     0.173 A 
ATOM    135  C   UNL A   1      36.300  29.823  29.140  1.00  0.00     0.173 A 
ATOM    136  F   UNL A   1      37.913  33.083  29.209  1.00  0.00    -0.203 F 
ATOM    137  C   UNL A   1      35.964  32.376  28.101  1.00  0.00     0.198 A 
ATOM    138  C   UNL A   1      35.234  30.097  28.287  1.00  0.00     0.198 A 
ATOM    139  F   UNL A   1      36.435  28.579  29.624  1.00  0.00    -0.203 F 
ATOM    140  F   UNL A   1      35.788  33.616  27.625  1.00  0.00    -0.200 F 
ATOM    141  C   UNL A   1      35.059  31.374  27.778  1.00  0.00     0.200 A 
ATOM    142  F   UNL A   1      34.377  29.122  27.956  1.00  0.00    -0.200 F 
ATOM    143  F   UNL A   1      34.022  31.642  26.974  1.00  0.00    -0.200 F 
ENDBRANCH 113 133
BRANCH 116 144
ATOM    144  C   UNL A   1      45.034  29.096  35.469  1.00  0.00     0.064 A 
ATOM    145  C   UNL A   1      46.113  29.992  35.510  1.00  0.00     0.173 A 
ATOM    146  C   UNL A   1      45.124  27.932  36.247  1.00  0.00     0.173 A 
ATOM    147  F   UNL A   1      46.080  31.116  34.779  1.00  0.00    -0.203 F 
ATOM    148  C   UNL A   1      47.249  29.718  36.270  1.00  0.00     0.198 A 
ATOM    149  C   UNL A   1      46.249  27.673  37.028  1.00  0.00     0.198 A 
ATOM    150  F   UNL A   1      44.111  27.055  36.256  1.00  0.00    -0.203 F 
ATOM    151  F   UNL A   1      48.284  30.568  36.253  1.00  0.00    -0.200 F 
ATOM    152  C   UNL A   1      47.314  28.560  37.031  1.00  0.00     0.200 A 
ATOM    153  F   UNL A   1      46.300  26.564  37.777  1.00  0.00    -0.200 F 
ATOM    154  F   UNL A   1      48.406  28.298  37.763  1.00  0.00    -0.200 F 
ENDBRANCH 116 144
BRANCH 131 155
ATOM    155  C   UNL A   1      38.793  32.153  36.345  1.00  0.00     0.064 A 
ATOM    156  C   UNL A   1      39.056  33.499  36.650  1.00  0.00     0.173 A 
ATOM    157  C   UNL A   1      38.005  31.418  37.241  1.00  0.00     0.173 A 
ATOM    158  F   UNL A   1      39.814  34.242  35.828  1.00  0.00    -0.203 F 
ATOM    159  C   UNL A   1      38.586  34.072  37.826  1.00  0.00     0.198 A 
ATOM    160  C   UNL A   1      37.512  32.004  38.403  1.00  0.00     0.198 A 
ATOM    161  F   UNL A   1      37.718  30.132  36.988  1.00  0.00    -0.203 F 
ATOM    162  F   UNL A   1      38.898  35.341  38.125  1.00  0.00    -0.200 F 
ATOM    163  C   UNL A   1      37.816  33.324  38.704  1.00  0.00     0.200 A 
ATOM    164  F   UNL A   1      36.753  31.285  39.242  1.00  0.00    -0.200 F 
ATOM    165  F   UNL A   1      37.372  33.872  39.843  1.00  0.00    -0.200 F 
ENDBRANCH 131 155
ENDBRANCH  96  99
ENDBRANCH  86  89
ENDBRANCH  82  85
ENDBRANCH  79  82
ENDBRANCH  76  79
ENDBRANCH  73  76
ENDBRANCH   1  73
TORSDOF 21
ENDMDL
MODEL 5
REMARK VINA RESULT:      -8.4      5.740     13.136
REMARK SMILES CC1CC[NH+]([C@H](c2ccc(F)cc2)c2ccc([C@@H](C)C(=O)NCCCCCCNC(=O)c3ccc(-c4c5nc(c(-c6c(F)c(F)c(F)c(F)c6F)c6ccc([nH]6)c(-c6c(F)c(F)c(F)c(F)c6F)c6nc(c(-c7c(F)c(F)c(F)c(F)c7F)c7ccc4[nH]7)C=C6)C=C5)cc3)cc2-c2ccc(C(F)(F)F)cc2)CC1
REMARK SMILES IDX 24 1 23 4 22 7 20 8 21 9 18 11 17 13 14 14 15 15 96 16 16 17
REMARK SMILES IDX 95 19 6 22 5 24 2 25 3 26 108 27 4 29 107 32 1 40 7 44 8 45
REMARK SMILES IDX 13 46 9 47 12 49 10 51 11 54 97 55 98 56 106 57 99 58 105 60
REMARK SMILES IDX 100 62 101 65 102 66 103 67 104 68 19 69 25 73 26 76 27 79
REMARK SMILES IDX 28 82 29 85 30 86 31 88 32 89 33 90 94 91 34 92 93 94 35 96
REMARK SMILES IDX 36 99 37 100 87 101 38 102 92 103 86 104 88 105 39 106
REMARK SMILES IDX 91 107 85 109 84 111 40 113 72 116 52 117 71 118 53 119
REMARK SMILES IDX 56 120 70 121 89 122 54 123 55 125 69 127 90 128 57 131
REMARK SMILES IDX 41 133 42 134 50 135 43 136 44 137 48 138 51 139 45 140
REMARK SMILES IDX 46 141 49 142 47 143 73 144 74 145 82 146 75 147 76 148
REMARK SMILES IDX 80 149 83 150 77 151 78 152 81 153 79 154 58 155 59 156
REMARK SMILES IDX 67 157 60 158 61 159 65 160 68 161 62 162 63 163 66 164
REMARK SMILES IDX 64 165
REMARK H PARENT 24 2 24 3 23 5 23 6 22 10 18 12 15 18 16 20 95 21 6 23 2 28
REMARK H PARENT 3 30 3 31 108 33 108 34 4 35 4 36 107 37 107 38 5 39 1 41 1 42
REMARK H PARENT 1 43 8 48 13 50 9 52 12 53 98 59 106 61 99 63 105 64 19 70
REMARK H PARENT 19 71 19 72 25 74 25 75 26 77 26 78 27 80 27 81 28 83 28 84
REMARK H PARENT 29 87 33 93 94 95 34 97 93 98 92 108 86 110 88 112 91 114
REMARK H PARENT 85 115 53 124 56 126 89 129 54 130 90 132
REMARK Flexibility Score: inf
ROOT
ATOM      1  C   UNL A   1      42.444  22.577  28.204  1.00  0.00    -0.036 C 
ATOM      2  H   UNL A   1      42.860  22.285  29.145  1.00  0.00     0.028 H 
ATOM      3  H   UNL A   1      42.684  23.587  27.942  1.00  0.00     0.028 H 
ENDROOT
BRANCH   1   4
ATOM      4  C   UNL A   1      40.915  22.498  28.306  1.00  0.00     0.017 C 
ATOM      5  H   UNL A   1      40.652  22.034  29.234  1.00  0.00     0.049 H 
ATOM      6  H   UNL A   1      40.524  23.492  28.250  1.00  0.00     0.049 H 
BRANCH   4   7
ATOM      7  N   UNL A   1      40.345  21.727  27.219  1.00  0.00    -0.356 N 
ATOM      8  C   UNL A   1      39.372  21.992  26.305  1.00  0.00     0.227 C 
ATOM      9  O   UNL A   1      39.077  21.059  25.546  1.00  0.00    -0.274 OA
ATOM     10  H   UNL A   1      40.741  20.831  27.122  1.00  0.00     0.163 HD
BRANCH   8  11
ATOM     11  C   UNL A   1      38.649  23.346  26.161  1.00  0.00     0.060 C 
ATOM     12  H   UNL A   1      38.970  23.749  25.223  1.00  0.00     0.045 H 
BRANCH  11  13
ATOM     13  C   UNL A   1      37.145  23.207  26.006  1.00  0.00    -0.035 A 
ATOM     14  C   UNL A   1      34.382  22.917  25.296  1.00  0.00     0.022 A 
ATOM     15  C   UNL A   1      35.213  21.825  25.587  1.00  0.00    -0.052 A 
ATOM     16  C   UNL A   1      34.938  24.208  25.520  1.00  0.00    -0.009 A 
ATOM     17  C   UNL A   1      36.521  21.974  26.030  1.00  0.00    -0.058 A 
ATOM     18  H   UNL A   1      34.836  20.871  25.466  1.00  0.00     0.063 H 
ATOM     19  C   UNL A   1      36.328  24.324  25.787  1.00  0.00    -0.050 A 
ATOM     20  H   UNL A   1      37.035  21.151  26.383  1.00  0.00     0.063 H 
ATOM     21  H   UNL A   1      36.752  25.264  25.822  1.00  0.00     0.063 H 
BRANCH  14  22
ATOM     22  C   UNL A   1      32.913  22.697  24.829  1.00  0.00     0.139 C 
ATOM     23  H   UNL A   1      32.391  22.965  25.724  1.00  0.00     0.107 H 
BRANCH  22  24
ATOM     24  N   UNL A   1      32.465  21.291  24.548  1.00  0.00    -0.325 N 
ATOM     25  C   UNL A   1      33.113  18.526  23.835  1.00  0.00    -0.034 C 
ATOM     26  C   UNL A   1      32.671  18.845  25.260  1.00  0.00    -0.001 C 
ATOM     27  C   UNL A   1      32.305  19.400  22.889  1.00  0.00    -0.001 C 
ATOM     28  H   UNL A   1      34.159  18.724  23.729  1.00  0.00     0.030 H 
ATOM     29  C   UNL A   1      32.800  20.334  25.608  1.00  0.00     0.078 C 
ATOM     30  H   UNL A   1      33.277  18.283  25.940  1.00  0.00     0.033 H 
ATOM     31  H   UNL A   1      31.636  18.586  25.341  1.00  0.00     0.033 H 
ATOM     32  C   UNL A   1      32.604  20.868  23.155  1.00  0.00     0.078 C 
ATOM     33  H   UNL A   1      31.262  19.218  23.042  1.00  0.00     0.033 H 
ATOM     34  H   UNL A   1      32.573  19.165  21.880  1.00  0.00     0.033 H 
ATOM     35  H   UNL A   1      33.815  20.512  25.896  1.00  0.00     0.092 H 
ATOM     36  H   UNL A   1      32.079  20.506  26.379  1.00  0.00     0.092 H 
ATOM     37  H   UNL A   1      33.611  21.062  22.849  1.00  0.00     0.092 H 
ATOM     38  H   UNL A   1      31.876  21.424  22.601  1.00  0.00     0.092 H 
ATOM     39  H   UNL A   1      31.447  21.298  24.617  1.00  0.00     0.348 HD
BRANCH  25  40
ATOM     40  C   UNL A   1      32.899  17.057  23.509  1.00  0.00    -0.062 C 
ATOM     41  H   UNL A   1      33.479  16.794  22.649  1.00  0.00     0.023 H 
ATOM     42  H   UNL A   1      31.862  16.885  23.306  1.00  0.00     0.023 H 
ATOM     43  H   UNL A   1      33.203  16.458  24.340  1.00  0.00     0.023 H 
ENDBRANCH  25  40
ENDBRANCH  22  24
BRANCH  22  44
ATOM     44  C   UNL A   1      32.489  23.631  23.676  1.00  0.00     0.014 A 
ATOM     45  C   UNL A   1      31.286  24.365  23.715  1.00  0.00    -0.050 A 
ATOM     46  C   UNL A   1      33.317  23.765  22.547  1.00  0.00    -0.050 A 
ATOM     47  C   UNL A   1      30.936  25.221  22.669  1.00  0.00    -0.026 A 
ATOM     48  H   UNL A   1      30.654  24.268  24.526  1.00  0.00     0.063 H 
ATOM     49  C   UNL A   1      32.946  24.591  21.483  1.00  0.00    -0.026 A 
ATOM     50  H   UNL A   1      34.210  23.249  22.503  1.00  0.00     0.063 H 
ATOM     51  C   UNL A   1      31.766  25.318  21.559  1.00  0.00     0.123 A 
ATOM     52  H   UNL A   1      30.069  25.777  22.720  1.00  0.00     0.065 H 
ATOM     53  H   UNL A   1      33.545  24.660  20.646  1.00  0.00     0.065 H 
ATOM     54  F   UNL A   1      31.421  26.125  20.547  1.00  0.00    -0.207 F 
ENDBRANCH  22  44
ENDBRANCH  14  22
BRANCH  16  55
ATOM     55  C   UNL A   1      34.136  25.448  25.555  1.00  0.00    -0.018 A 
ATOM     56  C   UNL A   1      33.135  25.648  26.516  1.00  0.00    -0.054 A 
ATOM     57  C   UNL A   1      34.328  26.444  24.582  1.00  0.00    -0.054 A 
ATOM     58  C   UNL A   1      32.375  26.823  26.526  1.00  0.00    -0.049 A 
ATOM     59  H   UNL A   1      32.956  24.921  27.225  1.00  0.00     0.063 H 
ATOM     60  C   UNL A   1      33.580  27.624  24.597  1.00  0.00    -0.049 A 
ATOM     61  H   UNL A   1      35.033  26.299  23.842  1.00  0.00     0.063 H 
ATOM     62  C   UNL A   1      32.601  27.830  25.576  1.00  0.00     0.056 A 
ATOM     63  H   UNL A   1      31.640  26.949  27.239  1.00  0.00     0.063 H 
ATOM     64  H   UNL A   1      33.752  28.348  23.883  1.00  0.00     0.063 H 
BRANCH  62  65
ATOM     65  C   UNL A   1      31.784  29.098  25.603  1.00  0.00     0.416 C 
ATOM     66  F   UNL A   1      31.414  29.451  26.865  1.00  0.00    -0.166 F 
ATOM     67  F   UNL A   1      32.456  30.167  25.095  1.00  0.00    -0.166 F 
ATOM     68  F   UNL A   1      30.628  29.012  24.885  1.00  0.00    -0.166 F 
ENDBRANCH  62  65
ENDBRANCH  16  55
ENDBRANCH  11  13
BRANCH  11  69
ATOM     69  C   UNL A   1      39.107  24.404  27.163  1.00  0.00    -0.049 C 
ATOM     70  H   UNL A   1      39.394  23.928  28.078  1.00  0.00     0.024 H 
ATOM     71  H   UNL A   1      38.306  25.087  27.353  1.00  0.00     0.024 H 
ATOM     72  H   UNL A   1      39.943  24.937  26.761  1.00  0.00     0.024 H 
ENDBRANCH  11  69
ENDBRANCH   8  11
ENDBRANCH   4   7
ENDBRANCH   1   4
BRANCH   1  73
ATOM     73  C   UNL A   1      43.042  21.684  27.116  1.00  0.00    -0.052 C 
ATOM     74  H   UNL A   1      42.242  21.154  26.642  1.00  0.00     0.027 H 
ATOM     75  H   UNL A   1      43.742  21.039  27.604  1.00  0.00     0.027 H 
BRANCH  73  76
ATOM     76  C   UNL A   1      43.827  22.433  26.032  1.00  0.00    -0.052 C 
ATOM     77  H   UNL A   1      44.449  21.727  25.525  1.00  0.00     0.027 H 
ATOM     78  H   UNL A   1      44.377  23.199  26.539  1.00  0.00     0.027 H 
BRANCH  76  79
ATOM     79  C   UNL A   1      42.968  23.148  24.984  1.00  0.00    -0.036 C 
ATOM     80  H   UNL A   1      41.949  22.858  25.131  1.00  0.00     0.028 H 
ATOM     81  H   UNL A   1      43.346  22.857  24.026  1.00  0.00     0.028 H 
BRANCH  79  82
ATOM     82  C   UNL A   1      43.047  24.669  25.046  1.00  0.00     0.018 C 
ATOM     83  H   UNL A   1      42.789  24.992  26.034  1.00  0.00     0.049 H 
ATOM     84  H   UNL A   1      42.365  25.073  24.326  1.00  0.00     0.049 H 
BRANCH  82  85
ATOM     85  N   UNL A   1      44.388  25.146  24.727  1.00  0.00    -0.352 N 
ATOM     86  C   UNL A   1      45.074  26.218  25.248  1.00  0.00     0.251 C 
ATOM     87  H   UNL A   1      44.869  24.628  24.043  1.00  0.00     0.163 HD
ATOM     88  O   UNL A   1      46.076  26.653  24.697  1.00  0.00    -0.269 OA
BRANCH  86  89
ATOM     89  C   UNL A   1      44.588  26.833  26.498  1.00  0.00     0.039 A 
ATOM     90  C   UNL A   1      44.562  28.221  26.643  1.00  0.00    -0.049 A 
ATOM     91  C   UNL A   1      44.142  26.008  27.527  1.00  0.00    -0.049 A 
ATOM     92  C   UNL A   1      44.002  28.779  27.798  1.00  0.00    -0.053 A 
ATOM     93  H   UNL A   1      44.950  28.829  25.906  1.00  0.00     0.063 H 
ATOM     94  C   UNL A   1      43.511  26.563  28.631  1.00  0.00    -0.053 A 
ATOM     95  H   UNL A   1      44.279  24.987  27.469  1.00  0.00     0.063 H 
ATOM     96  C   UNL A   1      43.429  27.954  28.780  1.00  0.00    -0.014 A 
ATOM     97  H   UNL A   1      44.011  29.803  27.929  1.00  0.00     0.063 H 
ATOM     98  H   UNL A   1      43.099  25.946  29.349  1.00  0.00     0.063 H 
BRANCH  96  99
ATOM     99  C   UNL A   1      42.727  28.491  29.975  1.00  0.00     0.031 A 
ATOM    100  C   UNL A   1      41.340  29.053  29.835  1.00  0.00     0.074 A 
ATOM    101  C   UNL A   1      43.382  28.595  31.148  1.00  0.00     0.049 A 
ATOM    102  N   UNL A   1      40.628  29.730  30.701  1.00  0.00    -0.248 NA
ATOM    103  C   UNL A   1      40.679  28.868  28.533  1.00  0.00    -0.034 C 
ATOM    104  C   UNL A   1      44.747  28.134  31.397  1.00  0.00    -0.036 A 
ATOM    105  N   UNL A   1      42.995  29.148  32.344  1.00  0.00    -0.354 N 
ATOM    106  C   UNL A   1      39.456  30.071  30.041  1.00  0.00     0.074 A 
ATOM    107  C   UNL A   1      39.572  29.580  28.686  1.00  0.00    -0.034 C 
ATOM    108  H   UNL A   1      40.995  28.325  27.714  1.00  0.00     0.065 H 
ATOM    109  C   UNL A   1      45.077  28.403  32.670  1.00  0.00    -0.036 A 
ATOM    110  H   UNL A   1      45.361  27.675  30.705  1.00  0.00     0.065 H 
ATOM    111  C   UNL A   1      43.968  29.103  33.313  1.00  0.00     0.049 A 
ATOM    112  H   UNL A   1      42.103  29.539  32.494  1.00  0.00     0.167 HD
ATOM    113  C   UNL A   1      38.369  30.710  30.531  1.00  0.00     0.037 A 
ATOM    114  H   UNL A   1      38.885  29.761  27.937  1.00  0.00     0.065 H 
ATOM    115  H   UNL A   1      45.970  28.154  33.123  1.00  0.00     0.065 H 
ATOM    116  C   UNL A   1      43.977  29.588  34.570  1.00  0.00     0.037 A 
ATOM    117  C   UNL A   1      38.244  31.159  31.891  1.00  0.00     0.049 A 
ATOM    118  C   UNL A   1      42.763  30.307  35.092  1.00  0.00     0.074 A 
ATOM    119  C   UNL A   1      37.152  31.746  32.504  1.00  0.00    -0.036 A 
ATOM    120  N   UNL A   1      39.245  31.072  32.847  1.00  0.00    -0.354 N 
ATOM    121  N   UNL A   1      41.634  30.567  34.479  1.00  0.00    -0.248 NA
ATOM    122  C   UNL A   1      42.820  30.801  36.476  1.00  0.00    -0.034 C 
ATOM    123  C   UNL A   1      37.513  32.071  33.814  1.00  0.00    -0.036 A 
ATOM    124  H   UNL A   1      36.232  31.915  32.070  1.00  0.00     0.065 H 
ATOM    125  C   UNL A   1      38.805  31.625  34.039  1.00  0.00     0.049 A 
ATOM    126  H   UNL A   1      40.135  30.676  32.702  1.00  0.00     0.167 HD
ATOM    127  C   UNL A   1      40.838  31.229  35.405  1.00  0.00     0.074 A 
ATOM    128  C   UNL A   1      41.611  31.329  36.625  1.00  0.00    -0.034 C 
ATOM    129  H   UNL A   1      43.596  30.751  37.154  1.00  0.00     0.065 H 
ATOM    130  H   UNL A   1      36.916  32.560  34.499  1.00  0.00     0.065 H 
ATOM    131  C   UNL A   1      39.580  31.706  35.252  1.00  0.00     0.037 A 
ATOM    132  H   UNL A   1      41.266  31.757  37.498  1.00  0.00     0.065 H 
BRANCH 113 133
ATOM    133  C   UNL A   1      37.215  30.956  29.600  1.00  0.00     0.064 A 
ATOM    134  C   UNL A   1      36.323  29.920  29.284  1.00  0.00     0.173 A 
ATOM    135  C   UNL A   1      37.033  32.194  28.965  1.00  0.00     0.173 A 
ATOM    136  F   UNL A   1      36.456  28.714  29.855  1.00  0.00    -0.203 F 
ATOM    137  C   UNL A   1      35.299  30.112  28.359  1.00  0.00     0.198 A 
ATOM    138  C   UNL A   1      35.986  32.393  28.069  1.00  0.00     0.198 A 
ATOM    139  F   UNL A   1      37.853  33.220  29.238  1.00  0.00    -0.203 F 
ATOM    140  F   UNL A   1      34.482  29.097  28.047  1.00  0.00    -0.200 F 
ATOM    141  C   UNL A   1      35.128  31.350  27.758  1.00  0.00     0.200 A 
ATOM    142  F   UNL A   1      35.806  33.598  27.510  1.00  0.00    -0.200 F 
ATOM    143  F   UNL A   1      34.132  31.538  26.880  1.00  0.00    -0.200 F 
ENDBRANCH 113 133
BRANCH 116 144
ATOM    144  C   UNL A   1      45.175  29.373  35.424  1.00  0.00     0.064 A 
ATOM    145  C   UNL A   1      45.302  28.238  36.240  1.00  0.00     0.173 A 
ATOM    146  C   UNL A   1      46.192  30.336  35.484  1.00  0.00     0.173 A 
ATOM    147  F   UNL A   1      44.353  27.291  36.225  1.00  0.00    -0.203 F 
ATOM    148  C   UNL A   1      46.386  28.090  37.103  1.00  0.00     0.198 A 
ATOM    149  C   UNL A   1      47.289  30.173  36.329  1.00  0.00     0.198 A 
ATOM    150  F   UNL A   1      46.124  31.429  34.711  1.00  0.00    -0.203 F 
ATOM    151  F   UNL A   1      46.459  27.020  37.906  1.00  0.00    -0.200 F 
ATOM    152  C   UNL A   1      47.379  29.057  37.145  1.00  0.00     0.200 A 
ATOM    153  F   UNL A   1      48.256  31.099  36.351  1.00  0.00    -0.200 F 
ATOM    154  F   UNL A   1      48.422  28.913  37.975  1.00  0.00    -0.200 F 
ENDBRANCH 116 144
BRANCH 131 155
ATOM    155  C   UNL A   1      38.919  32.360  36.430  1.00  0.00     0.064 A 
ATOM    156  C   UNL A   1      39.256  33.677  36.785  1.00  0.00     0.173 A 
ATOM    157  C   UNL A   1      38.074  31.643  37.288  1.00  0.00     0.173 A 
ATOM    158  F   UNL A   1      40.070  34.400  36.001  1.00  0.00    -0.203 F 
ATOM    159  C   UNL A   1      38.800  34.236  37.974  1.00  0.00     0.198 A 
ATOM    160  C   UNL A   1      37.597  32.217  38.463  1.00  0.00     0.198 A 
ATOM    161  F   UNL A   1      37.716  30.386  36.986  1.00  0.00    -0.203 F 
ATOM    162  F   UNL A   1      39.182  35.474  38.321  1.00  0.00    -0.200 F 
ATOM    163  C   UNL A   1      37.973  33.506  38.813  1.00  0.00     0.200 A 
ATOM    164  F   UNL A   1      36.783  31.517  39.265  1.00  0.00    -0.200 F 
ATOM    165  F   UNL A   1      37.543  34.041  39.964  1.00  0.00    -0.200 F 
ENDBRANCH 131 155
ENDBRANCH  96  99
ENDBRANCH  86  89
ENDBRANCH  82  85
ENDBRANCH  79  82
ENDBRANCH  76  79
ENDBRANCH  73  76
ENDBRANCH   1  73
TORSDOF 21
ENDMDL
MODEL 6
REMARK VINA RESULT:      -8.4      1.183      2.054
REMARK SMILES CC1CC[NH+]([C@H](c2ccc(F)cc2)c2ccc([C@@H](C)C(=O)NCCCCCCNC(=O)c3ccc(-c4c5nc(c(-c6c(F)c(F)c(F)c(F)c6F)c6ccc([nH]6)c(-c6c(F)c(F)c(F)c(F)c6F)c6nc(c(-c7c(F)c(F)c(F)c(F)c7F)c7ccc4[nH]7)C=C6)C=C5)cc3)cc2-c2ccc(C(F)(F)F)cc2)CC1
REMARK SMILES IDX 24 1 23 4 22 7 20 8 21 9 18 11 17 13 14 14 15 15 96 16 16 17
REMARK SMILES IDX 95 19 6 22 5 24 2 25 3 26 108 27 4 29 107 32 1 40 7 44 8 45
REMARK SMILES IDX 13 46 9 47 12 49 10 51 11 54 97 55 98 56 106 57 99 58 105 60
REMARK SMILES IDX 100 62 101 65 102 66 103 67 104 68 19 69 25 73 26 76 27 79
REMARK SMILES IDX 28 82 29 85 30 86 31 88 32 89 33 90 94 91 34 92 93 94 35 96
REMARK SMILES IDX 36 99 37 100 87 101 38 102 92 103 86 104 88 105 39 106
REMARK SMILES IDX 91 107 85 109 84 111 40 113 72 116 52 117 71 118 53 119
REMARK SMILES IDX 56 120 70 121 89 122 54 123 55 125 69 127 90 128 57 131
REMARK SMILES IDX 41 133 42 134 50 135 43 136 44 137 48 138 51 139 45 140
REMARK SMILES IDX 46 141 49 142 47 143 73 144 74 145 82 146 75 147 76 148
REMARK SMILES IDX 80 149 83 150 77 151 78 152 81 153 79 154 58 155 59 156
REMARK SMILES IDX 67 157 60 158 61 159 65 160 68 161 62 162 63 163 66 164
REMARK SMILES IDX 64 165
REMARK H PARENT 24 2 24 3 23 5 23 6 22 10 18 12 15 18 16 20 95 21 6 23 2 28
REMARK H PARENT 3 30 3 31 108 33 108 34 4 35 4 36 107 37 107 38 5 39 1 41 1 42
REMARK H PARENT 1 43 8 48 13 50 9 52 12 53 98 59 106 61 99 63 105 64 19 70
REMARK H PARENT 19 71 19 72 25 74 25 75 26 77 26 78 27 80 27 81 28 83 28 84
REMARK H PARENT 29 87 33 93 94 95 34 97 93 98 92 108 86 110 88 112 91 114
REMARK H PARENT 85 115 53 124 56 126 89 129 54 130 90 132
REMARK Flexibility Score: inf
ROOT
ATOM      1  C   UNL A   1      36.748  32.029  31.738  1.00  0.00    -0.036 C 
ATOM      2  H   UNL A   1      35.790  32.384  32.056  1.00  0.00     0.028 H 
ATOM      3  H   UNL A   1      36.679  31.281  30.976  1.00  0.00     0.028 H 
ENDROOT
BRANCH   1   4
ATOM      4  C   UNL A   1      37.445  31.376  32.939  1.00  0.00     0.017 C 
ATOM      5  H   UNL A   1      36.767  31.357  33.766  1.00  0.00     0.049 H 
ATOM      6  H   UNL A   1      37.735  30.385  32.658  1.00  0.00     0.049 H 
BRANCH   4   7
ATOM      7  N   UNL A   1      38.638  32.103  33.326  1.00  0.00    -0.356 N 
ATOM      8  C   UNL A   1      39.520  31.957  34.352  1.00  0.00     0.227 C 
ATOM      9  O   UNL A   1      40.407  32.818  34.426  1.00  0.00    -0.274 OA
ATOM     10  H   UNL A   1      38.854  32.853  32.726  1.00  0.00     0.163 HD
BRANCH   8  11
ATOM     11  C   UNL A   1      39.483  30.813  35.385  1.00  0.00     0.060 C 
ATOM     12  H   UNL A   1      38.989  29.998  34.898  1.00  0.00     0.045 H 
BRANCH  11  13
ATOM     13  C   UNL A   1      40.859  30.264  35.719  1.00  0.00    -0.035 A 
ATOM     14  C   UNL A   1      43.600  29.491  36.050  1.00  0.00     0.022 A 
ATOM     15  C   UNL A   1      43.008  30.533  36.780  1.00  0.00    -0.052 A 
ATOM     16  C   UNL A   1      42.726  28.721  35.232  1.00  0.00    -0.009 A 
ATOM     17  C   UNL A   1      41.655  30.837  36.692  1.00  0.00    -0.058 A 
ATOM     18  H   UNL A   1      43.602  31.097  37.408  1.00  0.00     0.063 H 
ATOM     19  C   UNL A   1      41.397  29.176  35.021  1.00  0.00    -0.050 A 
ATOM     20  H   UNL A   1      41.239  31.500  37.364  1.00  0.00     0.063 H 
ATOM     21  H   UNL A   1      40.808  28.687  34.330  1.00  0.00     0.063 H 
BRANCH  14  22
ATOM     22  C   UNL A   1      45.116  29.173  36.205  1.00  0.00     0.139 C 
ATOM     23  H   UNL A   1      45.340  28.845  35.211  1.00  0.00     0.107 H 
BRANCH  22  24
ATOM     24  N   UNL A   1      45.509  28.012  37.073  1.00  0.00    -0.325 N 
ATOM     25  C   UNL A   1      45.111  25.236  37.914  1.00  0.00    -0.034 C 
ATOM     26  C   UNL A   1      46.343  25.596  37.088  1.00  0.00    -0.001 C 
ATOM     27  C   UNL A   1      44.842  26.382  38.876  1.00  0.00    -0.001 C 
ATOM     28  H   UNL A   1      44.273  25.086  37.266  1.00  0.00     0.030 H 
ATOM     29  C   UNL A   1      46.200  26.937  36.354  1.00  0.00     0.078 C 
ATOM     30  H   UNL A   1      46.504  24.826  36.363  1.00  0.00     0.033 H 
ATOM     31  H   UNL A   1      47.167  25.687  37.764  1.00  0.00     0.033 H 
ATOM     32  C   UNL A   1      44.530  27.652  38.098  1.00  0.00     0.078 C 
ATOM     33  H   UNL A   1      45.707  26.543  39.485  1.00  0.00     0.033 H 
ATOM     34  H   UNL A   1      44.004  26.133  39.492  1.00  0.00     0.033 H 
ATOM     35  H   UNL A   1      45.661  26.754  35.449  1.00  0.00     0.092 H 
ATOM     36  H   UNL A   1      47.201  27.289  36.217  1.00  0.00     0.092 H 
ATOM     37  H   UNL A   1      43.582  27.523  37.619  1.00  0.00     0.092 H 
ATOM     38  H   UNL A   1      44.542  28.449  38.813  1.00  0.00     0.092 H 
ATOM     39  H   UNL A   1      46.261  28.350  37.674  1.00  0.00     0.348 HD
BRANCH  25  40
ATOM     40  C   UNL A   1      45.323  23.942  38.681  1.00  0.00    -0.062 C 
ATOM     41  H   UNL A   1      46.089  24.083  39.415  1.00  0.00     0.023 H 
ATOM     42  H   UNL A   1      45.618  23.169  38.002  1.00  0.00     0.023 H 
ATOM     43  H   UNL A   1      44.412  23.660  39.167  1.00  0.00     0.023 H 
ENDBRANCH  25  40
ENDBRANCH  22  24
BRANCH  22  44
ATOM     44  C   UNL A   1      45.970  30.410  36.553  1.00  0.00     0.014 A 
ATOM     45  C   UNL A   1      46.483  30.624  37.848  1.00  0.00    -0.050 A 
ATOM     46  C   UNL A   1      46.256  31.363  35.556  1.00  0.00    -0.050 A 
ATOM     47  C   UNL A   1      47.273  31.739  38.130  1.00  0.00    -0.026 A 
ATOM     48  H   UNL A   1      46.272  29.947  38.599  1.00  0.00     0.063 H 
ATOM     49  C   UNL A   1      47.012  32.499  35.851  1.00  0.00    -0.026 A 
ATOM     50  H   UNL A   1      45.903  31.220  34.597  1.00  0.00     0.063 H 
ATOM     51  C   UNL A   1      47.521  32.671  37.131  1.00  0.00     0.123 A 
ATOM     52  H   UNL A   1      47.669  31.871  39.074  1.00  0.00     0.065 H 
ATOM     53  H   UNL A   1      47.191  33.207  35.122  1.00  0.00     0.065 H 
ATOM     54  F   UNL A   1      48.264  33.751  37.406  1.00  0.00    -0.207 F 
ENDBRANCH  22  44
ENDBRANCH  14  22
BRANCH  16  55
ATOM     55  C   UNL A   1      43.101  27.424  34.633  1.00  0.00    -0.018 A 
ATOM     56  C   UNL A   1      43.821  27.350  33.432  1.00  0.00    -0.054 A 
ATOM     57  C   UNL A   1      42.694  26.221  35.234  1.00  0.00    -0.054 A 
ATOM     58  C   UNL A   1      44.155  26.113  32.870  1.00  0.00    -0.049 A 
ATOM     59  H   UNL A   1      44.108  28.219  32.955  1.00  0.00     0.063 H 
ATOM     60  C   UNL A   1      43.038  24.983  34.684  1.00  0.00    -0.049 A 
ATOM     61  H   UNL A   1      42.130  26.253  36.099  1.00  0.00     0.063 H 
ATOM     62  C   UNL A   1      43.781  24.917  33.499  1.00  0.00     0.056 A 
ATOM     63  H   UNL A   1      44.682  26.081  31.983  1.00  0.00     0.063 H 
ATOM     64  H   UNL A   1      42.743  24.114  35.155  1.00  0.00     0.063 H 
BRANCH  62  65
ATOM     65  C   UNL A   1      44.156  23.588  32.892  1.00  0.00     0.416 C 
ATOM     66  F   UNL A   1      44.169  23.624  31.530  1.00  0.00    -0.166 F 
ATOM     67  F   UNL A   1      45.396  23.170  33.267  1.00  0.00    -0.166 F 
ATOM     68  F   UNL A   1      43.306  22.578  33.231  1.00  0.00    -0.166 F 
ENDBRANCH  62  65
ENDBRANCH  16  55
ENDBRANCH  11  13
BRANCH  11  69
ATOM     69  C   UNL A   1      38.581  31.090  36.586  1.00  0.00    -0.049 C 
ATOM     70  H   UNL A   1      38.317  30.165  37.054  1.00  0.00     0.024 H 
ATOM     71  H   UNL A   1      37.693  31.589  36.258  1.00  0.00     0.024 H 
ATOM     72  H   UNL A   1      39.100  31.709  37.287  1.00  0.00     0.024 H 
ENDBRANCH  11  69
ENDBRANCH   8  11
ENDBRANCH   4   7
ENDBRANCH   1   4
BRANCH   1  73
ATOM     73  C   UNL A   1      37.519  33.205  31.135  1.00  0.00    -0.052 C 
ATOM     74  H   UNL A   1      38.561  33.051  31.321  1.00  0.00     0.027 H 
ATOM     75  H   UNL A   1      37.135  34.089  31.600  1.00  0.00     0.027 H 
BRANCH  73  76
ATOM     76  C   UNL A   1      37.325  33.391  29.625  1.00  0.00    -0.052 C 
ATOM     77  H   UNL A   1      37.674  32.506  29.135  1.00  0.00     0.027 H 
ATOM     78  H   UNL A   1      37.874  34.270  29.360  1.00  0.00     0.027 H 
BRANCH  76  79
ATOM     79  C   UNL A   1      35.880  33.641  29.181  1.00  0.00    -0.036 C 
ATOM     80  H   UNL A   1      35.716  34.697  29.154  1.00  0.00     0.028 H 
ATOM     81  H   UNL A   1      35.250  33.143  29.889  1.00  0.00     0.028 H 
BRANCH  79  82
ATOM     82  C   UNL A   1      35.542  33.067  27.809  1.00  0.00     0.018 C 
ATOM     83  H   UNL A   1      36.425  32.639  27.383  1.00  0.00     0.049 H 
ATOM     84  H   UNL A   1      35.170  33.861  27.194  1.00  0.00     0.049 H 
BRANCH  82  85
ATOM     85  N   UNL A   1      34.513  32.037  27.902  1.00  0.00    -0.352 N 
ATOM     86  C   UNL A   1      34.653  30.669  27.888  1.00  0.00     0.251 C 
ATOM     87  H   UNL A   1      33.591  32.367  27.986  1.00  0.00     0.163 HD
ATOM     88  O   UNL A   1      33.689  29.939  27.705  1.00  0.00    -0.269 OA
BRANCH  86  89
ATOM     89  C   UNL A   1      35.991  30.089  28.113  1.00  0.00     0.039 A 
ATOM     90  C   UNL A   1      36.965  30.145  27.115  1.00  0.00    -0.049 A 
ATOM     91  C   UNL A   1      36.273  29.496  29.341  1.00  0.00    -0.049 A 
ATOM     92  C   UNL A   1      38.256  29.679  27.389  1.00  0.00    -0.053 A 
ATOM     93  H   UNL A   1      36.737  30.528  26.185  1.00  0.00     0.063 H 
ATOM     94  C   UNL A   1      37.573  29.113  29.639  1.00  0.00    -0.053 A 
ATOM     95  H   UNL A   1      35.518  29.343  30.027  1.00  0.00     0.063 H 
ATOM     96  C   UNL A   1      38.582  29.203  28.671  1.00  0.00    -0.014 A 
ATOM     97  H   UNL A   1      38.972  29.684  26.647  1.00  0.00     0.063 H 
ATOM     98  H   UNL A   1      37.798  28.760  30.583  1.00  0.00     0.063 H 
BRANCH  96  99
ATOM     99  C   UNL A   1      39.958  28.794  29.053  1.00  0.00     0.031 A 
ATOM    100  C   UNL A   1      40.848  29.761  29.785  1.00  0.00     0.074 A 
ATOM    101  C   UNL A   1      40.451  27.614  28.628  1.00  0.00     0.049 A 
ATOM    102  N   UNL A   1      42.127  29.675  30.047  1.00  0.00    -0.248 NA
ATOM    103  C   UNL A   1      40.225  31.012  30.247  1.00  0.00    -0.034 C 
ATOM    104  C   UNL A   1      39.705  26.612  27.868  1.00  0.00    -0.036 A 
ATOM    105  N   UNL A   1      41.705  27.069  28.755  1.00  0.00    -0.354 N 
ATOM    106  C   UNL A   1      42.464  30.865  30.676  1.00  0.00     0.074 A 
ATOM    107  C   UNL A   1      41.272  31.683  30.705  1.00  0.00    -0.034 C 
ATOM    108  H   UNL A   1      39.233  31.294  30.220  1.00  0.00     0.065 H 
ATOM    109  C   UNL A   1      40.507  25.567  27.612  1.00  0.00    -0.036 A 
ATOM    110  H   UNL A   1      38.719  26.695  27.573  1.00  0.00     0.065 H 
ATOM    111  C   UNL A   1      41.839  25.846  28.143  1.00  0.00     0.049 A 
ATOM    112  H   UNL A   1      42.439  27.513  29.238  1.00  0.00     0.167 HD
ATOM    113  C   UNL A   1      43.653  31.230  31.207  1.00  0.00     0.037 A 
ATOM    114  H   UNL A   1      41.240  32.660  31.038  1.00  0.00     0.065 H 
ATOM    115  H   UNL A   1      40.228  24.704  27.120  1.00  0.00     0.065 H 
ATOM    116  C   UNL A   1      42.915  25.046  28.007  1.00  0.00     0.037 A 
ATOM    117  C   UNL A   1      44.824  30.395  31.211  1.00  0.00     0.049 A 
ATOM    118  C   UNL A   1      44.232  25.476  28.594  1.00  0.00     0.074 A 
ATOM    119  C   UNL A   1      46.053  30.642  31.794  1.00  0.00    -0.036 A 
ATOM    120  N   UNL A   1      44.909  29.151  30.602  1.00  0.00    -0.354 N 
ATOM    121  N   UNL A   1      44.523  26.577  29.243  1.00  0.00    -0.248 NA
ATOM    122  C   UNL A   1      45.370  24.559  28.431  1.00  0.00    -0.034 C 
ATOM    123  C   UNL A   1      46.902  29.578  31.485  1.00  0.00    -0.036 A 
ATOM    124  H   UNL A   1      46.300  31.470  32.358  1.00  0.00     0.065 H 
ATOM    125  C   UNL A   1      46.183  28.634  30.768  1.00  0.00     0.049 A 
ATOM    126  H   UNL A   1      44.175  28.703  30.124  1.00  0.00     0.167 HD
ATOM    127  C   UNL A   1      45.864  26.475  29.589  1.00  0.00     0.074 A 
ATOM    128  C   UNL A   1      46.332  25.203  29.080  1.00  0.00    -0.034 C 
ATOM    129  H   UNL A   1      45.410  23.652  27.940  1.00  0.00     0.065 H 
ATOM    130  H   UNL A   1      47.898  29.505  31.748  1.00  0.00     0.065 H 
ATOM    131  C   UNL A   1      46.633  27.358  30.269  1.00  0.00     0.037 A 
ATOM    132  H   UNL A   1      47.291  24.843  29.207  1.00  0.00     0.065 H 
BRANCH 113 133
ATOM    133  C   UNL A   1      43.755  32.588  31.843  1.00  0.00     0.064 A 
ATOM    134  C   UNL A   1      43.612  32.736  33.231  1.00  0.00     0.173 A 
ATOM    135  C   UNL A   1      43.925  33.750  31.075  1.00  0.00     0.173 A 
ATOM    136  F   UNL A   1      43.439  31.659  34.013  1.00  0.00    -0.203 F 
ATOM    137  C   UNL A   1      43.622  33.996  33.823  1.00  0.00     0.198 A 
ATOM    138  C   UNL A   1      43.972  35.005  31.674  1.00  0.00     0.198 A 
ATOM    139  F   UNL A   1      44.076  33.664  29.744  1.00  0.00    -0.203 F 
ATOM    140  F   UNL A   1      43.446  34.114  35.147  1.00  0.00    -0.200 F 
ATOM    141  C   UNL A   1      43.809  35.129  33.045  1.00  0.00     0.200 A 
ATOM    142  F   UNL A   1      44.179  36.096  30.923  1.00  0.00    -0.200 F 
ATOM    143  F   UNL A   1      43.834  36.340  33.619  1.00  0.00    -0.200 F 
ENDBRANCH 113 133
BRANCH 116 144
ATOM    144  C   UNL A   1      42.769  23.743  27.307  1.00  0.00     0.064 A 
ATOM    145  C   UNL A   1      42.293  22.602  27.971  1.00  0.00     0.173 A 
ATOM    146  C   UNL A   1      43.163  23.602  25.969  1.00  0.00     0.173 A 
ATOM    147  F   UNL A   1      41.910  22.682  29.253  1.00  0.00    -0.203 F 
ATOM    148  C   UNL A   1      42.244  21.364  27.331  1.00  0.00     0.198 A 
ATOM    149  C   UNL A   1      43.089  22.369  25.323  1.00  0.00     0.198 A 
ATOM    150  F   UNL A   1      43.608  24.667  25.288  1.00  0.00    -0.203 F 
ATOM    151  F   UNL A   1      41.830  20.281  28.002  1.00  0.00    -0.200 F 
ATOM    152  C   UNL A   1      42.640  21.250  26.007  1.00  0.00     0.200 A 
ATOM    153  F   UNL A   1      43.452  22.267  24.038  1.00  0.00    -0.200 F 
ATOM    154  F   UNL A   1      42.592  20.060  25.392  1.00  0.00    -0.200 F 
ENDBRANCH 116 144
BRANCH 131 155
ATOM    155  C   UNL A   1      48.062  26.993  30.546  1.00  0.00     0.064 A 
ATOM    156  C   UNL A   1      49.075  27.386  29.656  1.00  0.00     0.173 A 
ATOM    157  C   UNL A   1      48.408  26.136  31.600  1.00  0.00     0.173 A 
ATOM    158  F   UNL A   1      48.791  28.197  28.625  1.00  0.00    -0.203 F 
ATOM    159  C   UNL A   1      50.373  26.904  29.790  1.00  0.00     0.198 A 
ATOM    160  C   UNL A   1      49.715  25.679  31.747  1.00  0.00     0.198 A 
ATOM    161  F   UNL A   1      47.478  25.742  32.482  1.00  0.00    -0.203 F 
ATOM    162  F   UNL A   1      51.309  27.246  28.895  1.00  0.00    -0.200 F 
ATOM    163  C   UNL A   1      50.691  26.049  30.834  1.00  0.00     0.200 A 
ATOM    164  F   UNL A   1      50.026  24.867  32.768  1.00  0.00    -0.200 F 
ATOM    165  F   UNL A   1      51.939  25.576  30.957  1.00  0.00    -0.200 F 
ENDBRANCH 131 155
ENDBRANCH  96  99
ENDBRANCH  86  89
ENDBRANCH  82  85
ENDBRANCH  79  82
ENDBRANCH  76  79
ENDBRANCH  73  76
ENDBRANCH   1  73
TORSDOF 21
ENDMDL
MODEL 7
REMARK VINA RESULT:      -8.3      5.756     13.084
REMARK SMILES CC1CC[NH+]([C@H](c2ccc(F)cc2)c2ccc([C@@H](C)C(=O)NCCCCCCNC(=O)c3ccc(-c4c5nc(c(-c6c(F)c(F)c(F)c(F)c6F)c6ccc([nH]6)c(-c6c(F)c(F)c(F)c(F)c6F)c6nc(c(-c7c(F)c(F)c(F)c(F)c7F)c7ccc4[nH]7)C=C6)C=C5)cc3)cc2-c2ccc(C(F)(F)F)cc2)CC1
REMARK SMILES IDX 24 1 23 4 22 7 20 8 21 9 18 11 17 13 14 14 15 15 96 16 16 17
REMARK SMILES IDX 95 19 6 22 5 24 2 25 3 26 108 27 4 29 107 32 1 40 7 44 8 45
REMARK SMILES IDX 13 46 9 47 12 49 10 51 11 54 97 55 98 56 106 57 99 58 105 60
REMARK SMILES IDX 100 62 101 65 102 66 103 67 104 68 19 69 25 73 26 76 27 79
REMARK SMILES IDX 28 82 29 85 30 86 31 88 32 89 33 90 94 91 34 92 93 94 35 96
REMARK SMILES IDX 36 99 37 100 87 101 38 102 92 103 86 104 88 105 39 106
REMARK SMILES IDX 91 107 85 109 84 111 40 113 72 116 52 117 71 118 53 119
REMARK SMILES IDX 56 120 70 121 89 122 54 123 55 125 69 127 90 128 57 131
REMARK SMILES IDX 41 133 42 134 50 135 43 136 44 137 48 138 51 139 45 140
REMARK SMILES IDX 46 141 49 142 47 143 73 144 74 145 82 146 75 147 76 148
REMARK SMILES IDX 80 149 83 150 77 151 78 152 81 153 79 154 58 155 59 156
REMARK SMILES IDX 67 157 60 158 61 159 65 160 68 161 62 162 63 163 66 164
REMARK SMILES IDX 64 165
REMARK H PARENT 24 2 24 3 23 5 23 6 22 10 18 12 15 18 16 20 95 21 6 23 2 28
REMARK H PARENT 3 30 3 31 108 33 108 34 4 35 4 36 107 37 107 38 5 39 1 41 1 42
REMARK H PARENT 1 43 8 48 13 50 9 52 12 53 98 59 106 61 99 63 105 64 19 70
REMARK H PARENT 19 71 19 72 25 74 25 75 26 77 26 78 27 80 27 81 28 83 28 84
REMARK H PARENT 29 87 33 93 94 95 34 97 93 98 92 108 86 110 88 112 91 114
REMARK H PARENT 85 115 53 124 56 126 89 129 54 130 90 132
REMARK Flexibility Score: inf
ROOT
ATOM      1  C   UNL A   1      42.714  22.681  27.674  1.00  0.00    -0.036 C 
ATOM      2  H   UNL A   1      43.353  22.511  28.515  1.00  0.00     0.028 H 
ATOM      3  H   UNL A   1      42.712  23.703  27.357  1.00  0.00     0.028 H 
ENDROOT
BRANCH   1   4
ATOM      4  C   UNL A   1      41.275  22.341  28.083  1.00  0.00     0.017 C 
ATOM      5  H   UNL A   1      41.285  21.909  29.062  1.00  0.00     0.049 H 
ATOM      6  H   UNL A   1      40.701  23.244  28.069  1.00  0.00     0.049 H 
BRANCH   4   7
ATOM      7  N   UNL A   1      40.663  21.403  27.163  1.00  0.00    -0.356 N 
ATOM      8  C   UNL A   1      39.641  21.513  26.270  1.00  0.00     0.227 C 
ATOM      9  O   UNL A   1      39.324  20.470  25.685  1.00  0.00    -0.274 OA
ATOM     10  H   UNL A   1      41.068  20.506  27.189  1.00  0.00     0.163 HD
BRANCH   8  11
ATOM     11  C   UNL A   1      38.892  22.822  25.952  1.00  0.00     0.060 C 
ATOM     12  H   UNL A   1      39.280  23.158  25.012  1.00  0.00     0.045 H 
BRANCH  11  13
ATOM     13  C   UNL A   1      37.412  22.613  25.684  1.00  0.00    -0.035 A 
ATOM     14  C   UNL A   1      34.740  22.056  24.807  1.00  0.00     0.022 A 
ATOM     15  C   UNL A   1      35.509  21.139  25.539  1.00  0.00    -0.052 A 
ATOM     16  C   UNL A   1      35.296  23.356  24.646  1.00  0.00    -0.009 A 
ATOM     17  C   UNL A   1      36.762  21.450  26.051  1.00  0.00    -0.058 A 
ATOM     18  H   UNL A   1      35.127  20.194  25.704  1.00  0.00     0.063 H 
ATOM     19  C   UNL A   1      36.649  23.578  25.013  1.00  0.00    -0.050 A 
ATOM     20  H   UNL A   1      37.216  20.802  26.715  1.00  0.00     0.063 H 
ATOM     21  H   UNL A   1      37.087  24.483  24.778  1.00  0.00     0.063 H 
BRANCH  14  22
ATOM     22  C   UNL A   1      33.328  21.666  24.280  1.00  0.00     0.139 C 
ATOM     23  H   UNL A   1      33.404  22.015  23.270  1.00  0.00     0.107 H 
BRANCH  22  24
ATOM     24  N   UNL A   1      32.139  22.399  24.834  1.00  0.00    -0.325 N 
ATOM     25  C   UNL A   1      30.862  24.912  25.624  1.00  0.00    -0.034 C 
ATOM     26  C   UNL A   1      30.380  24.193  24.367  1.00  0.00    -0.001 C 
ATOM     27  C   UNL A   1      31.203  23.857  26.664  1.00  0.00    -0.001 C 
ATOM     28  H   UNL A   1      31.723  25.504  25.394  1.00  0.00     0.030 H 
ATOM     29  C   UNL A   1      31.396  23.173  23.835  1.00  0.00     0.078 C 
ATOM     30  H   UNL A   1      30.198  24.922  23.605  1.00  0.00     0.033 H 
ATOM     31  H   UNL A   1      29.492  23.655  24.626  1.00  0.00     0.033 H 
ATOM     32  C   UNL A   1      32.339  22.979  26.162  1.00  0.00     0.078 C 
ATOM     33  H   UNL A   1      30.341  23.250  26.848  1.00  0.00     0.033 H 
ATOM     34  H   UNL A   1      31.507  24.342  27.568  1.00  0.00     0.033 H 
ATOM     35  H   UNL A   1      32.109  23.706  23.242  1.00  0.00     0.092 H 
ATOM     36  H   UNL A   1      30.815  22.453  23.298  1.00  0.00     0.092 H 
ATOM     37  H   UNL A   1      33.229  23.573  26.132  1.00  0.00     0.092 H 
ATOM     38  H   UNL A   1      32.400  22.154  26.841  1.00  0.00     0.092 H 
ATOM     39  H   UNL A   1      31.450  21.684  25.069  1.00  0.00     0.348 HD
BRANCH  25  40
ATOM     40  C   UNL A   1      29.798  25.856  26.160  1.00  0.00    -0.062 C 
ATOM     41  H   UNL A   1      29.126  26.121  25.370  1.00  0.00     0.023 H 
ATOM     42  H   UNL A   1      30.266  26.740  26.541  1.00  0.00     0.023 H 
ATOM     43  H   UNL A   1      29.255  25.374  26.944  1.00  0.00     0.023 H 
ENDBRANCH  25  40
ENDBRANCH  22  24
BRANCH  22  44
ATOM     44  C   UNL A   1      33.067  20.145  24.289  1.00  0.00     0.014 A 
ATOM     45  C   UNL A   1      32.859  19.416  23.101  1.00  0.00    -0.050 A 
ATOM     46  C   UNL A   1      33.035  19.451  25.513  1.00  0.00    -0.050 A 
ATOM     47  C   UNL A   1      32.648  18.036  23.135  1.00  0.00    -0.026 A 
ATOM     48  H   UNL A   1      32.861  19.908  22.193  1.00  0.00     0.063 H 
ATOM     49  C   UNL A   1      32.783  18.078  25.548  1.00  0.00    -0.026 A 
ATOM     50  H   UNL A   1      33.199  19.962  26.395  1.00  0.00     0.063 H 
ATOM     51  C   UNL A   1      32.603  17.383  24.360  1.00  0.00     0.123 A 
ATOM     52  H   UNL A   1      32.527  17.507  22.259  1.00  0.00     0.065 H 
ATOM     53  H   UNL A   1      32.730  17.582  26.452  1.00  0.00     0.065 H 
ATOM     54  F   UNL A   1      32.382  16.062  24.394  1.00  0.00    -0.207 F 
ENDBRANCH  22  44
ENDBRANCH  14  22
BRANCH  16  55
ATOM     55  C   UNL A   1      34.522  24.522  24.173  1.00  0.00    -0.018 A 
ATOM     56  C   UNL A   1      34.085  24.624  22.844  1.00  0.00    -0.054 A 
ATOM     57  C   UNL A   1      34.249  25.591  25.043  1.00  0.00    -0.054 A 
ATOM     58  C   UNL A   1      33.366  25.743  22.410  1.00  0.00    -0.049 A 
ATOM     59  H   UNL A   1      34.296  23.864  22.179  1.00  0.00     0.063 H 
ATOM     60  C   UNL A   1      33.519  26.703  24.616  1.00  0.00    -0.049 A 
ATOM     61  H   UNL A   1      34.595  25.554  26.015  1.00  0.00     0.063 H 
ATOM     62  C   UNL A   1      33.062  26.786  23.296  1.00  0.00     0.056 A 
ATOM     63  H   UNL A   1      33.057  25.800  21.427  1.00  0.00     0.063 H 
ATOM     64  H   UNL A   1      33.316  27.468  25.279  1.00  0.00     0.063 H 
BRANCH  62  65
ATOM     65  C   UNL A   1      32.275  27.983  22.820  1.00  0.00     0.416 C 
ATOM     66  F   UNL A   1      31.748  28.701  23.849  1.00  0.00    -0.166 F 
ATOM     67  F   UNL A   1      33.032  28.857  22.100  1.00  0.00    -0.166 F 
ATOM     68  F   UNL A   1      31.224  27.654  22.016  1.00  0.00    -0.166 F 
ENDBRANCH  62  65
ENDBRANCH  16  55
ENDBRANCH  11  13
BRANCH  11  69
ATOM     69  C   UNL A   1      39.229  23.976  26.894  1.00  0.00    -0.049 C 
ATOM     70  H   UNL A   1      38.839  24.889  26.494  1.00  0.00     0.024 H 
ATOM     71  H   UNL A   1      40.291  24.057  26.993  1.00  0.00     0.024 H 
ATOM     72  H   UNL A   1      38.794  23.792  27.853  1.00  0.00     0.024 H 
ENDBRANCH  11  69
ENDBRANCH   8  11
ENDBRANCH   4   7
ENDBRANCH   1   4
BRANCH   1  73
ATOM     73  C   UNL A   1      43.238  21.854  26.498  1.00  0.00    -0.052 C 
ATOM     74  H   UNL A   1      42.720  20.918  26.492  1.00  0.00     0.027 H 
ATOM     75  H   UNL A   1      44.292  21.750  26.646  1.00  0.00     0.027 H 
BRANCH  73  76
ATOM     76  C   UNL A   1      43.056  22.509  25.123  1.00  0.00    -0.052 C 
ATOM     77  H   UNL A   1      42.335  23.293  25.222  1.00  0.00     0.027 H 
ATOM     78  H   UNL A   1      42.748  21.728  24.459  1.00  0.00     0.027 H 
BRANCH  76  79
ATOM     79  C   UNL A   1      44.328  23.108  24.515  1.00  0.00    -0.036 C 
ATOM     80  H   UNL A   1      44.278  22.993  23.453  1.00  0.00     0.028 H 
ATOM     81  H   UNL A   1      45.154  22.582  24.949  1.00  0.00     0.028 H 
BRANCH  79  82
ATOM     82  C   UNL A   1      44.533  24.586  24.829  1.00  0.00     0.018 C 
ATOM     83  H   UNL A   1      43.919  24.853  25.665  1.00  0.00     0.049 H 
ATOM     84  H   UNL A   1      44.263  25.156  23.964  1.00  0.00     0.049 H 
BRANCH  82  85
ATOM     85  N   UNL A   1      45.926  24.874  25.152  1.00  0.00    -0.352 N 
ATOM     86  C   UNL A   1      46.442  25.849  25.973  1.00  0.00     0.251 C 
ATOM     87  H   UNL A   1      46.589  24.288  24.723  1.00  0.00     0.163 HD
ATOM     88  O   UNL A   1      47.629  26.138  25.938  1.00  0.00    -0.269 OA
BRANCH  86  89
ATOM     89  C   UNL A   1      45.537  26.537  26.914  1.00  0.00     0.039 A 
ATOM     90  C   UNL A   1      44.728  25.806  27.785  1.00  0.00    -0.049 A 
ATOM     91  C   UNL A   1      45.512  27.929  26.930  1.00  0.00    -0.049 A 
ATOM     92  C   UNL A   1      43.955  26.482  28.735  1.00  0.00    -0.053 A 
ATOM     93  H   UNL A   1      44.701  24.776  27.729  1.00  0.00     0.063 H 
ATOM     94  C   UNL A   1      44.812  28.594  27.927  1.00  0.00    -0.053 A 
ATOM     95  H   UNL A   1      46.012  28.465  26.204  1.00  0.00     0.063 H 
ATOM     96  C   UNL A   1      44.028  27.881  28.844  1.00  0.00    -0.014 A 
ATOM     97  H   UNL A   1      43.328  25.951  29.359  1.00  0.00     0.063 H 
ATOM     98  H   UNL A   1      44.870  29.623  27.993  1.00  0.00     0.063 H 
BRANCH  96  99
ATOM     99  C   UNL A   1      43.315  28.646  29.900  1.00  0.00     0.031 A 
ATOM    100  C   UNL A   1      43.911  28.753  31.276  1.00  0.00     0.074 A 
ATOM    101  C   UNL A   1      42.079  29.127  29.661  1.00  0.00     0.049 A 
ATOM    102  N   UNL A   1      43.374  29.210  32.379  1.00  0.00    -0.248 NA
ATOM    103  C   UNL A   1      45.279  28.236  31.446  1.00  0.00    -0.034 C 
ATOM    104  C   UNL A   1      41.371  29.042  28.385  1.00  0.00    -0.036 A 
ATOM    105  N   UNL A   1      41.188  29.759  30.494  1.00  0.00    -0.354 N 
ATOM    106  C   UNL A   1      44.325  29.012  33.371  1.00  0.00     0.074 A 
ATOM    107  C   UNL A   1      45.448  28.340  32.756  1.00  0.00    -0.034 C 
ATOM    108  H   UNL A   1      45.935  27.884  30.731  1.00  0.00     0.065 H 
ATOM    109  C   UNL A   1      40.166  29.619  28.511  1.00  0.00    -0.036 A 
ATOM    110  H   UNL A   1      41.740  28.609  27.523  1.00  0.00     0.065 H 
ATOM    111  C   UNL A   1      39.992  30.066  29.890  1.00  0.00     0.049 A 
ATOM    112  H   UNL A   1      41.387  29.973  31.434  1.00  0.00     0.167 HD
ATOM    113  C   UNL A   1      44.276  29.383  34.671  1.00  0.00     0.037 A 
ATOM    114  H   UNL A   1      46.271  27.987  33.270  1.00  0.00     0.065 H 
ATOM    115  H   UNL A   1      39.473  29.729  27.754  1.00  0.00     0.065 H 
ATOM    116  C   UNL A   1      38.874  30.626  30.392  1.00  0.00     0.037 A 
ATOM    117  C   UNL A   1      43.172  30.087  35.266  1.00  0.00     0.049 A 
ATOM    118  C   UNL A   1      38.835  31.020  31.844  1.00  0.00     0.074 A 
ATOM    119  C   UNL A   1      43.061  30.577  36.554  1.00  0.00    -0.036 A 
ATOM    120  N   UNL A   1      41.989  30.401  34.612  1.00  0.00    -0.354 N 
ATOM    121  N   UNL A   1      39.764  30.885  32.758  1.00  0.00    -0.248 NA
ATOM    122  C   UNL A   1      37.597  31.641  32.336  1.00  0.00    -0.034 C 
ATOM    123  C   UNL A   1      41.789  31.132  36.699  1.00  0.00    -0.036 A 
ATOM    124  H   UNL A   1      43.792  30.539  37.282  1.00  0.00     0.065 H 
ATOM    125  C   UNL A   1      41.130  31.050  35.482  1.00  0.00     0.049 A 
ATOM    126  H   UNL A   1      41.791  30.193  33.670  1.00  0.00     0.167 HD
ATOM    127  C   UNL A   1      39.237  31.426  33.923  1.00  0.00     0.074 A 
ATOM    128  C   UNL A   1      37.906  31.895  33.602  1.00  0.00    -0.034 C 
ATOM    129  H   UNL A   1      36.717  31.830  31.831  1.00  0.00     0.065 H 
ATOM    130  H   UNL A   1      41.403  31.536  37.567  1.00  0.00     0.065 H 
ATOM    131  C   UNL A   1      39.811  31.526  35.146  1.00  0.00     0.037 A 
ATOM    132  H   UNL A   1      37.278  32.367  34.272  1.00  0.00     0.065 H 
BRANCH 113 133
ATOM    133  C   UNL A   1      45.452  29.049  35.545  1.00  0.00     0.064 A 
ATOM    134  C   UNL A   1      45.472  27.857  36.286  1.00  0.00     0.173 A 
ATOM    135  C   UNL A   1      46.525  29.939  35.705  1.00  0.00     0.173 A 
ATOM    136  F   UNL A   1      44.468  26.975  36.177  1.00  0.00    -0.203 F 
ATOM    137  C   UNL A   1      46.517  27.575  37.162  1.00  0.00     0.198 A 
ATOM    138  C   UNL A   1      47.586  29.636  36.555  1.00  0.00     0.198 A 
ATOM    139  F   UNL A   1      46.559  31.088  35.015  1.00  0.00    -0.203 F 
ATOM    140  F   UNL A   1      46.496  26.447  37.886  1.00  0.00    -0.200 F 
ATOM    141  C   UNL A   1      47.576  28.462  37.291  1.00  0.00     0.200 A 
ATOM    142  F   UNL A   1      48.620  30.482  36.657  1.00  0.00    -0.200 F 
ATOM    143  F   UNL A   1      48.588  28.181  38.123  1.00  0.00    -0.200 F 
ENDBRANCH 113 133
BRANCH 116 144
ATOM    144  C   UNL A   1      37.716  30.869  29.494  1.00  0.00     0.064 A 
ATOM    145  C   UNL A   1      37.447  32.143  28.969  1.00  0.00     0.173 A 
ATOM    146  C   UNL A   1      36.816  29.837  29.190  1.00  0.00     0.173 A 
ATOM    147  F   UNL A   1      38.272  33.166  29.236  1.00  0.00    -0.203 F 
ATOM    148  C   UNL A   1      36.309  32.381  28.201  1.00  0.00     0.198 A 
ATOM    149  C   UNL A   1      35.692  30.071  28.400  1.00  0.00     0.198 A 
ATOM    150  F   UNL A   1      37.039  28.599  29.653  1.00  0.00    -0.203 F 
ATOM    151  F   UNL A   1      36.052  33.617  27.753  1.00  0.00    -0.200 F 
ATOM    152  C   UNL A   1      35.434  31.344  27.915  1.00  0.00     0.200 A 
ATOM    153  F   UNL A   1      34.861  29.062  28.108  1.00  0.00    -0.200 F 
ATOM    154  F   UNL A   1      34.340  31.573  27.175  1.00  0.00    -0.200 F 
ENDBRANCH 116 144
BRANCH 131 155
ATOM    155  C   UNL A   1      39.035  32.191  36.245  1.00  0.00     0.064 A 
ATOM    156  C   UNL A   1      39.288  33.532  36.575  1.00  0.00     0.173 A 
ATOM    157  C   UNL A   1      38.154  31.468  37.060  1.00  0.00     0.173 A 
ATOM    158  F   UNL A   1      40.132  34.263  35.830  1.00  0.00    -0.203 F 
ATOM    159  C   UNL A   1      38.719  34.112  37.703  1.00  0.00     0.198 A 
ATOM    160  C   UNL A   1      37.563  32.061  38.173  1.00  0.00     0.198 A 
ATOM    161  F   UNL A   1      37.872  30.187  36.779  1.00  0.00    -0.203 F 
ATOM    162  F   UNL A   1      39.022  35.376  38.032  1.00  0.00    -0.200 F 
ATOM    163  C   UNL A   1      37.858  33.376  38.503  1.00  0.00     0.200 A 
ATOM    164  F   UNL A   1      36.717  31.353  38.935  1.00  0.00    -0.200 F 
ATOM    165  F   UNL A   1      37.318  33.931  39.597  1.00  0.00    -0.200 F 
ENDBRANCH 131 155
ENDBRANCH  96  99
ENDBRANCH  86  89
ENDBRANCH  82  85
ENDBRANCH  79  82
ENDBRANCH  76  79
ENDBRANCH  73  76
ENDBRANCH   1  73
TORSDOF 21
ENDMDL
MODEL 8
REMARK VINA RESULT:      -8.3      5.745     12.946
REMARK SMILES CC1CC[NH+]([C@H](c2ccc(F)cc2)c2ccc([C@@H](C)C(=O)NCCCCCCNC(=O)c3ccc(-c4c5nc(c(-c6c(F)c(F)c(F)c(F)c6F)c6ccc([nH]6)c(-c6c(F)c(F)c(F)c(F)c6F)c6nc(c(-c7c(F)c(F)c(F)c(F)c7F)c7ccc4[nH]7)C=C6)C=C5)cc3)cc2-c2ccc(C(F)(F)F)cc2)CC1
REMARK SMILES IDX 24 1 23 4 22 7 20 8 21 9 18 11 17 13 14 14 15 15 96 16 16 17
REMARK SMILES IDX 95 19 6 22 5 24 2 25 3 26 108 27 4 29 107 32 1 40 7 44 8 45
REMARK SMILES IDX 13 46 9 47 12 49 10 51 11 54 97 55 98 56 106 57 99 58 105 60
REMARK SMILES IDX 100 62 101 65 102 66 103 67 104 68 19 69 25 73 26 76 27 79
REMARK SMILES IDX 28 82 29 85 30 86 31 88 32 89 33 90 94 91 34 92 93 94 35 96
REMARK SMILES IDX 36 99 37 100 87 101 38 102 92 103 86 104 88 105 39 106
REMARK SMILES IDX 91 107 85 109 84 111 40 113 72 116 52 117 71 118 53 119
REMARK SMILES IDX 56 120 70 121 89 122 54 123 55 125 69 127 90 128 57 131
REMARK SMILES IDX 41 133 42 134 50 135 43 136 44 137 48 138 51 139 45 140
REMARK SMILES IDX 46 141 49 142 47 143 73 144 74 145 82 146 75 147 76 148
REMARK SMILES IDX 80 149 83 150 77 151 78 152 81 153 79 154 58 155 59 156
REMARK SMILES IDX 67 157 60 158 61 159 65 160 68 161 62 162 63 163 66 164
REMARK SMILES IDX 64 165
REMARK H PARENT 24 2 24 3 23 5 23 6 22 10 18 12 15 18 16 20 95 21 6 23 2 28
REMARK H PARENT 3 30 3 31 108 33 108 34 4 35 4 36 107 37 107 38 5 39 1 41 1 42
REMARK H PARENT 1 43 8 48 13 50 9 52 12 53 98 59 106 61 99 63 105 64 19 70
REMARK H PARENT 19 71 19 72 25 74 25 75 26 77 26 78 27 80 27 81 28 83 28 84
REMARK H PARENT 29 87 33 93 94 95 34 97 93 98 92 108 86 110 88 112 91 114
REMARK H PARENT 85 115 53 124 56 126 89 129 54 130 90 132
REMARK Flexibility Score: inf
ROOT
ATOM      1  C   UNL A   1      42.413  22.331  27.971  1.00  0.00    -0.036 C 
ATOM      2  H   UNL A   1      42.879  21.779  28.761  1.00  0.00     0.028 H 
ATOM      3  H   UNL A   1      42.665  23.370  27.989  1.00  0.00     0.028 H 
ENDROOT
BRANCH   1   4
ATOM      4  C   UNL A   1      40.892  22.241  28.152  1.00  0.00     0.017 C 
ATOM      5  H   UNL A   1      40.680  21.734  29.070  1.00  0.00     0.049 H 
ATOM      6  H   UNL A   1      40.497  23.236  28.164  1.00  0.00     0.049 H 
BRANCH   4   7
ATOM      7  N   UNL A   1      40.264  21.520  27.062  1.00  0.00    -0.356 N 
ATOM      8  C   UNL A   1      39.267  21.838  26.192  1.00  0.00     0.227 C 
ATOM      9  O   UNL A   1      38.922  20.938  25.416  1.00  0.00    -0.274 OA
ATOM     10  H   UNL A   1      40.634  20.618  26.923  1.00  0.00     0.163 HD
BRANCH   8  11
ATOM     11  C   UNL A   1      38.574  23.213  26.117  1.00  0.00     0.060 C 
ATOM     12  H   UNL A   1      38.904  23.655  25.200  1.00  0.00     0.045 H 
BRANCH  11  13
ATOM     13  C   UNL A   1      37.068  23.116  25.958  1.00  0.00    -0.035 A 
ATOM     14  C   UNL A   1      34.299  22.914  25.239  1.00  0.00     0.022 A 
ATOM     15  C   UNL A   1      35.102  21.794  25.501  1.00  0.00    -0.052 A 
ATOM     16  C   UNL A   1      34.887  24.184  25.498  1.00  0.00    -0.009 A 
ATOM     17  C   UNL A   1      36.413  21.898  25.948  1.00  0.00    -0.058 A 
ATOM     18  H   UNL A   1      34.703  20.853  25.355  1.00  0.00     0.063 H 
ATOM     19  C   UNL A   1      36.279  24.258  25.769  1.00  0.00    -0.050 A 
ATOM     20  H   UNL A   1      36.906  21.054  26.279  1.00  0.00     0.063 H 
ATOM     21  H   UNL A   1      36.726  25.186  25.829  1.00  0.00     0.063 H 
BRANCH  14  22
ATOM     22  C   UNL A   1      32.826  22.742  24.766  1.00  0.00     0.139 C 
ATOM     23  H   UNL A   1      32.310  22.992  25.670  1.00  0.00     0.107 H 
BRANCH  22  24
ATOM     24  N   UNL A   1      32.346  21.357  24.438  1.00  0.00    -0.325 N 
ATOM     25  C   UNL A   1      32.934  18.595  23.665  1.00  0.00    -0.034 C 
ATOM     26  C   UNL A   1      32.471  18.889  25.089  1.00  0.00    -0.001 C 
ATOM     27  C   UNL A   1      32.170  19.516  22.727  1.00  0.00    -0.001 C 
ATOM     28  H   UNL A   1      33.987  18.767  23.585  1.00  0.00     0.030 H 
ATOM     29  C   UNL A   1      32.633  20.365  25.479  1.00  0.00     0.078 C 
ATOM     30  H   UNL A   1      33.048  18.293  25.766  1.00  0.00     0.033 H 
ATOM     31  H   UNL A   1      31.428  18.657  25.143  1.00  0.00     0.033 H 
ATOM     32  C   UNL A   1      32.502  20.967  23.037  1.00  0.00     0.078 C 
ATOM     33  H   UNL A   1      31.119  19.358  22.854  1.00  0.00     0.033 H 
ATOM     34  H   UNL A   1      32.452  19.299  21.718  1.00  0.00     0.033 H 
ATOM     35  H   UNL A   1      33.646  20.507  25.792  1.00  0.00     0.092 H 
ATOM     36  H   UNL A   1      31.901  20.536  26.240  1.00  0.00     0.092 H 
ATOM     37  H   UNL A   1      33.521  21.142  22.757  1.00  0.00     0.092 H 
ATOM     38  H   UNL A   1      31.801  21.558  22.485  1.00  0.00     0.092 H 
ATOM     39  H   UNL A   1      31.327  21.391  24.487  1.00  0.00     0.348 HD
BRANCH  25  40
ATOM     40  C   UNL A   1      32.687  17.142  23.295  1.00  0.00    -0.062 C 
ATOM     41  H   UNL A   1      31.696  17.036  22.905  1.00  0.00     0.023 H 
ATOM     42  H   UNL A   1      32.795  16.529  24.166  1.00  0.00     0.023 H 
ATOM     43  H   UNL A   1      33.396  16.836  22.555  1.00  0.00     0.023 H 
ENDBRANCH  25  40
ENDBRANCH  22  24
BRANCH  22  44
ATOM     44  C   UNL A   1      32.423  23.723  23.645  1.00  0.00     0.014 A 
ATOM     45  C   UNL A   1      31.240  24.488  23.711  1.00  0.00    -0.050 A 
ATOM     46  C   UNL A   1      33.252  23.872  22.517  1.00  0.00    -0.050 A 
ATOM     47  C   UNL A   1      30.911  25.386  22.694  1.00  0.00    -0.026 A 
ATOM     48  H   UNL A   1      30.609  24.382  24.521  1.00  0.00     0.063 H 
ATOM     49  C   UNL A   1      32.899  24.740  21.481  1.00  0.00    -0.026 A 
ATOM     50  H   UNL A   1      34.130  23.333  22.454  1.00  0.00     0.063 H 
ATOM     51  C   UNL A   1      31.739  25.495  21.585  1.00  0.00     0.123 A 
ATOM     52  H   UNL A   1      30.059  25.963  22.766  1.00  0.00     0.065 H 
ATOM     53  H   UNL A   1      33.497  24.820  20.644  1.00  0.00     0.065 H 
ATOM     54  F   UNL A   1      31.413  26.343  20.600  1.00  0.00    -0.207 F 
ENDBRANCH  22  44
ENDBRANCH  14  22
BRANCH  16  55
ATOM     55  C   UNL A   1      34.116  25.442  25.566  1.00  0.00    -0.018 A 
ATOM     56  C   UNL A   1      33.108  25.635  26.522  1.00  0.00    -0.054 A 
ATOM     57  C   UNL A   1      34.344  26.465  24.630  1.00  0.00    -0.054 A 
ATOM     58  C   UNL A   1      32.377  26.828  26.563  1.00  0.00    -0.049 A 
ATOM     59  H   UNL A   1      32.902  24.889  27.204  1.00  0.00     0.063 H 
ATOM     60  C   UNL A   1      33.626  27.663  24.677  1.00  0.00    -0.049 A 
ATOM     61  H   UNL A   1      35.055  26.327  23.893  1.00  0.00     0.063 H 
ATOM     62  C   UNL A   1      32.640  27.860  25.651  1.00  0.00     0.056 A 
ATOM     63  H   UNL A   1      31.637  26.948  27.272  1.00  0.00     0.063 H 
ATOM     64  H   UNL A   1      33.824  28.406  23.989  1.00  0.00     0.063 H 
BRANCH  62  65
ATOM     65  C   UNL A   1      31.855  29.147  25.711  1.00  0.00     0.416 C 
ATOM     66  F   UNL A   1      32.561  30.210  25.239  1.00  0.00    -0.166 F 
ATOM     67  F   UNL A   1      30.710  29.099  24.975  1.00  0.00    -0.166 F 
ATOM     68  F   UNL A   1      31.469  29.486  26.974  1.00  0.00    -0.166 F 
ENDBRANCH  62  65
ENDBRANCH  16  55
ENDBRANCH  11  13
BRANCH  11  69
ATOM     69  C   UNL A   1      39.057  24.210  27.170  1.00  0.00    -0.049 C 
ATOM     70  H   UNL A   1      39.863  23.778  27.726  1.00  0.00     0.024 H 
ATOM     71  H   UNL A   1      38.252  24.445  27.834  1.00  0.00     0.024 H 
ATOM     72  H   UNL A   1      39.394  25.103  26.688  1.00  0.00     0.024 H 
ENDBRANCH  11  69
ENDBRANCH   8  11
ENDBRANCH   4   7
ENDBRANCH   1   4
BRANCH   1  73
ATOM     73  C   UNL A   1      42.914  21.776  26.637  1.00  0.00    -0.052 C 
ATOM     74  H   UNL A   1      42.403  20.856  26.444  1.00  0.00     0.027 H 
ATOM     75  H   UNL A   1      43.973  21.655  26.737  1.00  0.00     0.027 H 
BRANCH  73  76
ATOM     76  C   UNL A   1      42.696  22.704  25.435  1.00  0.00    -0.052 C 
ATOM     77  H   UNL A   1      42.290  23.625  25.797  1.00  0.00     0.027 H 
ATOM     78  H   UNL A   1      42.042  22.181  24.770  1.00  0.00     0.027 H 
BRANCH  76  79
ATOM     79  C   UNL A   1      43.957  23.027  24.626  1.00  0.00    -0.036 C 
ATOM     80  H   UNL A   1      43.776  22.766  23.605  1.00  0.00     0.028 H 
ATOM     81  H   UNL A   1      44.755  22.462  25.062  1.00  0.00     0.028 H 
BRANCH  79  82
ATOM     82  C   UNL A   1      44.374  24.493  24.681  1.00  0.00     0.018 C 
ATOM     83  H   UNL A   1      43.752  25.006  25.385  1.00  0.00     0.049 H 
ATOM     84  H   UNL A   1      44.262  24.912  23.702  1.00  0.00     0.049 H 
BRANCH  82  85
ATOM     85  N   UNL A   1      45.768  24.635  25.086  1.00  0.00    -0.352 N 
ATOM     86  C   UNL A   1      46.324  25.516  25.982  1.00  0.00     0.251 C 
ATOM     87  H   UNL A   1      46.398  24.014  24.657  1.00  0.00     0.163 HD
ATOM     88  O   UNL A   1      47.533  25.697  26.020  1.00  0.00    -0.269 OA
BRANCH  86  89
ATOM     89  C   UNL A   1      45.436  26.237  26.915  1.00  0.00     0.039 A 
ATOM     90  C   UNL A   1      44.625  25.536  27.808  1.00  0.00    -0.049 A 
ATOM     91  C   UNL A   1      45.428  27.629  26.899  1.00  0.00    -0.049 A 
ATOM     92  C   UNL A   1      43.869  26.243  28.749  1.00  0.00    -0.053 A 
ATOM     93  H   UNL A   1      44.584  24.506  27.776  1.00  0.00     0.063 H 
ATOM     94  C   UNL A   1      44.745  28.326  27.886  1.00  0.00    -0.053 A 
ATOM     95  H   UNL A   1      45.930  28.143  26.158  1.00  0.00     0.063 H 
ATOM     96  C   UNL A   1      43.960  27.643  28.826  1.00  0.00    -0.014 A 
ATOM     97  H   UNL A   1      43.240  25.734  29.389  1.00  0.00     0.063 H 
ATOM     98  H   UNL A   1      44.816  29.355  27.929  1.00  0.00     0.063 H 
BRANCH  96  99
ATOM     99  C   UNL A   1      43.265  28.441  29.869  1.00  0.00     0.031 A 
ATOM    100  C   UNL A   1      43.867  28.559  31.242  1.00  0.00     0.074 A 
ATOM    101  C   UNL A   1      42.038  28.942  29.626  1.00  0.00     0.049 A 
ATOM    102  N   UNL A   1      43.343  29.047  32.339  1.00  0.00    -0.248 NA
ATOM    103  C   UNL A   1      45.225  28.018  31.418  1.00  0.00    -0.034 C 
ATOM    104  C   UNL A   1      41.326  28.849  28.352  1.00  0.00    -0.036 A 
ATOM    105  N   UNL A   1      41.162  29.607  30.449  1.00  0.00    -0.354 N 
ATOM    106  C   UNL A   1      44.292  28.847  33.331  1.00  0.00     0.074 A 
ATOM    107  C   UNL A   1      45.399  28.141  32.726  1.00  0.00    -0.034 C 
ATOM    108  H   UNL A   1      45.872  27.641  30.708  1.00  0.00     0.065 H 
ATOM    109  C   UNL A   1      40.133  29.452  28.471  1.00  0.00    -0.036 A 
ATOM    110  H   UNL A   1      41.683  28.393  27.497  1.00  0.00     0.065 H 
ATOM    111  C   UNL A   1      39.971  29.926  29.843  1.00  0.00     0.049 A 
ATOM    112  H   UNL A   1      41.368  29.833  31.385  1.00  0.00     0.167 HD
ATOM    113  C   UNL A   1      44.253  29.241  34.625  1.00  0.00     0.037 A 
ATOM    114  H   UNL A   1      46.217  27.782  33.243  1.00  0.00     0.065 H 
ATOM    115  H   UNL A   1      39.440  29.563  27.714  1.00  0.00     0.065 H 
ATOM    116  C   UNL A   1      38.866  30.517  30.338  1.00  0.00     0.037 A 
ATOM    117  C   UNL A   1      43.166  29.978  35.210  1.00  0.00     0.049 A 
ATOM    118  C   UNL A   1      38.839  30.937  31.782  1.00  0.00     0.074 A 
ATOM    119  C   UNL A   1      43.068  30.493  36.490  1.00  0.00    -0.036 A 
ATOM    120  N   UNL A   1      41.988  30.303  34.553  1.00  0.00    -0.354 N 
ATOM    121  N   UNL A   1      39.768  30.800  32.697  1.00  0.00    -0.248 NA
ATOM    122  C   UNL A   1      37.614  31.592  32.267  1.00  0.00    -0.034 C 
ATOM    123  C   UNL A   1      41.807  31.075  36.628  1.00  0.00    -0.036 A 
ATOM    124  H   UNL A   1      43.800  30.452  37.216  1.00  0.00     0.065 H 
ATOM    125  C   UNL A   1      41.144  30.985  35.414  1.00  0.00     0.049 A 
ATOM    126  H   UNL A   1      41.782  30.084  33.616  1.00  0.00     0.167 HD
ATOM    127  C   UNL A   1      39.255  31.372  33.853  1.00  0.00     0.074 A 
ATOM    128  C   UNL A   1      37.932  31.862  33.527  1.00  0.00    -0.034 C 
ATOM    129  H   UNL A   1      36.737  31.790  31.760  1.00  0.00     0.065 H 
ATOM    130  H   UNL A   1      41.432  31.502  37.490  1.00  0.00     0.065 H 
ATOM    131  C   UNL A   1      39.834  31.481  35.073  1.00  0.00     0.037 A 
ATOM    132  H   UNL A   1      37.316  32.358  34.190  1.00  0.00     0.065 H 
BRANCH 113 133
ATOM    133  C   UNL A   1      45.425  28.900  35.502  1.00  0.00     0.064 A 
ATOM    134  C   UNL A   1      45.425  27.719  36.260  1.00  0.00     0.173 A 
ATOM    135  C   UNL A   1      46.514  29.772  35.647  1.00  0.00     0.173 A 
ATOM    136  F   UNL A   1      44.405  26.853  36.166  1.00  0.00    -0.203 F 
ATOM    137  C   UNL A   1      46.467  27.430  37.138  1.00  0.00     0.198 A 
ATOM    138  C   UNL A   1      47.571  29.463  36.499  1.00  0.00     0.198 A 
ATOM    139  F   UNL A   1      46.567  30.910  34.940  1.00  0.00    -0.203 F 
ATOM    140  F   UNL A   1      46.427  26.314  37.879  1.00  0.00    -0.200 F 
ATOM    141  C   UNL A   1      47.542  28.300  37.252  1.00  0.00     0.200 A 
ATOM    142  F   UNL A   1      48.621  30.291  36.587  1.00  0.00    -0.200 F 
ATOM    143  F   UNL A   1      48.550  28.013  38.087  1.00  0.00    -0.200 F 
ENDBRANCH 113 133
BRANCH 116 144
ATOM    144  C   UNL A   1      37.710  30.768  29.438  1.00  0.00     0.064 A 
ATOM    145  C   UNL A   1      37.461  32.040  28.898  1.00  0.00     0.173 A 
ATOM    146  C   UNL A   1      36.794  29.747  29.148  1.00  0.00     0.173 A 
ATOM    147  F   UNL A   1      38.303  33.053  29.151  1.00  0.00    -0.203 F 
ATOM    148  C   UNL A   1      36.326  32.286  28.129  1.00  0.00     0.198 A 
ATOM    149  C   UNL A   1      35.673  29.989  28.356  1.00  0.00     0.198 A 
ATOM    150  F   UNL A   1      36.998  28.511  29.625  1.00  0.00    -0.203 F 
ATOM    151  F   UNL A   1      36.088  33.521  27.666  1.00  0.00    -0.200 F 
ATOM    152  C   UNL A   1      35.434  31.260  27.856  1.00  0.00     0.200 A 
ATOM    153  F   UNL A   1      34.825  28.990  28.078  1.00  0.00    -0.200 F 
ATOM    154  F   UNL A   1      34.343  31.497  27.115  1.00  0.00    -0.200 F 
ENDBRANCH 116 144
BRANCH 131 155
ATOM    155  C   UNL A   1      39.074  32.181  36.161  1.00  0.00     0.064 A 
ATOM    156  C   UNL A   1      39.345  33.527  36.457  1.00  0.00     0.173 A 
ATOM    157  C   UNL A   1      38.192  31.487  37.001  1.00  0.00     0.173 A 
ATOM    158  F   UNL A   1      40.190  34.230  35.688  1.00  0.00    -0.203 F 
ATOM    159  C   UNL A   1      38.791  34.140  37.576  1.00  0.00     0.198 A 
ATOM    160  C   UNL A   1      37.617  32.113  38.104  1.00  0.00     0.198 A 
ATOM    161  F   UNL A   1      37.894  30.203  36.753  1.00  0.00    -0.203 F 
ATOM    162  F   UNL A   1      39.110  35.408  37.872  1.00  0.00    -0.200 F 
ATOM    163  C   UNL A   1      37.929  33.432  38.400  1.00  0.00     0.200 A 
ATOM    164  F   UNL A   1      36.770  31.433  38.890  1.00  0.00    -0.200 F 
ATOM    165  F   UNL A   1      37.404  34.019  39.484  1.00  0.00    -0.200 F 
ENDBRANCH 131 155
ENDBRANCH  96  99
ENDBRANCH  86  89
ENDBRANCH  82  85
ENDBRANCH  79  82
ENDBRANCH  76  79
ENDBRANCH  73  76
ENDBRANCH   1  73
TORSDOF 21
ENDMDL
MODEL 9
REMARK VINA RESULT:      -8.2      3.949      9.013
REMARK SMILES CC1CC[NH+]([C@H](c2ccc(F)cc2)c2ccc([C@@H](C)C(=O)NCCCCCCNC(=O)c3ccc(-c4c5nc(c(-c6c(F)c(F)c(F)c(F)c6F)c6ccc([nH]6)c(-c6c(F)c(F)c(F)c(F)c6F)c6nc(c(-c7c(F)c(F)c(F)c(F)c7F)c7ccc4[nH]7)C=C6)C=C5)cc3)cc2-c2ccc(C(F)(F)F)cc2)CC1
REMARK SMILES IDX 24 1 23 4 22 7 20 8 21 9 18 11 17 13 14 14 15 15 96 16 16 17
REMARK SMILES IDX 95 19 6 22 5 24 2 25 3 26 108 27 4 29 107 32 1 40 7 44 8 45
REMARK SMILES IDX 13 46 9 47 12 49 10 51 11 54 97 55 98 56 106 57 99 58 105 60
REMARK SMILES IDX 100 62 101 65 102 66 103 67 104 68 19 69 25 73 26 76 27 79
REMARK SMILES IDX 28 82 29 85 30 86 31 88 32 89 33 90 94 91 34 92 93 94 35 96
REMARK SMILES IDX 36 99 37 100 87 101 38 102 92 103 86 104 88 105 39 106
REMARK SMILES IDX 91 107 85 109 84 111 40 113 72 116 52 117 71 118 53 119
REMARK SMILES IDX 56 120 70 121 89 122 54 123 55 125 69 127 90 128 57 131
REMARK SMILES IDX 41 133 42 134 50 135 43 136 44 137 48 138 51 139 45 140
REMARK SMILES IDX 46 141 49 142 47 143 73 144 74 145 82 146 75 147 76 148
REMARK SMILES IDX 80 149 83 150 77 151 78 152 81 153 79 154 58 155 59 156
REMARK SMILES IDX 67 157 60 158 61 159 65 160 68 161 62 162 63 163 66 164
REMARK SMILES IDX 64 165
REMARK H PARENT 24 2 24 3 23 5 23 6 22 10 18 12 15 18 16 20 95 21 6 23 2 28
REMARK H PARENT 3 30 3 31 108 33 108 34 4 35 4 36 107 37 107 38 5 39 1 41 1 42
REMARK H PARENT 1 43 8 48 13 50 9 52 12 53 98 59 106 61 99 63 105 64 19 70
REMARK H PARENT 19 71 19 72 25 74 25 75 26 77 26 78 27 80 27 81 28 83 28 84
REMARK H PARENT 29 87 33 93 94 95 34 97 93 98 92 108 86 110 88 112 91 114
REMARK H PARENT 85 115 53 124 56 126 89 129 54 130 90 132
REMARK Flexibility Score: inf
ROOT
ATOM      1  C   UNL A   1      47.222  36.533  25.998  1.00  0.00    -0.036 C 
ATOM      2  H   UNL A   1      47.094  36.533  24.936  1.00  0.00     0.028 H 
ATOM      3  H   UNL A   1      48.171  36.924  26.300  1.00  0.00     0.028 H 
ENDROOT
BRANCH   1   4
ATOM      4  C   UNL A   1      47.163  35.081  26.491  1.00  0.00     0.017 C 
ATOM      5  H   UNL A   1      48.128  34.634  26.374  1.00  0.00     0.049 H 
ATOM      6  H   UNL A   1      46.867  35.088  27.520  1.00  0.00     0.049 H 
BRANCH   4   7
ATOM      7  N   UNL A   1      46.192  34.301  25.749  1.00  0.00    -0.356 N 
ATOM      8  C   UNL A   1      45.782  33.006  25.834  1.00  0.00     0.227 C 
ATOM      9  O   UNL A   1      44.968  32.642  24.976  1.00  0.00    -0.274 OA
ATOM     10  H   UNL A   1      45.737  34.812  25.041  1.00  0.00     0.163 HD
BRANCH   8  11
ATOM     11  C   UNL A   1      46.253  32.006  26.908  1.00  0.00     0.060 C 
ATOM     12  H   UNL A   1      46.279  32.556  27.826  1.00  0.00     0.045 H 
BRANCH  11  13
ATOM     13  C   UNL A   1      45.251  30.897  27.172  1.00  0.00    -0.035 A 
ATOM     14  C   UNL A   1      43.553  28.757  28.044  1.00  0.00     0.022 A 
ATOM     15  C   UNL A   1      43.261  30.108  28.283  1.00  0.00    -0.052 A 
ATOM     16  C   UNL A   1      44.671  28.494  27.204  1.00  0.00    -0.009 A 
ATOM     17  C   UNL A   1      44.030  31.145  27.771  1.00  0.00    -0.058 A 
ATOM     18  H   UNL A   1      42.439  30.341  28.863  1.00  0.00     0.063 H 
ATOM     19  C   UNL A   1      45.541  29.563  26.858  1.00  0.00    -0.050 A 
ATOM     20  H   UNL A   1      43.685  32.115  27.837  1.00  0.00     0.063 H 
ATOM     21  H   UNL A   1      46.418  29.349  26.357  1.00  0.00     0.063 H 
BRANCH  14  22
ATOM     22  C   UNL A   1      42.642  27.633  28.619  1.00  0.00     0.139 C 
ATOM     23  H   UNL A   1      42.433  27.086  27.722  1.00  0.00     0.107 H 
BRANCH  22  24
ATOM     24  N   UNL A   1      41.287  28.019  29.139  1.00  0.00    -0.325 N 
ATOM     25  C   UNL A   1      39.218  27.815  31.201  1.00  0.00    -0.034 C 
ATOM     26  C   UNL A   1      40.017  29.109  31.070  1.00  0.00    -0.001 C 
ATOM     27  C   UNL A   1      38.971  27.275  29.801  1.00  0.00    -0.001 C 
ATOM     28  H   UNL A   1      39.770  27.107  31.784  1.00  0.00     0.030 H 
ATOM     29  C   UNL A   1      41.325  28.928  30.289  1.00  0.00     0.078 C 
ATOM     30  H   UNL A   1      40.253  29.465  32.052  1.00  0.00     0.033 H 
ATOM     31  H   UNL A   1      39.413  29.805  30.528  1.00  0.00     0.033 H 
ATOM     32  C   UNL A   1      40.296  26.943  29.130  1.00  0.00     0.078 C 
ATOM     33  H   UNL A   1      38.457  28.014  29.223  1.00  0.00     0.033 H 
ATOM     34  H   UNL A   1      38.379  26.387  29.868  1.00  0.00     0.033 H 
ATOM     35  H   UNL A   1      42.061  28.557  30.971  1.00  0.00     0.092 H 
ATOM     36  H   UNL A   1      41.541  29.892  29.877  1.00  0.00     0.092 H 
ATOM     37  H   UNL A   1      40.720  26.099  29.634  1.00  0.00     0.092 H 
ATOM     38  H   UNL A   1      40.069  26.756  28.101  1.00  0.00     0.092 H 
ATOM     39  H   UNL A   1      40.874  28.628  28.432  1.00  0.00     0.348 HD
BRANCH  25  40
ATOM     40  C   UNL A   1      37.898  28.053  31.915  1.00  0.00    -0.062 C 
ATOM     41  H   UNL A   1      37.195  27.300  31.626  1.00  0.00     0.023 H 
ATOM     42  H   UNL A   1      37.518  29.017  31.649  1.00  0.00     0.023 H 
ATOM     43  H   UNL A   1      38.051  28.010  32.973  1.00  0.00     0.023 H 
ENDBRANCH  25  40
ENDBRANCH  22  24
BRANCH  22  44
ATOM     44  C   UNL A   1      43.360  26.719  29.633  1.00  0.00     0.014 A 
ATOM     45  C   UNL A   1      44.047  27.237  30.751  1.00  0.00    -0.050 A 
ATOM     46  C   UNL A   1      43.337  25.323  29.453  1.00  0.00    -0.050 A 
ATOM     47  C   UNL A   1      44.668  26.386  31.667  1.00  0.00    -0.026 A 
ATOM     48  H   UNL A   1      44.091  28.258  30.894  1.00  0.00     0.063 H 
ATOM     49  C   UNL A   1      43.995  24.476  30.347  1.00  0.00    -0.026 A 
ATOM     50  H   UNL A   1      42.828  24.920  28.650  1.00  0.00     0.063 H 
ATOM     51  C   UNL A   1      44.644  25.015  31.450  1.00  0.00     0.123 A 
ATOM     52  H   UNL A   1      45.141  26.773  32.497  1.00  0.00     0.065 H 
ATOM     53  H   UNL A   1      43.998  23.457  30.190  1.00  0.00     0.065 H 
ATOM     54  F   UNL A   1      45.256  24.200  32.319  1.00  0.00    -0.207 F 
ENDBRANCH  22  44
ENDBRANCH  14  22
BRANCH  16  55
ATOM     55  C   UNL A   1      44.952  27.172  26.608  1.00  0.00    -0.018 A 
ATOM     56  C   UNL A   1      44.195  26.673  25.538  1.00  0.00    -0.054 A 
ATOM     57  C   UNL A   1      45.963  26.355  27.140  1.00  0.00    -0.054 A 
ATOM     58  C   UNL A   1      44.466  25.412  24.995  1.00  0.00    -0.049 A 
ATOM     59  H   UNL A   1      43.429  27.242  25.146  1.00  0.00     0.063 H 
ATOM     60  C   UNL A   1      46.246  25.101  26.591  1.00  0.00    -0.049 A 
ATOM     61  H   UNL A   1      46.507  26.687  27.953  1.00  0.00     0.063 H 
ATOM     62  C   UNL A   1      45.504  24.621  25.506  1.00  0.00     0.056 A 
ATOM     63  H   UNL A   1      43.894  25.062  24.210  1.00  0.00     0.063 H 
ATOM     64  H   UNL A   1      47.005  24.527  26.989  1.00  0.00     0.063 H 
BRANCH  62  65
ATOM     65  C   UNL A   1      45.795  23.268  24.905  1.00  0.00     0.416 C 
ATOM     66  F   UNL A   1      46.674  23.338  23.867  1.00  0.00    -0.166 F 
ATOM     67  F   UNL A   1      46.341  22.400  25.801  1.00  0.00    -0.166 F 
ATOM     68  F   UNL A   1      44.687  22.644  24.413  1.00  0.00    -0.166 F 
ENDBRANCH  62  65
ENDBRANCH  16  55
ENDBRANCH  11  13
BRANCH  11  69
ATOM     69  C   UNL A   1      47.702  31.552  26.742  1.00  0.00    -0.049 C 
ATOM     70  H   UNL A   1      48.360  32.348  27.025  1.00  0.00     0.024 H 
ATOM     71  H   UNL A   1      47.879  31.291  25.720  1.00  0.00     0.024 H 
ATOM     72  H   UNL A   1      47.884  30.702  27.364  1.00  0.00     0.024 H 
ENDBRANCH  11  69
ENDBRANCH   8  11
ENDBRANCH   4   7
ENDBRANCH   1   4
BRANCH   1  73
ATOM     73  C   UNL A   1      46.154  37.441  26.611  1.00  0.00    -0.052 C 
ATOM     74  H   UNL A   1      46.067  37.201  27.650  1.00  0.00     0.027 H 
ATOM     75  H   UNL A   1      45.253  37.263  26.061  1.00  0.00     0.027 H 
BRANCH  73  76
ATOM     76  C   UNL A   1      46.445  38.942  26.490  1.00  0.00    -0.052 C 
ATOM     77  H   UNL A   1      47.262  39.068  25.813  1.00  0.00     0.027 H 
ATOM     78  H   UNL A   1      46.655  39.285  27.482  1.00  0.00     0.027 H 
BRANCH  76  79
ATOM     79  C   UNL A   1      45.274  39.793  25.985  1.00  0.00    -0.036 C 
ATOM     80  H   UNL A   1      44.696  39.199  25.310  1.00  0.00     0.028 H 
ATOM     81  H   UNL A   1      45.700  40.656  25.517  1.00  0.00     0.028 H 
BRANCH  79  82
ATOM     82  C   UNL A   1      44.352  40.300  27.089  1.00  0.00     0.018 C 
ATOM     83  H   UNL A   1      44.627  41.304  27.338  1.00  0.00     0.049 H 
ATOM     84  H   UNL A   1      44.456  39.657  27.938  1.00  0.00     0.049 H 
BRANCH  82  85
ATOM     85  N   UNL A   1      42.956  40.281  26.666  1.00  0.00    -0.352 N 
ATOM     86  C   UNL A   1      42.052  39.246  26.705  1.00  0.00     0.251 C 
ATOM     87  H   UNL A   1      42.613  41.128  26.302  1.00  0.00     0.163 HD
ATOM     88  O   UNL A   1      41.006  39.298  26.075  1.00  0.00    -0.269 OA
BRANCH  86  89
ATOM     89  C   UNL A   1      42.360  38.066  27.536  1.00  0.00     0.039 A 
ATOM     90  C   UNL A   1      42.765  38.217  28.863  1.00  0.00    -0.049 A 
ATOM     91  C   UNL A   1      42.226  36.796  26.981  1.00  0.00    -0.049 A 
ATOM     92  C   UNL A   1      42.953  37.081  29.658  1.00  0.00    -0.053 A 
ATOM     93  H   UNL A   1      42.924  39.158  29.254  1.00  0.00     0.063 H 
ATOM     94  C   UNL A   1      42.329  35.675  27.792  1.00  0.00    -0.053 A 
ATOM     95  H   UNL A   1      42.050  36.688  25.970  1.00  0.00     0.063 H 
ATOM     96  C   UNL A   1      42.689  35.802  29.140  1.00  0.00    -0.014 A 
ATOM     97  H   UNL A   1      43.286  37.183  30.628  1.00  0.00     0.063 H 
ATOM     98  H   UNL A   1      42.138  34.739  27.399  1.00  0.00     0.063 H 
BRANCH  96  99
ATOM     99  C   UNL A   1      42.767  34.567  29.964  1.00  0.00     0.031 A 
ATOM    100  C   UNL A   1      41.553  34.092  30.714  1.00  0.00     0.074 A 
ATOM    101  C   UNL A   1      43.954  33.954  30.145  1.00  0.00     0.049 A 
ATOM    102  N   UNL A   1      41.454  33.156  31.624  1.00  0.00    -0.248 NA
ATOM    103  C   UNL A   1      40.288  34.792  30.435  1.00  0.00    -0.034 C 
ATOM    104  C   UNL A   1      45.213  34.348  29.515  1.00  0.00    -0.036 A 
ATOM    105  N   UNL A   1      44.298  32.883  30.933  1.00  0.00    -0.354 N 
ATOM    106  C   UNL A   1      40.130  33.175  32.041  1.00  0.00     0.074 A 
ATOM    107  C   UNL A   1      39.476  34.252  31.331  1.00  0.00    -0.034 C 
ATOM    108  H   UNL A   1      40.087  35.515  29.726  1.00  0.00     0.065 H 
ATOM    109  C   UNL A   1      46.187  33.521  29.923  1.00  0.00    -0.036 A 
ATOM    110  H   UNL A   1      45.334  35.137  28.860  1.00  0.00     0.065 H 
ATOM    111  C   UNL A   1      45.635  32.571  30.885  1.00  0.00     0.049 A 
ATOM    112  H   UNL A   1      43.648  32.387  31.481  1.00  0.00     0.167 HD
ATOM    113  C   UNL A   1      39.511  32.350  32.916  1.00  0.00     0.037 A 
ATOM    114  H   UNL A   1      38.505  34.559  31.500  1.00  0.00     0.065 H 
ATOM    115  H   UNL A   1      47.169  33.551  29.608  1.00  0.00     0.065 H 
ATOM    116  C   UNL A   1      46.342  31.639  31.553  1.00  0.00     0.037 A 
ATOM    117  C   UNL A   1      40.159  31.256  33.587  1.00  0.00     0.049 A 
ATOM    118  C   UNL A   1      45.637  30.739  32.531  1.00  0.00     0.074 A 
ATOM    119  C   UNL A   1      39.599  30.314  34.431  1.00  0.00    -0.036 A 
ATOM    120  N   UNL A   1      41.511  30.959  33.491  1.00  0.00    -0.354 N 
ATOM    121  N   UNL A   1      44.372  30.724  32.871  1.00  0.00    -0.248 NA
ATOM    122  C   UNL A   1      46.454  29.729  33.221  1.00  0.00    -0.034 C 
ATOM    123  C   UNL A   1      40.622  29.485  34.895  1.00  0.00    -0.036 A 
ATOM    124  H   UNL A   1      38.600  30.238  34.676  1.00  0.00     0.065 H 
ATOM    125  C   UNL A   1      41.808  29.866  34.288  1.00  0.00     0.049 A 
ATOM    126  H   UNL A   1      42.161  31.450  32.939  1.00  0.00     0.167 HD
ATOM    127  C   UNL A   1      44.233  29.692  33.789  1.00  0.00     0.074 A 
ATOM    128  C   UNL A   1      45.543  29.099  33.954  1.00  0.00    -0.034 C 
ATOM    129  H   UNL A   1      47.468  29.555  33.154  1.00  0.00     0.065 H 
ATOM    130  H   UNL A   1      40.513  28.716  35.575  1.00  0.00     0.065 H 
ATOM    131  C   UNL A   1      43.116  29.275  34.432  1.00  0.00     0.037 A 
ATOM    132  H   UNL A   1      45.743  28.291  34.563  1.00  0.00     0.065 H 
BRANCH 113 133
ATOM    133  C   UNL A   1      38.053  32.583  33.195  1.00  0.00     0.064 A 
ATOM    134  C   UNL A   1      37.073  32.083  32.323  1.00  0.00     0.173 A 
ATOM    135  C   UNL A   1      37.627  33.359  34.284  1.00  0.00     0.173 A 
ATOM    136  F   UNL A   1      37.425  31.342  31.262  1.00  0.00    -0.203 F 
ATOM    137  C   UNL A   1      35.724  32.361  32.526  1.00  0.00     0.198 A 
ATOM    138  C   UNL A   1      36.274  33.604  34.503  1.00  0.00     0.198 A 
ATOM    139  F   UNL A   1      38.522  33.854  35.152  1.00  0.00    -0.203 F 
ATOM    140  F   UNL A   1      34.810  31.903  31.659  1.00  0.00    -0.200 F 
ATOM    141  C   UNL A   1      35.325  33.116  33.619  1.00  0.00     0.200 A 
ATOM    142  F   UNL A   1      35.890  34.311  35.575  1.00  0.00    -0.200 F 
ATOM    143  F   UNL A   1      34.025  33.370  33.820  1.00  0.00    -0.200 F 
ENDBRANCH 113 133
BRANCH 116 144
ATOM    144  C   UNL A   1      47.798  31.500  31.286  1.00  0.00     0.064 A 
ATOM    145  C   UNL A   1      48.286  30.597  30.328  1.00  0.00     0.173 A 
ATOM    146  C   UNL A   1      48.735  32.230  32.030  1.00  0.00     0.173 A 
ATOM    147  F   UNL A   1      47.432  29.869  29.594  1.00  0.00    -0.203 F 
ATOM    148  C   UNL A   1      49.655  30.409  30.148  1.00  0.00     0.198 A 
ATOM    149  C   UNL A   1      50.104  32.060  31.830  1.00  0.00     0.198 A 
ATOM    150  F   UNL A   1      48.317  33.117  32.944  1.00  0.00    -0.203 F 
ATOM    151  F   UNL A   1      50.094  29.507  29.260  1.00  0.00    -0.200 F 
ATOM    152  C   UNL A   1      50.563  31.143  30.897  1.00  0.00     0.200 A 
ATOM    153  F   UNL A   1      50.977  32.785  32.541  1.00  0.00    -0.200 F 
ATOM    154  F   UNL A   1      51.879  30.963  30.722  1.00  0.00    -0.200 F 
ENDBRANCH 116 144
BRANCH 131 155
ATOM    155  C   UNL A   1      43.226  28.102  35.361  1.00  0.00     0.064 A 
ATOM    156  C   UNL A   1      43.806  28.260  36.631  1.00  0.00     0.173 A 
ATOM    157  C   UNL A   1      42.897  26.805  34.945  1.00  0.00     0.173 A 
ATOM    158  F   UNL A   1      44.148  29.481  37.069  1.00  0.00    -0.203 F 
ATOM    159  C   UNL A   1      44.088  27.158  37.431  1.00  0.00     0.198 A 
ATOM    160  C   UNL A   1      43.154  25.707  35.762  1.00  0.00     0.198 A 
ATOM    161  F   UNL A   1      42.331  26.604  33.746  1.00  0.00    -0.203 F 
ATOM    162  F   UNL A   1      44.697  27.328  38.614  1.00  0.00    -0.200 F 
ATOM    163  C   UNL A   1      43.764  25.882  36.996  1.00  0.00     0.200 A 
ATOM    164  F   UNL A   1      42.824  24.475  35.348  1.00  0.00    -0.200 F 
ATOM    165  F   UNL A   1      44.046  24.820  37.763  1.00  0.00    -0.200 F 
ENDBRANCH 131 155
ENDBRANCH  96  99
ENDBRANCH  86  89
ENDBRANCH  82  85
ENDBRANCH  79  82
ENDBRANCH  76  79
ENDBRANCH  73  76
ENDBRANCH   1  73
TORSDOF 21
ENDMDL
MODEL 10
REMARK VINA RESULT:      -8.2      4.526     10.457
REMARK SMILES CC1CC[NH+]([C@H](c2ccc(F)cc2)c2ccc([C@@H](C)C(=O)NCCCCCCNC(=O)c3ccc(-c4c5nc(c(-c6c(F)c(F)c(F)c(F)c6F)c6ccc([nH]6)c(-c6c(F)c(F)c(F)c(F)c6F)c6nc(c(-c7c(F)c(F)c(F)c(F)c7F)c7ccc4[nH]7)C=C6)C=C5)cc3)cc2-c2ccc(C(F)(F)F)cc2)CC1
REMARK SMILES IDX 24 1 23 4 22 7 20 8 21 9 18 11 17 13 14 14 15 15 96 16 16 17
REMARK SMILES IDX 95 19 6 22 5 24 2 25 3 26 108 27 4 29 107 32 1 40 7 44 8 45
REMARK SMILES IDX 13 46 9 47 12 49 10 51 11 54 97 55 98 56 106 57 99 58 105 60
REMARK SMILES IDX 100 62 101 65 102 66 103 67 104 68 19 69 25 73 26 76 27 79
REMARK SMILES IDX 28 82 29 85 30 86 31 88 32 89 33 90 94 91 34 92 93 94 35 96
REMARK SMILES IDX 36 99 37 100 87 101 38 102 92 103 86 104 88 105 39 106
REMARK SMILES IDX 91 107 85 109 84 111 40 113 72 116 52 117 71 118 53 119
REMARK SMILES IDX 56 120 70 121 89 122 54 123 55 125 69 127 90 128 57 131
REMARK SMILES IDX 41 133 42 134 50 135 43 136 44 137 48 138 51 139 45 140
REMARK SMILES IDX 46 141 49 142 47 143 73 144 74 145 82 146 75 147 76 148
REMARK SMILES IDX 80 149 83 150 77 151 78 152 81 153 79 154 58 155 59 156
REMARK SMILES IDX 67 157 60 158 61 159 65 160 68 161 62 162 63 163 66 164
REMARK SMILES IDX 64 165
REMARK H PARENT 24 2 24 3 23 5 23 6 22 10 18 12 15 18 16 20 95 21 6 23 2 28
REMARK H PARENT 3 30 3 31 108 33 108 34 4 35 4 36 107 37 107 38 5 39 1 41 1 42
REMARK H PARENT 1 43 8 48 13 50 9 52 12 53 98 59 106 61 99 63 105 64 19 70
REMARK H PARENT 19 71 19 72 25 74 25 75 26 77 26 78 27 80 27 81 28 83 28 84
REMARK H PARENT 29 87 33 93 94 95 34 97 93 98 92 108 86 110 88 112 91 114
REMARK H PARENT 85 115 53 124 56 126 89 129 54 130 90 132
REMARK Flexibility Score: inf
ROOT
ATOM      1  C   UNL A   1      36.555  33.865  29.149  1.00  0.00    -0.036 C 
ATOM      2  H   UNL A   1      35.942  34.732  29.019  1.00  0.00     0.028 H 
ATOM      3  H   UNL A   1      37.601  34.086  29.091  1.00  0.00     0.028 H 
ENDROOT
BRANCH   1   4
ATOM      4  C   UNL A   1      36.246  32.880  28.013  1.00  0.00     0.017 C 
ATOM      5  H   UNL A   1      36.562  33.310  27.085  1.00  0.00     0.049 H 
ATOM      6  H   UNL A   1      36.770  31.967  28.210  1.00  0.00     0.049 H 
BRANCH   4   7
ATOM      7  N   UNL A   1      34.831  32.580  27.934  1.00  0.00    -0.356 N 
ATOM      8  C   UNL A   1      34.137  31.428  27.724  1.00  0.00     0.227 C 
ATOM      9  O   UNL A   1      32.908  31.547  27.643  1.00  0.00    -0.274 OA
ATOM     10  H   UNL A   1      34.254  33.369  28.056  1.00  0.00     0.163 HD
BRANCH   8  11
ATOM     11  C   UNL A   1      34.776  30.031  27.596  1.00  0.00     0.060 C 
ATOM     12  H   UNL A   1      34.547  29.522  28.510  1.00  0.00     0.045 H 
BRANCH  11  13
ATOM     13  C   UNL A   1      34.128  29.173  26.524  1.00  0.00    -0.035 A 
ATOM     14  C   UNL A   1      32.601  27.478  24.787  1.00  0.00     0.022 A 
ATOM     15  C   UNL A   1      32.415  28.867  24.854  1.00  0.00    -0.052 A 
ATOM     16  C   UNL A   1      33.703  26.955  25.520  1.00  0.00    -0.009 A 
ATOM     17  C   UNL A   1      33.225  29.697  25.619  1.00  0.00    -0.058 A 
ATOM     18  H   UNL A   1      31.645  29.290  24.312  1.00  0.00     0.063 H 
ATOM     19  C   UNL A   1      34.386  27.799  26.435  1.00  0.00    -0.050 A 
ATOM     20  H   UNL A   1      33.152  30.721  25.509  1.00  0.00     0.063 H 
ATOM     21  H   UNL A   1      35.099  27.386  27.056  1.00  0.00     0.063 H 
BRANCH  14  22
ATOM     22  C   UNL A   1      31.682  26.596  23.892  1.00  0.00     0.139 C 
ATOM     23  H   UNL A   1      32.371  26.341  23.113  1.00  0.00     0.107 H 
BRANCH  22  24
ATOM     24  N   UNL A   1      30.544  27.263  23.174  1.00  0.00    -0.325 N 
ATOM     25  C   UNL A   1      28.666  29.497  22.938  1.00  0.00    -0.034 C 
ATOM     26  C   UNL A   1      29.800  29.364  21.924  1.00  0.00    -0.001 C 
ATOM     27  C   UNL A   1      28.168  28.099  23.266  1.00  0.00    -0.001 C 
ATOM     28  H   UNL A   1      29.026  29.985  23.820  1.00  0.00     0.030 H 
ATOM     29  C   UNL A   1      30.935  28.453  22.412  1.00  0.00     0.078 C 
ATOM     30  H   UNL A   1      30.202  30.337  21.733  1.00  0.00     0.033 H 
ATOM     31  H   UNL A   1      29.390  28.921  21.041  1.00  0.00     0.033 H 
ATOM     32  C   UNL A   1      29.282  27.288  23.912  1.00  0.00     0.078 C 
ATOM     33  H   UNL A   1      27.854  27.614  22.366  1.00  0.00     0.033 H 
ATOM     34  H   UNL A   1      27.346  28.171  23.947  1.00  0.00     0.033 H 
ATOM     35  H   UNL A   1      31.576  29.041  23.034  1.00  0.00     0.092 H 
ATOM     36  H   UNL A   1      31.394  28.078  21.522  1.00  0.00     0.092 H 
ATOM     37  H   UNL A   1      29.473  27.701  24.881  1.00  0.00     0.092 H 
ATOM     38  H   UNL A   1      28.934  26.276  23.941  1.00  0.00     0.092 H 
ATOM     39  H   UNL A   1      30.279  26.633  22.416  1.00  0.00     0.348 HD
BRANCH  25  40
ATOM     40  C   UNL A   1      27.532  30.345  22.387  1.00  0.00    -0.062 C 
ATOM     41  H   UNL A   1      27.128  30.954  23.169  1.00  0.00     0.023 H 
ATOM     42  H   UNL A   1      26.765  29.707  21.999  1.00  0.00     0.023 H 
ATOM     43  H   UNL A   1      27.903  30.972  21.603  1.00  0.00     0.023 H 
ENDBRANCH  25  40
ENDBRANCH  22  24
BRANCH  22  44
ATOM     44  C   UNL A   1      31.189  25.313  24.594  1.00  0.00     0.014 A 
ATOM     45  C   UNL A   1      30.633  25.338  25.890  1.00  0.00    -0.050 A 
ATOM     46  C   UNL A   1      31.290  24.074  23.935  1.00  0.00    -0.050 A 
ATOM     47  C   UNL A   1      30.172  24.166  26.493  1.00  0.00    -0.026 A 
ATOM     48  H   UNL A   1      30.565  26.233  26.399  1.00  0.00     0.063 H 
ATOM     49  C   UNL A   1      30.867  22.898  24.556  1.00  0.00    -0.026 A 
ATOM     50  H   UNL A   1      31.681  24.034  22.980  1.00  0.00     0.063 H 
ATOM     51  C   UNL A   1      30.304  22.956  25.824  1.00  0.00     0.123 A 
ATOM     52  H   UNL A   1      29.739  24.198  27.428  1.00  0.00     0.065 H 
ATOM     53  H   UNL A   1      30.974  21.990  24.077  1.00  0.00     0.065 H 
ATOM     54  F   UNL A   1      29.880  21.829  26.411  1.00  0.00    -0.207 F 
ENDBRANCH  22  44
ENDBRANCH  14  22
BRANCH  16  55
ATOM     55  C   UNL A   1      34.228  25.587  25.339  1.00  0.00    -0.018 A 
ATOM     56  C   UNL A   1      34.750  25.156  24.110  1.00  0.00    -0.054 A 
ATOM     57  C   UNL A   1      34.168  24.659  26.392  1.00  0.00    -0.054 A 
ATOM     58  C   UNL A   1      35.230  23.852  23.952  1.00  0.00    -0.049 A 
ATOM     59  H   UNL A   1      34.780  25.810  23.312  1.00  0.00     0.063 H 
ATOM     60  C   UNL A   1      34.660  23.360  26.242  1.00  0.00    -0.049 A 
ATOM     61  H   UNL A   1      33.753  24.943  27.294  1.00  0.00     0.063 H 
ATOM     62  C   UNL A   1      35.204  22.945  25.021  1.00  0.00     0.056 A 
ATOM     63  H   UNL A   1      35.606  23.554  23.038  1.00  0.00     0.063 H 
ATOM     64  H   UNL A   1      34.621  22.702  27.037  1.00  0.00     0.063 H 
BRANCH  62  65
ATOM     65  C   UNL A   1      35.736  21.545  24.843  1.00  0.00     0.416 C 
ATOM     66  F   UNL A   1      36.882  21.512  24.108  1.00  0.00    -0.166 F 
ATOM     67  F   UNL A   1      36.032  20.940  26.027  1.00  0.00    -0.166 F 
ATOM     68  F   UNL A   1      34.863  20.711  24.210  1.00  0.00    -0.166 F 
ENDBRANCH  62  65
ENDBRANCH  16  55
ENDBRANCH  11  13
BRANCH  11  69
ATOM     69  C   UNL A   1      36.303  30.045  27.587  1.00  0.00    -0.049 C 
ATOM     70  H   UNL A   1      36.655  29.890  26.588  1.00  0.00     0.024 H 
ATOM     71  H   UNL A   1      36.671  29.264  28.219  1.00  0.00     0.024 H 
ATOM     72  H   UNL A   1      36.654  30.989  27.946  1.00  0.00     0.024 H 
ENDBRANCH  11  69
ENDBRANCH   8  11
ENDBRANCH   4   7
ENDBRANCH   1   4
BRANCH   1  73
ATOM     73  C   UNL A   1      36.299  33.300  30.548  1.00  0.00    -0.052 C 
ATOM     74  H   UNL A   1      37.148  33.525  31.159  1.00  0.00     0.027 H 
ATOM     75  H   UNL A   1      36.135  32.250  30.426  1.00  0.00     0.027 H 
BRANCH  73  76
ATOM     76  C   UNL A   1      35.049  33.855  31.243  1.00  0.00    -0.052 C 
ATOM     77  H   UNL A   1      34.193  33.551  30.678  1.00  0.00     0.027 H 
ATOM     78  H   UNL A   1      35.178  34.917  31.284  1.00  0.00     0.027 H 
BRANCH  76  79
ATOM     79  C   UNL A   1      34.851  33.394  32.690  1.00  0.00    -0.036 C 
ATOM     80  H   UNL A   1      33.859  33.007  32.786  1.00  0.00     0.028 H 
ATOM     81  H   UNL A   1      35.024  34.248  33.312  1.00  0.00     0.028 H 
BRANCH  79  82
ATOM     82  C   UNL A   1      35.832  32.316  33.140  1.00  0.00     0.018 C 
ATOM     83  H   UNL A   1      36.512  32.108  32.339  1.00  0.00     0.049 H 
ATOM     84  H   UNL A   1      35.274  31.440  33.401  1.00  0.00     0.049 H 
BRANCH  82  85
ATOM     85  N   UNL A   1      36.593  32.743  34.309  1.00  0.00    -0.352 N 
ATOM     86  C   UNL A   1      37.864  32.386  34.693  1.00  0.00     0.251 C 
ATOM     87  H   UNL A   1      36.132  33.374  34.906  1.00  0.00     0.163 HD
ATOM     88  O   UNL A   1      38.266  32.611  35.826  1.00  0.00    -0.269 OA
BRANCH  86  89
ATOM     89  C   UNL A   1      38.748  31.734  33.708  1.00  0.00     0.039 A 
ATOM     90  C   UNL A   1      38.860  32.239  32.412  1.00  0.00    -0.049 A 
ATOM     91  C   UNL A   1      39.479  30.614  34.094  1.00  0.00    -0.049 A 
ATOM     92  C   UNL A   1      39.781  31.664  31.528  1.00  0.00    -0.053 A 
ATOM     93  H   UNL A   1      38.272  33.030  32.108  1.00  0.00     0.063 H 
ATOM     94  C   UNL A   1      40.450  30.099  33.246  1.00  0.00    -0.053 A 
ATOM     95  H   UNL A   1      39.300  30.168  35.007  1.00  0.00     0.063 H 
ATOM     96  C   UNL A   1      40.617  30.618  31.956  1.00  0.00    -0.014 A 
ATOM     97  H   UNL A   1      39.845  32.008  30.558  1.00  0.00     0.063 H 
ATOM     98  H   UNL A   1      41.054  29.327  33.570  1.00  0.00     0.063 H 
BRANCH  96  99
ATOM     99  C   UNL A   1      41.684  30.038  31.100  1.00  0.00     0.031 A 
ATOM    100  C   UNL A   1      42.956  30.807  30.869  1.00  0.00     0.074 A 
ATOM    101  C   UNL A   1      41.457  28.893  30.427  1.00  0.00     0.049 A 
ATOM    102  N   UNL A   1      43.926  30.571  30.021  1.00  0.00    -0.248 NA
ATOM    103  C   UNL A   1      43.144  32.029  31.668  1.00  0.00    -0.034 C 
ATOM    104  C   UNL A   1      40.245  28.082  30.526  1.00  0.00    -0.036 A 
ATOM    105  N   UNL A   1      42.229  28.227  29.506  1.00  0.00    -0.354 N 
ATOM    106  C   UNL A   1      44.818  31.624  30.167  1.00  0.00     0.074 A 
ATOM    107  C   UNL A   1      44.250  32.531  31.140  1.00  0.00    -0.034 C 
ATOM    108  H   UNL A   1      42.565  32.399  32.438  1.00  0.00     0.065 H 
ATOM    109  C   UNL A   1      40.361  27.018  29.716  1.00  0.00    -0.036 A 
ATOM    110  H   UNL A   1      39.429  28.293  31.123  1.00  0.00     0.065 H 
ATOM    111  C   UNL A   1      41.631  27.098  29.001  1.00  0.00     0.049 A 
ATOM    112  H   UNL A   1      43.126  28.529  29.235  1.00  0.00     0.167 HD
ATOM    113  C   UNL A   1      46.016  31.801  29.565  1.00  0.00     0.037 A 
ATOM    114  H   UNL A   1      44.654  33.449  31.388  1.00  0.00     0.065 H 
ATOM    115  H   UNL A   1      39.664  26.263  29.616  1.00  0.00     0.065 H 
ATOM    116  C   UNL A   1      42.048  26.234  28.054  1.00  0.00     0.037 A 
ATOM    117  C   UNL A   1      46.593  30.874  28.629  1.00  0.00     0.049 A 
ATOM    118  C   UNL A   1      43.378  26.456  27.387  1.00  0.00     0.074 A 
ATOM    119  C   UNL A   1      47.835  30.925  28.025  1.00  0.00    -0.036 A 
ATOM    120  N   UNL A   1      45.964  29.728  28.163  1.00  0.00    -0.354 N 
ATOM    121  N   UNL A   1      44.244  27.421  27.579  1.00  0.00    -0.248 NA
ATOM    122  C   UNL A   1      43.792  25.475  26.373  1.00  0.00    -0.034 C 
ATOM    123  C   UNL A   1      47.935  29.845  27.146  1.00  0.00    -0.036 A 
ATOM    124  H   UNL A   1      48.562  31.637  28.195  1.00  0.00     0.065 H 
ATOM    125  C   UNL A   1      46.783  29.082  27.252  1.00  0.00     0.049 A 
ATOM    126  H   UNL A   1      45.070  29.421  28.437  1.00  0.00     0.167 HD
ATOM    127  C   UNL A   1      45.312  27.152  26.735  1.00  0.00     0.074 A 
ATOM    128  C   UNL A   1      44.990  25.931  26.028  1.00  0.00    -0.034 C 
ATOM    129  H   UNL A   1      43.283  24.649  26.021  1.00  0.00     0.065 H 
ATOM    130  H   UNL A   1      48.734  29.647  26.523  1.00  0.00     0.065 H 
ATOM    131  C   UNL A   1      46.457  27.857  26.566  1.00  0.00     0.037 A 
ATOM    132  H   UNL A   1      45.612  25.473  25.344  1.00  0.00     0.065 H 
BRANCH 113 133
ATOM    133  C   UNL A   1      46.799  33.039  29.903  1.00  0.00     0.064 A 
ATOM    134  C   UNL A   1      47.652  33.058  31.017  1.00  0.00     0.173 A 
ATOM    135  C   UNL A   1      46.654  34.225  29.168  1.00  0.00     0.173 A 
ATOM    136  F   UNL A   1      47.822  31.954  31.760  1.00  0.00    -0.203 F 
ATOM    137  C   UNL A   1      48.320  34.223  31.389  1.00  0.00     0.198 A 
ATOM    138  C   UNL A   1      47.352  35.377  29.521  1.00  0.00     0.198 A 
ATOM    139  F   UNL A   1      45.857  34.258  28.089  1.00  0.00    -0.203 F 
ATOM    140  F   UNL A   1      49.101  34.226  32.478  1.00  0.00    -0.200 F 
ATOM    141  C   UNL A   1      48.174  35.379  30.637  1.00  0.00     0.200 A 
ATOM    142  F   UNL A   1      47.230  36.485  28.777  1.00  0.00    -0.200 F 
ATOM    143  F   UNL A   1      48.830  36.494  30.987  1.00  0.00    -0.200 F 
ENDBRANCH 113 133
BRANCH 116 144
ATOM    144  C   UNL A   1      41.198  25.064  27.712  1.00  0.00     0.064 A 
ATOM    145  C   UNL A   1      41.526  23.767  28.138  1.00  0.00     0.173 A 
ATOM    146  C   UNL A   1      40.067  25.215  26.897  1.00  0.00     0.173 A 
ATOM    147  F   UNL A   1      42.602  23.568  28.913  1.00  0.00    -0.203 F 
ATOM    148  C   UNL A   1      40.773  22.665  27.738  1.00  0.00     0.198 A 
ATOM    149  C   UNL A   1      39.299  24.114  26.520  1.00  0.00     0.198 A 
ATOM    150  F   UNL A   1      39.702  26.435  26.480  1.00  0.00    -0.203 F 
ATOM    151  F   UNL A   1      41.136  21.433  28.120  1.00  0.00    -0.200 F 
ATOM    152  C   UNL A   1      39.659  22.840  26.931  1.00  0.00     0.200 A 
ATOM    153  F   UNL A   1      38.212  24.289  25.757  1.00  0.00    -0.200 F 
ATOM    154  F   UNL A   1      38.934  21.780  26.547  1.00  0.00    -0.200 F 
ENDBRANCH 116 144
BRANCH 131 155
ATOM    155  C   UNL A   1      47.481  27.330  25.604  1.00  0.00     0.064 A 
ATOM    156  C   UNL A   1      48.541  26.534  26.069  1.00  0.00     0.173 A 
ATOM    157  C   UNL A   1      47.499  27.729  24.261  1.00  0.00     0.173 A 
ATOM    158  F   UNL A   1      48.573  26.134  27.350  1.00  0.00    -0.203 F 
ATOM    159  C   UNL A   1      49.599  26.191  25.234  1.00  0.00     0.198 A 
ATOM    160  C   UNL A   1      48.545  27.359  23.421  1.00  0.00     0.198 A 
ATOM    161  F   UNL A   1      46.503  28.481  23.768  1.00  0.00    -0.203 F 
ATOM    162  F   UNL A   1      50.628  25.480  25.716  1.00  0.00    -0.200 F 
ATOM    163  C   UNL A   1      49.602  26.605  23.911  1.00  0.00     0.200 A 
ATOM    164  F   UNL A   1      48.538  27.746  22.137  1.00  0.00    -0.200 F 
ATOM    165  F   UNL A   1      50.626  26.284  23.109  1.00  0.00    -0.200 F 
ENDBRANCH 131 155
ENDBRANCH  96  99
ENDBRANCH  86  89
ENDBRANCH  82  85
ENDBRANCH  79  82
ENDBRANCH  76  79
ENDBRANCH  73  76
ENDBRANCH   1  73
TORSDOF 21
ENDMDL
