MODEL 1
REMARK VINA RESULT:     -10.5      0.000      0.000
REMARK SMILES O=C(CCCC[C@@H]1CCSS1)NCCCCCCNC(=O)c1ccc(-c2c3nc(c(-c4c(F)c(F)c(F)c(F)c4F)c4ccc([nH]4)c(-c4c(F)c(F)c(F)c(F)c4F)c4nc(c(-c5c(F)c(F)c(F)c(F)c5F)c5ccc2[nH]5)C=C4)C=C3)cc1
REMARK SMILES IDX 14 1 13 4 12 7 1 8 2 9 3 11 4 14 5 17 6 20 7 23 8 24 11 25
REMARK SMILES IDX 9 27 10 30 15 33 16 36 17 39 18 42 19 45 20 46 21 48 22 49
REMARK SMILES IDX 23 50 84 51 24 52 83 54 25 56 26 59 27 60 77 61 28 62 82 63
REMARK SMILES IDX 76 64 78 65 29 66 81 67 75 69 74 71 30 73 62 76 42 77 61 78
REMARK SMILES IDX 43 79 46 80 60 81 79 82 44 83 45 85 59 87 80 88 47 91 31 93
REMARK SMILES IDX 32 94 40 95 33 96 34 97 38 98 41 99 35 100 36 101 39 102
REMARK SMILES IDX 37 103 63 104 64 105 72 106 65 107 66 108 70 109 73 110
REMARK SMILES IDX 67 111 68 112 71 113 69 114 48 115 49 116 57 117 50 118
REMARK SMILES IDX 51 119 55 120 58 121 52 122 53 123 56 124 54 125
REMARK H PARENT 14 2 14 3 13 5 13 6 12 10 3 12 3 13 4 15 4 16 5 18 5 19 6 21
REMARK H PARENT 6 22 7 26 8 28 8 29 9 31 9 32 15 34 15 35 16 37 16 38 17 40
REMARK H PARENT 17 41 18 43 18 44 19 47 23 53 84 55 24 57 83 58 82 68 76 70
REMARK H PARENT 78 72 81 74 75 75 43 84 46 86 79 89 44 90 80 92
REMARK Flexibility Score: inf
ROOT
ATOM      1  C   UNL A   1      33.165  29.004  27.104  1.00  0.00    -0.036 C 
ATOM      2  H   UNL A   1      34.145  29.189  27.494  1.00  0.00     0.028 H 
ATOM      3  H   UNL A   1      32.399  29.013  27.850  1.00  0.00     0.028 H 
ENDROOT
BRANCH   1   4
ATOM      4  C   UNL A   1      33.153  27.599  26.501  1.00  0.00     0.017 C 
ATOM      5  H   UNL A   1      34.017  27.478  25.881  1.00  0.00     0.049 H 
ATOM      6  H   UNL A   1      33.158  26.888  27.300  1.00  0.00     0.049 H 
BRANCH   4   7
ATOM      7  N   UNL A   1      31.967  27.378  25.703  1.00  0.00    -0.356 N 
ATOM      8  O   UNL A   1      31.192  25.546  26.847  1.00  0.00    -0.275 OA
ATOM      9  C   UNL A   1      31.070  26.368  25.945  1.00  0.00     0.219 C 
ATOM     10  H   UNL A   1      31.794  27.984  24.947  1.00  0.00     0.163 HD
BRANCH   9  11
ATOM     11  C   UNL A   1      29.904  26.344  24.974  1.00  0.00     0.026 C 
ATOM     12  H   UNL A   1      29.265  27.174  25.193  1.00  0.00     0.037 H 
ATOM     13  H   UNL A   1      29.409  25.405  25.104  1.00  0.00     0.037 H 
BRANCH  11  14
ATOM     14  C   UNL A   1      30.325  26.430  23.506  1.00  0.00    -0.044 C 
ATOM     15  H   UNL A   1      29.625  25.857  22.935  1.00  0.00     0.027 H 
ATOM     16  H   UNL A   1      31.330  26.063  23.482  1.00  0.00     0.027 H 
BRANCH  14  17
ATOM     17  C   UNL A   1      30.393  27.833  22.889  1.00  0.00    -0.052 C 
ATOM     18  H   UNL A   1      30.510  27.720  21.831  1.00  0.00     0.027 H 
ATOM     19  H   UNL A   1      31.215  28.321  23.371  1.00  0.00     0.027 H 
BRANCH  17  20
ATOM     20  C   UNL A   1      29.176  28.738  23.133  1.00  0.00    -0.040 C 
ATOM     21  H   UNL A   1      28.942  28.715  24.177  1.00  0.00     0.028 H 
ATOM     22  H   UNL A   1      28.378  28.362  22.529  1.00  0.00     0.028 H 
BRANCH  20  23
ATOM     23  C   UNL A   1      29.405  30.201  22.717  1.00  0.00     0.016 C 
ATOM     24  C   UNL A   1      28.781  31.190  23.712  1.00  0.00    -0.030 C 
ATOM     25  S   UNL A   1      28.623  30.547  21.102  1.00  0.00    -0.091 SA
ATOM     26  H   UNL A   1      30.467  30.329  22.680  1.00  0.00     0.043 H 
ATOM     27  C   UNL A   1      28.783  32.597  23.127  1.00  0.00     0.005 C 
ATOM     28  H   UNL A   1      29.348  31.183  24.619  1.00  0.00     0.029 H 
ATOM     29  H   UNL A   1      27.772  30.895  23.910  1.00  0.00     0.029 H 
ATOM     30  S   UNL A   1      28.027  32.467  21.491  1.00  0.00    -0.094 SA
ATOM     31  H   UNL A   1      29.785  32.962  23.045  1.00  0.00     0.039 H 
ATOM     32  H   UNL A   1      28.244  33.279  23.752  1.00  0.00     0.039 H 
ENDBRANCH  20  23
ENDBRANCH  17  20
ENDBRANCH  14  17
ENDBRANCH  11  14
ENDBRANCH   9  11
ENDBRANCH   4   7
ENDBRANCH   1   4
BRANCH   1  33
ATOM     33  C   UNL A   1      32.823  30.139  26.126  1.00  0.00    -0.052 C 
ATOM     34  H   UNL A   1      32.942  29.764  25.131  1.00  0.00     0.027 H 
ATOM     35  H   UNL A   1      33.484  30.944  26.368  1.00  0.00     0.027 H 
BRANCH  33  36
ATOM     36  C   UNL A   1      31.407  30.709  26.248  1.00  0.00    -0.052 C 
ATOM     37  H   UNL A   1      30.920  30.211  27.061  1.00  0.00     0.027 H 
ATOM     38  H   UNL A   1      30.939  30.544  25.300  1.00  0.00     0.027 H 
BRANCH  36  39
ATOM     39  C   UNL A   1      31.328  32.215  26.501  1.00  0.00    -0.036 C 
ATOM     40  H   UNL A   1      30.452  32.407  27.085  1.00  0.00     0.028 H 
ATOM     41  H   UNL A   1      31.309  32.676  25.535  1.00  0.00     0.028 H 
BRANCH  39  42
ATOM     42  C   UNL A   1      32.523  32.821  27.233  1.00  0.00     0.018 C 
ATOM     43  H   UNL A   1      33.375  32.780  26.587  1.00  0.00     0.049 H 
ATOM     44  H   UNL A   1      32.672  32.254  28.127  1.00  0.00     0.049 H 
BRANCH  42  45
ATOM     45  N   UNL A   1      32.306  34.204  27.627  1.00  0.00    -0.352 N 
ATOM     46  C   UNL A   1      32.943  34.951  28.585  1.00  0.00     0.251 C 
ATOM     47  H   UNL A   1      31.597  34.675  27.131  1.00  0.00     0.163 HD
ATOM     48  O   UNL A   1      32.531  36.077  28.857  1.00  0.00    -0.269 OA
BRANCH  46  49
ATOM     49  C   UNL A   1      34.105  34.403  29.321  1.00  0.00     0.039 A 
ATOM     50  C   UNL A   1      33.876  33.750  30.536  1.00  0.00    -0.049 A 
ATOM     51  C   UNL A   1      35.410  34.540  28.839  1.00  0.00    -0.049 A 
ATOM     52  C   UNL A   1      34.945  33.181  31.233  1.00  0.00    -0.053 A 
ATOM     53  H   UNL A   1      32.919  33.689  30.918  1.00  0.00     0.063 H 
ATOM     54  C   UNL A   1      36.467  33.917  29.501  1.00  0.00    -0.053 A 
ATOM     55  H   UNL A   1      35.590  35.102  27.993  1.00  0.00     0.063 H 
ATOM     56  C   UNL A   1      36.245  33.230  30.704  1.00  0.00    -0.014 A 
ATOM     57  H   UNL A   1      34.777  32.723  32.142  1.00  0.00     0.063 H 
ATOM     58  H   UNL A   1      37.418  33.959  29.104  1.00  0.00     0.063 H 
BRANCH  56  59
ATOM     59  C   UNL A   1      37.367  32.543  31.393  1.00  0.00     0.031 A 
ATOM     60  C   UNL A   1      38.085  31.396  30.739  1.00  0.00     0.074 A 
ATOM     61  C   UNL A   1      37.712  32.926  32.637  1.00  0.00     0.049 A 
ATOM     62  N   UNL A   1      39.091  30.685  31.186  1.00  0.00    -0.248 NA
ATOM     63  C   UNL A   1      37.594  30.974  29.420  1.00  0.00    -0.034 C 
ATOM     64  C   UNL A   1      37.055  33.985  33.406  1.00  0.00    -0.036 A 
ATOM     65  N   UNL A   1      38.700  32.472  33.474  1.00  0.00    -0.354 N 
ATOM     66  C   UNL A   1      39.343  29.728  30.213  1.00  0.00     0.074 A 
ATOM     67  C   UNL A   1      38.354  29.916  29.172  1.00  0.00    -0.034 C 
ATOM     68  H   UNL A   1      36.851  31.391  28.837  1.00  0.00     0.065 H 
ATOM     69  C   UNL A   1      37.681  34.125  34.585  1.00  0.00    -0.036 A 
ATOM     70  H   UNL A   1      36.241  34.536  33.091  1.00  0.00     0.065 H 
ATOM     71  C   UNL A   1      38.763  33.149  34.668  1.00  0.00     0.049 A 
ATOM     72  H   UNL A   1      39.305  31.731  33.242  1.00  0.00     0.167 HD
ATOM     73  C   UNL A   1      40.320  28.791  30.181  1.00  0.00     0.037 A 
ATOM     74  H   UNL A   1      38.254  29.306  28.347  1.00  0.00     0.065 H 
ATOM     75  H   UNL A   1      37.436  34.812  35.314  1.00  0.00     0.065 H 
ATOM     76  C   UNL A   1      39.606  33.006  35.707  1.00  0.00     0.037 A 
ATOM     77  C   UNL A   1      41.322  28.623  31.203  1.00  0.00     0.049 A 
ATOM     78  C   UNL A   1      40.692  31.968  35.638  1.00  0.00     0.074 A 
ATOM     79  C   UNL A   1      42.406  27.763  31.219  1.00  0.00    -0.036 A 
ATOM     80  N   UNL A   1      41.356  29.329  32.398  1.00  0.00    -0.354 N 
ATOM     81  N   UNL A   1      40.977  31.130  34.673  1.00  0.00    -0.248 NA
ATOM     82  C   UNL A   1      41.578  31.865  36.806  1.00  0.00    -0.034 C 
ATOM     83  C   UNL A   1      43.069  27.914  32.442  1.00  0.00    -0.036 A 
ATOM     84  H   UNL A   1      42.678  27.120  30.459  1.00  0.00     0.065 H 
ATOM     85  C   UNL A   1      42.426  28.902  33.170  1.00  0.00     0.049 A 
ATOM     86  H   UNL A   1      40.715  30.029  32.658  1.00  0.00     0.167 HD
ATOM     87  C   UNL A   1      42.088  30.417  35.103  1.00  0.00     0.074 A 
ATOM     88  C   UNL A   1      42.435  30.935  36.410  1.00  0.00    -0.034 C 
ATOM     89  H   UNL A   1      41.543  32.382  37.699  1.00  0.00     0.065 H 
ATOM     90  H   UNL A   1      43.897  27.380  32.750  1.00  0.00     0.065 H 
ATOM     91  C   UNL A   1      42.757  29.421  34.472  1.00  0.00     0.037 A 
ATOM     92  H   UNL A   1      43.248  30.620  36.963  1.00  0.00     0.065 H 
BRANCH  73  93
ATOM     93  C   UNL A   1      40.355  27.868  28.996  1.00  0.00     0.064 A 
ATOM     94  C   UNL A   1      41.115  28.162  27.853  1.00  0.00     0.173 A 
ATOM     95  C   UNL A   1      39.641  26.661  29.015  1.00  0.00     0.173 A 
ATOM     96  F   UNL A   1      41.807  29.309  27.781  1.00  0.00    -0.203 F 
ATOM     97  C   UNL A   1      41.130  27.299  26.761  1.00  0.00     0.198 A 
ATOM     98  C   UNL A   1      39.682  25.785  27.933  1.00  0.00     0.198 A 
ATOM     99  F   UNL A   1      38.904  26.327  30.086  1.00  0.00    -0.203 F 
ATOM    100  F   UNL A   1      41.821  27.626  25.660  1.00  0.00    -0.200 F 
ATOM    101  C   UNL A   1      40.420  26.109  26.803  1.00  0.00     0.200 A 
ATOM    102  F   UNL A   1      39.005  24.630  27.980  1.00  0.00    -0.200 F 
ATOM    103  F   UNL A   1      40.438  25.278  25.752  1.00  0.00    -0.200 F 
ENDBRANCH  73  93
BRANCH  76 104
ATOM    104  C   UNL A   1      39.488  33.905  36.883  1.00  0.00     0.064 A 
ATOM    105  C   UNL A   1      40.106  35.164  36.883  1.00  0.00     0.173 A 
ATOM    106  C   UNL A   1      38.760  33.533  38.021  1.00  0.00     0.173 A 
ATOM    107  F   UNL A   1      40.832  35.553  35.824  1.00  0.00    -0.203 F 
ATOM    108  C   UNL A   1      40.014  36.011  37.985  1.00  0.00     0.198 A 
ATOM    109  C   UNL A   1      38.646  34.392  39.112  1.00  0.00     0.198 A 
ATOM    110  F   UNL A   1      38.148  32.341  38.067  1.00  0.00    -0.203 F 
ATOM    111  F   UNL A   1      40.646  37.191  37.975  1.00  0.00    -0.200 F 
ATOM    112  C   UNL A   1      39.278  35.627  39.097  1.00  0.00     0.200 A 
ATOM    113  F   UNL A   1      37.926  34.023  40.180  1.00  0.00    -0.200 F 
ATOM    114  F   UNL A   1      39.184  36.444  40.154  1.00  0.00    -0.200 F 
ENDBRANCH  76 104
BRANCH  91 115
ATOM    115  C   UNL A   1      43.947  28.844  35.184  1.00  0.00     0.064 A 
ATOM    116  C   UNL A   1      43.819  27.768  36.074  1.00  0.00     0.173 A 
ATOM    117  C   UNL A   1      45.229  29.369  34.967  1.00  0.00     0.173 A 
ATOM    118  F   UNL A   1      42.611  27.242  36.328  1.00  0.00    -0.203 F 
ATOM    119  C   UNL A   1      44.927  27.260  36.747  1.00  0.00     0.198 A 
ATOM    120  C   UNL A   1      46.339  28.839  35.619  1.00  0.00     0.198 A 
ATOM    121  F   UNL A   1      45.407  30.394  34.121  1.00  0.00    -0.203 F 
ATOM    122  F   UNL A   1      44.772  26.270  37.637  1.00  0.00    -0.200 F 
ATOM    123  C   UNL A   1      46.187  27.793  36.516  1.00  0.00     0.200 A 
ATOM    124  F   UNL A   1      47.558  29.348  35.386  1.00  0.00    -0.200 F 
ATOM    125  F   UNL A   1      47.252  27.304  37.166  1.00  0.00    -0.200 F 
ENDBRANCH  91 115
ENDBRANCH  56  59
ENDBRANCH  46  49
ENDBRANCH  42  45
ENDBRANCH  39  42
ENDBRANCH  36  39
ENDBRANCH  33  36
ENDBRANCH   1  33
TORSDOF 17
ENDMDL
MODEL 2
REMARK VINA RESULT:     -10.4      0.952      7.486
REMARK SMILES O=C(CCCC[C@@H]1CCSS1)NCCCCCCNC(=O)c1ccc(-c2c3nc(c(-c4c(F)c(F)c(F)c(F)c4F)c4ccc([nH]4)c(-c4c(F)c(F)c(F)c(F)c4F)c4nc(c(-c5c(F)c(F)c(F)c(F)c5F)c5ccc2[nH]5)C=C4)C=C3)cc1
REMARK SMILES IDX 14 1 13 4 12 7 1 8 2 9 3 11 4 14 5 17 6 20 7 23 8 24 11 25
REMARK SMILES IDX 9 27 10 30 15 33 16 36 17 39 18 42 19 45 20 46 21 48 22 49
REMARK SMILES IDX 23 50 84 51 24 52 83 54 25 56 26 59 27 60 77 61 28 62 82 63
REMARK SMILES IDX 76 64 78 65 29 66 81 67 75 69 74 71 30 73 62 76 42 77 61 78
REMARK SMILES IDX 43 79 46 80 60 81 79 82 44 83 45 85 59 87 80 88 47 91 31 93
REMARK SMILES IDX 32 94 40 95 33 96 34 97 38 98 41 99 35 100 36 101 39 102
REMARK SMILES IDX 37 103 63 104 64 105 72 106 65 107 66 108 70 109 73 110
REMARK SMILES IDX 67 111 68 112 71 113 69 114 48 115 49 116 57 117 50 118
REMARK SMILES IDX 51 119 55 120 58 121 52 122 53 123 56 124 54 125
REMARK H PARENT 14 2 14 3 13 5 13 6 12 10 3 12 3 13 4 15 4 16 5 18 5 19 6 21
REMARK H PARENT 6 22 7 26 8 28 8 29 9 31 9 32 15 34 15 35 16 37 16 38 17 40
REMARK H PARENT 17 41 18 43 18 44 19 47 23 53 84 55 24 57 83 58 82 68 76 70
REMARK H PARENT 78 72 81 74 75 75 43 84 46 86 79 89 44 90 80 92
REMARK Flexibility Score: inf
ROOT
ATOM      1  C   UNL A   1      32.785  28.150  27.036  1.00  0.00    -0.036 C 
ATOM      2  H   UNL A   1      33.484  28.467  26.289  1.00  0.00     0.028 H 
ATOM      3  H   UNL A   1      33.223  28.012  28.002  1.00  0.00     0.028 H 
ENDROOT
BRANCH   1   4
ATOM      4  C   UNL A   1      32.235  26.785  26.621  1.00  0.00     0.017 C 
ATOM      5  H   UNL A   1      33.002  26.049  26.741  1.00  0.00     0.049 H 
ATOM      6  H   UNL A   1      31.392  26.558  27.239  1.00  0.00     0.049 H 
BRANCH   4   7
ATOM      7  N   UNL A   1      31.800  26.790  25.242  1.00  0.00    -0.356 N 
ATOM      8  O   UNL A   1      33.808  26.195  24.307  1.00  0.00    -0.275 OA
ATOM      9  C   UNL A   1      32.623  26.485  24.187  1.00  0.00     0.219 C 
ATOM     10  H   UNL A   1      30.863  27.025  25.049  1.00  0.00     0.163 HD
BRANCH   9  11
ATOM     11  C   UNL A   1      31.935  26.556  22.836  1.00  0.00     0.026 C 
ATOM     12  H   UNL A   1      31.185  25.794  22.799  1.00  0.00     0.037 H 
ATOM     13  H   UNL A   1      32.692  26.419  22.093  1.00  0.00     0.037 H 
BRANCH  11  14
ATOM     14  C   UNL A   1      31.271  27.905  22.556  1.00  0.00    -0.044 C 
ATOM     15  H   UNL A   1      31.476  28.161  21.538  1.00  0.00     0.027 H 
ATOM     16  H   UNL A   1      31.685  28.577  23.279  1.00  0.00     0.027 H 
BRANCH  14  17
ATOM     17  C   UNL A   1      29.752  27.982  22.758  1.00  0.00    -0.052 C 
ATOM     18  H   UNL A   1      29.438  27.073  23.228  1.00  0.00     0.027 H 
ATOM     19  H   UNL A   1      29.339  28.136  21.782  1.00  0.00     0.027 H 
BRANCH  17  20
ATOM     20  C   UNL A   1      29.242  29.152  23.611  1.00  0.00    -0.040 C 
ATOM     21  H   UNL A   1      29.761  29.140  24.547  1.00  0.00     0.028 H 
ATOM     22  H   UNL A   1      28.187  29.018  23.731  1.00  0.00     0.028 H 
BRANCH  20  23
ATOM     23  C   UNL A   1      29.451  30.528  22.956  1.00  0.00     0.016 C 
ATOM     24  C   UNL A   1      28.817  31.661  23.773  1.00  0.00    -0.030 C 
ATOM     25  S   UNL A   1      28.661  30.588  21.309  1.00  0.00    -0.091 SA
ATOM     26  H   UNL A   1      30.511  30.661  22.893  1.00  0.00     0.043 H 
ATOM     27  C   UNL A   1      28.799  32.950  22.961  1.00  0.00     0.005 C 
ATOM     28  H   UNL A   1      29.385  31.814  24.666  1.00  0.00     0.029 H 
ATOM     29  H   UNL A   1      27.811  31.392  24.022  1.00  0.00     0.029 H 
ATOM     30  S   UNL A   1      28.042  32.539  21.373  1.00  0.00    -0.094 SA
ATOM     31  H   UNL A   1      29.796  33.309  22.814  1.00  0.00     0.039 H 
ATOM     32  H   UNL A   1      28.253  33.720  23.465  1.00  0.00     0.039 H 
ENDBRANCH  20  23
ENDBRANCH  17  20
ENDBRANCH  14  17
ENDBRANCH  11  14
ENDBRANCH   9  11
ENDBRANCH   4   7
ENDBRANCH   1   4
BRANCH   1  33
ATOM     33  C   UNL A   1      31.732  29.257  27.201  1.00  0.00    -0.052 C 
ATOM     34  H   UNL A   1      31.919  29.755  28.128  1.00  0.00     0.027 H 
ATOM     35  H   UNL A   1      30.781  28.767  27.156  1.00  0.00     0.027 H 
BRANCH  33  36
ATOM     36  C   UNL A   1      31.708  30.315  26.094  1.00  0.00    -0.052 C 
ATOM     37  H   UNL A   1      30.920  30.064  25.415  1.00  0.00     0.027 H 
ATOM     38  H   UNL A   1      32.681  30.296  25.647  1.00  0.00     0.027 H 
BRANCH  36  39
ATOM     39  C   UNL A   1      31.488  31.752  26.566  1.00  0.00    -0.036 C 
ATOM     40  H   UNL A   1      30.827  31.725  27.408  1.00  0.00     0.028 H 
ATOM     41  H   UNL A   1      31.090  32.281  25.725  1.00  0.00     0.028 H 
BRANCH  39  42
ATOM     42  C   UNL A   1      32.748  32.507  26.981  1.00  0.00     0.018 C 
ATOM     43  H   UNL A   1      33.395  32.583  26.132  1.00  0.00     0.049 H 
ATOM     44  H   UNL A   1      33.201  31.959  27.780  1.00  0.00     0.049 H 
BRANCH  42  45
ATOM     45  N   UNL A   1      32.471  33.846  27.475  1.00  0.00    -0.352 N 
ATOM     46  C   UNL A   1      33.080  34.550  28.482  1.00  0.00     0.251 C 
ATOM     47  H   UNL A   1      31.737  34.318  27.018  1.00  0.00     0.163 HD
ATOM     48  O   UNL A   1      32.619  35.634  28.837  1.00  0.00    -0.269 OA
BRANCH  46  49
ATOM     49  C   UNL A   1      34.271  34.005  29.172  1.00  0.00     0.039 A 
ATOM     50  C   UNL A   1      34.079  33.076  30.199  1.00  0.00    -0.049 A 
ATOM     51  C   UNL A   1      35.565  34.409  28.832  1.00  0.00    -0.049 A 
ATOM     52  C   UNL A   1      35.183  32.507  30.840  1.00  0.00    -0.053 A 
ATOM     53  H   UNL A   1      33.124  32.811  30.485  1.00  0.00     0.063 H 
ATOM     54  C   UNL A   1      36.667  33.794  29.426  1.00  0.00    -0.053 A 
ATOM     55  H   UNL A   1      35.705  35.163  28.141  1.00  0.00     0.063 H 
ATOM     56  C   UNL A   1      36.487  32.836  30.434  1.00  0.00    -0.014 A 
ATOM     57  H   UNL A   1      35.039  31.841  31.614  1.00  0.00     0.063 H 
ATOM     58  H   UNL A   1      37.621  34.044  29.121  1.00  0.00     0.063 H 
BRANCH  56  59
ATOM     59  C   UNL A   1      37.661  32.161  31.045  1.00  0.00     0.031 A 
ATOM     60  C   UNL A   1      38.128  32.529  32.426  1.00  0.00     0.074 A 
ATOM     61  C   UNL A   1      38.339  31.242  30.332  1.00  0.00     0.049 A 
ATOM     62  N   UNL A   1      39.126  32.039  33.120  1.00  0.00    -0.248 NA
ATOM     63  C   UNL A   1      37.395  33.605  33.107  1.00  0.00    -0.034 C 
ATOM     64  C   UNL A   1      38.024  30.839  28.960  1.00  0.00    -0.036 A 
ATOM     65  N   UNL A   1      39.431  30.479  30.660  1.00  0.00    -0.354 N 
ATOM     66  C   UNL A   1      39.148  32.755  34.310  1.00  0.00     0.074 A 
ATOM     67  C   UNL A   1      38.094  33.745  34.225  1.00  0.00    -0.034 C 
ATOM     68  H   UNL A   1      36.555  34.118  32.798  1.00  0.00     0.065 H 
ATOM     69  C   UNL A   1      38.879  29.878  28.578  1.00  0.00    -0.036 A 
ATOM     70  H   UNL A   1      37.267  31.232  28.380  1.00  0.00     0.065 H 
ATOM     71  C   UNL A   1      39.817  29.615  29.664  1.00  0.00     0.049 A 
ATOM     72  H   UNL A   1      39.894  30.544  31.526  1.00  0.00     0.167 HD
ATOM     73  C   UNL A   1      39.958  32.589  35.382  1.00  0.00     0.037 A 
ATOM     74  H   UNL A   1      37.914  34.465  34.941  1.00  0.00     0.065 H 
ATOM     75  H   UNL A   1      38.872  29.400  27.663  1.00  0.00     0.065 H 
ATOM     76  C   UNL A   1      40.810  28.707  29.635  1.00  0.00     0.037 A 
ATOM     77  C   UNL A   1      40.987  31.584  35.478  1.00  0.00     0.049 A 
ATOM     78  C   UNL A   1      41.685  28.532  30.845  1.00  0.00     0.074 A 
ATOM     79  C   UNL A   1      41.800  31.278  36.555  1.00  0.00    -0.036 A 
ATOM     80  N   UNL A   1      41.349  30.725  34.449  1.00  0.00    -0.354 N 
ATOM     81  N   UNL A   1      41.637  29.151  31.998  1.00  0.00    -0.248 NA
ATOM     82  C   UNL A   1      42.749  27.523  30.747  1.00  0.00    -0.034 C 
ATOM     83  C   UNL A   1      42.684  30.266  36.165  1.00  0.00    -0.036 A 
ATOM     84  H   UNL A   1      41.760  31.720  37.486  1.00  0.00     0.065 H 
ATOM     85  C   UNL A   1      42.393  29.909  34.859  1.00  0.00     0.049 A 
ATOM     86  H   UNL A   1      40.926  30.698  33.560  1.00  0.00     0.167 HD
ATOM     87  C   UNL A   1      42.646  28.593  32.773  1.00  0.00     0.074 A 
ATOM     88  C   UNL A   1      43.276  27.571  31.962  1.00  0.00    -0.034 C 
ATOM     89  H   UNL A   1      43.015  26.932  29.944  1.00  0.00     0.065 H 
ATOM     90  H   UNL A   1      43.428  29.856  36.751  1.00  0.00     0.065 H 
ATOM     91  C   UNL A   1      43.016  28.900  34.041  1.00  0.00     0.037 A 
ATOM     92  H   UNL A   1      44.039  26.958  32.290  1.00  0.00     0.065 H 
BRANCH  73  93
ATOM     93  C   UNL A   1      39.766  33.519  36.545  1.00  0.00     0.064 A 
ATOM     94  C   UNL A   1      40.388  34.776  36.596  1.00  0.00     0.173 A 
ATOM     95  C   UNL A   1      38.928  33.159  37.611  1.00  0.00     0.173 A 
ATOM     96  F   UNL A   1      41.208  35.162  35.607  1.00  0.00    -0.203 F 
ATOM     97  C   UNL A   1      40.205  35.622  37.686  1.00  0.00     0.198 A 
ATOM     98  C   UNL A   1      38.723  34.021  38.686  1.00  0.00     0.198 A 
ATOM     99  F   UNL A   1      38.303  31.972  37.610  1.00  0.00    -0.203 F 
ATOM    100  F   UNL A   1      40.851  36.796  37.736  1.00  0.00    -0.200 F 
ATOM    101  C   UNL A   1      39.369  35.249  38.727  1.00  0.00     0.200 A 
ATOM    102  F   UNL A   1      37.906  33.663  39.686  1.00  0.00    -0.200 F 
ATOM    103  F   UNL A   1      39.192  36.066  39.774  1.00  0.00    -0.200 F 
ENDBRANCH  73  93
BRANCH  76 104
ATOM    104  C   UNL A   1      40.996  27.854  28.433  1.00  0.00     0.064 A 
ATOM    105  C   UNL A   1      41.807  28.283  27.373  1.00  0.00     0.173 A 
ATOM    106  C   UNL A   1      40.377  26.602  28.319  1.00  0.00     0.173 A 
ATOM    107  F   UNL A   1      42.402  29.484  27.429  1.00  0.00    -0.203 F 
ATOM    108  C   UNL A   1      41.979  27.498  26.236  1.00  0.00     0.198 A 
ATOM    109  C   UNL A   1      40.570  25.806  27.193  1.00  0.00     0.198 A 
ATOM    110  F   UNL A   1      39.595  26.147  29.309  1.00  0.00    -0.203 F 
ATOM    111  F   UNL A   1      42.727  27.949  25.220  1.00  0.00    -0.200 F 
ATOM    112  C   UNL A   1      41.365  26.257  26.149  1.00  0.00     0.200 A 
ATOM    113  F   UNL A   1      39.985  24.604  27.116  1.00  0.00    -0.200 F 
ATOM    114  F   UNL A   1      41.535  25.499  25.057  1.00  0.00    -0.200 F 
ENDBRANCH  76 104
BRANCH  91 115
ATOM    115  C   UNL A   1      44.144  28.105  34.631  1.00  0.00     0.064 A 
ATOM    116  C   UNL A   1      43.917  26.888  35.293  1.00  0.00     0.173 A 
ATOM    117  C   UNL A   1      45.466  28.560  34.528  1.00  0.00     0.173 A 
ATOM    118  F   UNL A   1      42.668  26.419  35.432  1.00  0.00    -0.203 F 
ATOM    119  C   UNL A   1      44.969  26.174  35.859  1.00  0.00     0.198 A 
ATOM    120  C   UNL A   1      46.520  27.828  35.070  1.00  0.00     0.198 A 
ATOM    121  F   UNL A   1      45.738  29.714  33.902  1.00  0.00    -0.203 F 
ATOM    122  F   UNL A   1      44.722  25.045  36.536  1.00  0.00    -0.200 F 
ATOM    123  C   UNL A   1      46.270  26.642  35.743  1.00  0.00     0.200 A 
ATOM    124  F   UNL A   1      47.778  28.276  34.948  1.00  0.00    -0.200 F 
ATOM    125  F   UNL A   1      47.282  25.954  36.291  1.00  0.00    -0.200 F 
ENDBRANCH  91 115
ENDBRANCH  56  59
ENDBRANCH  46  49
ENDBRANCH  42  45
ENDBRANCH  39  42
ENDBRANCH  36  39
ENDBRANCH  33  36
ENDBRANCH   1  33
TORSDOF 17
ENDMDL
MODEL 3
REMARK VINA RESULT:     -10.4      6.618     10.660
REMARK SMILES O=C(CCCC[C@@H]1CCSS1)NCCCCCCNC(=O)c1ccc(-c2c3nc(c(-c4c(F)c(F)c(F)c(F)c4F)c4ccc([nH]4)c(-c4c(F)c(F)c(F)c(F)c4F)c4nc(c(-c5c(F)c(F)c(F)c(F)c5F)c5ccc2[nH]5)C=C4)C=C3)cc1
REMARK SMILES IDX 14 1 13 4 12 7 1 8 2 9 3 11 4 14 5 17 6 20 7 23 8 24 11 25
REMARK SMILES IDX 9 27 10 30 15 33 16 36 17 39 18 42 19 45 20 46 21 48 22 49
REMARK SMILES IDX 23 50 84 51 24 52 83 54 25 56 26 59 27 60 77 61 28 62 82 63
REMARK SMILES IDX 76 64 78 65 29 66 81 67 75 69 74 71 30 73 62 76 42 77 61 78
REMARK SMILES IDX 43 79 46 80 60 81 79 82 44 83 45 85 59 87 80 88 47 91 31 93
REMARK SMILES IDX 32 94 40 95 33 96 34 97 38 98 41 99 35 100 36 101 39 102
REMARK SMILES IDX 37 103 63 104 64 105 72 106 65 107 66 108 70 109 73 110
REMARK SMILES IDX 67 111 68 112 71 113 69 114 48 115 49 116 57 117 50 118
REMARK SMILES IDX 51 119 55 120 58 121 52 122 53 123 56 124 54 125
REMARK H PARENT 14 2 14 3 13 5 13 6 12 10 3 12 3 13 4 15 4 16 5 18 5 19 6 21
REMARK H PARENT 6 22 7 26 8 28 8 29 9 31 9 32 15 34 15 35 16 37 16 38 17 40
REMARK H PARENT 17 41 18 43 18 44 19 47 23 53 84 55 24 57 83 58 82 68 76 70
REMARK H PARENT 78 72 81 74 75 75 43 84 46 86 79 89 44 90 80 92
REMARK Flexibility Score: inf
ROOT
ATOM      1  C   UNL A   1      36.210  23.219  25.680  1.00  0.00    -0.036 C 
ATOM      2  H   UNL A   1      35.663  23.489  26.561  1.00  0.00     0.028 H 
ATOM      3  H   UNL A   1      37.242  23.498  25.716  1.00  0.00     0.028 H 
ENDROOT
BRANCH   1   4
ATOM      4  C   UNL A   1      35.607  23.978  24.498  1.00  0.00     0.017 C 
ATOM      5  H   UNL A   1      35.693  25.029  24.677  1.00  0.00     0.049 H 
ATOM      6  H   UNL A   1      36.138  23.700  23.612  1.00  0.00     0.049 H 
BRANCH   4   7
ATOM      7  N   UNL A   1      34.211  23.645  24.315  1.00  0.00    -0.356 N 
ATOM      8  O   UNL A   1      34.283  23.356  22.041  1.00  0.00    -0.275 OA
ATOM      9  C   UNL A   1      33.657  23.351  23.095  1.00  0.00     0.219 C 
ATOM     10  H   UNL A   1      33.627  23.630  25.108  1.00  0.00     0.163 HD
BRANCH   9  11
ATOM     11  C   UNL A   1      32.175  23.030  23.160  1.00  0.00     0.026 C 
ATOM     12  H   UNL A   1      31.838  22.789  22.174  1.00  0.00     0.037 H 
ATOM     13  H   UNL A   1      31.686  23.894  23.558  1.00  0.00     0.037 H 
BRANCH  11  14
ATOM     14  C   UNL A   1      31.840  21.860  24.087  1.00  0.00    -0.044 C 
ATOM     15  H   UNL A   1      30.787  21.688  24.023  1.00  0.00     0.027 H 
ATOM     16  H   UNL A   1      32.187  22.161  25.054  1.00  0.00     0.027 H 
BRANCH  14  17
ATOM     17  C   UNL A   1      32.548  20.529  23.801  1.00  0.00    -0.052 C 
ATOM     18  H   UNL A   1      33.503  20.751  23.373  1.00  0.00     0.027 H 
ATOM     19  H   UNL A   1      31.892  19.987  23.151  1.00  0.00     0.027 H 
BRANCH  17  20
ATOM     20  C   UNL A   1      32.778  19.612  25.011  1.00  0.00    -0.040 C 
ATOM     21  H   UNL A   1      31.922  19.676  25.651  1.00  0.00     0.028 H 
ATOM     22  H   UNL A   1      33.672  19.946  25.494  1.00  0.00     0.028 H 
BRANCH  20  23
ATOM     23  C   UNL A   1      32.993  18.137  24.633  1.00  0.00     0.016 C 
ATOM     24  C   UNL A   1      32.541  17.182  25.747  1.00  0.00    -0.030 C 
ATOM     25  S   UNL A   1      34.766  17.790  24.357  1.00  0.00    -0.091 SA
ATOM     26  H   UNL A   1      32.414  17.977  23.747  1.00  0.00     0.043 H 
ATOM     27  C   UNL A   1      33.026  15.767  25.456  1.00  0.00     0.005 C 
ATOM     28  H   UNL A   1      31.473  17.185  25.804  1.00  0.00     0.029 H 
ATOM     29  H   UNL A   1      32.958  17.509  26.677  1.00  0.00     0.029 H 
ATOM     30  S   UNL A   1      34.798  15.894  25.131  1.00  0.00    -0.094 SA
ATOM     31  H   UNL A   1      32.519  15.371  24.601  1.00  0.00     0.039 H 
ATOM     32  H   UNL A   1      32.826  15.111  26.278  1.00  0.00     0.039 H 
ENDBRANCH  20  23
ENDBRANCH  17  20
ENDBRANCH  14  17
ENDBRANCH  11  14
ENDBRANCH   9  11
ENDBRANCH   4   7
ENDBRANCH   1   4
BRANCH   1  33
ATOM     33  C   UNL A   1      36.186  21.688  25.556  1.00  0.00    -0.052 C 
ATOM     34  H   UNL A   1      35.186  21.392  25.319  1.00  0.00     0.027 H 
ATOM     35  H   UNL A   1      36.539  21.312  26.494  1.00  0.00     0.027 H 
BRANCH  33  36
ATOM     36  C   UNL A   1      37.117  21.098  24.493  1.00  0.00    -0.052 C 
ATOM     37  H   UNL A   1      37.802  21.863  24.193  1.00  0.00     0.027 H 
ATOM     38  H   UNL A   1      36.482  20.756  23.702  1.00  0.00     0.027 H 
BRANCH  36  39
ATOM     39  C   UNL A   1      37.930  19.882  24.937  1.00  0.00    -0.036 C 
ATOM     40  H   UNL A   1      38.395  19.460  24.071  1.00  0.00     0.028 H 
ATOM     41  H   UNL A   1      37.237  19.222  25.417  1.00  0.00     0.028 H 
BRANCH  39  42
ATOM     42  C   UNL A   1      39.022  20.164  25.966  1.00  0.00     0.018 C 
ATOM     43  H   UNL A   1      38.588  20.129  26.943  1.00  0.00     0.049 H 
ATOM     44  H   UNL A   1      39.430  21.128  25.744  1.00  0.00     0.049 H 
BRANCH  42  45
ATOM     45  N   UNL A   1      40.116  19.208  25.910  1.00  0.00    -0.352 N 
ATOM     46  C   UNL A   1      41.466  19.414  26.041  1.00  0.00     0.251 C 
ATOM     47  H   UNL A   1      39.848  18.273  25.755  1.00  0.00     0.163 HD
ATOM     48  O   UNL A   1      42.249  18.487  25.839  1.00  0.00    -0.269 OA
BRANCH  46  49
ATOM     49  C   UNL A   1      41.995  20.751  26.392  1.00  0.00     0.039 A 
ATOM     50  C   UNL A   1      42.230  21.666  25.362  1.00  0.00    -0.049 A 
ATOM     51  C   UNL A   1      42.279  21.104  27.715  1.00  0.00    -0.049 A 
ATOM     52  C   UNL A   1      42.686  22.952  25.662  1.00  0.00    -0.053 A 
ATOM     53  H   UNL A   1      42.067  21.393  24.380  1.00  0.00     0.063 H 
ATOM     54  C   UNL A   1      42.671  22.407  28.020  1.00  0.00    -0.053 A 
ATOM     55  H   UNL A   1      42.197  20.400  28.465  1.00  0.00     0.063 H 
ATOM     56  C   UNL A   1      42.877  23.344  26.997  1.00  0.00    -0.014 A 
ATOM     57  H   UNL A   1      42.882  23.618  24.898  1.00  0.00     0.063 H 
ATOM     58  H   UNL A   1      42.809  22.684  29.005  1.00  0.00     0.063 H 
BRANCH  56  59
ATOM     59  C   UNL A   1      43.267  24.739  27.327  1.00  0.00     0.031 A 
ATOM     60  C   UNL A   1      44.665  25.229  27.069  1.00  0.00     0.074 A 
ATOM     61  C   UNL A   1      42.367  25.557  27.904  1.00  0.00     0.049 A 
ATOM     62  N   UNL A   1      45.180  26.415  27.285  1.00  0.00    -0.248 NA
ATOM     63  C   UNL A   1      45.618  24.252  26.523  1.00  0.00    -0.034 C 
ATOM     64  C   UNL A   1      40.997  25.185  28.261  1.00  0.00    -0.036 A 
ATOM     65  N   UNL A   1      42.467  26.870  28.293  1.00  0.00    -0.354 N 
ATOM     66  C   UNL A   1      46.514  26.322  26.914  1.00  0.00     0.074 A 
ATOM     67  C   UNL A   1      46.743  24.952  26.504  1.00  0.00    -0.034 C 
ATOM     68  H   UNL A   1      45.454  23.277  26.228  1.00  0.00     0.065 H 
ATOM     69  C   UNL A   1      40.373  26.254  28.780  1.00  0.00    -0.036 A 
ATOM     70  H   UNL A   1      40.578  24.251  28.134  1.00  0.00     0.065 H 
ATOM     71  C   UNL A   1      41.305  27.377  28.819  1.00  0.00     0.049 A 
ATOM     72  H   UNL A   1      43.293  27.397  28.203  1.00  0.00     0.167 HD
ATOM     73  C   UNL A   1      47.456  27.295  26.896  1.00  0.00     0.037 A 
ATOM     74  H   UNL A   1      47.663  24.572  26.235  1.00  0.00     0.065 H 
ATOM     75  H   UNL A   1      39.392  26.278  29.100  1.00  0.00     0.065 H 
ATOM     76  C   UNL A   1      41.020  28.612  29.273  1.00  0.00     0.037 A 
ATOM     77  C   UNL A   1      47.221  28.665  27.275  1.00  0.00     0.049 A 
ATOM     78  C   UNL A   1      42.080  29.677  29.227  1.00  0.00     0.074 A 
ATOM     79  C   UNL A   1      48.086  29.743  27.208  1.00  0.00    -0.036 A 
ATOM     80  N   UNL A   1      46.029  29.143  27.803  1.00  0.00    -0.354 N 
ATOM     81  N   UNL A   1      43.311  29.602  28.788  1.00  0.00    -0.248 NA
ATOM     82  C   UNL A   1      41.702  31.003  29.737  1.00  0.00    -0.034 C 
ATOM     83  C   UNL A   1      47.435  30.863  27.736  1.00  0.00    -0.036 A 
ATOM     84  H   UNL A   1      49.046  29.724  26.832  1.00  0.00     0.065 H 
ATOM     85  C   UNL A   1      46.148  30.494  28.092  1.00  0.00     0.049 A 
ATOM     86  H   UNL A   1      45.219  28.603  27.950  1.00  0.00     0.167 HD
ATOM     87  C   UNL A   1      43.850  30.872  28.944  1.00  0.00     0.074 A 
ATOM     88  C   UNL A   1      42.803  31.703  29.501  1.00  0.00    -0.034 C 
ATOM     89  H   UNL A   1      40.814  31.308  30.164  1.00  0.00     0.065 H 
ATOM     90  H   UNL A   1      47.844  31.804  27.844  1.00  0.00     0.065 H 
ATOM     91  C   UNL A   1      45.100  31.309  28.652  1.00  0.00     0.037 A 
ATOM     92  H   UNL A   1      42.902  32.713  29.691  1.00  0.00     0.065 H 
BRANCH  73  93
ATOM     93  C   UNL A   1      48.839  26.911  26.451  1.00  0.00     0.064 A 
ATOM     94  C   UNL A   1      49.792  26.411  27.351  1.00  0.00     0.173 A 
ATOM     95  C   UNL A   1      49.206  27.021  25.101  1.00  0.00     0.173 A 
ATOM     96  F   UNL A   1      49.494  26.298  28.654  1.00  0.00    -0.203 F 
ATOM     97  C   UNL A   1      51.071  26.068  26.923  1.00  0.00     0.198 A 
ATOM     98  C   UNL A   1      50.477  26.647  24.671  1.00  0.00     0.198 A 
ATOM     99  F   UNL A   1      48.331  27.486  24.197  1.00  0.00    -0.203 F 
ATOM    100  F   UNL A   1      51.981  25.642  27.810  1.00  0.00    -0.200 F 
ATOM    101  C   UNL A   1      51.412  26.180  25.583  1.00  0.00     0.200 A 
ATOM    102  F   UNL A   1      50.801  26.746  23.374  1.00  0.00    -0.200 F 
ATOM    103  F   UNL A   1      52.643  25.846  25.172  1.00  0.00    -0.200 F 
ENDBRANCH  73  93
BRANCH  76 104
ATOM    104  C   UNL A   1      39.652  28.922  29.761  1.00  0.00     0.064 A 
ATOM    105  C   UNL A   1      39.299  28.678  31.096  1.00  0.00     0.173 A 
ATOM    106  C   UNL A   1      38.677  29.466  28.915  1.00  0.00     0.173 A 
ATOM    107  F   UNL A   1      40.193  28.137  31.936  1.00  0.00    -0.203 F 
ATOM    108  C   UNL A   1      38.016  28.952  31.563  1.00  0.00     0.198 A 
ATOM    109  C   UNL A   1      37.401  29.765  29.389  1.00  0.00     0.198 A 
ATOM    110  F   UNL A   1      38.968  29.721  27.631  1.00  0.00    -0.203 F 
ATOM    111  F   UNL A   1      37.693  28.673  32.832  1.00  0.00    -0.200 F 
ATOM    112  C   UNL A   1      37.069  29.502  30.710  1.00  0.00     0.200 A 
ATOM    113  F   UNL A   1      36.492  30.306  28.566  1.00  0.00    -0.200 F 
ATOM    114  F   UNL A   1      35.837  29.772  31.160  1.00  0.00    -0.200 F 
ENDBRANCH  76 104
BRANCH  91 115
ATOM    115  C   UNL A   1      45.392  32.758  28.914  1.00  0.00     0.064 A 
ATOM    116  C   UNL A   1      45.961  33.186  30.123  1.00  0.00     0.173 A 
ATOM    117  C   UNL A   1      45.106  33.729  27.943  1.00  0.00     0.173 A 
ATOM    118  F   UNL A   1      46.237  32.298  31.090  1.00  0.00    -0.203 F 
ATOM    119  C   UNL A   1      46.202  34.536  30.362  1.00  0.00     0.198 A 
ATOM    120  C   UNL A   1      45.376  35.075  28.174  1.00  0.00     0.198 A 
ATOM    121  F   UNL A   1      44.566  33.372  26.768  1.00  0.00    -0.203 F 
ATOM    122  F   UNL A   1      46.692  34.928  31.546  1.00  0.00    -0.200 F 
ATOM    123  C   UNL A   1      45.914  35.479  29.387  1.00  0.00     0.200 A 
ATOM    124  F   UNL A   1      45.106  35.984  27.226  1.00  0.00    -0.200 F 
ATOM    125  F   UNL A   1      46.144  36.778  29.620  1.00  0.00    -0.200 F 
ENDBRANCH  91 115
ENDBRANCH  56  59
ENDBRANCH  46  49
ENDBRANCH  42  45
ENDBRANCH  39  42
ENDBRANCH  36  39
ENDBRANCH  33  36
ENDBRANCH   1  33
TORSDOF 17
ENDMDL
MODEL 4
REMARK VINA RESULT:     -10.4      1.630      7.968
REMARK SMILES O=C(CCCC[C@@H]1CCSS1)NCCCCCCNC(=O)c1ccc(-c2c3nc(c(-c4c(F)c(F)c(F)c(F)c4F)c4ccc([nH]4)c(-c4c(F)c(F)c(F)c(F)c4F)c4nc(c(-c5c(F)c(F)c(F)c(F)c5F)c5ccc2[nH]5)C=C4)C=C3)cc1
REMARK SMILES IDX 14 1 13 4 12 7 1 8 2 9 3 11 4 14 5 17 6 20 7 23 8 24 11 25
REMARK SMILES IDX 9 27 10 30 15 33 16 36 17 39 18 42 19 45 20 46 21 48 22 49
REMARK SMILES IDX 23 50 84 51 24 52 83 54 25 56 26 59 27 60 77 61 28 62 82 63
REMARK SMILES IDX 76 64 78 65 29 66 81 67 75 69 74 71 30 73 62 76 42 77 61 78
REMARK SMILES IDX 43 79 46 80 60 81 79 82 44 83 45 85 59 87 80 88 47 91 31 93
REMARK SMILES IDX 32 94 40 95 33 96 34 97 38 98 41 99 35 100 36 101 39 102
REMARK SMILES IDX 37 103 63 104 64 105 72 106 65 107 66 108 70 109 73 110
REMARK SMILES IDX 67 111 68 112 71 113 69 114 48 115 49 116 57 117 50 118
REMARK SMILES IDX 51 119 55 120 58 121 52 122 53 123 56 124 54 125
REMARK H PARENT 14 2 14 3 13 5 13 6 12 10 3 12 3 13 4 15 4 16 5 18 5 19 6 21
REMARK H PARENT 6 22 7 26 8 28 8 29 9 31 9 32 15 34 15 35 16 37 16 38 17 40
REMARK H PARENT 17 41 18 43 18 44 19 47 23 53 84 55 24 57 83 58 82 68 76 70
REMARK H PARENT 78 72 81 74 75 75 43 84 46 86 79 89 44 90 80 92
REMARK Flexibility Score: inf
ROOT
ATOM      1  C   UNL A   1      35.382  31.876  28.007  1.00  0.00    -0.036 C 
ATOM      2  H   UNL A   1      35.322  32.238  27.000  1.00  0.00     0.028 H 
ATOM      3  H   UNL A   1      36.354  31.979  28.440  1.00  0.00     0.028 H 
ENDROOT
BRANCH   1   4
ATOM      4  C   UNL A   1      35.081  30.377  27.990  1.00  0.00     0.017 C 
ATOM      5  H   UNL A   1      35.708  29.904  27.263  1.00  0.00     0.049 H 
ATOM      6  H   UNL A   1      35.271  29.984  28.966  1.00  0.00     0.049 H 
BRANCH   4   7
ATOM      7  N   UNL A   1      33.698  30.121  27.656  1.00  0.00    -0.356 N 
ATOM      8  O   UNL A   1      34.086  28.860  25.780  1.00  0.00    -0.275 OA
ATOM      9  C   UNL A   1      33.306  29.371  26.576  1.00  0.00     0.219 C 
ATOM     10  H   UNL A   1      32.999  30.506  28.234  1.00  0.00     0.163 HD
BRANCH   9  11
ATOM     11  C   UNL A   1      31.800  29.242  26.437  1.00  0.00     0.026 C 
ATOM     12  H   UNL A   1      31.383  30.224  26.362  1.00  0.00     0.037 H 
ATOM     13  H   UNL A   1      31.452  28.716  27.301  1.00  0.00     0.037 H 
BRANCH  11  14
ATOM     14  C   UNL A   1      31.363  28.435  25.214  1.00  0.00    -0.044 C 
ATOM     15  H   UNL A   1      30.533  27.828  25.507  1.00  0.00     0.027 H 
ATOM     16  H   UNL A   1      32.234  27.889  24.913  1.00  0.00     0.027 H 
BRANCH  14  17
ATOM     17  C   UNL A   1      30.941  29.235  23.974  1.00  0.00    -0.052 C 
ATOM     18  H   UNL A   1      31.738  29.179  23.262  1.00  0.00     0.027 H 
ATOM     19  H   UNL A   1      30.736  30.225  24.326  1.00  0.00     0.027 H 
BRANCH  17  20
ATOM     20  C   UNL A   1      29.654  28.770  23.276  1.00  0.00    -0.040 C 
ATOM     21  H   UNL A   1      29.136  28.102  23.933  1.00  0.00     0.028 H 
ATOM     22  H   UNL A   1      29.945  28.298  22.362  1.00  0.00     0.028 H 
BRANCH  20  23
ATOM     23  C   UNL A   1      28.705  29.923  22.908  1.00  0.00     0.016 C 
ATOM     24  C   UNL A   1      28.855  30.350  21.441  1.00  0.00    -0.030 C 
ATOM     25  S   UNL A   1      29.070  31.409  23.907  1.00  0.00    -0.091 SA
ATOM     26  H   UNL A   1      27.717  29.554  23.090  1.00  0.00     0.043 H 
ATOM     27  C   UNL A   1      28.116  31.659  21.195  1.00  0.00     0.005 C 
ATOM     28  H   UNL A   1      28.448  29.589  20.808  1.00  0.00     0.029 H 
ATOM     29  H   UNL A   1      29.893  30.489  21.222  1.00  0.00     0.029 H 
ATOM     30  S   UNL A   1      28.687  32.811  22.464  1.00  0.00    -0.094 SA
ATOM     31  H   UNL A   1      27.059  31.509  21.279  1.00  0.00     0.039 H 
ATOM     32  H   UNL A   1      28.308  32.036  20.212  1.00  0.00     0.039 H 
ENDBRANCH  20  23
ENDBRANCH  17  20
ENDBRANCH  14  17
ENDBRANCH  11  14
ENDBRANCH   9  11
ENDBRANCH   4   7
ENDBRANCH   1   4
BRANCH   1  33
ATOM     33  C   UNL A   1      34.437  32.724  28.872  1.00  0.00    -0.052 C 
ATOM     34  H   UNL A   1      34.713  32.584  29.896  1.00  0.00     0.027 H 
ATOM     35  H   UNL A   1      33.447  32.388  28.641  1.00  0.00     0.027 H 
BRANCH  33  36
ATOM     36  C   UNL A   1      34.447  34.227  28.583  1.00  0.00    -0.052 C 
ATOM     37  H   UNL A   1      34.724  34.364  27.558  1.00  0.00     0.027 H 
ATOM     38  H   UNL A   1      35.141  34.656  29.276  1.00  0.00     0.027 H 
BRANCH  36  39
ATOM     39  C   UNL A   1      33.118  34.948  28.814  1.00  0.00    -0.036 C 
ATOM     40  H   UNL A   1      32.481  34.294  29.371  1.00  0.00     0.028 H 
ATOM     41  H   UNL A   1      32.741  35.189  27.842  1.00  0.00     0.028 H 
BRANCH  39  42
ATOM     42  C   UNL A   1      33.212  36.271  29.569  1.00  0.00     0.018 C 
ATOM     43  H   UNL A   1      32.867  37.055  28.928  1.00  0.00     0.049 H 
ATOM     44  H   UNL A   1      34.236  36.406  29.851  1.00  0.00     0.049 H 
BRANCH  42  45
ATOM     45  N   UNL A   1      32.421  36.286  30.788  1.00  0.00    -0.352 N 
ATOM     46  C   UNL A   1      32.639  35.645  31.981  1.00  0.00     0.251 C 
ATOM     47  H   UNL A   1      31.607  36.840  30.753  1.00  0.00     0.163 HD
ATOM     48  O   UNL A   1      31.782  35.686  32.863  1.00  0.00    -0.269 OA
BRANCH  46  49
ATOM     49  C   UNL A   1      33.882  34.876  32.209  1.00  0.00     0.039 A 
ATOM     50  C   UNL A   1      35.106  35.548  32.125  1.00  0.00    -0.049 A 
ATOM     51  C   UNL A   1      33.857  33.506  32.484  1.00  0.00    -0.049 A 
ATOM     52  C   UNL A   1      36.296  34.862  32.380  1.00  0.00    -0.053 A 
ATOM     53  H   UNL A   1      35.130  36.549  31.875  1.00  0.00     0.063 H 
ATOM     54  C   UNL A   1      35.040  32.837  32.802  1.00  0.00    -0.053 A 
ATOM     55  H   UNL A   1      32.965  32.990  32.453  1.00  0.00     0.063 H 
ATOM     56  C   UNL A   1      36.270  33.509  32.754  1.00  0.00    -0.014 A 
ATOM     57  H   UNL A   1      37.199  35.353  32.293  1.00  0.00     0.063 H 
ATOM     58  H   UNL A   1      35.009  31.842  33.075  1.00  0.00     0.063 H 
BRANCH  56  59
ATOM     59  C   UNL A   1      37.524  32.801  33.121  1.00  0.00     0.031 A 
ATOM     60  C   UNL A   1      38.226  33.100  34.416  1.00  0.00     0.074 A 
ATOM     61  C   UNL A   1      38.059  31.917  32.258  1.00  0.00     0.049 A 
ATOM     62  N   UNL A   1      39.323  32.574  34.904  1.00  0.00    -0.248 NA
ATOM     63  C   UNL A   1      37.633  34.143  35.265  1.00  0.00    -0.034 C 
ATOM     64  C   UNL A   1      37.509  31.583  30.942  1.00  0.00    -0.036 A 
ATOM     65  N   UNL A   1      39.183  31.136  32.356  1.00  0.00    -0.354 N 
ATOM     66  C   UNL A   1      39.557  33.230  36.105  1.00  0.00     0.074 A 
ATOM     67  C   UNL A   1      38.515  34.225  36.251  1.00  0.00    -0.034 C 
ATOM     68  H   UNL A   1      36.757  34.672  35.130  1.00  0.00     0.065 H 
ATOM     69  C   UNL A   1      38.275  30.640  30.373  1.00  0.00    -0.036 A 
ATOM     70  H   UNL A   1      36.668  32.006  30.521  1.00  0.00     0.065 H 
ATOM     71  C   UNL A   1      39.384  30.322  31.268  1.00  0.00     0.049 A 
ATOM     72  H   UNL A   1      39.789  31.158  33.131  1.00  0.00     0.167 HD
ATOM     73  C   UNL A   1      40.537  33.009  37.013  1.00  0.00     0.037 A 
ATOM     74  H   UNL A   1      38.468  34.910  37.021  1.00  0.00     0.065 H 
ATOM     75  H   UNL A   1      38.106  30.208  29.451  1.00  0.00     0.065 H 
ATOM     76  C   UNL A   1      40.347  29.413  31.025  1.00  0.00     0.037 A 
ATOM     77  C   UNL A   1      41.556  31.998  36.881  1.00  0.00     0.049 A 
ATOM     78  C   UNL A   1      41.414  29.177  32.056  1.00  0.00     0.074 A 
ATOM     79  C   UNL A   1      42.538  31.637  37.787  1.00  0.00    -0.036 A 
ATOM     80  N   UNL A   1      41.726  31.190  35.766  1.00  0.00    -0.354 N 
ATOM     81  N   UNL A   1      41.572  29.738  33.229  1.00  0.00    -0.248 NA
ATOM     82  C   UNL A   1      42.434  28.171  31.728  1.00  0.00    -0.034 C 
ATOM     83  C   UNL A   1      43.331  30.644  37.202  1.00  0.00    -0.036 A 
ATOM     84  H   UNL A   1      42.664  32.033  38.731  1.00  0.00     0.065 H 
ATOM     85  C   UNL A   1      42.816  30.353  35.949  1.00  0.00     0.049 A 
ATOM     86  H   UNL A   1      41.157  31.208  34.963  1.00  0.00     0.167 HD
ATOM     87  C   UNL A   1      42.692  29.140  33.790  1.00  0.00     0.074 A 
ATOM     88  C   UNL A   1      43.163  28.158  32.835  1.00  0.00    -0.034 C 
ATOM     89  H   UNL A   1      42.552  27.620  30.863  1.00  0.00     0.065 H 
ATOM     90  H   UNL A   1      44.160  30.203  37.630  1.00  0.00     0.065 H 
ATOM     91  C   UNL A   1      43.279  29.384  34.989  1.00  0.00     0.037 A 
ATOM     92  H   UNL A   1      43.964  27.528  32.997  1.00  0.00     0.065 H 
BRANCH  73  93
ATOM     93  C   UNL A   1      40.558  33.881  38.235  1.00  0.00     0.064 A 
ATOM     94  C   UNL A   1      39.789  33.579  39.370  1.00  0.00     0.173 A 
ATOM     95  C   UNL A   1      41.377  35.018  38.282  1.00  0.00     0.173 A 
ATOM     96  F   UNL A   1      38.981  32.508  39.372  1.00  0.00    -0.203 F 
ATOM     97  C   UNL A   1      39.815  34.402  40.493  1.00  0.00     0.198 A 
ATOM     98  C   UNL A   1      41.423  35.823  39.418  1.00  0.00     0.198 A 
ATOM     99  F   UNL A   1      42.138  35.349  37.228  1.00  0.00    -0.203 F 
ATOM    100  F   UNL A   1      39.033  34.122  41.545  1.00  0.00    -0.200 F 
ATOM    101  C   UNL A   1      40.636  35.519  40.519  1.00  0.00     0.200 A 
ATOM    102  F   UNL A   1      42.225  36.896  39.447  1.00  0.00    -0.200 F 
ATOM    103  F   UNL A   1      40.661  36.309  41.601  1.00  0.00    -0.200 F 
ENDBRANCH  73  93
BRANCH  76 104
ATOM    104  C   UNL A   1      40.314  28.621  29.769  1.00  0.00     0.064 A 
ATOM    105  C   UNL A   1      39.603  27.414  29.706  1.00  0.00     0.173 A 
ATOM    106  C   UNL A   1      40.983  29.048  28.615  1.00  0.00     0.173 A 
ATOM    107  F   UNL A   1      38.966  26.955  30.793  1.00  0.00    -0.203 F 
ATOM    108  C   UNL A   1      39.576  26.656  28.538  1.00  0.00     0.198 A 
ATOM    109  C   UNL A   1      40.934  28.302  27.439  1.00  0.00     0.198 A 
ATOM    110  F   UNL A   1      41.674  30.197  28.625  1.00  0.00    -0.203 F 
ATOM    111  F   UNL A   1      38.921  25.487  28.516  1.00  0.00    -0.200 F 
ATOM    112  C   UNL A   1      40.236  27.103  27.403  1.00  0.00     0.200 A 
ATOM    113  F   UNL A   1      41.564  28.742  26.342  1.00  0.00    -0.200 F 
ATOM    114  F   UNL A   1      40.205  26.377  26.278  1.00  0.00    -0.200 F 
ENDBRANCH  76 104
BRANCH  91 115
ATOM    115  C   UNL A   1      44.482  28.557  35.338  1.00  0.00     0.064 A 
ATOM    116  C   UNL A   1      45.781  28.980  35.019  1.00  0.00     0.173 A 
ATOM    117  C   UNL A   1      44.335  27.332  36.004  1.00  0.00     0.173 A 
ATOM    118  F   UNL A   1      45.973  30.136  34.366  1.00  0.00    -0.203 F 
ATOM    119  C   UNL A   1      46.886  28.191  35.326  1.00  0.00     0.198 A 
ATOM    120  C   UNL A   1      45.445  26.559  36.336  1.00  0.00     0.198 A 
ATOM    121  F   UNL A   1      43.115  26.884  36.336  1.00  0.00    -0.203 F 
ATOM    122  F   UNL A   1      48.113  28.588  34.960  1.00  0.00    -0.200 F 
ATOM    123  C   UNL A   1      46.718  26.983  35.988  1.00  0.00     0.200 A 
ATOM    124  F   UNL A   1      45.281  25.397  36.985  1.00  0.00    -0.200 F 
ATOM    125  F   UNL A   1      47.783  26.224  36.280  1.00  0.00    -0.200 F 
ENDBRANCH  91 115
ENDBRANCH  56  59
ENDBRANCH  46  49
ENDBRANCH  42  45
ENDBRANCH  39  42
ENDBRANCH  36  39
ENDBRANCH  33  36
ENDBRANCH   1  33
TORSDOF 17
ENDMDL
MODEL 5
REMARK VINA RESULT:     -10.4      7.530     12.082
REMARK SMILES O=C(CCCC[C@@H]1CCSS1)NCCCCCCNC(=O)c1ccc(-c2c3nc(c(-c4c(F)c(F)c(F)c(F)c4F)c4ccc([nH]4)c(-c4c(F)c(F)c(F)c(F)c4F)c4nc(c(-c5c(F)c(F)c(F)c(F)c5F)c5ccc2[nH]5)C=C4)C=C3)cc1
REMARK SMILES IDX 14 1 13 4 12 7 1 8 2 9 3 11 4 14 5 17 6 20 7 23 8 24 11 25
REMARK SMILES IDX 9 27 10 30 15 33 16 36 17 39 18 42 19 45 20 46 21 48 22 49
REMARK SMILES IDX 23 50 84 51 24 52 83 54 25 56 26 59 27 60 77 61 28 62 82 63
REMARK SMILES IDX 76 64 78 65 29 66 81 67 75 69 74 71 30 73 62 76 42 77 61 78
REMARK SMILES IDX 43 79 46 80 60 81 79 82 44 83 45 85 59 87 80 88 47 91 31 93
REMARK SMILES IDX 32 94 40 95 33 96 34 97 38 98 41 99 35 100 36 101 39 102
REMARK SMILES IDX 37 103 63 104 64 105 72 106 65 107 66 108 70 109 73 110
REMARK SMILES IDX 67 111 68 112 71 113 69 114 48 115 49 116 57 117 50 118
REMARK SMILES IDX 51 119 55 120 58 121 52 122 53 123 56 124 54 125
REMARK H PARENT 14 2 14 3 13 5 13 6 12 10 3 12 3 13 4 15 4 16 5 18 5 19 6 21
REMARK H PARENT 6 22 7 26 8 28 8 29 9 31 9 32 15 34 15 35 16 37 16 38 17 40
REMARK H PARENT 17 41 18 43 18 44 19 47 23 53 84 55 24 57 83 58 82 68 76 70
REMARK H PARENT 78 72 81 74 75 75 43 84 46 86 79 89 44 90 80 92
REMARK Flexibility Score: inf
ROOT
ATOM      1  C   UNL A   1      41.195  22.107  26.403  1.00  0.00    -0.036 C 
ATOM      2  H   UNL A   1      41.611  23.086  26.281  1.00  0.00     0.028 H 
ATOM      3  H   UNL A   1      41.216  21.519  25.510  1.00  0.00     0.028 H 
ENDROOT
BRANCH   1   4
ATOM      4  C   UNL A   1      39.720  22.262  26.776  1.00  0.00     0.017 C 
ATOM      5  H   UNL A   1      39.466  21.522  27.506  1.00  0.00     0.049 H 
ATOM      6  H   UNL A   1      39.572  23.246  27.165  1.00  0.00     0.049 H 
BRANCH   4   7
ATOM      7  N   UNL A   1      38.865  22.096  25.621  1.00  0.00    -0.356 N 
ATOM      8  O   UNL A   1      37.288  23.654  26.208  1.00  0.00    -0.275 OA
ATOM      9  C   UNL A   1      37.714  22.815  25.423  1.00  0.00     0.219 C 
ATOM     10  H   UNL A   1      39.123  21.431  24.941  1.00  0.00     0.163 HD
BRANCH   9  11
ATOM     11  C   UNL A   1      36.990  22.464  24.135  1.00  0.00     0.026 C 
ATOM     12  H   UNL A   1      37.501  21.645  23.674  1.00  0.00     0.037 H 
ATOM     13  H   UNL A   1      36.995  23.343  23.525  1.00  0.00     0.037 H 
BRANCH  11  14
ATOM     14  C   UNL A   1      35.527  22.069  24.341  1.00  0.00    -0.044 C 
ATOM     15  H   UNL A   1      35.036  22.142  23.394  1.00  0.00     0.027 H 
ATOM     16  H   UNL A   1      35.159  22.741  25.089  1.00  0.00     0.027 H 
BRANCH  14  17
ATOM     17  C   UNL A   1      35.263  20.663  24.897  1.00  0.00    -0.052 C 
ATOM     18  H   UNL A   1      35.809  20.565  25.812  1.00  0.00     0.027 H 
ATOM     19  H   UNL A   1      35.573  19.987  24.127  1.00  0.00     0.027 H 
BRANCH  17  20
ATOM     20  C   UNL A   1      33.795  20.315  25.185  1.00  0.00    -0.040 C 
ATOM     21  H   UNL A   1      33.175  21.044  24.705  1.00  0.00     0.028 H 
ATOM     22  H   UNL A   1      33.675  20.316  26.248  1.00  0.00     0.028 H 
BRANCH  20  23
ATOM     23  C   UNL A   1      33.385  18.920  24.685  1.00  0.00     0.016 C 
ATOM     24  C   UNL A   1      32.620  18.124  25.752  1.00  0.00    -0.030 C 
ATOM     25  S   UNL A   1      34.857  17.921  24.267  1.00  0.00    -0.091 SA
ATOM     26  H   UNL A   1      32.764  19.090  23.830  1.00  0.00     0.043 H 
ATOM     27  C   UNL A   1      32.483  16.668  25.325  1.00  0.00     0.005 C 
ATOM     28  H   UNL A   1      31.646  18.549  25.879  1.00  0.00     0.029 H 
ATOM     29  H   UNL A   1      33.161  18.168  26.674  1.00  0.00     0.029 H 
ATOM     30  S   UNL A   1      34.145  16.107  24.893  1.00  0.00    -0.094 SA
ATOM     31  H   UNL A   1      31.834  16.590  24.477  1.00  0.00     0.039 H 
ATOM     32  H   UNL A   1      32.060  16.072  26.107  1.00  0.00     0.039 H 
ENDBRANCH  20  23
ENDBRANCH  17  20
ENDBRANCH  14  17
ENDBRANCH  11  14
ENDBRANCH   9  11
ENDBRANCH   4   7
ENDBRANCH   1   4
BRANCH   1  33
ATOM     33  C   UNL A   1      42.054  21.351  27.430  1.00  0.00    -0.052 C 
ATOM     34  H   UNL A   1      41.912  21.814  28.383  1.00  0.00     0.027 H 
ATOM     35  H   UNL A   1      43.059  21.404  27.067  1.00  0.00     0.027 H 
BRANCH  33  36
ATOM     36  C   UNL A   1      41.742  19.859  27.580  1.00  0.00    -0.052 C 
ATOM     37  H   UNL A   1      40.735  19.698  27.254  1.00  0.00     0.027 H 
ATOM     38  H   UNL A   1      41.902  19.627  28.612  1.00  0.00     0.027 H 
BRANCH  36  39
ATOM     39  C   UNL A   1      42.651  18.918  26.789  1.00  0.00    -0.036 C 
ATOM     40  H   UNL A   1      42.356  17.913  27.008  1.00  0.00     0.028 H 
ATOM     41  H   UNL A   1      43.651  19.148  27.094  1.00  0.00     0.028 H 
BRANCH  39  42
ATOM     42  C   UNL A   1      42.622  19.098  25.273  1.00  0.00     0.018 C 
ATOM     43  H   UNL A   1      42.385  20.118  25.055  1.00  0.00     0.049 H 
ATOM     44  H   UNL A   1      41.886  18.425  24.885  1.00  0.00     0.049 H 
BRANCH  42  45
ATOM     45  N   UNL A   1      43.887  18.769  24.638  1.00  0.00    -0.352 N 
ATOM     46  C   UNL A   1      44.966  19.572  24.368  1.00  0.00     0.251 C 
ATOM     47  H   UNL A   1      43.985  17.829  24.359  1.00  0.00     0.163 HD
ATOM     48  O   UNL A   1      45.906  19.134  23.706  1.00  0.00    -0.269 OA
BRANCH  46  49
ATOM     49  C   UNL A   1      44.998  20.976  24.836  1.00  0.00     0.039 A 
ATOM     50  C   UNL A   1      45.461  21.236  26.130  1.00  0.00    -0.049 A 
ATOM     51  C   UNL A   1      44.562  22.030  24.028  1.00  0.00    -0.049 A 
ATOM     52  C   UNL A   1      45.548  22.553  26.588  1.00  0.00    -0.053 A 
ATOM     53  H   UNL A   1      45.739  20.456  26.746  1.00  0.00     0.063 H 
ATOM     54  C   UNL A   1      44.709  23.348  24.461  1.00  0.00    -0.053 A 
ATOM     55  H   UNL A   1      44.132  21.833  23.112  1.00  0.00     0.063 H 
ATOM     56  C   UNL A   1      45.205  23.622  25.744  1.00  0.00    -0.014 A 
ATOM     57  H   UNL A   1      45.866  22.741  27.551  1.00  0.00     0.063 H 
ATOM     58  H   UNL A   1      44.454  24.126  23.833  1.00  0.00     0.063 H 
BRANCH  56  59
ATOM     59  C   UNL A   1      45.388  25.027  26.192  1.00  0.00     0.031 A 
ATOM     60  C   UNL A   1      46.729  25.698  26.092  1.00  0.00     0.074 A 
ATOM     61  C   UNL A   1      44.348  25.687  26.736  1.00  0.00     0.049 A 
ATOM     62  N   UNL A   1      47.071  26.919  26.425  1.00  0.00    -0.248 NA
ATOM     63  C   UNL A   1      47.839  24.886  25.574  1.00  0.00    -0.034 C 
ATOM     64  C   UNL A   1      43.010  25.128  26.945  1.00  0.00    -0.036 A 
ATOM     65  N   UNL A   1      44.249  26.970  27.211  1.00  0.00    -0.354 N 
ATOM     66  C   UNL A   1      48.432  27.015  26.169  1.00  0.00     0.074 A 
ATOM     67  C   UNL A   1      48.865  25.716  25.699  1.00  0.00    -0.034 C 
ATOM     68  H   UNL A   1      47.824  23.921  25.207  1.00  0.00     0.065 H 
ATOM     69  C   UNL A   1      42.217  26.074  27.470  1.00  0.00    -0.036 A 
ATOM     70  H   UNL A   1      42.725  24.162  26.723  1.00  0.00     0.065 H 
ATOM     71  C   UNL A   1      42.993  27.295  27.661  1.00  0.00     0.049 A 
ATOM     72  H   UNL A   1      45.007  27.599  27.228  1.00  0.00     0.167 HD
ATOM     73  C   UNL A   1      49.242  28.093  26.296  1.00  0.00     0.037 A 
ATOM     74  H   UNL A   1      49.844  25.469  25.490  1.00  0.00     0.065 H 
ATOM     75  H   UNL A   1      41.218  25.957  27.701  1.00  0.00     0.065 H 
ATOM     76  C   UNL A   1      42.519  28.451  28.162  1.00  0.00     0.037 A 
ATOM     77  C   UNL A   1      48.805  29.393  26.735  1.00  0.00     0.049 A 
ATOM     78  C   UNL A   1      43.436  29.636  28.277  1.00  0.00     0.074 A 
ATOM     79  C   UNL A   1      49.530  30.570  26.812  1.00  0.00    -0.036 A 
ATOM     80  N   UNL A   1      47.523  29.686  27.182  1.00  0.00    -0.354 N 
ATOM     81  N   UNL A   1      44.699  29.742  27.946  1.00  0.00    -0.248 NA
ATOM     82  C   UNL A   1      42.854  30.867  28.830  1.00  0.00    -0.034 C 
ATOM     83  C   UNL A   1      48.702  31.563  27.347  1.00  0.00    -0.036 A 
ATOM     84  H   UNL A   1      50.513  30.693  26.523  1.00  0.00     0.065 H 
ATOM     85  C   UNL A   1      47.447  31.017  27.563  1.00  0.00     0.049 A 
ATOM     86  H   UNL A   1      46.779  29.043  27.222  1.00  0.00     0.167 HD
ATOM     87  C   UNL A   1      45.058  31.053  28.227  1.00  0.00     0.074 A 
ATOM     88  C   UNL A   1      43.873  31.710  28.738  1.00  0.00    -0.034 C 
ATOM     89  H   UNL A   1      41.902  31.032  29.194  1.00  0.00     0.065 H 
ATOM     90  H   UNL A   1      48.979  32.536  27.549  1.00  0.00     0.065 H 
ATOM     91  C   UNL A   1      46.263  31.657  28.076  1.00  0.00     0.037 A 
ATOM     92  H   UNL A   1      43.828  32.708  28.997  1.00  0.00     0.065 H 
BRANCH  73  93
ATOM     93  C   UNL A   1      50.693  27.912  25.954  1.00  0.00     0.064 A 
ATOM     94  C   UNL A   1      51.658  27.656  26.940  1.00  0.00     0.173 A 
ATOM     95  C   UNL A   1      51.121  27.968  24.618  1.00  0.00     0.173 A 
ATOM     96  F   UNL A   1      51.302  27.603  28.233  1.00  0.00    -0.203 F 
ATOM     97  C   UNL A   1      53.000  27.498  26.607  1.00  0.00     0.198 A 
ATOM     98  C   UNL A   1      52.460  27.779  24.285  1.00  0.00     0.198 A 
ATOM     99  F   UNL A   1      50.239  28.202  23.635  1.00  0.00    -0.203 F 
ATOM    100  F   UNL A   1      53.911  27.307  27.571  1.00  0.00    -0.200 F 
ATOM    101  C   UNL A   1      53.400  27.553  25.280  1.00  0.00     0.200 A 
ATOM    102  F   UNL A   1      52.843  27.822  23.002  1.00  0.00    -0.200 F 
ATOM    103  F   UNL A   1      54.692  27.398  24.960  1.00  0.00    -0.200 F 
ENDBRANCH  73  93
BRANCH  76 104
ATOM    104  C   UNL A   1      41.087  28.558  28.544  1.00  0.00     0.064 A 
ATOM    105  C   UNL A   1      40.668  28.225  29.839  1.00  0.00     0.173 A 
ATOM    106  C   UNL A   1      40.116  28.994  27.633  1.00  0.00     0.173 A 
ATOM    107  F   UNL A   1      41.560  27.781  30.738  1.00  0.00    -0.203 F 
ATOM    108  C   UNL A   1      39.327  28.309  30.206  1.00  0.00     0.198 A 
ATOM    109  C   UNL A   1      38.778  29.103  28.008  1.00  0.00     0.198 A 
ATOM    110  F   UNL A   1      40.468  29.327  26.383  1.00  0.00    -0.203 F 
ATOM    111  F   UNL A   1      38.947  27.947  31.438  1.00  0.00    -0.200 F 
ATOM    112  C   UNL A   1      38.383  28.754  29.291  1.00  0.00     0.200 A 
ATOM    113  F   UNL A   1      37.871  29.543  27.126  1.00  0.00    -0.200 F 
ATOM    114  F   UNL A   1      37.094  28.841  29.645  1.00  0.00    -0.200 F 
ENDBRANCH  76 104
BRANCH  91 115
ATOM    115  C   UNL A   1      46.347  33.109  28.451  1.00  0.00     0.064 A 
ATOM    116  C   UNL A   1      46.076  34.124  27.522  1.00  0.00     0.173 A 
ATOM    117  C   UNL A   1      46.695  33.487  29.756  1.00  0.00     0.173 A 
ATOM    118  F   UNL A   1      45.756  33.814  26.257  1.00  0.00    -0.203 F 
ATOM    119  C   UNL A   1      46.184  35.466  27.877  1.00  0.00     0.198 A 
ATOM    120  C   UNL A   1      46.773  34.830  30.115  1.00  0.00     0.198 A 
ATOM    121  F   UNL A   1      46.959  32.556  30.684  1.00  0.00    -0.203 F 
ATOM    122  F   UNL A   1      45.977  36.419  26.958  1.00  0.00    -0.200 F 
ATOM    123  C   UNL A   1      46.527  35.818  29.174  1.00  0.00     0.200 A 
ATOM    124  F   UNL A   1      47.094  35.169  31.372  1.00  0.00    -0.200 F 
ATOM    125  F   UNL A   1      46.632  37.111  29.513  1.00  0.00    -0.200 F 
ENDBRANCH  91 115
ENDBRANCH  56  59
ENDBRANCH  46  49
ENDBRANCH  42  45
ENDBRANCH  39  42
ENDBRANCH  36  39
ENDBRANCH  33  36
ENDBRANCH   1  33
TORSDOF 17
ENDMDL
MODEL 6
REMARK VINA RESULT:     -10.3      4.796     10.607
REMARK SMILES O=C(CCCC[C@@H]1CCSS1)NCCCCCCNC(=O)c1ccc(-c2c3nc(c(-c4c(F)c(F)c(F)c(F)c4F)c4ccc([nH]4)c(-c4c(F)c(F)c(F)c(F)c4F)c4nc(c(-c5c(F)c(F)c(F)c(F)c5F)c5ccc2[nH]5)C=C4)C=C3)cc1
REMARK SMILES IDX 14 1 13 4 12 7 1 8 2 9 3 11 4 14 5 17 6 20 7 23 8 24 11 25
REMARK SMILES IDX 9 27 10 30 15 33 16 36 17 39 18 42 19 45 20 46 21 48 22 49
REMARK SMILES IDX 23 50 84 51 24 52 83 54 25 56 26 59 27 60 77 61 28 62 82 63
REMARK SMILES IDX 76 64 78 65 29 66 81 67 75 69 74 71 30 73 62 76 42 77 61 78
REMARK SMILES IDX 43 79 46 80 60 81 79 82 44 83 45 85 59 87 80 88 47 91 31 93
REMARK SMILES IDX 32 94 40 95 33 96 34 97 38 98 41 99 35 100 36 101 39 102
REMARK SMILES IDX 37 103 63 104 64 105 72 106 65 107 66 108 70 109 73 110
REMARK SMILES IDX 67 111 68 112 71 113 69 114 48 115 49 116 57 117 50 118
REMARK SMILES IDX 51 119 55 120 58 121 52 122 53 123 56 124 54 125
REMARK H PARENT 14 2 14 3 13 5 13 6 12 10 3 12 3 13 4 15 4 16 5 18 5 19 6 21
REMARK H PARENT 6 22 7 26 8 28 8 29 9 31 9 32 15 34 15 35 16 37 16 38 17 40
REMARK H PARENT 17 41 18 43 18 44 19 47 23 53 84 55 24 57 83 58 82 68 76 70
REMARK H PARENT 78 72 81 74 75 75 43 84 46 86 79 89 44 90 80 92
REMARK Flexibility Score: inf
ROOT
ATOM      1  C   UNL A   1      33.167  36.278  29.479  1.00  0.00    -0.036 C 
ATOM      2  H   UNL A   1      34.082  36.814  29.328  1.00  0.00     0.028 H 
ATOM      3  H   UNL A   1      32.319  36.744  29.024  1.00  0.00     0.028 H 
ENDROOT
BRANCH   1   4
ATOM      4  C   UNL A   1      32.879  36.246  30.980  1.00  0.00     0.017 C 
ATOM      5  H   UNL A   1      33.498  36.970  31.469  1.00  0.00     0.049 H 
ATOM      6  H   UNL A   1      31.844  36.470  31.130  1.00  0.00     0.049 H 
BRANCH   4   7
ATOM      7  N   UNL A   1      33.149  34.941  31.541  1.00  0.00    -0.356 N 
ATOM      8  O   UNL A   1      35.100  35.490  32.615  1.00  0.00    -0.275 OA
ATOM      9  C   UNL A   1      34.240  34.665  32.326  1.00  0.00     0.219 C 
ATOM     10  H   UNL A   1      32.516  34.211  31.349  1.00  0.00     0.163 HD
BRANCH   9  11
ATOM     11  C   UNL A   1      34.303  33.224  32.798  1.00  0.00     0.026 C 
ATOM     12  H   UNL A   1      34.001  32.591  31.990  1.00  0.00     0.037 H 
ATOM     13  H   UNL A   1      33.652  33.144  33.643  1.00  0.00     0.037 H 
BRANCH  11  14
ATOM     14  C   UNL A   1      35.694  32.789  33.261  1.00  0.00    -0.044 C 
ATOM     15  H   UNL A   1      35.641  32.601  34.312  1.00  0.00     0.027 H 
ATOM     16  H   UNL A   1      36.346  33.592  32.981  1.00  0.00     0.027 H 
BRANCH  14  17
ATOM     17  C   UNL A   1      36.285  31.540  32.593  1.00  0.00    -0.052 C 
ATOM     18  H   UNL A   1      36.208  31.668  31.533  1.00  0.00     0.027 H 
ATOM     19  H   UNL A   1      35.722  30.715  32.977  1.00  0.00     0.027 H 
BRANCH  17  20
ATOM     20  C   UNL A   1      37.752  31.227  32.923  1.00  0.00    -0.040 C 
ATOM     21  H   UNL A   1      38.351  31.487  32.075  1.00  0.00     0.028 H 
ATOM     22  H   UNL A   1      37.806  30.184  33.155  1.00  0.00     0.028 H 
BRANCH  20  23
ATOM     23  C   UNL A   1      38.283  31.990  34.148  1.00  0.00     0.016 C 
ATOM     24  C   UNL A   1      39.596  32.727  33.846  1.00  0.00    -0.030 C 
ATOM     25  S   UNL A   1      38.652  30.840  35.519  1.00  0.00    -0.091 SA
ATOM     26  H   UNL A   1      37.515  32.688  34.410  1.00  0.00     0.043 H 
ATOM     27  C   UNL A   1      40.227  33.228  35.139  1.00  0.00     0.005 C 
ATOM     28  H   UNL A   1      39.394  33.560  33.205  1.00  0.00     0.029 H 
ATOM     29  H   UNL A   1      40.273  32.051  33.366  1.00  0.00     0.029 H 
ATOM     30  S   UNL A   1      40.302  31.806  36.251  1.00  0.00    -0.094 SA
ATOM     31  H   UNL A   1      39.627  34.003  35.568  1.00  0.00     0.039 H 
ATOM     32  H   UNL A   1      41.200  33.637  34.964  1.00  0.00     0.039 H 
ENDBRANCH  20  23
ENDBRANCH  17  20
ENDBRANCH  14  17
ENDBRANCH  11  14
ENDBRANCH   9  11
ENDBRANCH   4   7
ENDBRANCH   1   4
BRANCH   1  33
ATOM     33  C   UNL A   1      33.308  34.902  28.811  1.00  0.00    -0.052 C 
ATOM     34  H   UNL A   1      32.447  34.743  28.197  1.00  0.00     0.027 H 
ATOM     35  H   UNL A   1      33.407  34.196  29.609  1.00  0.00     0.027 H 
BRANCH  33  36
ATOM     36  C   UNL A   1      34.551  34.718  27.935  1.00  0.00    -0.052 C 
ATOM     37  H   UNL A   1      35.279  35.440  28.240  1.00  0.00     0.027 H 
ATOM     38  H   UNL A   1      34.221  34.841  26.924  1.00  0.00     0.027 H 
BRANCH  36  39
ATOM     39  C   UNL A   1      35.200  33.335  28.002  1.00  0.00    -0.036 C 
ATOM     40  H   UNL A   1      36.231  33.466  28.258  1.00  0.00     0.028 H 
ATOM     41  H   UNL A   1      35.050  32.892  27.040  1.00  0.00     0.028 H 
BRANCH  39  42
ATOM     42  C   UNL A   1      34.584  32.369  29.011  1.00  0.00     0.018 C 
ATOM     43  H   UNL A   1      33.802  32.877  29.536  1.00  0.00     0.049 H 
ATOM     44  H   UNL A   1      35.365  32.051  29.668  1.00  0.00     0.049 H 
BRANCH  42  45
ATOM     45  N   UNL A   1      34.027  31.178  28.390  1.00  0.00    -0.352 N 
ATOM     46  C   UNL A   1      34.653  30.021  28.000  1.00  0.00     0.251 C 
ATOM     47  H   UNL A   1      33.056  31.206  28.225  1.00  0.00     0.163 HD
ATOM     48  O   UNL A   1      34.025  29.167  27.375  1.00  0.00    -0.269 OA
BRANCH  46  49
ATOM     49  C   UNL A   1      36.086  29.801  28.295  1.00  0.00     0.039 A 
ATOM     50  C   UNL A   1      36.441  29.326  29.561  1.00  0.00    -0.049 A 
ATOM     51  C   UNL A   1      37.080  30.074  27.350  1.00  0.00    -0.049 A 
ATOM     52  C   UNL A   1      37.780  29.064  29.857  1.00  0.00    -0.053 A 
ATOM     53  H   UNL A   1      35.714  29.169  30.276  1.00  0.00     0.063 H 
ATOM     54  C   UNL A   1      38.409  29.751  27.623  1.00  0.00    -0.053 A 
ATOM     55  H   UNL A   1      36.830  30.513  26.451  1.00  0.00     0.063 H 
ATOM     56  C   UNL A   1      38.772  29.242  28.879  1.00  0.00    -0.014 A 
ATOM     57  H   UNL A   1      38.042  28.737  30.800  1.00  0.00     0.063 H 
ATOM     58  H   UNL A   1      39.130  29.886  26.897  1.00  0.00     0.063 H 
BRANCH  56  59
ATOM     59  C   UNL A   1      40.184  28.872  29.158  1.00  0.00     0.031 A 
ATOM     60  C   UNL A   1      41.079  29.789  29.944  1.00  0.00     0.074 A 
ATOM     61  C   UNL A   1      40.675  27.722  28.659  1.00  0.00     0.049 A 
ATOM     62  N   UNL A   1      42.332  29.626  30.290  1.00  0.00    -0.248 NA
ATOM     63  C   UNL A   1      40.500  31.068  30.376  1.00  0.00    -0.034 C 
ATOM     64  C   UNL A   1      39.928  26.774  27.831  1.00  0.00    -0.036 A 
ATOM     65  N   UNL A   1      41.918  27.152  28.777  1.00  0.00    -0.354 N 
ATOM     66  C   UNL A   1      42.693  30.783  30.966  1.00  0.00     0.074 A 
ATOM     67  C   UNL A   1      41.542  31.661  30.941  1.00  0.00    -0.034 C 
ATOM     68  H   UNL A   1      39.534  31.415  30.269  1.00  0.00     0.065 H 
ATOM     69  C   UNL A   1      40.714  25.724  27.546  1.00  0.00    -0.036 A 
ATOM     70  H   UNL A   1      38.952  26.894  27.516  1.00  0.00     0.065 H 
ATOM     71  C   UNL A   1      42.027  25.936  28.147  1.00  0.00     0.049 A 
ATOM     72  H   UNL A   1      42.661  27.574  29.264  1.00  0.00     0.167 HD
ATOM     73  C   UNL A   1      43.868  31.078  31.571  1.00  0.00     0.037 A 
ATOM     74  H   UNL A   1      41.535  32.623  31.314  1.00  0.00     0.065 H 
ATOM     75  H   UNL A   1      40.434  24.899  26.993  1.00  0.00     0.065 H 
ATOM     76  C   UNL A   1      43.066  25.083  28.072  1.00  0.00     0.037 A 
ATOM     77  C   UNL A   1      45.003  30.192  31.621  1.00  0.00     0.049 A 
ATOM     78  C   UNL A   1      44.355  25.429  28.765  1.00  0.00     0.074 A 
ATOM     79  C   UNL A   1      46.206  30.363  32.284  1.00  0.00    -0.036 A 
ATOM     80  N   UNL A   1      45.077  28.966  30.973  1.00  0.00    -0.354 N 
ATOM     81  N   UNL A   1      44.654  26.485  29.480  1.00  0.00    -0.248 NA
ATOM     82  C   UNL A   1      45.448  24.454  28.645  1.00  0.00    -0.034 C 
ATOM     83  C   UNL A   1      47.025  29.264  32.001  1.00  0.00    -0.036 A 
ATOM     84  H   UNL A   1      46.456  31.163  32.885  1.00  0.00     0.065 H 
ATOM     85  C   UNL A   1      46.316  28.385  31.198  1.00  0.00     0.049 A 
ATOM     86  H   UNL A   1      44.356  28.568  30.434  1.00  0.00     0.167 HD
ATOM     87  C   UNL A   1      45.958  26.294  29.915  1.00  0.00     0.074 A 
ATOM     88  C   UNL A   1      46.386  25.010  29.398  1.00  0.00    -0.034 C 
ATOM     89  H   UNL A   1      45.477  23.570  28.114  1.00  0.00     0.065 H 
ATOM     90  H   UNL A   1      47.993  29.131  32.333  1.00  0.00     0.065 H 
ATOM     91  C   UNL A   1      46.732  27.110  30.673  1.00  0.00     0.037 A 
ATOM     92  H   UNL A   1      47.305  24.583  29.592  1.00  0.00     0.065 H 
BRANCH  73  93
ATOM     93  C   UNL A   1      43.990  32.422  32.230  1.00  0.00     0.064 A 
ATOM     94  C   UNL A   1      43.674  32.611  33.584  1.00  0.00     0.173 A 
ATOM     95  C   UNL A   1      44.453  33.530  31.504  1.00  0.00     0.173 A 
ATOM     96  F   UNL A   1      43.217  31.586  34.320  1.00  0.00    -0.203 F 
ATOM     97  C   UNL A   1      43.785  33.865  34.178  1.00  0.00     0.198 A 
ATOM     98  C   UNL A   1      44.591  34.777  32.109  1.00  0.00     0.198 A 
ATOM     99  F   UNL A   1      44.775  33.403  30.208  1.00  0.00    -0.203 F 
ATOM    100  F   UNL A   1      43.428  34.033  35.459  1.00  0.00    -0.200 F 
ATOM    101  C   UNL A   1      44.249  34.946  33.443  1.00  0.00     0.200 A 
ATOM    102  F   UNL A   1      45.051  35.817  31.400  1.00  0.00    -0.200 F 
ATOM    103  F   UNL A   1      44.358  36.152  34.016  1.00  0.00    -0.200 F 
ENDBRANCH  73  93
BRANCH  76 104
ATOM    104  C   UNL A   1      42.912  23.793  27.353  1.00  0.00     0.064 A 
ATOM    105  C   UNL A   1      42.376  22.673  28.005  1.00  0.00     0.173 A 
ATOM    106  C   UNL A   1      43.291  23.651  26.012  1.00  0.00     0.173 A 
ATOM    107  F   UNL A   1      42.021  22.757  29.296  1.00  0.00    -0.203 F 
ATOM    108  C   UNL A   1      42.238  21.454  27.345  1.00  0.00     0.198 A 
ATOM    109  C   UNL A   1      43.129  22.438  25.345  1.00  0.00     0.198 A 
ATOM    110  F   UNL A   1      43.805  24.694  25.345  1.00  0.00    -0.203 F 
ATOM    111  F   UNL A   1      41.760  20.390  28.003  1.00  0.00    -0.200 F 
ATOM    112  C   UNL A   1      42.609  21.339  26.013  1.00  0.00     0.200 A 
ATOM    113  F   UNL A   1      43.477  22.333  24.056  1.00  0.00    -0.200 F 
ATOM    114  F   UNL A   1      42.472  20.169  25.377  1.00  0.00    -0.200 F 
ENDBRANCH  76 104
BRANCH  91 115
ATOM    115  C   UNL A   1      48.113  26.623  31.003  1.00  0.00     0.064 A 
ATOM    116  C   UNL A   1      49.222  26.969  30.216  1.00  0.00     0.173 A 
ATOM    117  C   UNL A   1      48.332  25.808  32.123  1.00  0.00     0.173 A 
ATOM    118  F   UNL A   1      49.062  27.732  29.124  1.00  0.00    -0.203 F 
ATOM    119  C   UNL A   1      50.493  26.489  30.519  1.00  0.00     0.198 A 
ATOM    120  C   UNL A   1      49.609  25.354  32.441  1.00  0.00     0.198 A 
ATOM    121  F   UNL A   1      47.307  25.452  32.912  1.00  0.00    -0.203 F 
ATOM    122  F   UNL A   1      51.527  26.785  29.720  1.00  0.00    -0.200 F 
ATOM    123  C   UNL A   1      50.687  25.686  31.633  1.00  0.00     0.200 A 
ATOM    124  F   UNL A   1      49.797  24.587  33.524  1.00  0.00    -0.200 F 
ATOM    125  F   UNL A   1      51.911  25.223  31.922  1.00  0.00    -0.200 F 
ENDBRANCH  91 115
ENDBRANCH  56  59
ENDBRANCH  46  49
ENDBRANCH  42  45
ENDBRANCH  39  42
ENDBRANCH  36  39
ENDBRANCH  33  36
ENDBRANCH   1  33
TORSDOF 17
ENDMDL
MODEL 7
REMARK VINA RESULT:     -10.3      2.345      3.400
REMARK SMILES O=C(CCCC[C@@H]1CCSS1)NCCCCCCNC(=O)c1ccc(-c2c3nc(c(-c4c(F)c(F)c(F)c(F)c4F)c4ccc([nH]4)c(-c4c(F)c(F)c(F)c(F)c4F)c4nc(c(-c5c(F)c(F)c(F)c(F)c5F)c5ccc2[nH]5)C=C4)C=C3)cc1
REMARK SMILES IDX 14 1 13 4 12 7 1 8 2 9 3 11 4 14 5 17 6 20 7 23 8 24 11 25
REMARK SMILES IDX 9 27 10 30 15 33 16 36 17 39 18 42 19 45 20 46 21 48 22 49
REMARK SMILES IDX 23 50 84 51 24 52 83 54 25 56 26 59 27 60 77 61 28 62 82 63
REMARK SMILES IDX 76 64 78 65 29 66 81 67 75 69 74 71 30 73 62 76 42 77 61 78
REMARK SMILES IDX 43 79 46 80 60 81 79 82 44 83 45 85 59 87 80 88 47 91 31 93
REMARK SMILES IDX 32 94 40 95 33 96 34 97 38 98 41 99 35 100 36 101 39 102
REMARK SMILES IDX 37 103 63 104 64 105 72 106 65 107 66 108 70 109 73 110
REMARK SMILES IDX 67 111 68 112 71 113 69 114 48 115 49 116 57 117 50 118
REMARK SMILES IDX 51 119 55 120 58 121 52 122 53 123 56 124 54 125
REMARK H PARENT 14 2 14 3 13 5 13 6 12 10 3 12 3 13 4 15 4 16 5 18 5 19 6 21
REMARK H PARENT 6 22 7 26 8 28 8 29 9 31 9 32 15 34 15 35 16 37 16 38 17 40
REMARK H PARENT 17 41 18 43 18 44 19 47 23 53 84 55 24 57 83 58 82 68 76 70
REMARK H PARENT 78 72 81 74 75 75 43 84 46 86 79 89 44 90 80 92
REMARK Flexibility Score: inf
ROOT
ATOM      1  C   UNL A   1      31.908  28.501  27.397  1.00  0.00    -0.036 C 
ATOM      2  H   UNL A   1      32.697  27.960  27.878  1.00  0.00     0.028 H 
ATOM      3  H   UNL A   1      31.059  28.669  28.026  1.00  0.00     0.028 H 
ENDROOT
BRANCH   1   4
ATOM      4  C   UNL A   1      31.406  27.661  26.222  1.00  0.00     0.017 C 
ATOM      5  H   UNL A   1      30.512  28.103  25.835  1.00  0.00     0.049 H 
ATOM      6  H   UNL A   1      32.170  27.636  25.475  1.00  0.00     0.049 H 
BRANCH   4   7
ATOM      7  N   UNL A   1      31.122  26.303  26.630  1.00  0.00    -0.356 N 
ATOM      8  O   UNL A   1      30.372  25.548  24.598  1.00  0.00    -0.275 OA
ATOM      9  C   UNL A   1      30.632  25.345  25.778  1.00  0.00     0.219 C 
ATOM     10  H   UNL A   1      31.288  26.053  27.567  1.00  0.00     0.163 HD
BRANCH   9  11
ATOM     11  C   UNL A   1      30.418  23.995  26.439  1.00  0.00     0.026 C 
ATOM     12  H   UNL A   1      29.762  23.418  25.822  1.00  0.00     0.037 H 
ATOM     13  H   UNL A   1      30.005  24.184  27.407  1.00  0.00     0.037 H 
BRANCH  11  14
ATOM     14  C   UNL A   1      31.710  23.203  26.648  1.00  0.00    -0.044 C 
ATOM     15  H   UNL A   1      31.658  22.750  27.616  1.00  0.00     0.027 H 
ATOM     16  H   UNL A   1      32.499  23.917  26.529  1.00  0.00     0.027 H 
BRANCH  14  17
ATOM     17  C   UNL A   1      32.012  22.095  25.631  1.00  0.00    -0.052 C 
ATOM     18  H   UNL A   1      31.158  21.993  24.994  1.00  0.00     0.027 H 
ATOM     19  H   UNL A   1      32.233  21.223  26.212  1.00  0.00     0.027 H 
BRANCH  17  20
ATOM     20  C   UNL A   1      33.242  22.315  24.737  1.00  0.00    -0.040 C 
ATOM     21  H   UNL A   1      33.092  23.213  24.173  1.00  0.00     0.028 H 
ATOM     22  H   UNL A   1      33.334  21.453  24.110  1.00  0.00     0.028 H 
BRANCH  20  23
ATOM     23  C   UNL A   1      34.557  22.446  25.522  1.00  0.00     0.016 C 
ATOM     24  C   UNL A   1      35.306  23.743  25.185  1.00  0.00    -0.030 C 
ATOM     25  S   UNL A   1      35.699  21.081  25.107  1.00  0.00    -0.091 SA
ATOM     26  H   UNL A   1      34.281  22.432  26.555  1.00  0.00     0.043 H 
ATOM     27  C   UNL A   1      36.717  23.701  25.759  1.00  0.00     0.005 C 
ATOM     28  H   UNL A   1      34.779  24.575  25.604  1.00  0.00     0.029 H 
ATOM     29  H   UNL A   1      35.365  23.847  24.121  1.00  0.00     0.029 H 
ATOM     30  S   UNL A   1      37.446  22.146  25.200  1.00  0.00    -0.094 SA
ATOM     31  H   UNL A   1      36.683  23.731  26.828  1.00  0.00     0.039 H 
ATOM     32  H   UNL A   1      37.295  24.541  25.433  1.00  0.00     0.039 H 
ENDBRANCH  20  23
ENDBRANCH  17  20
ENDBRANCH  14  17
ENDBRANCH  11  14
ENDBRANCH   9  11
ENDBRANCH   4   7
ENDBRANCH   1   4
BRANCH   1  33
ATOM     33  C   UNL A   1      32.445  29.892  27.025  1.00  0.00    -0.052 C 
ATOM     34  H   UNL A   1      33.377  29.761  26.519  1.00  0.00     0.027 H 
ATOM     35  H   UNL A   1      32.524  30.432  27.946  1.00  0.00     0.027 H 
BRANCH  33  36
ATOM     36  C   UNL A   1      31.533  30.732  26.126  1.00  0.00    -0.052 C 
ATOM     37  H   UNL A   1      30.566  30.274  26.117  1.00  0.00     0.027 H 
ATOM     38  H   UNL A   1      32.006  30.755  25.166  1.00  0.00     0.027 H 
BRANCH  36  39
ATOM     39  C   UNL A   1      31.362  32.192  26.547  1.00  0.00    -0.036 C 
ATOM     40  H   UNL A   1      30.545  32.243  27.236  1.00  0.00     0.028 H 
ATOM     41  H   UNL A   1      31.197  32.742  25.645  1.00  0.00     0.028 H 
BRANCH  39  42
ATOM     42  C   UNL A   1      32.579  32.829  27.213  1.00  0.00     0.018 C 
ATOM     43  H   UNL A   1      33.393  32.816  26.519  1.00  0.00     0.049 H 
ATOM     44  H   UNL A   1      32.795  32.263  28.094  1.00  0.00     0.049 H 
BRANCH  42  45
ATOM     45  N   UNL A   1      32.345  34.203  27.627  1.00  0.00    -0.352 N 
ATOM     46  C   UNL A   1      32.961  34.938  28.608  1.00  0.00     0.251 C 
ATOM     47  H   UNL A   1      31.639  34.677  27.129  1.00  0.00     0.163 HD
ATOM     48  O   UNL A   1      32.536  36.057  28.893  1.00  0.00    -0.269 OA
BRANCH  46  49
ATOM     49  C   UNL A   1      34.116  34.387  29.351  1.00  0.00     0.039 A 
ATOM     50  C   UNL A   1      33.876  33.724  30.559  1.00  0.00    -0.049 A 
ATOM     51  C   UNL A   1      35.426  34.532  28.885  1.00  0.00    -0.049 A 
ATOM     52  C   UNL A   1      34.939  33.151  31.262  1.00  0.00    -0.053 A 
ATOM     53  H   UNL A   1      32.916  33.656  30.929  1.00  0.00     0.063 H 
ATOM     54  C   UNL A   1      36.478  33.906  29.554  1.00  0.00    -0.053 A 
ATOM     55  H   UNL A   1      35.615  35.102  28.046  1.00  0.00     0.063 H 
ATOM     56  C   UNL A   1      36.244  33.208  30.748  1.00  0.00    -0.014 A 
ATOM     57  H   UNL A   1      34.763  32.684  32.165  1.00  0.00     0.063 H 
ATOM     58  H   UNL A   1      37.433  33.955  29.167  1.00  0.00     0.063 H 
BRANCH  56  59
ATOM     59  C   UNL A   1      37.361  32.518  31.443  1.00  0.00     0.031 A 
ATOM     60  C   UNL A   1      38.080  31.369  30.792  1.00  0.00     0.074 A 
ATOM     61  C   UNL A   1      37.700  32.900  32.689  1.00  0.00     0.049 A 
ATOM     62  N   UNL A   1      39.082  30.656  31.246  1.00  0.00    -0.248 NA
ATOM     63  C   UNL A   1      37.595  30.949  29.470  1.00  0.00    -0.034 C 
ATOM     64  C   UNL A   1      37.041  33.961  33.454  1.00  0.00    -0.036 A 
ATOM     65  N   UNL A   1      38.682  32.443  33.532  1.00  0.00    -0.354 N 
ATOM     66  C   UNL A   1      39.336  29.698  30.274  1.00  0.00     0.074 A 
ATOM     67  C   UNL A   1      38.354  29.890  29.227  1.00  0.00    -0.034 C 
ATOM     68  H   UNL A   1      36.857  31.368  28.884  1.00  0.00     0.065 H 
ATOM     69  C   UNL A   1      37.660  34.098  34.637  1.00  0.00    -0.036 A 
ATOM     70  H   UNL A   1      36.230  34.514  33.135  1.00  0.00     0.065 H 
ATOM     71  C   UNL A   1      38.740  33.119  34.726  1.00  0.00     0.049 A 
ATOM     72  H   UNL A   1      39.286  31.701  33.303  1.00  0.00     0.167 HD
ATOM     73  C   UNL A   1      40.312  28.759  30.246  1.00  0.00     0.037 A 
ATOM     74  H   UNL A   1      38.258  29.280  28.401  1.00  0.00     0.065 H 
ATOM     75  H   UNL A   1      37.413  34.786  35.365  1.00  0.00     0.065 H 
ATOM     76  C   UNL A   1      39.576  32.974  35.770  1.00  0.00     0.037 A 
ATOM     77  C   UNL A   1      41.307  28.588  31.274  1.00  0.00     0.049 A 
ATOM     78  C   UNL A   1      40.660  31.934  35.707  1.00  0.00     0.074 A 
ATOM     79  C   UNL A   1      42.389  27.725  31.296  1.00  0.00    -0.036 A 
ATOM     80  N   UNL A   1      41.336  29.294  32.469  1.00  0.00    -0.354 N 
ATOM     81  N   UNL A   1      40.949  31.095  34.743  1.00  0.00    -0.248 NA
ATOM     82  C   UNL A   1      41.539  31.828  36.880  1.00  0.00    -0.034 C 
ATOM     83  C   UNL A   1      43.045  27.875  32.523  1.00  0.00    -0.036 A 
ATOM     84  H   UNL A   1      42.664  27.082  30.538  1.00  0.00     0.065 H 
ATOM     85  C   UNL A   1      42.400  28.863  33.247  1.00  0.00     0.049 A 
ATOM     86  H   UNL A   1      40.696  29.996  32.726  1.00  0.00     0.167 HD
ATOM     87  C   UNL A   1      42.055  30.379  35.179  1.00  0.00     0.074 A 
ATOM     88  C   UNL A   1      42.397  30.896  36.489  1.00  0.00    -0.034 C 
ATOM     89  H   UNL A   1      41.500  32.344  37.773  1.00  0.00     0.065 H 
ATOM     90  H   UNL A   1      43.870  27.338  32.835  1.00  0.00     0.065 H 
ATOM     91  C   UNL A   1      42.726  29.381  34.552  1.00  0.00     0.037 A 
ATOM     92  H   UNL A   1      43.205  30.579  37.046  1.00  0.00     0.065 H 
BRANCH  73  93
ATOM     93  C   UNL A   1      40.351  27.836  29.062  1.00  0.00     0.064 A 
ATOM     94  C   UNL A   1      39.635  26.630  29.042  1.00  0.00     0.173 A 
ATOM     95  C   UNL A   1      41.094  28.176  27.921  1.00  0.00     0.173 A 
ATOM     96  F   UNL A   1      38.917  26.254  30.112  1.00  0.00    -0.203 F 
ATOM     97  C   UNL A   1      39.688  25.782  27.939  1.00  0.00     0.198 A 
ATOM     98  C   UNL A   1      41.121  27.340  26.807  1.00  0.00     0.198 A 
ATOM     99  F   UNL A   1      41.792  29.321  27.884  1.00  0.00    -0.203 F 
ATOM    100  F   UNL A   1      39.038  24.611  27.964  1.00  0.00    -0.200 F 
ATOM    101  C   UNL A   1      40.425  26.140  26.820  1.00  0.00     0.200 A 
ATOM    102  F   UNL A   1      41.825  27.692  25.723  1.00  0.00    -0.200 F 
ATOM    103  F   UNL A   1      40.474  25.324  25.758  1.00  0.00    -0.200 F 
ENDBRANCH  73  93
BRANCH  76 104
ATOM    104  C   UNL A   1      39.454  33.873  36.946  1.00  0.00     0.064 A 
ATOM    105  C   UNL A   1      40.117  35.109  36.970  1.00  0.00     0.173 A 
ATOM    106  C   UNL A   1      38.678  33.524  38.059  1.00  0.00     0.173 A 
ATOM    107  F   UNL A   1      40.889  35.474  35.936  1.00  0.00    -0.203 F 
ATOM    108  C   UNL A   1      40.020  35.955  38.072  1.00  0.00     0.198 A 
ATOM    109  C   UNL A   1      38.561  34.383  39.149  1.00  0.00     0.198 A 
ATOM    110  F   UNL A   1      38.022  32.355  38.080  1.00  0.00    -0.203 F 
ATOM    111  F   UNL A   1      40.695  37.112  38.087  1.00  0.00    -0.200 F 
ATOM    112  C   UNL A   1      39.237  35.595  39.159  1.00  0.00     0.200 A 
ATOM    113  F   UNL A   1      37.794  34.037  40.193  1.00  0.00    -0.200 F 
ATOM    114  F   UNL A   1      39.139  36.411  40.216  1.00  0.00    -0.200 F 
ENDBRANCH  76 104
BRANCH  91 115
ATOM    115  C   UNL A   1      43.910  28.802  35.270  1.00  0.00     0.064 A 
ATOM    116  C   UNL A   1      43.779  27.704  36.134  1.00  0.00     0.173 A 
ATOM    117  C   UNL A   1      45.190  29.345  35.087  1.00  0.00     0.173 A 
ATOM    118  F   UNL A   1      42.573  27.160  36.356  1.00  0.00    -0.203 F 
ATOM    119  C   UNL A   1      44.882  27.193  36.814  1.00  0.00     0.198 A 
ATOM    120  C   UNL A   1      46.295  28.812  35.745  1.00  0.00     0.198 A 
ATOM    121  F   UNL A   1      45.370  30.391  34.268  1.00  0.00    -0.203 F 
ATOM    122  F   UNL A   1      44.723  26.182  37.678  1.00  0.00    -0.200 F 
ATOM    123  C   UNL A   1      46.139  27.744  36.615  1.00  0.00     0.200 A 
ATOM    124  F   UNL A   1      47.511  29.340  35.544  1.00  0.00    -0.200 F 
ATOM    125  F   UNL A   1      47.198  27.253  37.273  1.00  0.00    -0.200 F 
ENDBRANCH  91 115
ENDBRANCH  56  59
ENDBRANCH  46  49
ENDBRANCH  42  45
ENDBRANCH  39  42
ENDBRANCH  36  39
ENDBRANCH  33  36
ENDBRANCH   1  33
TORSDOF 17
ENDMDL
MODEL 8
REMARK VINA RESULT:     -10.3      2.496      8.259
REMARK SMILES O=C(CCCC[C@@H]1CCSS1)NCCCCCCNC(=O)c1ccc(-c2c3nc(c(-c4c(F)c(F)c(F)c(F)c4F)c4ccc([nH]4)c(-c4c(F)c(F)c(F)c(F)c4F)c4nc(c(-c5c(F)c(F)c(F)c(F)c5F)c5ccc2[nH]5)C=C4)C=C3)cc1
REMARK SMILES IDX 14 1 13 4 12 7 1 8 2 9 3 11 4 14 5 17 6 20 7 23 8 24 11 25
REMARK SMILES IDX 9 27 10 30 15 33 16 36 17 39 18 42 19 45 20 46 21 48 22 49
REMARK SMILES IDX 23 50 84 51 24 52 83 54 25 56 26 59 27 60 77 61 28 62 82 63
REMARK SMILES IDX 76 64 78 65 29 66 81 67 75 69 74 71 30 73 62 76 42 77 61 78
REMARK SMILES IDX 43 79 46 80 60 81 79 82 44 83 45 85 59 87 80 88 47 91 31 93
REMARK SMILES IDX 32 94 40 95 33 96 34 97 38 98 41 99 35 100 36 101 39 102
REMARK SMILES IDX 37 103 63 104 64 105 72 106 65 107 66 108 70 109 73 110
REMARK SMILES IDX 67 111 68 112 71 113 69 114 48 115 49 116 57 117 50 118
REMARK SMILES IDX 51 119 55 120 58 121 52 122 53 123 56 124 54 125
REMARK H PARENT 14 2 14 3 13 5 13 6 12 10 3 12 3 13 4 15 4 16 5 18 5 19 6 21
REMARK H PARENT 6 22 7 26 8 28 8 29 9 31 9 32 15 34 15 35 16 37 16 38 17 40
REMARK H PARENT 17 41 18 43 18 44 19 47 23 53 84 55 24 57 83 58 82 68 76 70
REMARK H PARENT 78 72 81 74 75 75 43 84 46 86 79 89 44 90 80 92
REMARK Flexibility Score: inf
ROOT
ATOM      1  C   UNL A   1      35.541  31.961  27.976  1.00  0.00    -0.036 C 
ATOM      2  H   UNL A   1      35.429  32.341  26.981  1.00  0.00     0.028 H 
ATOM      3  H   UNL A   1      36.513  32.128  28.391  1.00  0.00     0.028 H 
ENDROOT
BRANCH   1   4
ATOM      4  C   UNL A   1      35.356  30.444  27.927  1.00  0.00     0.017 C 
ATOM      5  H   UNL A   1      35.785  30.070  27.021  1.00  0.00     0.049 H 
ATOM      6  H   UNL A   1      35.840  30.017  28.780  1.00  0.00     0.049 H 
BRANCH   4   7
ATOM      7  N   UNL A   1      33.956  30.083  27.970  1.00  0.00    -0.356 N 
ATOM      8  O   UNL A   1      33.729  29.564  25.747  1.00  0.00    -0.275 OA
ATOM      9  C   UNL A   1      33.250  29.661  26.871  1.00  0.00     0.219 C 
ATOM     10  H   UNL A   1      33.484  30.144  28.832  1.00  0.00     0.163 HD
BRANCH   9  11
ATOM     11  C   UNL A   1      31.798  29.337  27.168  1.00  0.00     0.026 C 
ATOM     12  H   UNL A   1      31.190  29.781  26.408  1.00  0.00     0.037 H 
ATOM     13  H   UNL A   1      31.583  29.727  28.141  1.00  0.00     0.037 H 
BRANCH  11  14
ATOM     14  C   UNL A   1      31.500  27.837  27.212  1.00  0.00    -0.044 C 
ATOM     15  H   UNL A   1      30.654  27.694  27.851  1.00  0.00     0.027 H 
ATOM     16  H   UNL A   1      32.405  27.382  27.558  1.00  0.00     0.027 H 
BRANCH  14  17
ATOM     17  C   UNL A   1      31.193  27.155  25.872  1.00  0.00    -0.052 C 
ATOM     18  H   UNL A   1      32.104  27.106  25.313  1.00  0.00     0.027 H 
ATOM     19  H   UNL A   1      30.430  27.750  25.414  1.00  0.00     0.027 H 
BRANCH  17  20
ATOM     20  C   UNL A   1      30.614  25.735  25.954  1.00  0.00    -0.040 C 
ATOM     21  H   UNL A   1      30.362  25.415  24.963  1.00  0.00     0.028 H 
ATOM     22  H   UNL A   1      29.760  25.780  26.595  1.00  0.00     0.028 H 
BRANCH  20  23
ATOM     23  C   UNL A   1      31.584  24.710  26.564  1.00  0.00     0.016 C 
ATOM     24  C   UNL A   1      32.953  24.722  25.869  1.00  0.00    -0.030 C 
ATOM     25  S   UNL A   1      30.936  23.011  26.376  1.00  0.00    -0.091 SA
ATOM     26  H   UNL A   1      31.686  24.984  27.593  1.00  0.00     0.043 H 
ATOM     27  C   UNL A   1      33.776  23.517  26.306  1.00  0.00     0.005 C 
ATOM     28  H   UNL A   1      33.473  25.620  26.129  1.00  0.00     0.029 H 
ATOM     29  H   UNL A   1      32.806  24.679  24.809  1.00  0.00     0.029 H 
ATOM     30  S   UNL A   1      32.726  22.068  26.060  1.00  0.00    -0.094 SA
ATOM     31  H   UNL A   1      34.047  23.608  27.337  1.00  0.00     0.039 H 
ATOM     32  H   UNL A   1      34.684  23.441  25.743  1.00  0.00     0.039 H 
ENDBRANCH  20  23
ENDBRANCH  17  20
ENDBRANCH  14  17
ENDBRANCH  11  14
ENDBRANCH   9  11
ENDBRANCH   4   7
ENDBRANCH   1   4
BRANCH   1  33
ATOM     33  C   UNL A   1      34.555  32.712  28.885  1.00  0.00    -0.052 C 
ATOM     34  H   UNL A   1      34.823  32.510  29.900  1.00  0.00     0.027 H 
ATOM     35  H   UNL A   1      33.581  32.359  28.615  1.00  0.00     0.027 H 
BRANCH  33  36
ATOM     36  C   UNL A   1      34.515  34.232  28.701  1.00  0.00    -0.052 C 
ATOM     37  H   UNL A   1      34.815  34.450  27.697  1.00  0.00     0.027 H 
ATOM     38  H   UNL A   1      35.172  34.636  29.443  1.00  0.00     0.027 H 
BRANCH  36  39
ATOM     39  C   UNL A   1      33.153  34.885  28.941  1.00  0.00    -0.036 C 
ATOM     40  H   UNL A   1      32.571  34.221  29.545  1.00  0.00     0.028 H 
ATOM     41  H   UNL A   1      32.736  35.061  27.971  1.00  0.00     0.028 H 
BRANCH  39  42
ATOM     42  C   UNL A   1      33.191  36.243  29.636  1.00  0.00     0.018 C 
ATOM     43  H   UNL A   1      32.798  36.980  28.967  1.00  0.00     0.049 H 
ATOM     44  H   UNL A   1      34.210  36.442  29.895  1.00  0.00     0.049 H 
BRANCH  42  45
ATOM     45  N   UNL A   1      32.417  36.274  30.866  1.00  0.00    -0.352 N 
ATOM     46  C   UNL A   1      32.651  35.647  32.063  1.00  0.00     0.251 C 
ATOM     47  H   UNL A   1      31.602  36.827  30.835  1.00  0.00     0.163 HD
ATOM     48  O   UNL A   1      31.807  35.699  32.957  1.00  0.00    -0.269 OA
BRANCH  46  49
ATOM     49  C   UNL A   1      33.899  34.881  32.283  1.00  0.00     0.039 A 
ATOM     50  C   UNL A   1      35.120  35.556  32.193  1.00  0.00    -0.049 A 
ATOM     51  C   UNL A   1      33.879  33.510  32.557  1.00  0.00    -0.049 A 
ATOM     52  C   UNL A   1      36.313  34.873  32.440  1.00  0.00    -0.053 A 
ATOM     53  H   UNL A   1      35.140  36.557  31.944  1.00  0.00     0.063 H 
ATOM     54  C   UNL A   1      35.065  32.844  32.867  1.00  0.00    -0.053 A 
ATOM     55  H   UNL A   1      32.988  32.992  32.530  1.00  0.00     0.063 H 
ATOM     56  C   UNL A   1      36.293  33.519  32.813  1.00  0.00    -0.014 A 
ATOM     57  H   UNL A   1      37.215  35.367  32.348  1.00  0.00     0.063 H 
ATOM     58  H   UNL A   1      35.038  31.849  33.139  1.00  0.00     0.063 H 
BRANCH  56  59
ATOM     59  C   UNL A   1      37.551  32.815  33.171  1.00  0.00     0.031 A 
ATOM     60  C   UNL A   1      38.260  33.114  34.463  1.00  0.00     0.074 A 
ATOM     61  C   UNL A   1      38.083  31.932  32.305  1.00  0.00     0.049 A 
ATOM     62  N   UNL A   1      39.361  32.591  34.944  1.00  0.00    -0.248 NA
ATOM     63  C   UNL A   1      37.669  34.155  35.316  1.00  0.00    -0.034 C 
ATOM     64  C   UNL A   1      37.526  31.598  30.992  1.00  0.00    -0.036 A 
ATOM     65  N   UNL A   1      39.210  31.154  32.395  1.00  0.00    -0.354 N 
ATOM     66  C   UNL A   1      39.600  33.246  36.143  1.00  0.00     0.074 A 
ATOM     67  C   UNL A   1      38.557  34.239  36.296  1.00  0.00    -0.034 C 
ATOM     68  H   UNL A   1      36.792  34.683  35.186  1.00  0.00     0.065 H 
ATOM     69  C   UNL A   1      38.290  30.657  30.418  1.00  0.00    -0.036 A 
ATOM     70  H   UNL A   1      36.681  32.019  30.577  1.00  0.00     0.065 H 
ATOM     71  C   UNL A   1      39.405  30.341  31.306  1.00  0.00     0.049 A 
ATOM     72  H   UNL A   1      39.820  31.177  33.167  1.00  0.00     0.167 HD
ATOM     73  C   UNL A   1      40.587  33.027  37.045  1.00  0.00     0.037 A 
ATOM     74  H   UNL A   1      38.513  34.923  37.067  1.00  0.00     0.065 H 
ATOM     75  H   UNL A   1      38.117  30.225  29.497  1.00  0.00     0.065 H 
ATOM     76  C   UNL A   1      40.369  29.435  31.056  1.00  0.00     0.037 A 
ATOM     77  C   UNL A   1      41.607  32.019  36.907  1.00  0.00     0.049 A 
ATOM     78  C   UNL A   1      41.444  29.201  32.081  1.00  0.00     0.074 A 
ATOM     79  C   UNL A   1      42.596  31.660  37.806  1.00  0.00    -0.036 A 
ATOM     80  N   UNL A   1      41.773  31.212  35.789  1.00  0.00    -0.354 N 
ATOM     81  N   UNL A   1      41.607  29.761  33.253  1.00  0.00    -0.248 NA
ATOM     82  C   UNL A   1      42.464  28.198  31.746  1.00  0.00    -0.034 C 
ATOM     83  C   UNL A   1      43.388  30.669  37.216  1.00  0.00    -0.036 A 
ATOM     84  H   UNL A   1      42.727  32.055  38.750  1.00  0.00     0.065 H 
ATOM     85  C   UNL A   1      42.866  30.377  35.966  1.00  0.00     0.049 A 
ATOM     86  H   UNL A   1      41.199  31.230  34.990  1.00  0.00     0.167 HD
ATOM     87  C   UNL A   1      42.732  29.165  33.807  1.00  0.00     0.074 A 
ATOM     88  C   UNL A   1      43.200  28.185  32.848  1.00  0.00    -0.034 C 
ATOM     89  H   UNL A   1      42.578  27.647  30.880  1.00  0.00     0.065 H 
ATOM     90  H   UNL A   1      44.221  30.230  37.638  1.00  0.00     0.065 H 
ATOM     91  C   UNL A   1      43.325  29.410  35.002  1.00  0.00     0.037 A 
ATOM     92  H   UNL A   1      44.003  27.557  33.005  1.00  0.00     0.065 H 
BRANCH  73  93
ATOM     93  C   UNL A   1      40.613  33.898  38.268  1.00  0.00     0.064 A 
ATOM     94  C   UNL A   1      41.391  35.065  38.327  1.00  0.00     0.173 A 
ATOM     95  C   UNL A   1      39.829  33.577  39.386  1.00  0.00     0.173 A 
ATOM     96  F   UNL A   1      42.167  35.411  37.288  1.00  0.00    -0.203 F 
ATOM     97  C   UNL A   1      41.410  35.857  39.471  1.00  0.00     0.198 A 
ATOM     98  C   UNL A   1      39.827  34.388  40.518  1.00  0.00     0.198 A 
ATOM     99  F   UNL A   1      39.061  32.476  39.381  1.00  0.00    -0.203 F 
ATOM    100  F   UNL A   1      42.201  36.938  39.523  1.00  0.00    -0.200 F 
ATOM    101  C   UNL A   1      40.624  35.523  40.564  1.00  0.00     0.200 A 
ATOM    102  F   UNL A   1      39.058  34.069  41.569  1.00  0.00    -0.200 F 
ATOM    103  F   UNL A   1      40.641  36.288  41.663  1.00  0.00    -0.200 F 
ENDBRANCH  73  93
BRANCH  76 104
ATOM    104  C   UNL A   1      40.331  28.643  29.800  1.00  0.00     0.064 A 
ATOM    105  C   UNL A   1      39.612  27.441  29.737  1.00  0.00     0.173 A 
ATOM    106  C   UNL A   1      41.002  29.066  28.645  1.00  0.00     0.173 A 
ATOM    107  F   UNL A   1      38.972  26.986  30.824  1.00  0.00    -0.203 F 
ATOM    108  C   UNL A   1      39.579  26.683  28.568  1.00  0.00     0.198 A 
ATOM    109  C   UNL A   1      40.947  28.321  27.470  1.00  0.00     0.198 A 
ATOM    110  F   UNL A   1      41.700  30.211  28.656  1.00  0.00    -0.203 F 
ATOM    111  F   UNL A   1      38.917  25.519  28.546  1.00  0.00    -0.200 F 
ATOM    112  C   UNL A   1      40.242  27.127  27.433  1.00  0.00     0.200 A 
ATOM    113  F   UNL A   1      41.580  28.757  26.372  1.00  0.00    -0.200 F 
ATOM    114  F   UNL A   1      40.206  26.401  26.308  1.00  0.00    -0.200 F 
ENDBRANCH  76 104
BRANCH  91 115
ATOM    115  C   UNL A   1      44.533  28.586  35.343  1.00  0.00     0.064 A 
ATOM    116  C   UNL A   1      45.829  29.013  35.018  1.00  0.00     0.173 A 
ATOM    117  C   UNL A   1      44.392  27.360  36.008  1.00  0.00     0.173 A 
ATOM    118  F   UNL A   1      46.014  30.171  34.366  1.00  0.00    -0.203 F 
ATOM    119  C   UNL A   1      46.938  28.226  35.317  1.00  0.00     0.198 A 
ATOM    120  C   UNL A   1      45.506  26.589  36.333  1.00  0.00     0.198 A 
ATOM    121  F   UNL A   1      43.176  26.908  36.346  1.00  0.00    -0.203 F 
ATOM    122  F   UNL A   1      48.161  28.627  34.946  1.00  0.00    -0.200 F 
ATOM    123  C   UNL A   1      46.776  27.018  35.978  1.00  0.00     0.200 A 
ATOM    124  F   UNL A   1      45.349  25.426  36.981  1.00  0.00    -0.200 F 
ATOM    125  F   UNL A   1      47.845  26.261  36.263  1.00  0.00    -0.200 F 
ENDBRANCH  91 115
ENDBRANCH  56  59
ENDBRANCH  46  49
ENDBRANCH  42  45
ENDBRANCH  39  42
ENDBRANCH  36  39
ENDBRANCH  33  36
ENDBRANCH   1  33
TORSDOF 17
ENDMDL
MODEL 9
REMARK VINA RESULT:     -10.3      5.985     10.141
REMARK SMILES O=C(CCCC[C@@H]1CCSS1)NCCCCCCNC(=O)c1ccc(-c2c3nc(c(-c4c(F)c(F)c(F)c(F)c4F)c4ccc([nH]4)c(-c4c(F)c(F)c(F)c(F)c4F)c4nc(c(-c5c(F)c(F)c(F)c(F)c5F)c5ccc2[nH]5)C=C4)C=C3)cc1
REMARK SMILES IDX 14 1 13 4 12 7 1 8 2 9 3 11 4 14 5 17 6 20 7 23 8 24 11 25
REMARK SMILES IDX 9 27 10 30 15 33 16 36 17 39 18 42 19 45 20 46 21 48 22 49
REMARK SMILES IDX 23 50 84 51 24 52 83 54 25 56 26 59 27 60 77 61 28 62 82 63
REMARK SMILES IDX 76 64 78 65 29 66 81 67 75 69 74 71 30 73 62 76 42 77 61 78
REMARK SMILES IDX 43 79 46 80 60 81 79 82 44 83 45 85 59 87 80 88 47 91 31 93
REMARK SMILES IDX 32 94 40 95 33 96 34 97 38 98 41 99 35 100 36 101 39 102
REMARK SMILES IDX 37 103 63 104 64 105 72 106 65 107 66 108 70 109 73 110
REMARK SMILES IDX 67 111 68 112 71 113 69 114 48 115 49 116 57 117 50 118
REMARK SMILES IDX 51 119 55 120 58 121 52 122 53 123 56 124 54 125
REMARK H PARENT 14 2 14 3 13 5 13 6 12 10 3 12 3 13 4 15 4 16 5 18 5 19 6 21
REMARK H PARENT 6 22 7 26 8 28 8 29 9 31 9 32 15 34 15 35 16 37 16 38 17 40
REMARK H PARENT 17 41 18 43 18 44 19 47 23 53 84 55 24 57 83 58 82 68 76 70
REMARK H PARENT 78 72 81 74 75 75 43 84 46 86 79 89 44 90 80 92
REMARK Flexibility Score: inf
ROOT
ATOM      1  C   UNL A   1      36.526  22.910  23.466  1.00  0.00    -0.036 C 
ATOM      2  H   UNL A   1      36.880  23.921  23.474  1.00  0.00     0.028 H 
ATOM      3  H   UNL A   1      36.774  22.377  22.573  1.00  0.00     0.028 H 
ENDROOT
BRANCH   1   4
ATOM      4  C   UNL A   1      34.998  22.944  23.530  1.00  0.00     0.017 C 
ATOM      5  H   UNL A   1      34.602  22.432  22.678  1.00  0.00     0.049 H 
ATOM      6  H   UNL A   1      34.688  22.467  24.436  1.00  0.00     0.049 H 
BRANCH   4   7
ATOM      7  N   UNL A   1      34.501  24.302  23.537  1.00  0.00    -0.356 N 
ATOM      8  O   UNL A   1      34.712  24.671  25.791  1.00  0.00    -0.275 OA
ATOM      9  C   UNL A   1      34.404  25.066  24.672  1.00  0.00     0.219 C 
ATOM     10  H   UNL A   1      34.217  24.699  22.682  1.00  0.00     0.163 HD
BRANCH   9  11
ATOM     11  C   UNL A   1      33.857  26.460  24.423  1.00  0.00     0.026 C 
ATOM     12  H   UNL A   1      32.947  26.371  23.869  1.00  0.00     0.037 H 
ATOM     13  H   UNL A   1      34.609  26.999  23.888  1.00  0.00     0.037 H 
BRANCH  11  14
ATOM     14  C   UNL A   1      33.570  27.245  25.704  1.00  0.00    -0.044 C 
ATOM     15  H   UNL A   1      33.657  28.285  25.473  1.00  0.00     0.027 H 
ATOM     16  H   UNL A   1      34.280  26.884  26.419  1.00  0.00     0.027 H 
BRANCH  14  17
ATOM     17  C   UNL A   1      32.197  27.025  26.355  1.00  0.00    -0.052 C 
ATOM     18  H   UNL A   1      31.890  27.953  26.792  1.00  0.00     0.027 H 
ATOM     19  H   UNL A   1      32.336  26.233  27.061  1.00  0.00     0.027 H 
BRANCH  17  20
ATOM     20  C   UNL A   1      31.074  26.551  25.420  1.00  0.00    -0.040 C 
ATOM     21  H   UNL A   1      31.427  26.612  24.411  1.00  0.00     0.028 H 
ATOM     22  H   UNL A   1      30.231  27.186  25.595  1.00  0.00     0.028 H 
BRANCH  20  23
ATOM     23  C   UNL A   1      30.618  25.108  25.690  1.00  0.00     0.016 C 
ATOM     24  C   UNL A   1      31.414  24.452  26.827  1.00  0.00    -0.030 C 
ATOM     25  S   UNL A   1      30.880  24.058  24.218  1.00  0.00    -0.091 SA
ATOM     26  H   UNL A   1      29.582  25.176  25.951  1.00  0.00     0.043 H 
ATOM     27  C   UNL A   1      31.131  22.956  26.873  1.00  0.00     0.005 C 
ATOM     28  H   UNL A   1      31.129  24.895  27.759  1.00  0.00     0.029 H 
ATOM     29  H   UNL A   1      32.459  24.605  26.655  1.00  0.00     0.029 H 
ATOM     30  S   UNL A   1      31.402  22.337  25.197  1.00  0.00    -0.094 SA
ATOM     31  H   UNL A   1      30.120  22.779  27.174  1.00  0.00     0.039 H 
ATOM     32  H   UNL A   1      31.767  22.461  27.578  1.00  0.00     0.039 H 
ENDBRANCH  20  23
ENDBRANCH  17  20
ENDBRANCH  14  17
ENDBRANCH  11  14
ENDBRANCH   9  11
ENDBRANCH   4   7
ENDBRANCH   1   4
BRANCH   1  33
ATOM     33  C   UNL A   1      37.212  22.158  24.617  1.00  0.00    -0.052 C 
ATOM     34  H   UNL A   1      37.019  22.692  25.522  1.00  0.00     0.027 H 
ATOM     35  H   UNL A   1      38.249  22.107  24.356  1.00  0.00     0.027 H 
BRANCH  33  36
ATOM     36  C   UNL A   1      36.762  20.708  24.819  1.00  0.00    -0.052 C 
ATOM     37  H   UNL A   1      36.185  20.420  23.965  1.00  0.00     0.027 H 
ATOM     38  H   UNL A   1      36.207  20.697  25.735  1.00  0.00     0.027 H 
BRANCH  36  39
ATOM     39  C   UNL A   1      37.889  19.690  24.995  1.00  0.00    -0.036 C 
ATOM     40  H   UNL A   1      38.270  19.449  24.025  1.00  0.00     0.028 H 
ATOM     41  H   UNL A   1      37.456  18.856  25.506  1.00  0.00     0.028 H 
BRANCH  39  42
ATOM     42  C   UNL A   1      39.060  20.151  25.859  1.00  0.00     0.018 C 
ATOM     43  H   UNL A   1      38.703  20.323  26.853  1.00  0.00     0.049 H 
ATOM     44  H   UNL A   1      39.453  21.042  25.417  1.00  0.00     0.049 H 
BRANCH  42  45
ATOM     45  N   UNL A   1      40.140  19.180  25.916  1.00  0.00    -0.352 N 
ATOM     46  C   UNL A   1      41.483  19.376  26.117  1.00  0.00     0.251 C 
ATOM     47  H   UNL A   1      39.868  18.242  25.792  1.00  0.00     0.163 HD
ATOM     48  O   UNL A   1      42.263  18.431  26.009  1.00  0.00    -0.269 OA
BRANCH  46  49
ATOM     49  C   UNL A   1      42.011  20.723  26.433  1.00  0.00     0.039 A 
ATOM     50  C   UNL A   1      42.260  21.605  25.377  1.00  0.00    -0.049 A 
ATOM     51  C   UNL A   1      42.278  21.117  27.747  1.00  0.00    -0.049 A 
ATOM     52  C   UNL A   1      42.714  22.899  25.642  1.00  0.00    -0.053 A 
ATOM     53  H   UNL A   1      42.108  21.301  24.402  1.00  0.00     0.063 H 
ATOM     54  C   UNL A   1      42.669  22.428  28.016  1.00  0.00    -0.053 A 
ATOM     55  H   UNL A   1      42.186  20.437  28.518  1.00  0.00     0.063 H 
ATOM     56  C   UNL A   1      42.890  23.332  26.966  1.00  0.00    -0.014 A 
ATOM     57  H   UNL A   1      42.921  23.540  24.860  1.00  0.00     0.063 H 
ATOM     58  H   UNL A   1      42.796  22.736  28.993  1.00  0.00     0.063 H 
BRANCH  56  59
ATOM     59  C   UNL A   1      43.279  24.737  27.257  1.00  0.00     0.031 A 
ATOM     60  C   UNL A   1      44.668  25.228  26.958  1.00  0.00     0.074 A 
ATOM     61  C   UNL A   1      42.387  25.562  27.836  1.00  0.00     0.049 A 
ATOM     62  N   UNL A   1      45.180  26.421  27.136  1.00  0.00    -0.248 NA
ATOM     63  C   UNL A   1      45.614  24.245  26.412  1.00  0.00    -0.034 C 
ATOM     64  C   UNL A   1      41.026  25.191  28.231  1.00  0.00    -0.036 A 
ATOM     65  N   UNL A   1      42.487  26.883  28.193  1.00  0.00    -0.354 N 
ATOM     66  C   UNL A   1      46.506  26.328  26.738  1.00  0.00     0.074 A 
ATOM     67  C   UNL A   1      46.735  24.951  26.354  1.00  0.00    -0.034 C 
ATOM     68  H   UNL A   1      45.450  23.263  26.143  1.00  0.00     0.065 H 
ATOM     69  C   UNL A   1      40.408  26.267  28.740  1.00  0.00    -0.036 A 
ATOM     70  H   UNL A   1      40.611  24.251  28.133  1.00  0.00     0.065 H 
ATOM     71  C   UNL A   1      41.334  27.396  28.734  1.00  0.00     0.049 A 
ATOM     72  H   UNL A   1      43.308  27.413  28.074  1.00  0.00     0.167 HD
ATOM     73  C   UNL A   1      47.442  27.305  26.678  1.00  0.00     0.037 A 
ATOM     74  H   UNL A   1      47.651  24.570  26.073  1.00  0.00     0.065 H 
ATOM     75  H   UNL A   1      39.434  26.293  29.080  1.00  0.00     0.065 H 
ATOM     76  C   UNL A   1      41.051  28.639  29.167  1.00  0.00     0.037 A 
ATOM     77  C   UNL A   1      47.206  28.682  27.033  1.00  0.00     0.049 A 
ATOM     78  C   UNL A   1      42.103  29.708  29.075  1.00  0.00     0.074 A 
ATOM     79  C   UNL A   1      48.063  29.763  26.923  1.00  0.00    -0.036 A 
ATOM     80  N   UNL A   1      46.023  29.165  27.576  1.00  0.00    -0.354 N 
ATOM     81  N   UNL A   1      43.325  29.630  28.610  1.00  0.00    -0.248 NA
ATOM     82  C   UNL A   1      41.729  31.043  29.563  1.00  0.00    -0.034 C 
ATOM     83  C   UNL A   1      47.417  30.891  27.441  1.00  0.00    -0.036 A 
ATOM     84  H   UNL A   1      49.015  29.741  26.526  1.00  0.00     0.065 H 
ATOM     85  C   UNL A   1      46.140  30.523  27.832  1.00  0.00     0.049 A 
ATOM     86  H   UNL A   1      45.220  28.624  27.752  1.00  0.00     0.167 HD
ATOM     87  C   UNL A   1      43.859  30.907  28.726  1.00  0.00     0.074 A 
ATOM     88  C   UNL A   1      42.820  31.744  29.288  1.00  0.00    -0.034 C 
ATOM     89  H   UNL A   1      40.848  31.353  30.003  1.00  0.00     0.065 H 
ATOM     90  H   UNL A   1      47.823  31.836  27.519  1.00  0.00     0.065 H 
ATOM     91  C   UNL A   1      45.100  31.344  28.398  1.00  0.00     0.037 A 
ATOM     92  H   UNL A   1      42.917  32.758  29.454  1.00  0.00     0.065 H 
BRANCH  73  93
ATOM     93  C   UNL A   1      48.817  26.920  26.211  1.00  0.00     0.064 A 
ATOM     94  C   UNL A   1      49.197  27.031  24.865  1.00  0.00     0.173 A 
ATOM     95  C   UNL A   1      49.775  26.459  27.127  1.00  0.00     0.173 A 
ATOM     96  F   UNL A   1      48.315  27.457  23.948  1.00  0.00    -0.203 F 
ATOM     97  C   UNL A   1      50.473  26.662  24.448  1.00  0.00     0.198 A 
ATOM     98  C   UNL A   1      51.060  26.119  26.711  1.00  0.00     0.198 A 
ATOM     99  F   UNL A   1      49.466  26.340  28.427  1.00  0.00    -0.203 F 
ATOM    100  F   UNL A   1      50.796  26.728  23.149  1.00  0.00    -0.200 F 
ATOM    101  C   UNL A   1      51.405  26.213  25.371  1.00  0.00     0.200 A 
ATOM    102  F   UNL A   1      51.963  25.696  27.606  1.00  0.00    -0.200 F 
ATOM    103  F   UNL A   1      52.634  25.861  24.968  1.00  0.00    -0.200 F 
ENDBRANCH  73  93
BRANCH  76 104
ATOM    104  C   UNL A   1      39.692  28.952  29.678  1.00  0.00     0.064 A 
ATOM    105  C   UNL A   1      39.370  28.734  31.025  1.00  0.00     0.173 A 
ATOM    106  C   UNL A   1      38.696  29.473  28.842  1.00  0.00     0.173 A 
ATOM    107  F   UNL A   1      40.285  28.215  31.857  1.00  0.00    -0.203 F 
ATOM    108  C   UNL A   1      38.095  29.012  31.513  1.00  0.00     0.198 A 
ATOM    109  C   UNL A   1      37.429  29.775  29.337  1.00  0.00     0.198 A 
ATOM    110  F   UNL A   1      38.958  29.702  27.547  1.00  0.00    -0.203 F 
ATOM    111  F   UNL A   1      37.801  28.758  32.796  1.00  0.00    -0.200 F 
ATOM    112  C   UNL A   1      37.127  29.538  30.671  1.00  0.00     0.200 A 
ATOM    113  F   UNL A   1      36.500  30.294  28.523  1.00  0.00    -0.200 F 
ATOM    114  F   UNL A   1      35.903  29.811  31.141  1.00  0.00    -0.200 F 
ENDBRANCH  76 104
BRANCH  91 115
ATOM    115  C   UNL A   1      45.389  32.800  28.622  1.00  0.00     0.064 A 
ATOM    116  C   UNL A   1      45.960  33.261  29.818  1.00  0.00     0.173 A 
ATOM    117  C   UNL A   1      45.099  33.744  27.626  1.00  0.00     0.173 A 
ATOM    118  F   UNL A   1      46.239  32.399  30.807  1.00  0.00    -0.203 F 
ATOM    119  C   UNL A   1      46.197  34.617  30.022  1.00  0.00     0.198 A 
ATOM    120  C   UNL A   1      45.366  35.097  27.822  1.00  0.00     0.198 A 
ATOM    121  F   UNL A   1      44.558  33.357  26.462  1.00  0.00    -0.203 F 
ATOM    122  F   UNL A   1      46.689  35.041  31.194  1.00  0.00    -0.200 F 
ATOM    123  C   UNL A   1      45.905  35.534  29.022  1.00  0.00     0.200 A 
ATOM    124  F   UNL A   1      45.092  35.980  26.851  1.00  0.00    -0.200 F 
ATOM    125  F   UNL A   1      46.133  36.839  29.221  1.00  0.00    -0.200 F 
ENDBRANCH  91 115
ENDBRANCH  56  59
ENDBRANCH  46  49
ENDBRANCH  42  45
ENDBRANCH  39  42
ENDBRANCH  36  39
ENDBRANCH  33  36
ENDBRANCH   1  33
TORSDOF 17
ENDMDL
MODEL 10
REMARK VINA RESULT:     -10.3      7.433     12.002
REMARK SMILES O=C(CCCC[C@@H]1CCSS1)NCCCCCCNC(=O)c1ccc(-c2c3nc(c(-c4c(F)c(F)c(F)c(F)c4F)c4ccc([nH]4)c(-c4c(F)c(F)c(F)c(F)c4F)c4nc(c(-c5c(F)c(F)c(F)c(F)c5F)c5ccc2[nH]5)C=C4)C=C3)cc1
REMARK SMILES IDX 14 1 13 4 12 7 1 8 2 9 3 11 4 14 5 17 6 20 7 23 8 24 11 25
REMARK SMILES IDX 9 27 10 30 15 33 16 36 17 39 18 42 19 45 20 46 21 48 22 49
REMARK SMILES IDX 23 50 84 51 24 52 83 54 25 56 26 59 27 60 77 61 28 62 82 63
REMARK SMILES IDX 76 64 78 65 29 66 81 67 75 69 74 71 30 73 62 76 42 77 61 78
REMARK SMILES IDX 43 79 46 80 60 81 79 82 44 83 45 85 59 87 80 88 47 91 31 93
REMARK SMILES IDX 32 94 40 95 33 96 34 97 38 98 41 99 35 100 36 101 39 102
REMARK SMILES IDX 37 103 63 104 64 105 72 106 65 107 66 108 70 109 73 110
REMARK SMILES IDX 67 111 68 112 71 113 69 114 48 115 49 116 57 117 50 118
REMARK SMILES IDX 51 119 55 120 58 121 52 122 53 123 56 124 54 125
REMARK H PARENT 14 2 14 3 13 5 13 6 12 10 3 12 3 13 4 15 4 16 5 18 5 19 6 21
REMARK H PARENT 6 22 7 26 8 28 8 29 9 31 9 32 15 34 15 35 16 37 16 38 17 40
REMARK H PARENT 17 41 18 43 18 44 19 47 23 53 84 55 24 57 83 58 82 68 76 70
REMARK H PARENT 78 72 81 74 75 75 43 84 46 86 79 89 44 90 80 92
REMARK Flexibility Score: inf
ROOT
ATOM      1  C   UNL A   1      40.758  22.307  26.140  1.00  0.00    -0.036 C 
ATOM      2  H   UNL A   1      41.116  23.292  25.916  1.00  0.00     0.028 H 
ATOM      3  H   UNL A   1      40.815  21.633  25.312  1.00  0.00     0.028 H 
ENDROOT
BRANCH   1   4
ATOM      4  C   UNL A   1      39.277  22.412  26.501  1.00  0.00     0.017 C 
ATOM      5  H   UNL A   1      39.044  21.673  27.239  1.00  0.00     0.049 H 
ATOM      6  H   UNL A   1      39.090  23.395  26.879  1.00  0.00     0.049 H 
BRANCH   4   7
ATOM      7  N   UNL A   1      38.436  22.202  25.343  1.00  0.00    -0.356 N 
ATOM      8  O   UNL A   1      37.035  23.987  25.681  1.00  0.00    -0.275 OA
ATOM      9  C   UNL A   1      37.379  23.015  25.018  1.00  0.00     0.219 C 
ATOM     10  H   UNL A   1      38.631  21.435  24.758  1.00  0.00     0.163 HD
BRANCH   9  11
ATOM     11  C   UNL A   1      36.652  22.592  23.755  1.00  0.00     0.026 C 
ATOM     12  H   UNL A   1      36.943  21.590  23.518  1.00  0.00     0.037 H 
ATOM     13  H   UNL A   1      36.924  23.288  22.990  1.00  0.00     0.037 H 
BRANCH  11  14
ATOM     14  C   UNL A   1      35.128  22.638  23.880  1.00  0.00    -0.044 C 
ATOM     15  H   UNL A   1      34.718  22.473  22.906  1.00  0.00     0.027 H 
ATOM     16  H   UNL A   1      34.910  23.598  24.302  1.00  0.00     0.027 H 
BRANCH  14  17
ATOM     17  C   UNL A   1      34.483  21.623  24.834  1.00  0.00    -0.052 C 
ATOM     18  H   UNL A   1      34.185  22.148  25.718  1.00  0.00     0.027 H 
ATOM     19  H   UNL A   1      35.227  20.872  25.001  1.00  0.00     0.027 H 
BRANCH  17  20
ATOM     20  C   UNL A   1      33.255  20.875  24.295  1.00  0.00    -0.040 C 
ATOM     21  H   UNL A   1      33.189  21.050  23.241  1.00  0.00     0.028 H 
ATOM     22  H   UNL A   1      32.403  21.247  24.823  1.00  0.00     0.028 H 
BRANCH  20  23
ATOM     23  C   UNL A   1      33.307  19.356  24.534  1.00  0.00     0.016 C 
ATOM     24  C   UNL A   1      34.747  18.833  24.626  1.00  0.00    -0.030 C 
ATOM     25  S   UNL A   1      32.528  18.454  23.149  1.00  0.00    -0.091 SA
ATOM     26  H   UNL A   1      32.790  19.190  25.457  1.00  0.00     0.043 H 
ATOM     27  C   UNL A   1      34.758  17.310  24.579  1.00  0.00     0.005 C 
ATOM     28  H   UNL A   1      35.184  19.162  25.545  1.00  0.00     0.029 H 
ATOM     29  H   UNL A   1      35.309  19.212  23.798  1.00  0.00     0.029 H 
ATOM     30  S   UNL A   1      33.788  16.841  23.129  1.00  0.00    -0.094 SA
ATOM     31  H   UNL A   1      34.316  16.909  25.466  1.00  0.00     0.039 H 
ATOM     32  H   UNL A   1      35.757  16.931  24.519  1.00  0.00     0.039 H 
ENDBRANCH  20  23
ENDBRANCH  17  20
ENDBRANCH  14  17
ENDBRANCH  11  14
ENDBRANCH   9  11
ENDBRANCH   4   7
ENDBRANCH   1   4
BRANCH   1  33
ATOM     33  C   UNL A   1      41.659  21.714  27.235  1.00  0.00    -0.052 C 
ATOM     34  H   UNL A   1      41.412  22.192  28.160  1.00  0.00     0.027 H 
ATOM     35  H   UNL A   1      42.664  21.887  26.913  1.00  0.00     0.027 H 
BRANCH  33  36
ATOM     36  C   UNL A   1      41.539  20.201  27.440  1.00  0.00    -0.052 C 
ATOM     37  H   UNL A   1      40.523  19.982  27.691  1.00  0.00     0.027 H 
ATOM     38  H   UNL A   1      42.236  19.952  28.213  1.00  0.00     0.027 H 
BRANCH  36  39
ATOM     39  C   UNL A   1      41.923  19.345  26.232  1.00  0.00    -0.036 C 
ATOM     40  H   UNL A   1      41.759  19.927  25.349  1.00  0.00     0.028 H 
ATOM     41  H   UNL A   1      41.314  18.467  26.288  1.00  0.00     0.028 H 
BRANCH  39  42
ATOM     42  C   UNL A   1      43.368  18.854  26.210  1.00  0.00     0.018 C 
ATOM     43  H   UNL A   1      43.418  17.916  26.722  1.00  0.00     0.049 H 
ATOM     44  H   UNL A   1      43.968  19.602  26.686  1.00  0.00     0.049 H 
BRANCH  42  45
ATOM     45  N   UNL A   1      43.887  18.675  24.863  1.00  0.00    -0.352 N 
ATOM     46  C   UNL A   1      44.506  19.578  24.037  1.00  0.00     0.251 C 
ATOM     47  H   UNL A   1      43.778  17.771  24.489  1.00  0.00     0.163 HD
ATOM     48  O   UNL A   1      44.765  19.267  22.875  1.00  0.00    -0.269 OA
BRANCH  46  49
ATOM     49  C   UNL A   1      44.837  20.938  24.517  1.00  0.00     0.039 A 
ATOM     50  C   UNL A   1      44.529  22.028  23.697  1.00  0.00    -0.049 A 
ATOM     51  C   UNL A   1      45.460  21.149  25.751  1.00  0.00    -0.049 A 
ATOM     52  C   UNL A   1      44.786  23.328  24.140  1.00  0.00    -0.053 A 
ATOM     53  H   UNL A   1      44.113  21.873  22.766  1.00  0.00     0.063 H 
ATOM     54  C   UNL A   1      45.657  22.448  26.220  1.00  0.00    -0.053 A 
ATOM     55  H   UNL A   1      45.774  20.344  26.314  1.00  0.00     0.063 H 
ATOM     56  C   UNL A   1      45.321  23.550  25.419  1.00  0.00    -0.014 A 
ATOM     57  H   UNL A   1      44.582  24.129  23.523  1.00  0.00     0.063 H 
ATOM     58  H   UNL A   1      46.051  22.599  27.161  1.00  0.00     0.063 H 
BRANCH  56  59
ATOM     59  C   UNL A   1      45.505  24.932  25.932  1.00  0.00     0.031 A 
ATOM     60  C   UNL A   1      46.853  25.596  25.889  1.00  0.00     0.074 A 
ATOM     61  C   UNL A   1      44.459  25.576  26.483  1.00  0.00     0.049 A 
ATOM     62  N   UNL A   1      47.197  26.798  26.282  1.00  0.00    -0.248 NA
ATOM     63  C   UNL A   1      47.967  24.798  25.358  1.00  0.00    -0.034 C 
ATOM     64  C   UNL A   1      43.113  25.020  26.640  1.00  0.00    -0.036 A 
ATOM     65  N   UNL A   1      44.360  26.839  27.012  1.00  0.00    -0.354 N 
ATOM     66  C   UNL A   1      48.564  26.894  26.059  1.00  0.00     0.074 A 
ATOM     67  C   UNL A   1      48.996  25.613  25.541  1.00  0.00    -0.034 C 
ATOM     68  H   UNL A   1      47.953  23.851  24.949  1.00  0.00     0.065 H 
ATOM     69  C   UNL A   1      42.316  25.949  27.190  1.00  0.00    -0.036 A 
ATOM     70  H   UNL A   1      42.825  24.067  26.370  1.00  0.00     0.065 H 
ATOM     71  C   UNL A   1      43.098  27.154  27.451  1.00  0.00     0.049 A 
ATOM     72  H   UNL A   1      45.122  27.459  27.072  1.00  0.00     0.167 HD
ATOM     73  C   UNL A   1      49.379  27.958  26.249  1.00  0.00     0.037 A 
ATOM     74  H   UNL A   1      49.978  25.367  25.342  1.00  0.00     0.065 H 
ATOM     75  H   UNL A   1      41.312  25.830  27.395  1.00  0.00     0.065 H 
ATOM     76  C   UNL A   1      42.621  28.291  27.992  1.00  0.00     0.037 A 
ATOM     77  C   UNL A   1      48.943  29.242  26.737  1.00  0.00     0.049 A 
ATOM     78  C   UNL A   1      43.545  29.462  28.177  1.00  0.00     0.074 A 
ATOM     79  C   UNL A   1      49.675  30.408  26.880  1.00  0.00    -0.036 A 
ATOM     80  N   UNL A   1      47.655  29.525  27.169  1.00  0.00    -0.354 N 
ATOM     81  N   UNL A   1      44.815  29.571  27.877  1.00  0.00    -0.248 NA
ATOM     82  C   UNL A   1      42.961  30.672  28.772  1.00  0.00    -0.034 C 
ATOM     83  C   UNL A   1      48.844  31.383  27.441  1.00  0.00    -0.036 A 
ATOM     84  H   UNL A   1      50.664  30.536  26.617  1.00  0.00     0.065 H 
ATOM     85  C   UNL A   1      47.580  30.839  27.607  1.00  0.00     0.049 A 
ATOM     86  H   UNL A   1      46.905  28.888  27.166  1.00  0.00     0.167 HD
ATOM     87  C   UNL A   1      45.178  30.866  28.223  1.00  0.00     0.074 A 
ATOM     88  C   UNL A   1      43.987  31.510  28.738  1.00  0.00    -0.034 C 
ATOM     89  H   UNL A   1      42.003  30.829  29.124  1.00  0.00     0.065 H 
ATOM     90  H   UNL A   1      49.124  32.344  27.691  1.00  0.00     0.065 H 
ATOM     91  C   UNL A   1      46.390  31.466  28.123  1.00  0.00     0.037 A 
ATOM     92  H   UNL A   1      43.944  32.496  29.040  1.00  0.00     0.065 H 
BRANCH  73  93
ATOM     93  C   UNL A   1      50.836  27.780  25.929  1.00  0.00     0.064 A 
ATOM     94  C   UNL A   1      51.328  27.929  24.624  1.00  0.00     0.173 A 
ATOM     95  C   UNL A   1      51.755  27.482  26.946  1.00  0.00     0.173 A 
ATOM     96  F   UNL A   1      50.489  28.203  23.613  1.00  0.00    -0.203 F 
ATOM     97  C   UNL A   1      52.680  27.753  24.343  1.00  0.00     0.198 A 
ATOM     98  C   UNL A   1      53.112  27.337  26.667  1.00  0.00     0.198 A 
ATOM     99  F   UNL A   1      51.339  27.336  28.213  1.00  0.00    -0.203 F 
ATOM    100  F   UNL A   1      53.119  27.849  23.080  1.00  0.00    -0.200 F 
ATOM    101  C   UNL A   1      53.572  27.463  25.364  1.00  0.00     0.200 A 
ATOM    102  F   UNL A   1      53.974  27.068  27.657  1.00  0.00    -0.200 F 
ATOM    103  F   UNL A   1      54.874  27.297  25.093  1.00  0.00    -0.200 F 
ENDBRANCH  73  93
BRANCH  76 104
ATOM    104  C   UNL A   1      41.183  28.393  28.349  1.00  0.00     0.064 A 
ATOM    105  C   UNL A   1      40.729  27.973  29.607  1.00  0.00     0.173 A 
ATOM    106  C   UNL A   1      40.240  28.910  27.451  1.00  0.00     0.173 A 
ATOM    107  F   UNL A   1      41.593  27.451  30.490  1.00  0.00    -0.203 F 
ATOM    108  C   UNL A   1      39.381  28.052  29.948  1.00  0.00     0.198 A 
ATOM    109  C   UNL A   1      38.896  29.013  27.803  1.00  0.00     0.198 A 
ATOM    110  F   UNL A   1      40.626  29.328  26.237  1.00  0.00    -0.203 F 
ATOM    111  F   UNL A   1      38.967  27.607  31.143  1.00  0.00    -0.200 F 
ATOM    112  C   UNL A   1      38.466  28.578  29.048  1.00  0.00     0.200 A 
ATOM    113  F   UNL A   1      38.016  29.532  26.936  1.00  0.00    -0.200 F 
ATOM    114  F   UNL A   1      37.170  28.660  29.379  1.00  0.00    -0.200 F 
ENDBRANCH  76 104
BRANCH  91 115
ATOM    115  C   UNL A   1      46.478  32.899  28.564  1.00  0.00     0.064 A 
ATOM    116  C   UNL A   1      46.812  33.243  29.882  1.00  0.00     0.173 A 
ATOM    117  C   UNL A   1      46.232  33.939  27.655  1.00  0.00     0.173 A 
ATOM    118  F   UNL A   1      47.039  32.285  30.792  1.00  0.00    -0.203 F 
ATOM    119  C   UNL A   1      46.864  34.576  30.282  1.00  0.00     0.198 A 
ATOM    120  C   UNL A   1      46.314  35.271  28.052  1.00  0.00     0.198 A 
ATOM    121  F   UNL A   1      45.914  33.664  26.382  1.00  0.00    -0.203 F 
ATOM    122  F   UNL A   1      47.127  34.879  31.561  1.00  0.00    -0.200 F 
ATOM    123  C   UNL A   1      46.619  35.588  29.367  1.00  0.00     0.200 A 
ATOM    124  F   UNL A   1      46.087  36.249  27.163  1.00  0.00    -0.200 F 
ATOM    125  F   UNL A   1      46.667  36.870  29.755  1.00  0.00    -0.200 F 
ENDBRANCH  91 115
ENDBRANCH  56  59
ENDBRANCH  46  49
ENDBRANCH  42  45
ENDBRANCH  39  42
ENDBRANCH  36  39
ENDBRANCH  33  36
ENDBRANCH   1  33
TORSDOF 17
ENDMDL
