MODEL 1
REMARK VINA RESULT:     -11.9      0.000      0.000
REMARK SMILES C[C@@H](C(=O)NCCCCCCNC(=O)c1ccc(-c2c3nc(c(-c4c(F)c(F)c(F)c(F)c4F)c4ccc([nH]4)c(-c4c(F)c(F)c(F)c(F)c4F)c4nc(c(-c5c(F)c(F)c(F)c(F)c5F)c5ccc2[nH]5)C=C4)C=C3)cc1)c1ccc(C[C@@H]2CCC[C@@H]2O)cc1Br
REMARK SMILES IDX 7 1 6 4 5 7 3 8 4 9 2 11 1 13 78 17 79 18 90 19 80 20 89 22
REMARK SMILES IDX 91 23 81 24 82 27 83 30 84 31 87 32 85 34 86 37 88 43 8 45
REMARK SMILES IDX 9 48 10 51 11 54 12 57 13 58 14 60 15 61 16 62 77 63 17 64
REMARK SMILES IDX 76 66 18 68 19 71 20 72 70 73 21 74 75 75 69 76 71 77 22 78
REMARK SMILES IDX 74 79 68 81 67 83 23 85 55 88 35 89 54 90 36 91 39 92 53 93
REMARK SMILES IDX 72 94 37 95 38 97 52 99 73 100 40 103 24 105 25 106 33 107
REMARK SMILES IDX 26 108 27 109 31 110 34 111 28 112 29 113 32 114 30 115
REMARK SMILES IDX 56 116 57 117 65 118 58 119 59 120 63 121 66 122 60 123
REMARK SMILES IDX 61 124 64 125 62 126 41 127 42 128 50 129 43 130 44 131
REMARK SMILES IDX 48 132 51 133 45 134 46 135 49 136 47 137
REMARK H PARENT 7 2 7 3 6 5 6 6 5 10 2 12 1 14 1 15 1 16 79 21 80 25 89 26
REMARK H PARENT 82 28 82 29 83 33 84 35 84 36 87 38 85 39 85 40 86 41 86 42
REMARK H PARENT 88 44 8 46 8 47 9 49 9 50 10 52 10 53 11 55 11 56 12 59 16 65
REMARK H PARENT 77 67 17 69 76 70 75 80 69 82 71 84 74 86 68 87 36 96 39 98
REMARK H PARENT 72 101 37 102 73 104
REMARK Flexibility Score: inf
ROOT
ATOM      1  C   UNL A   1      34.029  25.978  25.702  1.00  0.00    -0.036 C 
ATOM      2  H   UNL A   1      34.581  26.445  26.491  1.00  0.00     0.028 H 
ATOM      3  H   UNL A   1      33.012  25.785  25.974  1.00  0.00     0.028 H 
ENDROOT
BRANCH   1   4
ATOM      4  C   UNL A   1      34.674  24.624  25.397  1.00  0.00     0.017 C 
ATOM      5  H   UNL A   1      35.670  24.610  25.790  1.00  0.00     0.049 H 
ATOM      6  H   UNL A   1      34.094  23.849  25.850  1.00  0.00     0.049 H 
BRANCH   4   7
ATOM      7  N   UNL A   1      34.721  24.407  23.969  1.00  0.00    -0.356 N 
ATOM      8  C   UNL A   1      33.931  23.625  23.179  1.00  0.00     0.227 C 
ATOM      9  O   UNL A   1      34.316  23.446  22.021  1.00  0.00    -0.274 OA
ATOM     10  H   UNL A   1      35.429  24.898  23.495  1.00  0.00     0.163 HD
BRANCH   8  11
ATOM     11  C   UNL A   1      32.621  23.038  23.735  1.00  0.00     0.061 C 
ATOM     12  H   UNL A   1      32.819  22.676  24.722  1.00  0.00     0.045 H 
BRANCH  11  13
ATOM     13  C   UNL A   1      32.134  21.831  22.920  1.00  0.00    -0.049 C 
ATOM     14  H   UNL A   1      32.977  21.292  22.543  1.00  0.00     0.024 H 
ATOM     15  H   UNL A   1      31.534  22.171  22.103  1.00  0.00     0.024 H 
ATOM     16  H   UNL A   1      31.552  21.188  23.547  1.00  0.00     0.024 H 
ENDBRANCH  11  13
BRANCH  11  17
ATOM     17  C   UNL A   1      31.548  24.124  23.825  1.00  0.00    -0.022 A 
ATOM     18  C   UNL A   1      31.342  24.977  22.724  1.00  0.00    -0.057 A 
ATOM     19  C   UNL A   1      30.815  24.386  24.996  1.00  0.00     0.022 A 
ATOM     20  C   UNL A   1      30.441  26.038  22.780  1.00  0.00    -0.059 A 
ATOM     21  H   UNL A   1      31.871  24.812  21.854  1.00  0.00     0.063 H 
ATOM     22  C   UNL A   1      29.932  25.473  25.058  1.00  0.00    -0.044 A 
ATOM     23  Br  UNL A   1      30.984  23.333  26.571  1.00  0.00    -0.051 Br
ATOM     24  C   UNL A   1      29.759  26.328  23.960  1.00  0.00    -0.047 A 
ATOM     25  H   UNL A   1      30.278  26.616  21.940  1.00  0.00     0.063 H 
ATOM     26  H   UNL A   1      29.402  25.648  25.926  1.00  0.00     0.064 H 
BRANCH  24  27
ATOM     27  C   UNL A   1      28.891  27.555  24.067  1.00  0.00    -0.023 C 
ATOM     28  H   UNL A   1      29.182  28.074  24.955  1.00  0.00     0.032 H 
ATOM     29  H   UNL A   1      27.891  27.175  24.056  1.00  0.00     0.032 H 
BRANCH  27  30
ATOM     30  C   UNL A   1      28.927  28.577  22.904  1.00  0.00    -0.011 C 
ATOM     31  C   UNL A   1      29.953  29.707  23.050  1.00  0.00    -0.048 C 
ATOM     32  C   UNL A   1      27.636  29.344  22.603  1.00  0.00     0.057 C 
ATOM     33  H   UNL A   1      29.164  27.883  22.123  1.00  0.00     0.033 H 
ATOM     34  C   UNL A   1      29.185  30.940  23.541  1.00  0.00    -0.050 C 
ATOM     35  H   UNL A   1      30.414  29.911  22.107  1.00  0.00     0.027 H 
ATOM     36  H   UNL A   1      30.726  29.438  23.739  1.00  0.00     0.027 H 
ATOM     37  C   UNL A   1      27.703  30.581  23.487  1.00  0.00    -0.027 C 
ATOM     38  H   UNL A   1      27.575  29.590  21.563  1.00  0.00     0.060 H 
ATOM     39  H   UNL A   1      29.386  31.776  22.904  1.00  0.00     0.027 H 
ATOM     40  H   UNL A   1      29.480  31.208  24.533  1.00  0.00     0.027 H 
ATOM     41  H   UNL A   1      27.136  31.382  23.058  1.00  0.00     0.029 H 
ATOM     42  H   UNL A   1      27.292  30.407  24.459  1.00  0.00     0.029 H 
BRANCH  32  43
ATOM     43  O   UNL A   1      26.459  28.593  22.821  1.00  0.00    -0.393 OA
ATOM     44  H   UNL A   1      25.713  29.195  22.960  1.00  0.00     0.210 HD
ENDBRANCH  32  43
ENDBRANCH  27  30
ENDBRANCH  24  27
ENDBRANCH  11  17
ENDBRANCH   8  11
ENDBRANCH   4   7
ENDBRANCH   1   4
BRANCH   1  45
ATOM     45  C   UNL A   1      33.998  26.933  24.500  1.00  0.00    -0.052 C 
ATOM     46  H   UNL A   1      33.932  26.344  23.609  1.00  0.00     0.027 H 
ATOM     47  H   UNL A   1      34.893  27.516  24.557  1.00  0.00     0.027 H 
BRANCH  45  48
ATOM     48  C   UNL A   1      32.835  27.930  24.498  1.00  0.00    -0.052 C 
ATOM     49  H   UNL A   1      32.058  27.537  25.121  1.00  0.00     0.027 H 
ATOM     50  H   UNL A   1      32.537  28.045  23.477  1.00  0.00     0.027 H 
BRANCH  48  51
ATOM     51  C   UNL A   1      33.191  29.329  25.005  1.00  0.00    -0.036 C 
ATOM     52  H   UNL A   1      32.849  30.044  24.285  1.00  0.00     0.028 H 
ATOM     53  H   UNL A   1      34.253  29.346  25.136  1.00  0.00     0.028 H 
BRANCH  51  54
ATOM     54  C   UNL A   1      32.577  29.680  26.355  1.00  0.00     0.018 C 
ATOM     55  H   UNL A   1      33.223  29.327  27.132  1.00  0.00     0.049 H 
ATOM     56  H   UNL A   1      31.614  29.217  26.413  1.00  0.00     0.049 H 
BRANCH  54  57
ATOM     57  N   UNL A   1      32.396  31.116  26.513  1.00  0.00    -0.352 N 
ATOM     58  C   UNL A   1      33.136  32.007  27.246  1.00  0.00     0.251 C 
ATOM     59  H   UNL A   1      31.632  31.501  26.025  1.00  0.00     0.163 HD
ATOM     60  O   UNL A   1      32.724  33.148  27.441  1.00  0.00    -0.269 OA
BRANCH  58  61
ATOM     61  C   UNL A   1      34.428  31.583  27.822  1.00  0.00     0.039 A 
ATOM     62  C   UNL A   1      35.455  32.521  27.948  1.00  0.00    -0.049 A 
ATOM     63  C   UNL A   1      34.618  30.266  28.250  1.00  0.00    -0.049 A 
ATOM     64  C   UNL A   1      36.651  32.156  28.569  1.00  0.00    -0.053 A 
ATOM     65  H   UNL A   1      35.331  33.478  27.584  1.00  0.00     0.063 H 
ATOM     66  C   UNL A   1      35.781  29.924  28.933  1.00  0.00    -0.053 A 
ATOM     67  H   UNL A   1      33.900  29.551  28.060  1.00  0.00     0.063 H 
ATOM     68  C   UNL A   1      36.807  30.866  29.105  1.00  0.00    -0.014 A 
ATOM     69  H   UNL A   1      37.424  32.836  28.636  1.00  0.00     0.063 H 
ATOM     70  H   UNL A   1      35.890  28.971  29.316  1.00  0.00     0.063 H 
BRANCH  68  71
ATOM     71  C   UNL A   1      38.022  30.490  29.871  1.00  0.00     0.031 A 
ATOM     72  C   UNL A   1      39.008  29.516  29.293  1.00  0.00     0.074 A 
ATOM     73  C   UNL A   1      38.190  30.963  31.122  1.00  0.00     0.049 A 
ATOM     74  N   UNL A   1      40.073  28.989  29.845  1.00  0.00    -0.248 NA
ATOM     75  C   UNL A   1      38.752  29.049  27.921  1.00  0.00    -0.034 C 
ATOM     76  C   UNL A   1      37.278  31.878  31.809  1.00  0.00    -0.036 A 
ATOM     77  N   UNL A   1      39.176  30.723  32.046  1.00  0.00    -0.354 N 
ATOM     78  C   UNL A   1      40.599  28.120  28.900  1.00  0.00     0.074 A 
ATOM     79  C   UNL A   1      39.716  28.153  27.755  1.00  0.00    -0.034 C 
ATOM     80  H   UNL A   1      38.015  29.342  27.261  1.00  0.00     0.065 H 
ATOM     81  C   UNL A   1      37.750  32.131  33.039  1.00  0.00    -0.036 A 
ATOM     82  H   UNL A   1      36.408  32.267  31.410  1.00  0.00     0.065 H 
ATOM     83  C   UNL A   1      38.973  31.361  33.247  1.00  0.00     0.049 A 
ATOM     84  H   UNL A   1      39.955  30.149  31.867  1.00  0.00     0.167 HD
ATOM     85  C   UNL A   1      41.727  27.374  28.976  1.00  0.00     0.037 A 
ATOM     86  H   UNL A   1      39.822  27.559  26.917  1.00  0.00     0.065 H 
ATOM     87  H   UNL A   1      37.321  32.769  33.727  1.00  0.00     0.065 H 
ATOM     88  C   UNL A   1      39.679  31.313  34.392  1.00  0.00     0.037 A 
ATOM     89  C   UNL A   1      42.617  27.368  30.108  1.00  0.00     0.049 A 
ATOM     90  C   UNL A   1      40.919  30.460  34.455  1.00  0.00     0.074 A 
ATOM     91  C   UNL A   1      43.828  26.714  30.246  1.00  0.00    -0.036 A 
ATOM     92  N   UNL A   1      42.385  28.038  31.300  1.00  0.00    -0.354 N 
ATOM     93  N   UNL A   1      41.455  29.712  33.521  1.00  0.00    -0.248 NA
ATOM     94  C   UNL A   1      41.652  30.446  35.728  1.00  0.00    -0.034 C 
ATOM     95  C   UNL A   1      44.299  26.935  31.544  1.00  0.00    -0.036 A 
ATOM     96  H   UNL A   1      44.303  26.159  29.517  1.00  0.00     0.065 H 
ATOM     97  C   UNL A   1      43.412  27.779  32.193  1.00  0.00     0.049 A 
ATOM     98  H   UNL A   1      41.608  28.613  31.483  1.00  0.00     0.167 HD
ATOM     99  C   UNL A   1      42.599  29.160  34.084  1.00  0.00     0.074 A 
ATOM    100  C   UNL A   1      42.690  29.675  35.434  1.00  0.00    -0.034 C 
ATOM    101  H   UNL A   1      41.421  30.914  36.618  1.00  0.00     0.065 H 
ATOM    102  H   UNL A   1      45.160  26.537  31.950  1.00  0.00     0.065 H 
ATOM    103  C   UNL A   1      43.492  28.303  33.533  1.00  0.00     0.037 A 
ATOM    104  H   UNL A   1      43.463  29.468  36.085  1.00  0.00     0.065 H 
BRANCH  85 105
ATOM    105  C   UNL A   1      42.069  26.495  27.807  1.00  0.00     0.064 A 
ATOM    106  C   UNL A   1      43.006  26.882  26.839  1.00  0.00     0.173 A 
ATOM    107  C   UNL A   1      41.495  25.219  27.691  1.00  0.00     0.173 A 
ATOM    108  F   UNL A   1      43.578  28.094  26.899  1.00  0.00    -0.203 F 
ATOM    109  C   UNL A   1      43.337  26.035  25.783  1.00  0.00     0.198 A 
ATOM    110  C   UNL A   1      41.852  24.363  26.653  1.00  0.00     0.198 A 
ATOM    111  F   UNL A   1      40.597  24.795  28.595  1.00  0.00    -0.203 F 
ATOM    112  F   UNL A   1      44.204  26.444  24.846  1.00  0.00    -0.200 F 
ATOM    113  C   UNL A   1      42.768  24.775  25.696  1.00  0.00     0.200 A 
ATOM    114  F   UNL A   1      41.312  23.139  26.580  1.00  0.00    -0.200 F 
ATOM    115  F   UNL A   1      43.099  23.955  24.689  1.00  0.00    -0.200 F 
ENDBRANCH  85 105
BRANCH  88 116
ATOM    116  C   UNL A   1      39.230  32.088  35.580  1.00  0.00     0.064 A 
ATOM    117  C   UNL A   1      39.652  33.409  35.784  1.00  0.00     0.173 A 
ATOM    118  C   UNL A   1      38.387  31.518  36.546  1.00  0.00     0.173 A 
ATOM    119  F   UNL A   1      40.475  33.992  34.900  1.00  0.00    -0.203 F 
ATOM    120  C   UNL A   1      39.273  34.119  36.920  1.00  0.00     0.198 A 
ATOM    121  C   UNL A   1      37.982  32.241  37.666  1.00  0.00     0.198 A 
ATOM    122  F   UNL A   1      37.950  30.259  36.399  1.00  0.00    -0.203 F 
ATOM    123  F   UNL A   1      39.739  35.361  37.118  1.00  0.00    -0.200 F 
ATOM    124  C   UNL A   1      38.434  33.537  37.859  1.00  0.00     0.200 A 
ATOM    125  F   UNL A   1      37.158  31.679  38.561  1.00  0.00    -0.200 F 
ATOM    126  F   UNL A   1      38.070  34.221  38.951  1.00  0.00    -0.200 F 
ENDBRANCH  88 116
BRANCH 103 127
ATOM    127  C   UNL A   1      44.661  27.884  34.376  1.00  0.00     0.064 A 
ATOM    128  C   UNL A   1      44.619  26.732  35.175  1.00  0.00     0.173 A 
ATOM    129  C   UNL A   1      45.860  28.614  34.340  1.00  0.00     0.173 A 
ATOM    130  F   UNL A   1      43.492  26.010  35.257  1.00  0.00    -0.203 F 
ATOM    131  C   UNL A   1      45.726  26.338  35.922  1.00  0.00     0.198 A 
ATOM    132  C   UNL A   1      46.975  28.198  35.062  1.00  0.00     0.198 A 
ATOM    133  F   UNL A   1      45.956  29.720  33.588  1.00  0.00    -0.203 F 
ATOM    134  F   UNL A   1      45.648  25.258  36.711  1.00  0.00    -0.200 F 
ATOM    135  C   UNL A   1      46.905  27.064  35.856  1.00  0.00     0.200 A 
ATOM    136  F   UNL A   1      48.119  28.893  34.984  1.00  0.00    -0.200 F 
ATOM    137  F   UNL A   1      47.974  26.673  36.563  1.00  0.00    -0.200 F 
ENDBRANCH 103 127
ENDBRANCH  68  71
ENDBRANCH  58  61
ENDBRANCH  54  57
ENDBRANCH  51  54
ENDBRANCH  48  51
ENDBRANCH  45  48
ENDBRANCH   1  45
TORSDOF 18
ENDMDL
MODEL 2
REMARK VINA RESULT:     -11.8      2.260      4.814
REMARK SMILES C[C@@H](C(=O)NCCCCCCNC(=O)c1ccc(-c2c3nc(c(-c4c(F)c(F)c(F)c(F)c4F)c4ccc([nH]4)c(-c4c(F)c(F)c(F)c(F)c4F)c4nc(c(-c5c(F)c(F)c(F)c(F)c5F)c5ccc2[nH]5)C=C4)C=C3)cc1)c1ccc(C[C@@H]2CCC[C@@H]2O)cc1Br
REMARK SMILES IDX 7 1 6 4 5 7 3 8 4 9 2 11 1 13 78 17 79 18 90 19 80 20 89 22
REMARK SMILES IDX 91 23 81 24 82 27 83 30 84 31 87 32 85 34 86 37 88 43 8 45
REMARK SMILES IDX 9 48 10 51 11 54 12 57 13 58 14 60 15 61 16 62 77 63 17 64
REMARK SMILES IDX 76 66 18 68 19 71 20 72 70 73 21 74 75 75 69 76 71 77 22 78
REMARK SMILES IDX 74 79 68 81 67 83 23 85 55 88 35 89 54 90 36 91 39 92 53 93
REMARK SMILES IDX 72 94 37 95 38 97 52 99 73 100 40 103 24 105 25 106 33 107
REMARK SMILES IDX 26 108 27 109 31 110 34 111 28 112 29 113 32 114 30 115
REMARK SMILES IDX 56 116 57 117 65 118 58 119 59 120 63 121 66 122 60 123
REMARK SMILES IDX 61 124 64 125 62 126 41 127 42 128 50 129 43 130 44 131
REMARK SMILES IDX 48 132 51 133 45 134 46 135 49 136 47 137
REMARK H PARENT 7 2 7 3 6 5 6 6 5 10 2 12 1 14 1 15 1 16 79 21 80 25 89 26
REMARK H PARENT 82 28 82 29 83 33 84 35 84 36 87 38 85 39 85 40 86 41 86 42
REMARK H PARENT 88 44 8 46 8 47 9 49 9 50 10 52 10 53 11 55 11 56 12 59 16 65
REMARK H PARENT 77 67 17 69 76 70 75 80 69 82 71 84 74 86 68 87 36 96 39 98
REMARK H PARENT 72 101 37 102 73 104
REMARK Flexibility Score: inf
ROOT
ATOM      1  C   UNL A   1      33.652  28.747  25.457  1.00  0.00    -0.036 C 
ATOM      2  H   UNL A   1      33.000  28.717  24.609  1.00  0.00     0.028 H 
ATOM      3  H   UNL A   1      34.666  28.958  25.186  1.00  0.00     0.028 H 
ENDROOT
BRANCH   1   4
ATOM      4  C   UNL A   1      33.646  27.368  26.121  1.00  0.00     0.017 C 
ATOM      5  H   UNL A   1      34.480  26.800  25.764  1.00  0.00     0.049 H 
ATOM      6  H   UNL A   1      33.714  27.489  27.181  1.00  0.00     0.049 H 
BRANCH   4   7
ATOM      7  N   UNL A   1      32.421  26.670  25.802  1.00  0.00    -0.356 N 
ATOM      8  C   UNL A   1      32.136  25.841  24.758  1.00  0.00     0.227 C 
ATOM      9  O   UNL A   1      30.949  25.547  24.596  1.00  0.00    -0.274 OA
ATOM     10  H   UNL A   1      31.680  26.816  26.433  1.00  0.00     0.163 HD
BRANCH   8  11
ATOM     11  C   UNL A   1      33.270  25.300  23.867  1.00  0.00     0.061 C 
ATOM     12  H   UNL A   1      34.200  25.580  24.319  1.00  0.00     0.045 H 
BRANCH  11  13
ATOM     13  C   UNL A   1      33.261  25.932  22.468  1.00  0.00    -0.049 C 
ATOM     14  H   UNL A   1      32.723  25.298  21.794  1.00  0.00     0.024 H 
ATOM     15  H   UNL A   1      34.266  26.049  22.122  1.00  0.00     0.024 H 
ATOM     16  H   UNL A   1      32.785  26.890  22.511  1.00  0.00     0.024 H 
ENDBRANCH  11  13
BRANCH  11  17
ATOM     17  C   UNL A   1      33.207  23.774  23.795  1.00  0.00    -0.022 A 
ATOM     18  C   UNL A   1      32.400  23.168  22.813  1.00  0.00    -0.057 A 
ATOM     19  C   UNL A   1      33.838  22.933  24.727  1.00  0.00     0.022 A 
ATOM     20  C   UNL A   1      32.235  21.786  22.754  1.00  0.00    -0.059 A 
ATOM     21  H   UNL A   1      31.920  23.762  22.120  1.00  0.00     0.063 H 
ATOM     22  C   UNL A   1      33.645  21.545  24.683  1.00  0.00    -0.044 A 
ATOM     23  Br  UNL A   1      34.954  23.595  26.119  1.00  0.00    -0.051 Br
ATOM     24  C   UNL A   1      32.818  20.960  23.714  1.00  0.00    -0.047 A 
ATOM     25  H   UNL A   1      31.676  21.369  21.994  1.00  0.00     0.063 H 
ATOM     26  H   UNL A   1      34.120  20.944  25.376  1.00  0.00     0.064 H 
BRANCH  24  27
ATOM     27  C   UNL A   1      32.529  19.481  23.736  1.00  0.00    -0.023 C 
ATOM     28  H   UNL A   1      32.333  19.180  22.729  1.00  0.00     0.032 H 
ATOM     29  H   UNL A   1      31.712  19.381  24.419  1.00  0.00     0.032 H 
BRANCH  27  30
ATOM     30  C   UNL A   1      33.618  18.534  24.297  1.00  0.00    -0.011 C 
ATOM     31  C   UNL A   1      34.025  17.378  23.374  1.00  0.00    -0.048 C 
ATOM     32  C   UNL A   1      33.310  17.810  25.611  1.00  0.00     0.057 C 
ATOM     33  H   UNL A   1      34.384  19.271  24.423  1.00  0.00     0.033 H 
ATOM     34  C   UNL A   1      33.288  16.131  23.876  1.00  0.00    -0.050 C 
ATOM     35  H   UNL A   1      35.082  17.225  23.420  1.00  0.00     0.027 H 
ATOM     36  H   UNL A   1      33.770  17.590  22.357  1.00  0.00     0.027 H 
ATOM     37  C   UNL A   1      32.620  16.519  25.193  1.00  0.00    -0.027 C 
ATOM     38  H   UNL A   1      34.208  17.631  26.164  1.00  0.00     0.060 H 
ATOM     39  H   UNL A   1      33.982  15.333  24.036  1.00  0.00     0.027 H 
ATOM     40  H   UNL A   1      32.566  15.796  23.162  1.00  0.00     0.027 H 
ATOM     41  H   UNL A   1      32.768  15.757  25.930  1.00  0.00     0.029 H 
ATOM     42  H   UNL A   1      31.562  16.640  25.090  1.00  0.00     0.029 H 
BRANCH  32  43
ATOM     43  O   UNL A   1      32.528  18.567  26.512  1.00  0.00    -0.393 OA
ATOM     44  H   UNL A   1      32.862  19.477  26.544  1.00  0.00     0.210 HD
ENDBRANCH  32  43
ENDBRANCH  27  30
ENDBRANCH  24  27
ENDBRANCH  11  17
ENDBRANCH   8  11
ENDBRANCH   4   7
ENDBRANCH   1   4
BRANCH   1  45
ATOM     45  C   UNL A   1      33.192  29.881  26.384  1.00  0.00    -0.052 C 
ATOM     46  H   UNL A   1      33.901  30.679  26.312  1.00  0.00     0.027 H 
ATOM     47  H   UNL A   1      33.128  29.460  27.365  1.00  0.00     0.027 H 
BRANCH  45  48
ATOM     48  C   UNL A   1      31.804  30.449  26.068  1.00  0.00    -0.052 C 
ATOM     49  H   UNL A   1      31.072  29.746  26.408  1.00  0.00     0.027 H 
ATOM     50  H   UNL A   1      31.775  30.608  25.011  1.00  0.00     0.027 H 
BRANCH  48  51
ATOM     51  C   UNL A   1      31.504  31.801  26.717  1.00  0.00    -0.036 C 
ATOM     52  H   UNL A   1      30.817  31.642  27.523  1.00  0.00     0.028 H 
ATOM     53  H   UNL A   1      31.103  32.428  25.948  1.00  0.00     0.028 H 
BRANCH  51  54
ATOM     54  C   UNL A   1      32.731  32.517  27.270  1.00  0.00     0.018 C 
ATOM     55  H   UNL A   1      33.522  32.453  26.552  1.00  0.00     0.049 H 
ATOM     56  H   UNL A   1      33.004  32.044  28.191  1.00  0.00     0.049 H 
BRANCH  54  57
ATOM     57  N   UNL A   1      32.462  33.921  27.548  1.00  0.00    -0.352 N 
ATOM     58  C   UNL A   1      33.016  34.736  28.501  1.00  0.00     0.251 C 
ATOM     59  H   UNL A   1      31.787  34.344  26.971  1.00  0.00     0.163 HD
ATOM     60  O   UNL A   1      32.528  35.838  28.740  1.00  0.00    -0.269 OA
BRANCH  58  61
ATOM     61  C   UNL A   1      34.196  34.276  29.260  1.00  0.00     0.039 A 
ATOM     62  C   UNL A   1      34.007  33.638  30.488  1.00  0.00    -0.049 A 
ATOM     63  C   UNL A   1      35.485  34.460  28.752  1.00  0.00    -0.049 A 
ATOM     64  C   UNL A   1      35.107  33.122  31.175  1.00  0.00    -0.053 A 
ATOM     65  H   UNL A   1      33.059  33.550  30.885  1.00  0.00     0.063 H 
ATOM     66  C   UNL A   1      36.572  33.882  29.402  1.00  0.00    -0.053 A 
ATOM     67  H   UNL A   1      35.631  35.024  27.901  1.00  0.00     0.063 H 
ATOM     68  C   UNL A   1      36.394  33.203  30.617  1.00  0.00    -0.014 A 
ATOM     69  H   UNL A   1      34.975  32.679  32.097  1.00  0.00     0.063 H 
ATOM     70  H   UNL A   1      37.515  33.954  28.987  1.00  0.00     0.063 H 
BRANCH  68  71
ATOM     71  C   UNL A   1      37.561  32.560  31.271  1.00  0.00     0.031 A 
ATOM     72  C   UNL A   1      38.250  31.398  30.615  1.00  0.00     0.074 A 
ATOM     73  C   UNL A   1      37.945  32.972  32.496  1.00  0.00     0.049 A 
ATOM     74  N   UNL A   1      39.219  30.643  31.073  1.00  0.00    -0.248 NA
ATOM     75  C   UNL A   1      37.771  31.012  29.279  1.00  0.00    -0.034 C 
ATOM     76  C   UNL A   1      37.325  34.060  33.254  1.00  0.00    -0.036 A 
ATOM     77  N   UNL A   1      38.935  32.511  33.328  1.00  0.00    -0.354 N 
ATOM     78  C   UNL A   1      39.450  29.689  30.093  1.00  0.00     0.074 A 
ATOM     79  C   UNL A   1      38.493  29.927  29.034  1.00  0.00    -0.034 C 
ATOM     80  H   UNL A   1      37.059  31.466  28.687  1.00  0.00     0.065 H 
ATOM     81  C   UNL A   1      37.954  34.191  34.432  1.00  0.00    -0.036 A 
ATOM     82  H   UNL A   1      36.530  34.635  32.933  1.00  0.00     0.065 H 
ATOM     83  C   UNL A   1      38.990  33.167  34.535  1.00  0.00     0.049 A 
ATOM     84  H   UNL A   1      39.548  31.781  33.083  1.00  0.00     0.167 HD
ATOM     85  C   UNL A   1      40.387  28.712  30.073  1.00  0.00     0.037 A 
ATOM     86  H   UNL A   1      38.388  29.332  28.197  1.00  0.00     0.065 H 
ATOM     87  H   UNL A   1      37.741  34.901  35.150  1.00  0.00     0.065 H 
ATOM     88  C   UNL A   1      39.771  32.954  35.610  1.00  0.00     0.037 A 
ATOM     89  C   UNL A   1      41.355  28.498  31.117  1.00  0.00     0.049 A 
ATOM     90  C   UNL A   1      40.792  31.848  35.567  1.00  0.00     0.074 A 
ATOM     91  C   UNL A   1      42.400  27.591  31.150  1.00  0.00    -0.036 A 
ATOM     92  N   UNL A   1      41.389  29.191  32.318  1.00  0.00    -0.354 N 
ATOM     93  N   UNL A   1      41.061  31.008  34.597  1.00  0.00    -0.248 NA
ATOM     94  C   UNL A   1      41.619  31.660  36.767  1.00  0.00    -0.034 C 
ATOM     95  C   UNL A   1      43.025  27.690  32.397  1.00  0.00    -0.036 A 
ATOM     96  H   UNL A   1      42.670  26.952  30.387  1.00  0.00     0.065 H 
ATOM     97  C   UNL A   1      42.411  28.703  33.115  1.00  0.00     0.049 A 
ATOM     98  H   UNL A   1      40.778  29.922  32.566  1.00  0.00     0.167 HD
ATOM     99  C   UNL A   1      42.102  30.213  35.058  1.00  0.00     0.074 A 
ATOM    100  C   UNL A   1      42.429  30.682  36.388  1.00  0.00    -0.034 C 
ATOM    101  H   UNL A   1      41.580  32.159  37.670  1.00  0.00     0.065 H 
ATOM    102  H   UNL A   1      43.811  27.109  32.725  1.00  0.00     0.065 H 
ATOM    103  C   UNL A   1      42.728  29.185  34.436  1.00  0.00     0.037 A 
ATOM    104  H   UNL A   1      43.194  30.302  36.967  1.00  0.00     0.065 H 
BRANCH  85 105
ATOM    105  C   UNL A   1      40.417  27.789  28.888  1.00  0.00     0.064 A 
ATOM    106  C   UNL A   1      39.648  26.618  28.843  1.00  0.00     0.173 A 
ATOM    107  C   UNL A   1      41.180  28.118  27.756  1.00  0.00     0.173 A 
ATOM    108  F   UNL A   1      38.908  26.253  29.900  1.00  0.00    -0.203 F 
ATOM    109  C   UNL A   1      39.661  25.795  27.718  1.00  0.00     0.198 A 
ATOM    110  C   UNL A   1      41.166  27.309  26.622  1.00  0.00     0.198 A 
ATOM    111  F   UNL A   1      41.928  29.231  27.743  1.00  0.00    -0.203 F 
ATOM    112  F   UNL A   1      38.952  24.658  27.714  1.00  0.00    -0.200 F 
ATOM    113  C   UNL A   1      40.411  26.146  26.607  1.00  0.00     0.200 A 
ATOM    114  F   UNL A   1      41.878  27.660  25.543  1.00  0.00    -0.200 F 
ATOM    115  F   UNL A   1      40.411  25.362  25.520  1.00  0.00    -0.200 F 
ENDBRANCH  85 105
BRANCH  88 116
ATOM    116  C   UNL A   1      39.616  33.798  36.826  1.00  0.00     0.064 A 
ATOM    117  C   UNL A   1      38.798  33.392  37.889  1.00  0.00     0.173 A 
ATOM    118  C   UNL A   1      40.267  35.036  36.941  1.00  0.00     0.173 A 
ATOM    119  F   UNL A   1      38.138  32.227  37.819  1.00  0.00    -0.203 F 
ATOM    120  C   UNL A   1      38.613  34.203  39.006  1.00  0.00     0.198 A 
ATOM    121  C   UNL A   1      40.108  35.831  38.074  1.00  0.00     0.198 A 
ATOM    122  F   UNL A   1      41.066  35.470  35.955  1.00  0.00    -0.203 F 
ATOM    123  F   UNL A   1      37.779  33.817  39.982  1.00  0.00    -0.200 F 
ATOM    124  C   UNL A   1      39.273  35.420  39.101  1.00  0.00     0.200 A 
ATOM    125  F   UNL A   1      40.760  36.998  38.167  1.00  0.00    -0.200 F 
ATOM    126  F   UNL A   1      39.095  36.199  40.176  1.00  0.00    -0.200 F 
ENDBRANCH  88 116
BRANCH 103 127
ATOM    127  C   UNL A   1      43.849  28.510  35.172  1.00  0.00     0.064 A 
ATOM    128  C   UNL A   1      45.172  28.967  35.081  1.00  0.00     0.173 A 
ATOM    129  C   UNL A   1      43.587  27.428  36.027  1.00  0.00     0.173 A 
ATOM    130  F   UNL A   1      45.478  29.987  34.265  1.00  0.00    -0.203 F 
ATOM    131  C   UNL A   1      46.193  28.352  35.800  1.00  0.00     0.198 A 
ATOM    132  C   UNL A   1      44.604  26.838  36.771  1.00  0.00     0.198 A 
ATOM    133  F   UNL A   1      42.338  26.956  36.158  1.00  0.00    -0.203 F 
ATOM    134  F   UNL A   1      47.457  28.778  35.663  1.00  0.00    -0.200 F 
ATOM    135  C   UNL A   1      45.907  27.297  36.653  1.00  0.00     0.200 A 
ATOM    136  F   UNL A   1      44.323  25.828  37.607  1.00  0.00    -0.200 F 
ATOM    137  F   UNL A   1      46.889  26.718  37.357  1.00  0.00    -0.200 F 
ENDBRANCH 103 127
ENDBRANCH  68  71
ENDBRANCH  58  61
ENDBRANCH  54  57
ENDBRANCH  51  54
ENDBRANCH  48  51
ENDBRANCH  45  48
ENDBRANCH   1  45
TORSDOF 18
ENDMDL
MODEL 3
REMARK VINA RESULT:     -11.8      2.410      4.762
REMARK SMILES C[C@@H](C(=O)NCCCCCCNC(=O)c1ccc(-c2c3nc(c(-c4c(F)c(F)c(F)c(F)c4F)c4ccc([nH]4)c(-c4c(F)c(F)c(F)c(F)c4F)c4nc(c(-c5c(F)c(F)c(F)c(F)c5F)c5ccc2[nH]5)C=C4)C=C3)cc1)c1ccc(C[C@@H]2CCC[C@@H]2O)cc1Br
REMARK SMILES IDX 7 1 6 4 5 7 3 8 4 9 2 11 1 13 78 17 79 18 90 19 80 20 89 22
REMARK SMILES IDX 91 23 81 24 82 27 83 30 84 31 87 32 85 34 86 37 88 43 8 45
REMARK SMILES IDX 9 48 10 51 11 54 12 57 13 58 14 60 15 61 16 62 77 63 17 64
REMARK SMILES IDX 76 66 18 68 19 71 20 72 70 73 21 74 75 75 69 76 71 77 22 78
REMARK SMILES IDX 74 79 68 81 67 83 23 85 55 88 35 89 54 90 36 91 39 92 53 93
REMARK SMILES IDX 72 94 37 95 38 97 52 99 73 100 40 103 24 105 25 106 33 107
REMARK SMILES IDX 26 108 27 109 31 110 34 111 28 112 29 113 32 114 30 115
REMARK SMILES IDX 56 116 57 117 65 118 58 119 59 120 63 121 66 122 60 123
REMARK SMILES IDX 61 124 64 125 62 126 41 127 42 128 50 129 43 130 44 131
REMARK SMILES IDX 48 132 51 133 45 134 46 135 49 136 47 137
REMARK H PARENT 7 2 7 3 6 5 6 6 5 10 2 12 1 14 1 15 1 16 79 21 80 25 89 26
REMARK H PARENT 82 28 82 29 83 33 84 35 84 36 87 38 85 39 85 40 86 41 86 42
REMARK H PARENT 88 44 8 46 8 47 9 49 9 50 10 52 10 53 11 55 11 56 12 59 16 65
REMARK H PARENT 77 67 17 69 76 70 75 80 69 82 71 84 74 86 68 87 36 96 39 98
REMARK H PARENT 72 101 37 102 73 104
REMARK Flexibility Score: inf
ROOT
ATOM      1  C   UNL A   1      31.585  28.464  27.378  1.00  0.00    -0.036 C 
ATOM      2  H   UNL A   1      31.648  28.196  28.412  1.00  0.00     0.028 H 
ATOM      3  H   UNL A   1      30.578  28.648  27.064  1.00  0.00     0.028 H 
ENDROOT
BRANCH   1   4
ATOM      4  C   UNL A   1      32.107  27.293  26.542  1.00  0.00     0.017 C 
ATOM      5  H   UNL A   1      31.951  27.503  25.503  1.00  0.00     0.049 H 
ATOM      6  H   UNL A   1      33.151  27.163  26.733  1.00  0.00     0.049 H 
BRANCH   4   7
ATOM      7  N   UNL A   1      31.405  26.080  26.894  1.00  0.00    -0.356 N 
ATOM      8  C   UNL A   1      31.028  25.031  26.110  1.00  0.00     0.227 C 
ATOM      9  O   UNL A   1      30.249  24.218  26.613  1.00  0.00    -0.274 OA
ATOM     10  H   UNL A   1      31.161  26.000  27.844  1.00  0.00     0.163 HD
BRANCH   8  11
ATOM     11  C   UNL A   1      31.591  24.890  24.683  1.00  0.00     0.061 C 
ATOM     12  H   UNL A   1      32.336  25.648  24.551  1.00  0.00     0.045 H 
BRANCH  11  13
ATOM     13  C   UNL A   1      30.522  25.140  23.610  1.00  0.00    -0.049 C 
ATOM     14  H   UNL A   1      30.791  25.998  23.031  1.00  0.00     0.024 H 
ATOM     15  H   UNL A   1      29.577  25.309  24.080  1.00  0.00     0.024 H 
ATOM     16  H   UNL A   1      30.453  24.285  22.968  1.00  0.00     0.024 H 
ENDBRANCH  11  13
BRANCH  11  17
ATOM     17  C   UNL A   1      32.256  23.524  24.506  1.00  0.00    -0.022 A 
ATOM     18  C   UNL A   1      31.488  22.446  24.026  1.00  0.00    -0.057 A 
ATOM     19  C   UNL A   1      33.579  23.256  24.896  1.00  0.00     0.022 A 
ATOM     20  C   UNL A   1      32.015  21.160  23.927  1.00  0.00    -0.059 A 
ATOM     21  H   UNL A   1      30.511  22.613  23.739  1.00  0.00     0.063 H 
ATOM     22  C   UNL A   1      34.096  21.955  24.824  1.00  0.00    -0.044 A 
ATOM     23  Br  UNL A   1      34.744  24.600  25.573  1.00  0.00    -0.051 Br
ATOM     24  C   UNL A   1      33.309  20.888  24.367  1.00  0.00    -0.047 A 
ATOM     25  H   UNL A   1      31.441  20.401  23.527  1.00  0.00     0.063 H 
ATOM     26  H   UNL A   1      35.072  21.779  25.112  1.00  0.00     0.064 H 
BRANCH  24  27
ATOM     27  C   UNL A   1      33.834  19.475  24.391  1.00  0.00    -0.023 C 
ATOM     28  H   UNL A   1      34.507  19.401  25.219  1.00  0.00     0.032 H 
ATOM     29  H   UNL A   1      34.268  19.337  23.424  1.00  0.00     0.032 H 
BRANCH  27  30
ATOM     30  C   UNL A   1      32.811  18.321  24.523  1.00  0.00    -0.011 C 
ATOM     31  C   UNL A   1      32.915  17.491  25.810  1.00  0.00    -0.048 C 
ATOM     32  C   UNL A   1      32.826  17.242  23.436  1.00  0.00     0.057 C 
ATOM     33  H   UNL A   1      31.925  18.920  24.471  1.00  0.00     0.033 H 
ATOM     34  C   UNL A   1      33.671  16.208  25.447  1.00  0.00    -0.050 C 
ATOM     35  H   UNL A   1      31.939  17.253  26.175  1.00  0.00     0.027 H 
ATOM     36  H   UNL A   1      33.426  18.034  26.577  1.00  0.00     0.027 H 
ATOM     37  C   UNL A   1      33.827  16.206  23.929  1.00  0.00    -0.027 C 
ATOM     38  H   UNL A   1      31.849  16.830  23.298  1.00  0.00     0.060 H 
ATOM     39  H   UNL A   1      33.114  15.351  25.763  1.00  0.00     0.027 H 
ATOM     40  H   UNL A   1      34.624  16.173  25.932  1.00  0.00     0.027 H 
ATOM     41  H   UNL A   1      33.598  15.240  23.528  1.00  0.00     0.029 H 
ATOM     42  H   UNL A   1      34.827  16.432  23.624  1.00  0.00     0.029 H 
BRANCH  32  43
ATOM     43  O   UNL A   1      33.149  17.729  22.150  1.00  0.00    -0.393 OA
ATOM     44  H   UNL A   1      33.551  18.608  22.230  1.00  0.00     0.210 HD
ENDBRANCH  32  43
ENDBRANCH  27  30
ENDBRANCH  24  27
ENDBRANCH  11  17
ENDBRANCH   8  11
ENDBRANCH   4   7
ENDBRANCH   1   4
BRANCH   1  45
ATOM     45  C   UNL A   1      32.365  29.770  27.168  1.00  0.00    -0.052 C 
ATOM     46  H   UNL A   1      33.349  29.519  26.829  1.00  0.00     0.027 H 
ATOM     47  H   UNL A   1      32.358  30.278  28.109  1.00  0.00     0.027 H 
BRANCH  45  48
ATOM     48  C   UNL A   1      31.744  30.735  26.153  1.00  0.00    -0.052 C 
ATOM     49  H   UNL A   1      30.821  30.313  25.812  1.00  0.00     0.027 H 
ATOM     50  H   UNL A   1      32.464  30.857  25.371  1.00  0.00     0.027 H 
BRANCH  48  51
ATOM     51  C   UNL A   1      31.455  32.136  26.696  1.00  0.00    -0.036 C 
ATOM     52  H   UNL A   1      30.666  32.060  27.416  1.00  0.00     0.028 H 
ATOM     53  H   UNL A   1      31.194  32.743  25.855  1.00  0.00     0.028 H 
BRANCH  51  54
ATOM     54  C   UNL A   1      32.649  32.806  27.366  1.00  0.00     0.018 C 
ATOM     55  H   UNL A   1      33.497  32.729  26.719  1.00  0.00     0.049 H 
ATOM     56  H   UNL A   1      32.827  32.312  28.299  1.00  0.00     0.049 H 
BRANCH  54  57
ATOM     57  N   UNL A   1      32.398  34.213  27.645  1.00  0.00    -0.352 N 
ATOM     58  C   UNL A   1      32.968  35.024  28.591  1.00  0.00     0.251 C 
ATOM     59  H   UNL A   1      31.722  34.642  27.072  1.00  0.00     0.163 HD
ATOM     60  O   UNL A   1      32.492  36.131  28.832  1.00  0.00    -0.269 OA
BRANCH  58  61
ATOM     61  C   UNL A   1      34.149  34.552  29.341  1.00  0.00     0.039 A 
ATOM     62  C   UNL A   1      33.967  33.975  30.601  1.00  0.00    -0.049 A 
ATOM     63  C   UNL A   1      35.431  34.667  28.796  1.00  0.00    -0.049 A 
ATOM     64  C   UNL A   1      35.065  33.448  31.283  1.00  0.00    -0.053 A 
ATOM     65  H   UNL A   1      33.027  33.940  31.024  1.00  0.00     0.063 H 
ATOM     66  C   UNL A   1      36.512  34.077  29.444  1.00  0.00    -0.053 A 
ATOM     67  H   UNL A   1      35.575  35.188  27.917  1.00  0.00     0.063 H 
ATOM     68  C   UNL A   1      36.339  33.457  30.691  1.00  0.00    -0.014 A 
ATOM     69  H   UNL A   1      34.940  33.050  32.227  1.00  0.00     0.063 H 
ATOM     70  H   UNL A   1      37.446  34.096  29.004  1.00  0.00     0.063 H 
BRANCH  68  71
ATOM     71  C   UNL A   1      37.499  32.800  31.345  1.00  0.00     0.031 A 
ATOM     72  C   UNL A   1      38.159  31.615  30.700  1.00  0.00     0.074 A 
ATOM     73  C   UNL A   1      37.901  33.220  32.561  1.00  0.00     0.049 A 
ATOM     74  N   UNL A   1      39.116  30.847  31.159  1.00  0.00    -0.248 NA
ATOM     75  C   UNL A   1      37.662  31.221  29.372  1.00  0.00    -0.034 C 
ATOM     76  C   UNL A   1      37.309  34.330  33.309  1.00  0.00    -0.036 A 
ATOM     77  N   UNL A   1      38.888  32.750  33.391  1.00  0.00    -0.354 N 
ATOM     78  C   UNL A   1      39.320  29.875  30.191  1.00  0.00     0.074 A 
ATOM     79  C   UNL A   1      38.360  30.119  29.136  1.00  0.00    -0.034 C 
ATOM     80  H   UNL A   1      36.954  31.682  28.779  1.00  0.00     0.065 H 
ATOM     81  C   UNL A   1      37.950  34.464  34.480  1.00  0.00    -0.036 A 
ATOM     82  H   UNL A   1      36.523  34.917  32.987  1.00  0.00     0.065 H 
ATOM     83  C   UNL A   1      38.966  33.421  34.589  1.00  0.00     0.049 A 
ATOM     84  H   UNL A   1      39.484  32.005  33.152  1.00  0.00     0.167 HD
ATOM     85  C   UNL A   1      40.237  28.879  30.176  1.00  0.00     0.037 A 
ATOM     86  H   UNL A   1      38.235  29.515  28.308  1.00  0.00     0.065 H 
ATOM     87  H   UNL A   1      37.757  35.187  35.190  1.00  0.00     0.065 H 
ATOM     88  C   UNL A   1      39.751  33.206  35.661  1.00  0.00     0.037 A 
ATOM     89  C   UNL A   1      41.208  28.659  31.216  1.00  0.00     0.049 A 
ATOM     90  C   UNL A   1      40.750  32.079  35.625  1.00  0.00     0.074 A 
ATOM     91  C   UNL A   1      42.235  27.732  31.253  1.00  0.00    -0.036 A 
ATOM     92  N   UNL A   1      41.266  29.368  32.407  1.00  0.00    -0.354 N 
ATOM     93  N   UNL A   1      40.994  31.221  34.664  1.00  0.00    -0.248 NA
ATOM     94  C   UNL A   1      41.583  31.891  36.820  1.00  0.00    -0.034 C 
ATOM     95  C   UNL A   1      42.873  27.835  32.493  1.00  0.00    -0.036 A 
ATOM     96  H   UNL A   1      42.486  27.077  30.496  1.00  0.00     0.065 H 
ATOM     97  C   UNL A   1      42.285  28.870  33.203  1.00  0.00     0.049 A 
ATOM     98  H   UNL A   1      40.672  30.114  32.650  1.00  0.00     0.167 HD
ATOM     99  C   UNL A   1      42.022  30.411  35.127  1.00  0.00     0.074 A 
ATOM    100  C   UNL A   1      42.369  30.891  36.448  1.00  0.00    -0.034 C 
ATOM    101  H   UNL A   1      41.561  32.403  37.717  1.00  0.00     0.065 H 
ATOM    102  H   UNL A   1      43.649  27.242  32.823  1.00  0.00     0.065 H 
ATOM    103  C   UNL A   1      42.622  29.362  34.514  1.00  0.00     0.037 A 
ATOM    104  H   UNL A   1      43.132  30.504  37.026  1.00  0.00     0.065 H 
BRANCH  85 105
ATOM    105  C   UNL A   1      40.238  27.940  29.004  1.00  0.00     0.064 A 
ATOM    106  C   UNL A   1      40.982  28.205  27.845  1.00  0.00     0.173 A 
ATOM    107  C   UNL A   1      39.533  26.728  29.068  1.00  0.00     0.173 A 
ATOM    108  F   UNL A   1      41.667  29.352  27.729  1.00  0.00    -0.203 F 
ATOM    109  C   UNL A   1      41.000  27.303  26.783  1.00  0.00     0.198 A 
ATOM    110  C   UNL A   1      39.579  25.815  28.018  1.00  0.00     0.198 A 
ATOM    111  F   UNL A   1      38.810  26.421  30.156  1.00  0.00    -0.203 F 
ATOM    112  F   UNL A   1      41.684  27.597  25.668  1.00  0.00    -0.200 F 
ATOM    113  C   UNL A   1      40.307  26.106  26.874  1.00  0.00     0.200 A 
ATOM    114  F   UNL A   1      38.921  24.651  28.115  1.00  0.00    -0.200 F 
ATOM    115  F   UNL A   1      40.337  25.233  25.858  1.00  0.00    -0.200 F 
ENDBRANCH  85 105
BRANCH  88 116
ATOM    116  C   UNL A   1      39.624  34.069  36.866  1.00  0.00     0.064 A 
ATOM    117  C   UNL A   1      40.312  35.286  36.961  1.00  0.00     0.173 A 
ATOM    118  C   UNL A   1      38.828  33.685  37.956  1.00  0.00     0.173 A 
ATOM    119  F   UNL A   1      41.102  35.688  35.954  1.00  0.00    -0.203 F 
ATOM    120  C   UNL A   1      40.233  36.072  38.108  1.00  0.00     0.198 A 
ATOM    121  C   UNL A   1      38.724  34.488  39.090  1.00  0.00     0.198 A 
ATOM    122  F   UNL A   1      38.144  32.532  37.917  1.00  0.00    -0.203 F 
ATOM    123  F   UNL A   1      40.948  37.202  38.194  1.00  0.00    -0.200 F 
ATOM    124  C   UNL A   1      39.435  35.675  39.171  1.00  0.00     0.200 A 
ATOM    125  F   UNL A   1      37.938  34.108  40.107  1.00  0.00    -0.200 F 
ATOM    126  F   UNL A   1      39.359  36.431  40.274  1.00  0.00    -0.200 F 
ENDBRANCH  88 116
BRANCH 103 127
ATOM    127  C   UNL A   1      43.736  28.675  35.251  1.00  0.00     0.064 A 
ATOM    128  C   UNL A   1      45.076  29.051  35.080  1.00  0.00     0.173 A 
ATOM    129  C   UNL A   1      43.452  27.666  36.184  1.00  0.00     0.173 A 
ATOM    130  F   UNL A   1      45.401  29.998  34.188  1.00  0.00    -0.203 F 
ATOM    131  C   UNL A   1      46.092  28.428  35.799  1.00  0.00     0.198 A 
ATOM    132  C   UNL A   1      44.466  27.069  36.927  1.00  0.00     0.198 A 
ATOM    133  F   UNL A   1      42.186  27.272  36.392  1.00  0.00    -0.203 F 
ATOM    134  F   UNL A   1      47.369  28.774  35.587  1.00  0.00    -0.200 F 
ATOM    135  C   UNL A   1      45.786  27.446  36.730  1.00  0.00     0.200 A 
ATOM    136  F   UNL A   1      44.167  26.131  37.837  1.00  0.00    -0.200 F 
ATOM    137  F   UNL A   1      46.764  26.860  37.433  1.00  0.00    -0.200 F 
ENDBRANCH 103 127
ENDBRANCH  68  71
ENDBRANCH  58  61
ENDBRANCH  54  57
ENDBRANCH  51  54
ENDBRANCH  48  51
ENDBRANCH  45  48
ENDBRANCH   1  45
TORSDOF 18
ENDMDL
MODEL 4
REMARK VINA RESULT:     -11.7      0.487      7.335
REMARK SMILES C[C@@H](C(=O)NCCCCCCNC(=O)c1ccc(-c2c3nc(c(-c4c(F)c(F)c(F)c(F)c4F)c4ccc([nH]4)c(-c4c(F)c(F)c(F)c(F)c4F)c4nc(c(-c5c(F)c(F)c(F)c(F)c5F)c5ccc2[nH]5)C=C4)C=C3)cc1)c1ccc(C[C@@H]2CCC[C@@H]2O)cc1Br
REMARK SMILES IDX 7 1 6 4 5 7 3 8 4 9 2 11 1 13 78 17 79 18 90 19 80 20 89 22
REMARK SMILES IDX 91 23 81 24 82 27 83 30 84 31 87 32 85 34 86 37 88 43 8 45
REMARK SMILES IDX 9 48 10 51 11 54 12 57 13 58 14 60 15 61 16 62 77 63 17 64
REMARK SMILES IDX 76 66 18 68 19 71 20 72 70 73 21 74 75 75 69 76 71 77 22 78
REMARK SMILES IDX 74 79 68 81 67 83 23 85 55 88 35 89 54 90 36 91 39 92 53 93
REMARK SMILES IDX 72 94 37 95 38 97 52 99 73 100 40 103 24 105 25 106 33 107
REMARK SMILES IDX 26 108 27 109 31 110 34 111 28 112 29 113 32 114 30 115
REMARK SMILES IDX 56 116 57 117 65 118 58 119 59 120 63 121 66 122 60 123
REMARK SMILES IDX 61 124 64 125 62 126 41 127 42 128 50 129 43 130 44 131
REMARK SMILES IDX 48 132 51 133 45 134 46 135 49 136 47 137
REMARK H PARENT 7 2 7 3 6 5 6 6 5 10 2 12 1 14 1 15 1 16 79 21 80 25 89 26
REMARK H PARENT 82 28 82 29 83 33 84 35 84 36 87 38 85 39 85 40 86 41 86 42
REMARK H PARENT 88 44 8 46 8 47 9 49 9 50 10 52 10 53 11 55 11 56 12 59 16 65
REMARK H PARENT 77 67 17 69 76 70 75 80 69 82 71 84 74 86 68 87 36 96 39 98
REMARK H PARENT 72 101 37 102 73 104
REMARK Flexibility Score: inf
ROOT
ATOM      1  C   UNL A   1      33.691  26.695  25.206  1.00  0.00    -0.036 C 
ATOM      2  H   UNL A   1      32.793  26.616  24.630  1.00  0.00     0.028 H 
ATOM      3  H   UNL A   1      34.430  27.305  24.729  1.00  0.00     0.028 H 
ENDROOT
BRANCH   1   4
ATOM      4  C   UNL A   1      34.294  25.296  25.354  1.00  0.00     0.017 C 
ATOM      5  H   UNL A   1      35.179  25.355  25.955  1.00  0.00     0.049 H 
ATOM      6  H   UNL A   1      33.579  24.654  25.822  1.00  0.00     0.049 H 
BRANCH   4   7
ATOM      7  N   UNL A   1      34.633  24.762  24.055  1.00  0.00    -0.356 N 
ATOM      8  C   UNL A   1      34.087  23.716  23.372  1.00  0.00     0.227 C 
ATOM      9  O   UNL A   1      34.701  23.328  22.376  1.00  0.00    -0.274 OA
ATOM     10  H   UNL A   1      35.370  25.222  23.593  1.00  0.00     0.163 HD
BRANCH   8  11
ATOM     11  C   UNL A   1      32.755  23.099  23.838  1.00  0.00     0.061 C 
ATOM     12  H   UNL A   1      32.900  22.726  24.831  1.00  0.00     0.045 H 
BRANCH  11  13
ATOM     13  C   UNL A   1      32.340  21.896  22.979  1.00  0.00    -0.049 C 
ATOM     14  H   UNL A   1      31.274  21.823  22.959  1.00  0.00     0.024 H 
ATOM     15  H   UNL A   1      32.751  21.001  23.395  1.00  0.00     0.024 H 
ATOM     16  H   UNL A   1      32.707  22.026  21.981  1.00  0.00     0.024 H 
ENDBRANCH  11  13
BRANCH  11  17
ATOM     17  C   UNL A   1      31.660  24.166  23.877  1.00  0.00    -0.022 A 
ATOM     18  C   UNL A   1      31.544  25.068  22.803  1.00  0.00    -0.057 A 
ATOM     19  C   UNL A   1      30.816  24.362  24.984  1.00  0.00     0.022 A 
ATOM     20  C   UNL A   1      30.624  26.113  22.822  1.00  0.00    -0.059 A 
ATOM     21  H   UNL A   1      32.155  24.951  21.980  1.00  0.00     0.063 H 
ATOM     22  C   UNL A   1      29.912  25.433  25.013  1.00  0.00    -0.044 A 
ATOM     23  Br  UNL A   1      30.854  23.236  26.518  1.00  0.00    -0.051 Br
ATOM     24  C   UNL A   1      29.828  26.337  23.945  1.00  0.00    -0.047 A 
ATOM     25  H   UNL A   1      30.530  26.729  21.999  1.00  0.00     0.063 H 
ATOM     26  H   UNL A   1      29.299  25.559  25.834  1.00  0.00     0.064 H 
BRANCH  24  27
ATOM     27  C   UNL A   1      28.933  27.547  24.026  1.00  0.00    -0.023 C 
ATOM     28  H   UNL A   1      29.189  28.073  24.921  1.00  0.00     0.032 H 
ATOM     29  H   UNL A   1      27.942  27.146  23.988  1.00  0.00     0.032 H 
BRANCH  27  30
ATOM     30  C   UNL A   1      28.980  28.568  22.863  1.00  0.00    -0.011 C 
ATOM     31  C   UNL A   1      30.002  29.701  23.020  1.00  0.00    -0.048 C 
ATOM     32  C   UNL A   1      27.691  29.332  22.546  1.00  0.00     0.057 C 
ATOM     33  H   UNL A   1      29.227  27.874  22.085  1.00  0.00     0.033 H 
ATOM     34  C   UNL A   1      29.225  30.932  23.501  1.00  0.00    -0.050 C 
ATOM     35  H   UNL A   1      30.473  29.906  22.083  1.00  0.00     0.027 H 
ATOM     36  H   UNL A   1      30.768  29.434  23.718  1.00  0.00     0.027 H 
ATOM     37  C   UNL A   1      27.744  30.570  23.430  1.00  0.00    -0.027 C 
ATOM     38  H   UNL A   1      27.641  29.577  21.506  1.00  0.00     0.060 H 
ATOM     39  H   UNL A   1      29.432  31.768  22.867  1.00  0.00     0.027 H 
ATOM     40  H   UNL A   1      29.509  31.201  24.497  1.00  0.00     0.027 H 
ATOM     41  H   UNL A   1      27.181  31.369  22.995  1.00  0.00     0.029 H 
ATOM     42  H   UNL A   1      27.323  30.395  24.398  1.00  0.00     0.029 H 
BRANCH  32  43
ATOM     43  O   UNL A   1      26.514  28.578  22.751  1.00  0.00    -0.393 OA
ATOM     44  H   UNL A   1      26.044  28.477  21.909  1.00  0.00     0.210 HD
ENDBRANCH  32  43
ENDBRANCH  27  30
ENDBRANCH  24  27
ENDBRANCH  11  17
ENDBRANCH   8  11
ENDBRANCH   4   7
ENDBRANCH   1   4
BRANCH   1  45
ATOM     45  C   UNL A   1      33.352  27.367  26.544  1.00  0.00    -0.052 C 
ATOM     46  H   UNL A   1      33.945  28.254  26.631  1.00  0.00     0.027 H 
ATOM     47  H   UNL A   1      33.559  26.643  27.304  1.00  0.00     0.027 H 
BRANCH  45  48
ATOM     48  C   UNL A   1      31.881  27.761  26.713  1.00  0.00    -0.052 C 
ATOM     49  H   UNL A   1      31.562  27.446  27.686  1.00  0.00     0.027 H 
ATOM     50  H   UNL A   1      31.346  27.283  25.920  1.00  0.00     0.027 H 
BRANCH  48  51
ATOM     51  C   UNL A   1      31.601  29.259  26.582  1.00  0.00    -0.036 C 
ATOM     52  H   UNL A   1      31.326  29.635  27.546  1.00  0.00     0.028 H 
ATOM     53  H   UNL A   1      30.820  29.363  25.858  1.00  0.00     0.028 H 
BRANCH  51  54
ATOM     54  C   UNL A   1      32.783  30.075  26.070  1.00  0.00     0.018 C 
ATOM     55  H   UNL A   1      32.820  29.998  25.003  1.00  0.00     0.049 H 
ATOM     56  H   UNL A   1      33.673  29.686  26.518  1.00  0.00     0.049 H 
BRANCH  54  57
ATOM     57  N   UNL A   1      32.673  31.480  26.435  1.00  0.00    -0.352 N 
ATOM     58  C   UNL A   1      33.402  32.197  27.348  1.00  0.00     0.251 C 
ATOM     59  H   UNL A   1      31.976  31.986  25.960  1.00  0.00     0.163 HD
ATOM     60  O   UNL A   1      33.043  33.322  27.688  1.00  0.00    -0.269 OA
BRANCH  58  61
ATOM     61  C   UNL A   1      34.616  31.602  27.942  1.00  0.00     0.039 A 
ATOM     62  C   UNL A   1      35.762  32.390  28.078  1.00  0.00    -0.049 A 
ATOM     63  C   UNL A   1      34.618  30.273  28.376  1.00  0.00    -0.049 A 
ATOM     64  C   UNL A   1      36.888  31.867  28.715  1.00  0.00    -0.053 A 
ATOM     65  H   UNL A   1      35.774  33.353  27.708  1.00  0.00     0.063 H 
ATOM     66  C   UNL A   1      35.715  29.778  29.075  1.00  0.00    -0.053 A 
ATOM     67  H   UNL A   1      33.811  29.663  28.179  1.00  0.00     0.063 H 
ATOM     68  C   UNL A   1      36.858  30.571  29.257  1.00  0.00    -0.014 A 
ATOM     69  H   UNL A   1      37.746  32.435  28.789  1.00  0.00     0.063 H 
ATOM     70  H   UNL A   1      35.686  28.821  29.462  1.00  0.00     0.063 H 
BRANCH  68  71
ATOM     71  C   UNL A   1      38.000  30.035  30.039  1.00  0.00     0.031 A 
ATOM     72  C   UNL A   1      38.248  30.515  31.441  1.00  0.00     0.074 A 
ATOM     73  C   UNL A   1      38.863  29.180  29.454  1.00  0.00     0.049 A 
ATOM     74  N   UNL A   1      39.244  30.242  32.246  1.00  0.00    -0.248 NA
ATOM     75  C   UNL A   1      37.259  31.446  32.006  1.00  0.00    -0.034 C 
ATOM     76  C   UNL A   1      38.755  28.677  28.084  1.00  0.00    -0.036 A 
ATOM     77  N   UNL A   1      40.011  28.598  29.931  1.00  0.00    -0.354 N 
ATOM     78  C   UNL A   1      39.012  30.979  33.399  1.00  0.00     0.074 A 
ATOM     79  C   UNL A   1      37.806  31.746  33.176  1.00  0.00    -0.034 C 
ATOM     80  H   UNL A   1      36.372  31.779  31.598  1.00  0.00     0.065 H 
ATOM     81  C   UNL A   1      39.785  27.855  27.833  1.00  0.00    -0.036 A 
ATOM     82  H   UNL A   1      38.004  28.916  27.416  1.00  0.00     0.065 H 
ATOM     83  C   UNL A   1      40.653  27.808  29.006  1.00  0.00     0.049 A 
ATOM     84  H   UNL A   1      40.343  28.732  30.847  1.00  0.00     0.167 HD
ATOM     85  C   UNL A   1      39.733  31.000  34.545  1.00  0.00     0.037 A 
ATOM     86  H   UNL A   1      37.421  32.435  33.841  1.00  0.00     0.065 H 
ATOM     87  H   UNL A   1      39.940  27.338  26.953  1.00  0.00     0.065 H 
ATOM     88  C   UNL A   1      41.820  27.141  29.086  1.00  0.00     0.037 A 
ATOM     89  C   UNL A   1      40.917  30.212  34.770  1.00  0.00     0.049 A 
ATOM     90  C   UNL A   1      42.610  27.197  30.367  1.00  0.00     0.074 A 
ATOM     91  C   UNL A   1      41.668  30.098  35.927  1.00  0.00    -0.036 A 
ATOM     92  N   UNL A   1      41.529  29.413  33.815  1.00  0.00    -0.354 N 
ATOM     93  N   UNL A   1      42.333  27.828  31.483  1.00  0.00    -0.248 NA
ATOM     94  C   UNL A   1      43.874  26.449  30.401  1.00  0.00    -0.034 C 
ATOM     95  C   UNL A   1      42.770  29.283  35.654  1.00  0.00    -0.036 A 
ATOM     96  H   UNL A   1      41.451  30.539  36.834  1.00  0.00     0.065 H 
ATOM     97  C   UNL A   1      42.671  28.837  34.346  1.00  0.00     0.049 A 
ATOM     98  H   UNL A   1      41.200  29.276  32.898  1.00  0.00     0.167 HD
ATOM     99  C   UNL A   1      43.371  27.533  32.356  1.00  0.00     0.074 A 
ATOM    100  C   UNL A   1      44.275  26.651  31.649  1.00  0.00    -0.034 C 
ATOM    101  H   UNL A   1      44.332  25.908  29.651  1.00  0.00     0.065 H 
ATOM    102  H   UNL A   1      43.528  29.052  36.315  1.00  0.00     0.065 H 
ATOM    103  C   UNL A   1      43.559  27.956  33.630  1.00  0.00     0.037 A 
ATOM    104  H   UNL A   1      45.123  26.233  32.063  1.00  0.00     0.065 H 
BRANCH  85 105
ATOM    105  C   UNL A   1      39.271  31.906  35.650  1.00  0.00     0.064 A 
ATOM    106  C   UNL A   1      38.346  31.484  36.615  1.00  0.00     0.173 A 
ATOM    107  C   UNL A   1      39.810  33.196  35.778  1.00  0.00     0.173 A 
ATOM    108  F   UNL A   1      37.794  30.264  36.535  1.00  0.00    -0.203 F 
ATOM    109  C   UNL A   1      37.959  32.327  37.655  1.00  0.00     0.198 A 
ATOM    110  C   UNL A   1      39.445  34.025  36.836  1.00  0.00     0.198 A 
ATOM    111  F   UNL A   1      40.704  33.649  34.886  1.00  0.00    -0.203 F 
ATOM    112  F   UNL A   1      37.042  31.917  38.542  1.00  0.00    -0.200 F 
ATOM    113  C   UNL A   1      38.515  33.592  37.770  1.00  0.00     0.200 A 
ATOM    114  F   UNL A   1      39.996  35.240  36.954  1.00  0.00    -0.200 F 
ATOM    115  F   UNL A   1      38.153  34.397  38.778  1.00  0.00    -0.200 F 
ENDBRANCH  85 105
BRANCH  88 116
ATOM    116  C   UNL A   1      42.320  26.366  27.919  1.00  0.00     0.064 A 
ATOM    117  C   UNL A   1      43.221  26.933  27.007  1.00  0.00     0.173 A 
ATOM    118  C   UNL A   1      41.893  25.051  27.680  1.00  0.00     0.173 A 
ATOM    119  F   UNL A   1      43.644  28.194  27.180  1.00  0.00    -0.203 F 
ATOM    120  C   UNL A   1      43.653  26.226  25.887  1.00  0.00     0.198 A 
ATOM    121  C   UNL A   1      42.351  24.334  26.577  1.00  0.00     0.198 A 
ATOM    122  F   UNL A   1      41.034  24.459  28.523  1.00  0.00    -0.203 F 
ATOM    123  F   UNL A   1      44.469  26.814  25.000  1.00  0.00    -0.200 F 
ATOM    124  C   UNL A   1      43.222  24.925  25.675  1.00  0.00     0.200 A 
ATOM    125  F   UNL A   1      41.944  23.071  26.386  1.00  0.00    -0.200 F 
ATOM    126  F   UNL A   1      43.637  24.246  24.597  1.00  0.00    -0.200 F 
ENDBRANCH  88 116
BRANCH 103 127
ATOM    127  C   UNL A   1      44.774  27.453  34.354  1.00  0.00     0.064 A 
ATOM    128  C   UNL A   1      45.978  28.173  34.362  1.00  0.00     0.173 A 
ATOM    129  C   UNL A   1      44.716  26.264  35.097  1.00  0.00     0.173 A 
ATOM    130  F   UNL A   1      46.090  29.307  33.654  1.00  0.00    -0.203 F 
ATOM    131  C   UNL A   1      47.084  27.711  35.070  1.00  0.00     0.198 A 
ATOM    132  C   UNL A   1      45.813  25.822  35.831  1.00  0.00     0.198 A 
ATOM    133  F   UNL A   1      43.587  25.540  35.130  1.00  0.00    -0.203 F 
ATOM    134  F   UNL A   1      48.237  28.393  35.027  1.00  0.00    -0.200 F 
ATOM    135  C   UNL A   1      46.998  26.543  35.812  1.00  0.00     0.200 A 
ATOM    136  F   UNL A   1      45.723  24.702  36.561  1.00  0.00    -0.200 F 
ATOM    137  F   UNL A   1      48.059  26.108  36.506  1.00  0.00    -0.200 F 
ENDBRANCH 103 127
ENDBRANCH  68  71
ENDBRANCH  58  61
ENDBRANCH  54  57
ENDBRANCH  51  54
ENDBRANCH  48  51
ENDBRANCH  45  48
ENDBRANCH   1  45
TORSDOF 18
ENDMDL
MODEL 5
REMARK VINA RESULT:     -11.7      5.030     10.666
REMARK SMILES C[C@@H](C(=O)NCCCCCCNC(=O)c1ccc(-c2c3nc(c(-c4c(F)c(F)c(F)c(F)c4F)c4ccc([nH]4)c(-c4c(F)c(F)c(F)c(F)c4F)c4nc(c(-c5c(F)c(F)c(F)c(F)c5F)c5ccc2[nH]5)C=C4)C=C3)cc1)c1ccc(C[C@@H]2CCC[C@@H]2O)cc1Br
REMARK SMILES IDX 7 1 6 4 5 7 3 8 4 9 2 11 1 13 78 17 79 18 90 19 80 20 89 22
REMARK SMILES IDX 91 23 81 24 82 27 83 30 84 31 87 32 85 34 86 37 88 43 8 45
REMARK SMILES IDX 9 48 10 51 11 54 12 57 13 58 14 60 15 61 16 62 77 63 17 64
REMARK SMILES IDX 76 66 18 68 19 71 20 72 70 73 21 74 75 75 69 76 71 77 22 78
REMARK SMILES IDX 74 79 68 81 67 83 23 85 55 88 35 89 54 90 36 91 39 92 53 93
REMARK SMILES IDX 72 94 37 95 38 97 52 99 73 100 40 103 24 105 25 106 33 107
REMARK SMILES IDX 26 108 27 109 31 110 34 111 28 112 29 113 32 114 30 115
REMARK SMILES IDX 56 116 57 117 65 118 58 119 59 120 63 121 66 122 60 123
REMARK SMILES IDX 61 124 64 125 62 126 41 127 42 128 50 129 43 130 44 131
REMARK SMILES IDX 48 132 51 133 45 134 46 135 49 136 47 137
REMARK H PARENT 7 2 7 3 6 5 6 6 5 10 2 12 1 14 1 15 1 16 79 21 80 25 89 26
REMARK H PARENT 82 28 82 29 83 33 84 35 84 36 87 38 85 39 85 40 86 41 86 42
REMARK H PARENT 88 44 8 46 8 47 9 49 9 50 10 52 10 53 11 55 11 56 12 59 16 65
REMARK H PARENT 77 67 17 69 76 70 75 80 69 82 71 84 74 86 68 87 36 96 39 98
REMARK H PARENT 72 101 37 102 73 104
REMARK Flexibility Score: inf
ROOT
ATOM      1  C   UNL A   1      38.184  30.171  33.081  1.00  0.00    -0.036 C 
ATOM      2  H   UNL A   1      37.917  29.135  33.088  1.00  0.00     0.028 H 
ATOM      3  H   UNL A   1      38.801  30.428  32.245  1.00  0.00     0.028 H 
ENDROOT
BRANCH   1   4
ATOM      4  C   UNL A   1      38.996  30.469  34.344  1.00  0.00     0.017 C 
ATOM      5  H   UNL A   1      39.822  29.791  34.401  1.00  0.00     0.049 H 
ATOM      6  H   UNL A   1      39.354  31.475  34.301  1.00  0.00     0.049 H 
BRANCH   4   7
ATOM      7  N   UNL A   1      38.166  30.310  35.516  1.00  0.00    -0.356 N 
ATOM      8  C   UNL A   1      38.041  31.112  36.612  1.00  0.00     0.227 C 
ATOM      9  O   UNL A   1      37.426  30.641  37.571  1.00  0.00    -0.274 OA
ATOM     10  H   UNL A   1      37.606  29.501  35.525  1.00  0.00     0.163 HD
BRANCH   8  11
ATOM     11  C   UNL A   1      38.629  32.535  36.600  1.00  0.00     0.061 C 
ATOM     12  H   UNL A   1      39.650  32.463  36.286  1.00  0.00     0.045 H 
BRANCH  11  13
ATOM     13  C   UNL A   1      38.649  33.167  37.999  1.00  0.00    -0.049 C 
ATOM     14  H   UNL A   1      37.679  33.083  38.442  1.00  0.00     0.024 H 
ATOM     15  H   UNL A   1      38.917  34.199  37.921  1.00  0.00     0.024 H 
ATOM     16  H   UNL A   1      39.365  32.658  38.611  1.00  0.00     0.024 H 
ENDBRANCH  11  13
BRANCH  11  17
ATOM     17  C   UNL A   1      37.877  33.413  35.598  1.00  0.00    -0.022 A 
ATOM     18  C   UNL A   1      36.477  33.525  35.702  1.00  0.00    -0.057 A 
ATOM     19  C   UNL A   1      38.499  34.041  34.506  1.00  0.00     0.022 A 
ATOM     20  C   UNL A   1      35.730  34.239  34.768  1.00  0.00    -0.059 A 
ATOM     21  H   UNL A   1      35.993  33.069  36.491  1.00  0.00     0.063 H 
ATOM     22  C   UNL A   1      37.741  34.732  33.551  1.00  0.00    -0.044 A 
ATOM     23  Br  UNL A   1      40.379  33.977  34.217  1.00  0.00    -0.051 Br
ATOM     24  C   UNL A   1      36.345  34.813  33.657  1.00  0.00    -0.047 A 
ATOM     25  H   UNL A   1      34.711  34.343  34.899  1.00  0.00     0.063 H 
ATOM     26  H   UNL A   1      38.217  35.189  32.756  1.00  0.00     0.064 H 
BRANCH  24  27
ATOM     27  C   UNL A   1      35.525  35.464  32.573  1.00  0.00    -0.023 C 
ATOM     28  H   UNL A   1      35.454  34.767  31.765  1.00  0.00     0.032 H 
ATOM     29  H   UNL A   1      36.044  36.374  32.359  1.00  0.00     0.032 H 
BRANCH  27  30
ATOM     30  C   UNL A   1      34.085  35.914  32.920  1.00  0.00    -0.011 C 
ATOM     31  C   UNL A   1      32.963  35.037  32.349  1.00  0.00    -0.048 C 
ATOM     32  C   UNL A   1      33.661  37.317  32.474  1.00  0.00     0.057 C 
ATOM     33  H   UNL A   1      34.177  35.851  33.984  1.00  0.00     0.033 H 
ATOM     34  C   UNL A   1      32.430  35.756  31.105  1.00  0.00    -0.050 C 
ATOM     35  H   UNL A   1      32.183  34.920  33.070  1.00  0.00     0.027 H 
ATOM     36  H   UNL A   1      33.327  34.061  32.101  1.00  0.00     0.027 H 
ATOM     37  C   UNL A   1      33.099  37.128  31.072  1.00  0.00    -0.027 C 
ATOM     38  H   UNL A   1      32.940  37.728  33.149  1.00  0.00     0.060 H 
ATOM     39  H   UNL A   1      31.368  35.865  31.169  1.00  0.00     0.027 H 
ATOM     40  H   UNL A   1      32.646  35.201  30.216  1.00  0.00     0.027 H 
ATOM     41  H   UNL A   1      32.383  37.891  30.846  1.00  0.00     0.029 H 
ATOM     42  H   UNL A   1      33.857  37.191  30.320  1.00  0.00     0.029 H 
BRANCH  32  43
ATOM     43  O   UNL A   1      34.705  38.268  32.508  1.00  0.00    -0.393 OA
ATOM     44  H   UNL A   1      34.948  38.448  33.429  1.00  0.00     0.210 HD
ENDBRANCH  32  43
ENDBRANCH  27  30
ENDBRANCH  24  27
ENDBRANCH  11  17
ENDBRANCH   8  11
ENDBRANCH   4   7
ENDBRANCH   1   4
BRANCH   1  45
ATOM     45  C   UNL A   1      36.898  31.002  32.962  1.00  0.00    -0.052 C 
ATOM     46  H   UNL A   1      36.843  31.652  33.810  1.00  0.00     0.027 H 
ATOM     47  H   UNL A   1      36.091  30.301  32.913  1.00  0.00     0.027 H 
BRANCH  45  48
ATOM     48  C   UNL A   1      36.800  31.860  31.697  1.00  0.00    -0.052 C 
ATOM     49  H   UNL A   1      37.329  31.359  30.912  1.00  0.00     0.027 H 
ATOM     50  H   UNL A   1      37.218  32.813  31.944  1.00  0.00     0.027 H 
BRANCH  48  51
ATOM     51  C   UNL A   1      35.373  32.127  31.215  1.00  0.00    -0.036 C 
ATOM     52  H   UNL A   1      34.946  32.889  31.835  1.00  0.00     0.028 H 
ATOM     53  H   UNL A   1      34.848  31.197  31.280  1.00  0.00     0.028 H 
BRANCH  51  54
ATOM     54  C   UNL A   1      35.277  32.583  29.763  1.00  0.00     0.018 C 
ATOM     55  H   UNL A   1      36.262  32.623  29.348  1.00  0.00     0.049 H 
ATOM     56  H   UNL A   1      34.811  33.546  29.748  1.00  0.00     0.049 H 
BRANCH  54  57
ATOM     57  N   UNL A   1      34.466  31.678  28.962  1.00  0.00    -0.352 N 
ATOM     58  C   UNL A   1      34.845  30.557  28.271  1.00  0.00     0.251 C 
ATOM     59  H   UNL A   1      33.509  31.905  28.907  1.00  0.00     0.163 HD
ATOM     60  O   UNL A   1      34.076  30.025  27.473  1.00  0.00    -0.269 OA
BRANCH  58  61
ATOM     61  C   UNL A   1      36.197  29.997  28.473  1.00  0.00     0.039 A 
ATOM     62  C   UNL A   1      37.193  30.274  27.534  1.00  0.00    -0.049 A 
ATOM     63  C   UNL A   1      36.482  29.213  29.594  1.00  0.00    -0.049 A 
ATOM     64  C   UNL A   1      38.496  29.823  27.756  1.00  0.00    -0.053 A 
ATOM     65  H   UNL A   1      36.967  30.809  26.681  1.00  0.00     0.063 H 
ATOM     66  C   UNL A   1      37.794  28.827  29.850  1.00  0.00    -0.053 A 
ATOM     67  H   UNL A   1      35.723  28.920  30.228  1.00  0.00     0.063 H 
ATOM     68  C   UNL A   1      38.815  29.132  28.937  1.00  0.00    -0.014 A 
ATOM     69  H   UNL A   1      39.227  29.999  27.050  1.00  0.00     0.063 H 
ATOM     70  H   UNL A   1      38.018  28.312  30.717  1.00  0.00     0.063 H 
BRANCH  68  71
ATOM     71  C   UNL A   1      40.214  28.745  29.250  1.00  0.00     0.031 A 
ATOM     72  C   UNL A   1      41.118  29.699  29.978  1.00  0.00     0.074 A 
ATOM     73  C   UNL A   1      40.692  27.567  28.802  1.00  0.00     0.049 A 
ATOM     74  N   UNL A   1      42.393  29.584  30.254  1.00  0.00    -0.248 NA
ATOM     75  C   UNL A   1      40.518  30.962  30.433  1.00  0.00    -0.034 C 
ATOM     76  C   UNL A   1      39.925  26.577  28.044  1.00  0.00    -0.036 A 
ATOM     77  N   UNL A   1      41.943  27.011  28.901  1.00  0.00    -0.354 N 
ATOM     78  C   UNL A   1      42.749  30.762  30.895  1.00  0.00     0.074 A 
ATOM     79  C   UNL A   1      41.569  31.599  30.930  1.00  0.00    -0.034 C 
ATOM     80  H   UNL A   1      39.535  31.273  30.380  1.00  0.00     0.065 H 
ATOM     81  C   UNL A   1      40.715  25.531  27.757  1.00  0.00    -0.036 A 
ATOM     82  H   UNL A   1      38.932  26.668  27.774  1.00  0.00     0.065 H 
ATOM     83  C   UNL A   1      42.058  25.796  28.268  1.00  0.00     0.049 A 
ATOM     84  H   UNL A   1      42.687  27.440  29.381  1.00  0.00     0.167 HD
ATOM     85  C   UNL A   1      43.948  31.106  31.422  1.00  0.00     0.037 A 
ATOM     86  H   UNL A   1      41.549  32.564  31.295  1.00  0.00     0.065 H 
ATOM     87  H   UNL A   1      40.423  24.678  27.257  1.00  0.00     0.065 H 
ATOM     88  C   UNL A   1      43.128  24.997  28.097  1.00  0.00     0.037 A 
ATOM     89  C   UNL A   1      45.110  30.255  31.409  1.00  0.00     0.049 A 
ATOM     90  C   UNL A   1      44.454  25.413  28.678  1.00  0.00     0.074 A 
ATOM     91  C   UNL A   1      46.345  30.478  31.992  1.00  0.00    -0.036 A 
ATOM     92  N   UNL A   1      45.184  29.026  30.771  1.00  0.00    -0.354 N 
ATOM     93  N   UNL A   1      44.755  26.490  29.361  1.00  0.00    -0.248 NA
ATOM     94  C   UNL A   1      45.587  24.503  28.465  1.00  0.00    -0.034 C 
ATOM     95  C   UNL A   1      47.187  29.414  31.652  1.00  0.00    -0.036 A 
ATOM     96  H   UNL A   1      46.601  31.288  32.577  1.00  0.00     0.065 H 
ATOM     97  C   UNL A   1      46.457  28.498  30.911  1.00  0.00     0.049 A 
ATOM     98  H   UNL A   1      44.442  28.593  30.290  1.00  0.00     0.167 HD
ATOM     99  C   UNL A   1      46.102  26.375  29.680  1.00  0.00     0.074 A 
ATOM    100  C   UNL A   1      46.555  25.114  29.133  1.00  0.00    -0.034 C 
ATOM    101  H   UNL A   1      45.622  23.618  27.934  1.00  0.00     0.065 H 
ATOM    102  H   UNL A   1      48.182  29.326  31.910  1.00  0.00     0.065 H 
ATOM    103  C   UNL A   1      46.892  27.238  30.365  1.00  0.00     0.037 A 
ATOM    104  H   UNL A   1      47.510  24.740  29.247  1.00  0.00     0.065 H 
BRANCH  85 105
ATOM    105  C   UNL A   1      44.076  32.461  32.056  1.00  0.00     0.064 A 
ATOM    106  C   UNL A   1      43.896  32.654  33.433  1.00  0.00     0.173 A 
ATOM    107  C   UNL A   1      44.444  33.572  31.280  1.00  0.00     0.173 A 
ATOM    108  F   UNL A   1      43.536  31.628  34.218  1.00  0.00    -0.203 F 
ATOM    109  C   UNL A   1      44.057  33.913  34.007  1.00  0.00     0.198 A 
ATOM    110  C   UNL A   1      44.634  34.822  31.862  1.00  0.00     0.198 A 
ATOM    111  F   UNL A   1      44.635  33.442  29.958  1.00  0.00    -0.203 F 
ATOM    112  F   UNL A   1      43.838  34.082  35.319  1.00  0.00    -0.200 F 
ATOM    113  C   UNL A   1      44.434  34.993  33.225  1.00  0.00     0.200 A 
ATOM    114  F   UNL A   1      45.015  35.861  31.106  1.00  0.00    -0.200 F 
ATOM    115  F   UNL A   1      44.603  36.201  33.780  1.00  0.00    -0.200 F 
ENDBRANCH  85 105
BRANCH  88 116
ATOM    116  C   UNL A   1      42.997  23.724  27.338  1.00  0.00     0.064 A 
ATOM    117  C   UNL A   1      42.510  22.562  27.952  1.00  0.00     0.173 A 
ATOM    118  C   UNL A   1      43.376  23.638  25.990  1.00  0.00     0.173 A 
ATOM    119  F   UNL A   1      42.153  22.588  29.244  1.00  0.00    -0.203 F 
ATOM    120  C   UNL A   1      42.434  21.357  27.256  1.00  0.00     0.198 A 
ATOM    121  C   UNL A   1      43.269  22.440  25.286  1.00  0.00     0.198 A 
ATOM    122  F   UNL A   1      43.846  24.720  25.352  1.00  0.00    -0.203 F 
ATOM    123  F   UNL A   1      42.018  20.249  27.885  1.00  0.00    -0.200 F 
ATOM    124  C   UNL A   1      42.808  21.298  25.922  1.00  0.00     0.200 A 
ATOM    125  F   UNL A   1      43.616  22.392  23.993  1.00  0.00    -0.200 F 
ATOM    126  F   UNL A   1      42.734  20.139  25.254  1.00  0.00    -0.200 F 
ENDBRANCH  88 116
BRANCH 103 127
ATOM    127  C   UNL A   1      48.323  26.840  30.584  1.00  0.00     0.064 A 
ATOM    128  C   UNL A   1      48.699  25.985  31.630  1.00  0.00     0.173 A 
ATOM    129  C   UNL A   1      49.324  27.274  29.700  1.00  0.00     0.173 A 
ATOM    130  F   UNL A   1      47.783  25.556  32.512  1.00  0.00    -0.203 F 
ATOM    131  C   UNL A   1      50.025  25.596  31.796  1.00  0.00     0.198 A 
ATOM    132  C   UNL A   1      50.643  26.857  29.849  1.00  0.00     0.198 A 
ATOM    133  F   UNL A   1      49.018  28.088  28.678  1.00  0.00    -0.203 F 
ATOM    134  F   UNL A   1      50.368  24.814  32.829  1.00  0.00    -0.200 F 
ATOM    135  C   UNL A   1      50.994  26.023  30.900  1.00  0.00     0.200 A 
ATOM    136  F   UNL A   1      51.574  27.257  28.972  1.00  0.00    -0.200 F 
ATOM    137  F   UNL A   1      52.267  25.634  31.052  1.00  0.00    -0.200 F 
ENDBRANCH 103 127
ENDBRANCH  68  71
ENDBRANCH  58  61
ENDBRANCH  54  57
ENDBRANCH  51  54
ENDBRANCH  48  51
ENDBRANCH  45  48
ENDBRANCH   1  45
TORSDOF 18
ENDMDL
MODEL 6
REMARK VINA RESULT:     -11.7      4.777      9.881
REMARK SMILES C[C@@H](C(=O)NCCCCCCNC(=O)c1ccc(-c2c3nc(c(-c4c(F)c(F)c(F)c(F)c4F)c4ccc([nH]4)c(-c4c(F)c(F)c(F)c(F)c4F)c4nc(c(-c5c(F)c(F)c(F)c(F)c5F)c5ccc2[nH]5)C=C4)C=C3)cc1)c1ccc(C[C@@H]2CCC[C@@H]2O)cc1Br
REMARK SMILES IDX 7 1 6 4 5 7 3 8 4 9 2 11 1 13 78 17 79 18 90 19 80 20 89 22
REMARK SMILES IDX 91 23 81 24 82 27 83 30 84 31 87 32 85 34 86 37 88 43 8 45
REMARK SMILES IDX 9 48 10 51 11 54 12 57 13 58 14 60 15 61 16 62 77 63 17 64
REMARK SMILES IDX 76 66 18 68 19 71 20 72 70 73 21 74 75 75 69 76 71 77 22 78
REMARK SMILES IDX 74 79 68 81 67 83 23 85 55 88 35 89 54 90 36 91 39 92 53 93
REMARK SMILES IDX 72 94 37 95 38 97 52 99 73 100 40 103 24 105 25 106 33 107
REMARK SMILES IDX 26 108 27 109 31 110 34 111 28 112 29 113 32 114 30 115
REMARK SMILES IDX 56 116 57 117 65 118 58 119 59 120 63 121 66 122 60 123
REMARK SMILES IDX 61 124 64 125 62 126 41 127 42 128 50 129 43 130 44 131
REMARK SMILES IDX 48 132 51 133 45 134 46 135 49 136 47 137
REMARK H PARENT 7 2 7 3 6 5 6 6 5 10 2 12 1 14 1 15 1 16 79 21 80 25 89 26
REMARK H PARENT 82 28 82 29 83 33 84 35 84 36 87 38 85 39 85 40 86 41 86 42
REMARK H PARENT 88 44 8 46 8 47 9 49 9 50 10 52 10 53 11 55 11 56 12 59 16 65
REMARK H PARENT 77 67 17 69 76 70 75 80 69 82 71 84 74 86 68 87 36 96 39 98
REMARK H PARENT 72 101 37 102 73 104
REMARK Flexibility Score: inf
ROOT
ATOM      1  C   UNL A   1      36.810  23.292  25.743  1.00  0.00    -0.036 C 
ATOM      2  H   UNL A   1      36.856  22.791  26.687  1.00  0.00     0.028 H 
ATOM      3  H   UNL A   1      37.541  24.068  25.656  1.00  0.00     0.028 H 
ENDROOT
BRANCH   1   4
ATOM      4  C   UNL A   1      35.437  23.957  25.616  1.00  0.00     0.017 C 
ATOM      5  H   UNL A   1      34.682  23.276  25.952  1.00  0.00     0.049 H 
ATOM      6  H   UNL A   1      35.419  24.843  26.213  1.00  0.00     0.049 H 
BRANCH   4   7
ATOM      7  N   UNL A   1      35.183  24.310  24.237  1.00  0.00    -0.356 N 
ATOM      8  C   UNL A   1      34.007  24.612  23.616  1.00  0.00     0.227 C 
ATOM      9  O   UNL A   1      34.032  24.665  22.385  1.00  0.00    -0.274 OA
ATOM     10  H   UNL A   1      35.978  24.336  23.659  1.00  0.00     0.163 HD
BRANCH   8  11
ATOM     11  C   UNL A   1      32.742  24.890  24.449  1.00  0.00     0.061 C 
ATOM     12  H   UNL A   1      33.046  25.037  25.465  1.00  0.00     0.045 H 
BRANCH  11  13
ATOM     13  C   UNL A   1      31.775  23.697  24.454  1.00  0.00    -0.049 C 
ATOM     14  H   UNL A   1      31.673  23.317  23.460  1.00  0.00     0.024 H 
ATOM     15  H   UNL A   1      30.820  24.013  24.815  1.00  0.00     0.024 H 
ATOM     16  H   UNL A   1      32.161  22.928  25.091  1.00  0.00     0.024 H 
ENDBRANCH  11  13
BRANCH  11  17
ATOM     17  C   UNL A   1      32.055  26.167  23.961  1.00  0.00    -0.022 A 
ATOM     18  C   UNL A   1      31.111  26.081  22.920  1.00  0.00    -0.057 A 
ATOM     19  C   UNL A   1      32.390  27.448  24.431  1.00  0.00     0.022 A 
ATOM     20  C   UNL A   1      30.518  27.218  22.376  1.00  0.00    -0.059 A 
ATOM     21  H   UNL A   1      30.850  25.153  22.552  1.00  0.00     0.063 H 
ATOM     22  C   UNL A   1      31.815  28.592  23.859  1.00  0.00    -0.044 A 
ATOM     23  Br  UNL A   1      33.653  27.735  25.824  1.00  0.00    -0.051 Br
ATOM     24  C   UNL A   1      30.895  28.490  22.806  1.00  0.00    -0.047 A 
ATOM     25  H   UNL A   1      29.794  27.119  21.647  1.00  0.00     0.063 H 
ATOM     26  H   UNL A   1      32.073  29.525  24.219  1.00  0.00     0.064 H 
BRANCH  24  27
ATOM     27  C   UNL A   1      30.360  29.723  22.125  1.00  0.00    -0.023 C 
ATOM     28  H   UNL A   1      30.382  29.539  21.071  1.00  0.00     0.032 H 
ATOM     29  H   UNL A   1      30.993  30.513  22.473  1.00  0.00     0.032 H 
BRANCH  27  30
ATOM     30  C   UNL A   1      28.929  30.191  22.482  1.00  0.00    -0.011 C 
ATOM     31  C   UNL A   1      28.028  30.530  21.288  1.00  0.00    -0.048 C 
ATOM     32  C   UNL A   1      28.796  31.441  23.357  1.00  0.00     0.057 C 
ATOM     33  H   UNL A   1      28.627  29.308  23.008  1.00  0.00     0.033 H 
ATOM     34  C   UNL A   1      28.031  32.057  21.152  1.00  0.00    -0.050 C 
ATOM     35  H   UNL A   1      27.034  30.178  21.464  1.00  0.00     0.027 H 
ATOM     36  H   UNL A   1      28.385  30.065  20.393  1.00  0.00     0.027 H 
ATOM     37  C   UNL A   1      28.764  32.603  22.375  1.00  0.00    -0.027 C 
ATOM     38  H   UNL A   1      27.912  31.391  23.957  1.00  0.00     0.060 H 
ATOM     39  H   UNL A   1      27.028  32.427  21.127  1.00  0.00     0.027 H 
ATOM     40  H   UNL A   1      28.512  32.362  20.247  1.00  0.00     0.027 H 
ATOM     41  H   UNL A   1      28.235  33.435  22.791  1.00  0.00     0.029 H 
ATOM     42  H   UNL A   1      29.744  32.957  22.134  1.00  0.00     0.029 H 
BRANCH  32  43
ATOM     43  O   UNL A   1      29.823  31.580  24.317  1.00  0.00    -0.393 OA
ATOM     44  H   UNL A   1      30.392  30.795  24.298  1.00  0.00     0.210 HD
ENDBRANCH  32  43
ENDBRANCH  27  30
ENDBRANCH  24  27
ENDBRANCH  11  17
ENDBRANCH   8  11
ENDBRANCH   4   7
ENDBRANCH   1   4
BRANCH   1  45
ATOM     45  C   UNL A   1      37.106  22.270  24.636  1.00  0.00    -0.052 C 
ATOM     46  H   UNL A   1      38.131  22.379  24.348  1.00  0.00     0.027 H 
ATOM     47  H   UNL A   1      36.419  22.479  23.843  1.00  0.00     0.027 H 
BRANCH  45  48
ATOM     48  C   UNL A   1      36.876  20.808  25.030  1.00  0.00    -0.052 C 
ATOM     49  H   UNL A   1      36.103  20.412  24.404  1.00  0.00     0.027 H 
ATOM     50  H   UNL A   1      36.615  20.811  26.068  1.00  0.00     0.027 H 
BRANCH  48  51
ATOM     51  C   UNL A   1      38.106  19.908  24.897  1.00  0.00    -0.036 C 
ATOM     52  H   UNL A   1      38.452  19.961  23.885  1.00  0.00     0.028 H 
ATOM     53  H   UNL A   1      37.797  18.922  25.178  1.00  0.00     0.028 H 
BRANCH  51  54
ATOM     54  C   UNL A   1      39.260  20.284  25.818  1.00  0.00     0.018 C 
ATOM     55  H   UNL A   1      38.868  20.518  26.786  1.00  0.00     0.049 H 
ATOM     56  H   UNL A   1      39.765  21.126  25.391  1.00  0.00     0.049 H 
BRANCH  54  57
ATOM     57  N   UNL A   1      40.225  19.202  25.952  1.00  0.00    -0.352 N 
ATOM     58  C   UNL A   1      41.583  19.270  26.123  1.00  0.00     0.251 C 
ATOM     59  H   UNL A   1      39.849  18.294  25.913  1.00  0.00     0.163 HD
ATOM     60  O   UNL A   1      42.277  18.262  26.006  1.00  0.00    -0.269 OA
BRANCH  58  61
ATOM     61  C   UNL A   1      42.218  20.568  26.427  1.00  0.00     0.039 A 
ATOM     62  C   UNL A   1      42.721  21.340  25.377  1.00  0.00    -0.049 A 
ATOM     63  C   UNL A   1      42.303  21.027  27.744  1.00  0.00    -0.049 A 
ATOM     64  C   UNL A   1      43.246  22.606  25.641  1.00  0.00    -0.053 A 
ATOM     65  H   UNL A   1      42.705  20.976  24.412  1.00  0.00     0.063 H 
ATOM     66  C   UNL A   1      42.759  22.317  27.997  1.00  0.00    -0.053 A 
ATOM     67  H   UNL A   1      42.030  20.412  28.526  1.00  0.00     0.063 H 
ATOM     68  C   UNL A   1      43.230  23.122  26.948  1.00  0.00    -0.014 A 
ATOM     69  H   UNL A   1      43.647  23.166  24.873  1.00  0.00     0.063 H 
ATOM     70  H   UNL A   1      42.751  22.684  28.962  1.00  0.00     0.063 H 
BRANCH  68  71
ATOM     71  C   UNL A   1      43.675  24.509  27.236  1.00  0.00     0.031 A 
ATOM     72  C   UNL A   1      42.690  25.532  27.726  1.00  0.00     0.074 A 
ATOM     73  C   UNL A   1      44.948  24.865  26.975  1.00  0.00     0.049 A 
ATOM     74  N   UNL A   1      42.863  26.813  27.937  1.00  0.00    -0.248 NA
ATOM     75  C   UNL A   1      41.321  25.061  27.988  1.00  0.00    -0.034 C 
ATOM     76  C   UNL A   1      45.984  23.973  26.453  1.00  0.00    -0.036 A 
ATOM     77  N   UNL A   1      45.582  26.077  27.092  1.00  0.00    -0.354 N 
ATOM     78  C   UNL A   1      41.627  27.301  28.337  1.00  0.00     0.074 A 
ATOM     79  C   UNL A   1      40.700  26.191  28.298  1.00  0.00    -0.034 C 
ATOM     80  H   UNL A   1      40.943  24.103  27.943  1.00  0.00     0.065 H 
ATOM     81  C   UNL A   1      47.127  24.662  26.306  1.00  0.00    -0.036 A 
ATOM     82  H   UNL A   1      45.857  22.972  26.234  1.00  0.00     0.065 H 
ATOM     83  C   UNL A   1      46.893  26.055  26.676  1.00  0.00     0.049 A 
ATOM     84  H   UNL A   1      45.141  26.885  27.440  1.00  0.00     0.167 HD
ATOM     85  C   UNL A   1      41.300  28.558  28.718  1.00  0.00     0.037 A 
ATOM     86  H   UNL A   1      39.688  26.268  28.486  1.00  0.00     0.065 H 
ATOM     87  H   UNL A   1      48.025  24.271  25.984  1.00  0.00     0.065 H 
ATOM     88  C   UNL A   1      47.796  27.048  26.583  1.00  0.00     0.037 A 
ATOM     89  C   UNL A   1      42.235  29.652  28.783  1.00  0.00     0.049 A 
ATOM     90  C   UNL A   1      47.400  28.441  26.996  1.00  0.00     0.074 A 
ATOM     91  C   UNL A   1      42.021  30.941  29.239  1.00  0.00    -0.036 A 
ATOM     92  N   UNL A   1      43.557  29.588  28.368  1.00  0.00    -0.354 N 
ATOM     93  N   UNL A   1      46.251  28.872  27.458  1.00  0.00    -0.248 NA
ATOM     94  C   UNL A   1      48.426  29.487  26.877  1.00  0.00    -0.034 C 
ATOM     95  C   UNL A   1      43.194  31.675  29.040  1.00  0.00    -0.036 A 
ATOM     96  H   UNL A   1      41.147  31.299  29.654  1.00  0.00     0.065 H 
ATOM     97  C   UNL A   1      44.158  30.827  28.519  1.00  0.00     0.049 A 
ATOM     98  H   UNL A   1      44.001  28.782  28.019  1.00  0.00     0.167 HD
ATOM     99  C   UNL A   1      46.423  30.227  27.708  1.00  0.00     0.074 A 
ATOM    100  C   UNL A   1      47.793  30.545  27.364  1.00  0.00    -0.034 C 
ATOM    101  H   UNL A   1      49.388  29.417  26.509  1.00  0.00     0.065 H 
ATOM    102  H   UNL A   1      43.320  32.678  29.246  1.00  0.00     0.065 H 
ATOM    103  C   UNL A   1      45.525  31.127  28.178  1.00  0.00     0.037 A 
ATOM    104  H   UNL A   1      48.221  31.476  27.483  1.00  0.00     0.065 H 
BRANCH  85 105
ATOM    105  C   UNL A   1      39.872  28.832  29.094  1.00  0.00     0.064 A 
ATOM    106  C   UNL A   1      38.922  29.236  28.145  1.00  0.00     0.173 A 
ATOM    107  C   UNL A   1      39.435  28.624  30.411  1.00  0.00     0.173 A 
ATOM    108  F   UNL A   1      39.287  29.457  26.874  1.00  0.00    -0.203 F 
ATOM    109  C   UNL A   1      37.593  29.448  28.507  1.00  0.00     0.198 A 
ATOM    110  C   UNL A   1      38.100  28.807  30.763  1.00  0.00     0.198 A 
ATOM    111  F   UNL A   1      40.301  28.230  31.358  1.00  0.00    -0.203 F 
ATOM    112  F   UNL A   1      36.712  29.876  27.592  1.00  0.00    -0.200 F 
ATOM    113  C   UNL A   1      37.182  29.224  29.811  1.00  0.00     0.200 A 
ATOM    114  F   UNL A   1      37.702  28.573  32.021  1.00  0.00    -0.200 F 
ATOM    115  F   UNL A   1      35.900  29.414  30.154  1.00  0.00    -0.200 F 
ENDBRANCH  85 105
BRANCH  88 116
ATOM    116  C   UNL A   1      49.165  26.769  26.070  1.00  0.00     0.064 A 
ATOM    117  C   UNL A   1      49.493  26.991  24.726  1.00  0.00     0.173 A 
ATOM    118  C   UNL A   1      50.166  26.255  26.908  1.00  0.00     0.173 A 
ATOM    119  F   UNL A   1      48.565  27.462  23.880  1.00  0.00    -0.203 F 
ATOM    120  C   UNL A   1      50.759  26.684  24.233  1.00  0.00     0.198 A 
ATOM    121  C   UNL A   1      51.442  25.979  26.421  1.00  0.00     0.198 A 
ATOM    122  F   UNL A   1      49.908  26.028  28.204  1.00  0.00    -0.203 F 
ATOM    123  F   UNL A   1      51.027  26.852  22.930  1.00  0.00    -0.200 F 
ATOM    124  C   UNL A   1      51.735  26.183  25.082  1.00  0.00     0.200 A 
ATOM    125  F   UNL A   1      52.386  25.512  27.250  1.00  0.00    -0.200 F 
ATOM    126  F   UNL A   1      52.952  25.888  24.607  1.00  0.00    -0.200 F 
ENDBRANCH  88 116
BRANCH 103 127
ATOM    127  C   UNL A   1      45.999  32.538  28.374  1.00  0.00     0.064 A 
ATOM    128  C   UNL A   1      45.852  33.510  27.373  1.00  0.00     0.173 A 
ATOM    129  C   UNL A   1      46.553  32.937  29.600  1.00  0.00     0.173 A 
ATOM    130  F   UNL A   1      45.344  33.176  26.178  1.00  0.00    -0.203 F 
ATOM    131  C   UNL A   1      46.263  34.824  27.586  1.00  0.00     0.198 A 
ATOM    132  C   UNL A   1      46.931  34.258  29.820  1.00  0.00     0.198 A 
ATOM    133  F   UNL A   1      46.710  32.049  30.593  1.00  0.00    -0.203 F 
ATOM    134  F   UNL A   1      46.153  35.725  26.600  1.00  0.00    -0.200 F 
ATOM    135  C   UNL A   1      46.791  35.199  28.812  1.00  0.00     0.200 A 
ATOM    136  F   UNL A   1      47.427  34.622  31.012  1.00  0.00    -0.200 F 
ATOM    137  F   UNL A   1      47.170  36.467  29.019  1.00  0.00    -0.200 F 
ENDBRANCH 103 127
ENDBRANCH  68  71
ENDBRANCH  58  61
ENDBRANCH  54  57
ENDBRANCH  51  54
ENDBRANCH  48  51
ENDBRANCH  45  48
ENDBRANCH   1  45
TORSDOF 18
ENDMDL
MODEL 7
REMARK VINA RESULT:     -11.7      4.326      7.489
REMARK SMILES C[C@@H](C(=O)NCCCCCCNC(=O)c1ccc(-c2c3nc(c(-c4c(F)c(F)c(F)c(F)c4F)c4ccc([nH]4)c(-c4c(F)c(F)c(F)c(F)c4F)c4nc(c(-c5c(F)c(F)c(F)c(F)c5F)c5ccc2[nH]5)C=C4)C=C3)cc1)c1ccc(C[C@@H]2CCC[C@@H]2O)cc1Br
REMARK SMILES IDX 7 1 6 4 5 7 3 8 4 9 2 11 1 13 78 17 79 18 90 19 80 20 89 22
REMARK SMILES IDX 91 23 81 24 82 27 83 30 84 31 87 32 85 34 86 37 88 43 8 45
REMARK SMILES IDX 9 48 10 51 11 54 12 57 13 58 14 60 15 61 16 62 77 63 17 64
REMARK SMILES IDX 76 66 18 68 19 71 20 72 70 73 21 74 75 75 69 76 71 77 22 78
REMARK SMILES IDX 74 79 68 81 67 83 23 85 55 88 35 89 54 90 36 91 39 92 53 93
REMARK SMILES IDX 72 94 37 95 38 97 52 99 73 100 40 103 24 105 25 106 33 107
REMARK SMILES IDX 26 108 27 109 31 110 34 111 28 112 29 113 32 114 30 115
REMARK SMILES IDX 56 116 57 117 65 118 58 119 59 120 63 121 66 122 60 123
REMARK SMILES IDX 61 124 64 125 62 126 41 127 42 128 50 129 43 130 44 131
REMARK SMILES IDX 48 132 51 133 45 134 46 135 49 136 47 137
REMARK H PARENT 7 2 7 3 6 5 6 6 5 10 2 12 1 14 1 15 1 16 79 21 80 25 89 26
REMARK H PARENT 82 28 82 29 83 33 84 35 84 36 87 38 85 39 85 40 86 41 86 42
REMARK H PARENT 88 44 8 46 8 47 9 49 9 50 10 52 10 53 11 55 11 56 12 59 16 65
REMARK H PARENT 77 67 17 69 76 70 75 80 69 82 71 84 74 86 68 87 36 96 39 98
REMARK H PARENT 72 101 37 102 73 104
REMARK Flexibility Score: inf
ROOT
ATOM      1  C   UNL A   1      35.109  24.654  25.231  1.00  0.00    -0.036 C 
ATOM      2  H   UNL A   1      36.099  24.890  25.562  1.00  0.00     0.028 H 
ATOM      3  H   UNL A   1      35.096  24.244  24.242  1.00  0.00     0.028 H 
ENDROOT
BRANCH   1   4
ATOM      4  C   UNL A   1      34.292  25.948  25.188  1.00  0.00     0.017 C 
ATOM      5  H   UNL A   1      34.924  26.773  25.447  1.00  0.00     0.049 H 
ATOM      6  H   UNL A   1      33.902  26.084  24.202  1.00  0.00     0.049 H 
BRANCH   4   7
ATOM      7  N   UNL A   1      33.195  25.873  26.126  1.00  0.00    -0.356 N 
ATOM      8  C   UNL A   1      31.851  25.907  25.901  1.00  0.00     0.227 C 
ATOM      9  O   UNL A   1      31.130  26.044  26.892  1.00  0.00    -0.274 OA
ATOM     10  H   UNL A   1      33.458  25.783  27.070  1.00  0.00     0.163 HD
BRANCH   8  11
ATOM     11  C   UNL A   1      31.302  25.753  24.470  1.00  0.00     0.061 C 
ATOM     12  H   UNL A   1      31.805  26.466  23.850  1.00  0.00     0.045 H 
BRANCH  11  13
ATOM     13  C   UNL A   1      29.805  26.082  24.384  1.00  0.00    -0.049 C 
ATOM     14  H   UNL A   1      29.357  25.957  25.347  1.00  0.00     0.024 H 
ATOM     15  H   UNL A   1      29.335  25.425  23.684  1.00  0.00     0.024 H 
ATOM     16  H   UNL A   1      29.680  27.095  24.062  1.00  0.00     0.024 H 
ENDBRANCH  11  13
BRANCH  11  17
ATOM     17  C   UNL A   1      31.600  24.351  23.935  1.00  0.00    -0.022 A 
ATOM     18  C   UNL A   1      31.230  23.232  24.704  1.00  0.00    -0.057 A 
ATOM     19  C   UNL A   1      32.322  24.118  22.751  1.00  0.00     0.022 A 
ATOM     20  C   UNL A   1      31.554  21.935  24.309  1.00  0.00    -0.059 A 
ATOM     21  H   UNL A   1      30.706  23.374  25.580  1.00  0.00     0.063 H 
ATOM     22  C   UNL A   1      32.672  22.814  22.373  1.00  0.00    -0.044 A 
ATOM     23  Br  UNL A   1      32.903  25.522  21.607  1.00  0.00    -0.051 Br
ATOM     24  C   UNL A   1      32.317  21.712  23.164  1.00  0.00    -0.047 A 
ATOM     25  H   UNL A   1      31.226  21.133  24.870  1.00  0.00     0.063 H 
ATOM     26  H   UNL A   1      33.200  22.662  21.499  1.00  0.00     0.064 H 
BRANCH  24  27
ATOM     27  C   UNL A   1      32.786  20.324  22.810  1.00  0.00    -0.023 C 
ATOM     28  H   UNL A   1      33.843  20.376  22.652  1.00  0.00     0.032 H 
ATOM     29  H   UNL A   1      32.201  20.056  21.956  1.00  0.00     0.032 H 
BRANCH  27  30
ATOM     30  C   UNL A   1      32.528  19.186  23.827  1.00  0.00    -0.011 C 
ATOM     31  C   UNL A   1      33.601  19.013  24.911  1.00  0.00    -0.048 C 
ATOM     32  C   UNL A   1      32.393  17.765  23.271  1.00  0.00     0.057 C 
ATOM     33  H   UNL A   1      31.595  19.551  24.204  1.00  0.00     0.033 H 
ATOM     34  C   UNL A   1      34.486  17.840  24.472  1.00  0.00    -0.050 C 
ATOM     35  H   UNL A   1      33.142  18.797  25.852  1.00  0.00     0.027 H 
ATOM     36  H   UNL A   1      34.178  19.906  25.026  1.00  0.00     0.027 H 
ATOM     37  C   UNL A   1      33.813  17.217  23.253  1.00  0.00    -0.027 C 
ATOM     38  H   UNL A   1      31.739  17.179  23.883  1.00  0.00     0.060 H 
ATOM     39  H   UNL A   1      34.561  17.121  25.261  1.00  0.00     0.027 H 
ATOM     40  H   UNL A   1      35.476  18.171  24.239  1.00  0.00     0.027 H 
ATOM     41  H   UNL A   1      33.806  16.149  23.330  1.00  0.00     0.029 H 
ATOM     42  H   UNL A   1      34.325  17.451  22.343  1.00  0.00     0.029 H 
BRANCH  32  43
ATOM     43  O   UNL A   1      31.778  17.703  22.001  1.00  0.00    -0.393 OA
ATOM     44  H   UNL A   1      31.768  18.587  21.604  1.00  0.00     0.210 HD
ENDBRANCH  32  43
ENDBRANCH  27  30
ENDBRANCH  24  27
ENDBRANCH  11  17
ENDBRANCH   8  11
ENDBRANCH   4   7
ENDBRANCH   1   4
BRANCH   1  45
ATOM     45  C   UNL A   1      34.526  23.585  26.166  1.00  0.00    -0.052 C 
ATOM     46  H   UNL A   1      33.499  23.437  25.903  1.00  0.00     0.027 H 
ATOM     47  H   UNL A   1      34.658  23.954  27.162  1.00  0.00     0.027 H 
BRANCH  45  48
ATOM     48  C   UNL A   1      35.232  22.227  26.113  1.00  0.00    -0.052 C 
ATOM     49  H   UNL A   1      34.523  21.472  26.384  1.00  0.00     0.027 H 
ATOM     50  H   UNL A   1      36.059  22.289  26.789  1.00  0.00     0.027 H 
BRANCH  48  51
ATOM     51  C   UNL A   1      35.818  21.863  24.748  1.00  0.00    -0.036 C 
ATOM     52  H   UNL A   1      35.351  22.480  24.007  1.00  0.00     0.028 H 
ATOM     53  H   UNL A   1      35.627  20.820  24.600  1.00  0.00     0.028 H 
BRANCH  51  54
ATOM     54  C   UNL A   1      37.327  22.050  24.643  1.00  0.00     0.018 C 
ATOM     55  H   UNL A   1      37.589  22.994  25.076  1.00  0.00     0.049 H 
ATOM     56  H   UNL A   1      37.595  22.011  23.608  1.00  0.00     0.049 H 
BRANCH  54  57
ATOM     57  N   UNL A   1      38.055  20.998  25.336  1.00  0.00    -0.352 N 
ATOM     58  C   UNL A   1      39.172  21.093  26.126  1.00  0.00     0.251 C 
ATOM     59  H   UNL A   1      37.695  20.089  25.221  1.00  0.00     0.163 HD
ATOM     60  O   UNL A   1      39.784  20.083  26.464  1.00  0.00    -0.269 OA
BRANCH  58  61
ATOM     61  C   UNL A   1      39.653  22.422  26.554  1.00  0.00     0.039 A 
ATOM     62  C   UNL A   1      40.777  22.503  27.379  1.00  0.00    -0.049 A 
ATOM     63  C   UNL A   1      39.004  23.584  26.129  1.00  0.00    -0.049 A 
ATOM     64  C   UNL A   1      41.293  23.755  27.721  1.00  0.00    -0.053 A 
ATOM     65  H   UNL A   1      41.223  21.643  27.734  1.00  0.00     0.063 H 
ATOM     66  C   UNL A   1      39.561  24.828  26.410  1.00  0.00    -0.053 A 
ATOM     67  H   UNL A   1      38.114  23.521  25.610  1.00  0.00     0.063 H 
ATOM     68  C   UNL A   1      40.714  24.926  27.204  1.00  0.00    -0.014 A 
ATOM     69  H   UNL A   1      42.104  23.820  28.355  1.00  0.00     0.063 H 
ATOM     70  H   UNL A   1      39.123  25.683  26.032  1.00  0.00     0.063 H 
BRANCH  68  71
ATOM     71  C   UNL A   1      41.314  26.260  27.458  1.00  0.00     0.031 A 
ATOM     72  C   UNL A   1      42.713  26.559  27.001  1.00  0.00     0.074 A 
ATOM     73  C   UNL A   1      40.626  27.171  28.174  1.00  0.00     0.049 A 
ATOM     74  N   UNL A   1      43.444  27.625  27.215  1.00  0.00    -0.248 NA
ATOM     75  C   UNL A   1      43.394  25.512  26.224  1.00  0.00    -0.034 C 
ATOM     76  C   UNL A   1      39.278  26.980  28.711  1.00  0.00    -0.036 A 
ATOM     77  N   UNL A   1      40.973  28.432  28.592  1.00  0.00    -0.354 N 
ATOM     78  C   UNL A   1      44.670  27.370  26.618  1.00  0.00     0.074 A 
ATOM     79  C   UNL A   1      44.604  26.032  26.070  1.00  0.00    -0.034 C 
ATOM     80  H   UNL A   1      43.027  24.609  25.887  1.00  0.00     0.065 H 
ATOM     81  C   UNL A   1      38.907  28.085  29.377  1.00  0.00    -0.036 A 
ATOM     82  H   UNL A   1      38.702  26.130  28.596  1.00  0.00     0.065 H 
ATOM     83  C   UNL A   1      40.007  29.044  29.355  1.00  0.00     0.049 A 
ATOM     84  H   UNL A   1      41.831  28.857  28.367  1.00  0.00     0.167 HD
ATOM     85  C   UNL A   1      45.747  28.185  26.521  1.00  0.00     0.037 A 
ATOM     86  H   UNL A   1      45.395  25.546  25.618  1.00  0.00     0.065 H 
ATOM     87  H   UNL A   1      37.992  28.234  29.830  1.00  0.00     0.065 H 
ATOM     88  C   UNL A   1      40.016  30.234  29.985  1.00  0.00     0.037 A 
ATOM     89  C   UNL A   1      45.795  29.526  27.043  1.00  0.00     0.049 A 
ATOM     90  C   UNL A   1      41.235  31.113  29.876  1.00  0.00     0.074 A 
ATOM     91  C   UNL A   1      46.808  30.461  26.921  1.00  0.00    -0.036 A 
ATOM     92  N   UNL A   1      44.793  30.117  27.798  1.00  0.00    -0.354 N 
ATOM     93  N   UNL A   1      42.356  30.896  29.232  1.00  0.00    -0.248 NA
ATOM     94  C   UNL A   1      41.190  32.401  30.581  1.00  0.00    -0.034 C 
ATOM     95  C   UNL A   1      46.446  31.595  27.656  1.00  0.00    -0.036 A 
ATOM     96  H   UNL A   1      47.679  30.343  26.381  1.00  0.00     0.065 H 
ATOM     97  C   UNL A   1      45.181  31.390  28.182  1.00  0.00     0.049 A 
ATOM     98  H   UNL A   1      43.933  29.695  28.025  1.00  0.00     0.167 HD
ATOM     99  C   UNL A   1      43.136  32.027  29.431  1.00  0.00     0.074 A 
ATOM    100  C   UNL A   1      42.354  32.937  30.240  1.00  0.00    -0.034 C 
ATOM    101  H   UNL A   1      40.447  32.789  31.183  1.00  0.00     0.065 H 
ATOM    102  H   UNL A   1      47.024  32.440  27.783  1.00  0.00     0.065 H 
ATOM    103  C   UNL A   1      44.389  32.287  28.984  1.00  0.00     0.037 A 
ATOM    104  H   UNL A   1      42.663  33.881  30.518  1.00  0.00     0.065 H 
BRANCH  85 105
ATOM    105  C   UNL A   1      46.971  27.655  25.829  1.00  0.00     0.064 A 
ATOM    106  C   UNL A   1      47.119  27.720  24.437  1.00  0.00     0.173 A 
ATOM    107  C   UNL A   1      48.036  27.133  26.579  1.00  0.00     0.173 A 
ATOM    108  F   UNL A   1      46.129  28.203  23.673  1.00  0.00    -0.203 F 
ATOM    109  C   UNL A   1      48.279  27.258  23.817  1.00  0.00     0.198 A 
ATOM    110  C   UNL A   1      49.206  26.701  25.960  1.00  0.00     0.198 A 
ATOM    111  F   UNL A   1      47.949  27.054  27.916  1.00  0.00    -0.203 F 
ATOM    112  F   UNL A   1      48.381  27.291  22.481  1.00  0.00    -0.200 F 
ATOM    113  C   UNL A   1      49.324  26.758  24.579  1.00  0.00     0.200 A 
ATOM    114  F   UNL A   1      50.220  26.234  26.700  1.00  0.00    -0.200 F 
ATOM    115  F   UNL A   1      50.444  26.328  23.984  1.00  0.00    -0.200 F 
ENDBRANCH  85 105
BRANCH  88 116
ATOM    116  C   UNL A   1      38.837  30.667  30.783  1.00  0.00     0.064 A 
ATOM    117  C   UNL A   1      37.758  31.326  30.180  1.00  0.00     0.173 A 
ATOM    118  C   UNL A   1      38.775  30.448  32.168  1.00  0.00     0.173 A 
ATOM    119  F   UNL A   1      37.779  31.577  28.862  1.00  0.00    -0.203 F 
ATOM    120  C   UNL A   1      36.676  31.776  30.933  1.00  0.00     0.198 A 
ATOM    121  C   UNL A   1      37.677  30.869  32.915  1.00  0.00     0.198 A 
ATOM    122  F   UNL A   1      39.779  29.818  32.795  1.00  0.00    -0.203 F 
ATOM    123  F   UNL A   1      35.684  32.455  30.339  1.00  0.00    -0.200 F 
ATOM    124  C   UNL A   1      36.633  31.543  32.300  1.00  0.00     0.200 A 
ATOM    125  F   UNL A   1      37.633  30.626  34.232  1.00  0.00    -0.200 F 
ATOM    126  F   UNL A   1      35.592  31.975  33.024  1.00  0.00    -0.200 F 
ENDBRANCH  88 116
BRANCH 103 127
ATOM    127  C   UNL A   1      44.987  33.618  29.338  1.00  0.00     0.064 A 
ATOM    128  C   UNL A   1      45.785  33.788  30.479  1.00  0.00     0.173 A 
ATOM    129  C   UNL A   1      44.807  34.724  28.493  1.00  0.00     0.173 A 
ATOM    130  F   UNL A   1      45.974  32.767  31.328  1.00  0.00    -0.203 F 
ATOM    131  C   UNL A   1      46.362  35.021  30.772  1.00  0.00     0.198 A 
ATOM    132  C   UNL A   1      45.413  35.945  28.770  1.00  0.00     0.198 A 
ATOM    133  F   UNL A   1      44.058  34.614  27.385  1.00  0.00    -0.203 F 
ATOM    134  F   UNL A   1      47.085  35.171  31.890  1.00  0.00    -0.200 F 
ATOM    135  C   UNL A   1      46.185  36.094  29.912  1.00  0.00     0.200 A 
ATOM    136  F   UNL A   1      45.255  36.978  27.930  1.00  0.00    -0.200 F 
ATOM    137  F   UNL A   1      46.756  37.275  30.187  1.00  0.00    -0.200 F 
ENDBRANCH 103 127
ENDBRANCH  68  71
ENDBRANCH  58  61
ENDBRANCH  54  57
ENDBRANCH  51  54
ENDBRANCH  48  51
ENDBRANCH  45  48
ENDBRANCH   1  45
TORSDOF 18
ENDMDL
MODEL 8
REMARK VINA RESULT:     -11.6      4.350      9.765
REMARK SMILES C[C@@H](C(=O)NCCCCCCNC(=O)c1ccc(-c2c3nc(c(-c4c(F)c(F)c(F)c(F)c4F)c4ccc([nH]4)c(-c4c(F)c(F)c(F)c(F)c4F)c4nc(c(-c5c(F)c(F)c(F)c(F)c5F)c5ccc2[nH]5)C=C4)C=C3)cc1)c1ccc(C[C@@H]2CCC[C@@H]2O)cc1Br
REMARK SMILES IDX 7 1 6 4 5 7 3 8 4 9 2 11 1 13 78 17 79 18 90 19 80 20 89 22
REMARK SMILES IDX 91 23 81 24 82 27 83 30 84 31 87 32 85 34 86 37 88 43 8 45
REMARK SMILES IDX 9 48 10 51 11 54 12 57 13 58 14 60 15 61 16 62 77 63 17 64
REMARK SMILES IDX 76 66 18 68 19 71 20 72 70 73 21 74 75 75 69 76 71 77 22 78
REMARK SMILES IDX 74 79 68 81 67 83 23 85 55 88 35 89 54 90 36 91 39 92 53 93
REMARK SMILES IDX 72 94 37 95 38 97 52 99 73 100 40 103 24 105 25 106 33 107
REMARK SMILES IDX 26 108 27 109 31 110 34 111 28 112 29 113 32 114 30 115
REMARK SMILES IDX 56 116 57 117 65 118 58 119 59 120 63 121 66 122 60 123
REMARK SMILES IDX 61 124 64 125 62 126 41 127 42 128 50 129 43 130 44 131
REMARK SMILES IDX 48 132 51 133 45 134 46 135 49 136 47 137
REMARK H PARENT 7 2 7 3 6 5 6 6 5 10 2 12 1 14 1 15 1 16 79 21 80 25 89 26
REMARK H PARENT 82 28 82 29 83 33 84 35 84 36 87 38 85 39 85 40 86 41 86 42
REMARK H PARENT 88 44 8 46 8 47 9 49 9 50 10 52 10 53 11 55 11 56 12 59 16 65
REMARK H PARENT 77 67 17 69 76 70 75 80 69 82 71 84 74 86 68 87 36 96 39 98
REMARK H PARENT 72 101 37 102 73 104
REMARK Flexibility Score: inf
ROOT
ATOM      1  C   UNL A   1      34.825  24.883  25.235  1.00  0.00    -0.036 C 
ATOM      2  H   UNL A   1      35.831  25.131  25.504  1.00  0.00     0.028 H 
ATOM      3  H   UNL A   1      34.754  24.484  24.244  1.00  0.00     0.028 H 
ENDROOT
BRANCH   1   4
ATOM      4  C   UNL A   1      33.988  26.164  25.262  1.00  0.00     0.017 C 
ATOM      5  H   UNL A   1      34.599  26.980  25.587  1.00  0.00     0.049 H 
ATOM      6  H   UNL A   1      33.614  26.359  24.279  1.00  0.00     0.049 H 
BRANCH   4   7
ATOM      7  N   UNL A   1      32.874  26.009  26.170  1.00  0.00    -0.356 N 
ATOM      8  C   UNL A   1      31.537  25.955  25.909  1.00  0.00     0.227 C 
ATOM      9  O   UNL A   1      30.782  26.037  26.881  1.00  0.00    -0.274 OA
ATOM     10  H   UNL A   1      33.117  25.931  27.119  1.00  0.00     0.163 HD
BRANCH   8  11
ATOM     11  C   UNL A   1      31.037  25.775  24.463  1.00  0.00     0.061 C 
ATOM     12  H   UNL A   1      31.528  26.507  23.855  1.00  0.00     0.045 H 
BRANCH  11  13
ATOM     13  C   UNL A   1      29.530  26.041  24.333  1.00  0.00    -0.049 C 
ATOM     14  H   UNL A   1      28.994  25.382  24.982  1.00  0.00     0.024 H 
ATOM     15  H   UNL A   1      29.225  25.874  23.322  1.00  0.00     0.024 H 
ATOM     16  H   UNL A   1      29.322  27.056  24.605  1.00  0.00     0.024 H 
ENDBRANCH  11  13
BRANCH  11  17
ATOM     17  C   UNL A   1      31.408  24.386  23.942  1.00  0.00    -0.022 A 
ATOM     18  C   UNL A   1      31.102  23.256  24.725  1.00  0.00    -0.057 A 
ATOM     19  C   UNL A   1      32.137  24.178  22.758  1.00  0.00     0.022 A 
ATOM     20  C   UNL A   1      31.494  21.975  24.343  1.00  0.00    -0.059 A 
ATOM     21  H   UNL A   1      30.574  23.380  25.602  1.00  0.00     0.063 H 
ATOM     22  C   UNL A   1      32.555  22.891  22.393  1.00  0.00    -0.044 A 
ATOM     23  Br  UNL A   1      32.637  25.599  21.596  1.00  0.00    -0.051 Br
ATOM     24  C   UNL A   1      32.263  21.780  23.197  1.00  0.00    -0.047 A 
ATOM     25  H   UNL A   1      31.212  21.162  24.914  1.00  0.00     0.063 H 
ATOM     26  H   UNL A   1      33.088  22.758  21.518  1.00  0.00     0.064 H 
BRANCH  24  27
ATOM     27  C   UNL A   1      32.806  20.416  22.856  1.00  0.00    -0.023 C 
ATOM     28  H   UNL A   1      33.866  20.514  22.745  1.00  0.00     0.032 H 
ATOM     29  H   UNL A   1      32.270  20.130  21.976  1.00  0.00     0.032 H 
BRANCH  27  30
ATOM     30  C   UNL A   1      32.553  19.260  23.855  1.00  0.00    -0.011 C 
ATOM     31  C   UNL A   1      33.631  19.068  24.929  1.00  0.00    -0.048 C 
ATOM     32  C   UNL A   1      32.413  17.849  23.275  1.00  0.00     0.057 C 
ATOM     33  H   UNL A   1      31.622  19.620  24.243  1.00  0.00     0.033 H 
ATOM     34  C   UNL A   1      34.513  17.903  24.466  1.00  0.00    -0.050 C 
ATOM     35  H   UNL A   1      33.178  18.836  25.869  1.00  0.00     0.027 H 
ATOM     36  H   UNL A   1      34.209  19.959  25.057  1.00  0.00     0.027 H 
ATOM     37  C   UNL A   1      33.833  17.301  23.239  1.00  0.00    -0.027 C 
ATOM     38  H   UNL A   1      31.763  17.254  23.881  1.00  0.00     0.060 H 
ATOM     39  H   UNL A   1      34.591  17.170  25.241  1.00  0.00     0.027 H 
ATOM     40  H   UNL A   1      35.502  18.237  24.233  1.00  0.00     0.027 H 
ATOM     41  H   UNL A   1      33.826  16.232  23.298  1.00  0.00     0.029 H 
ATOM     42  H   UNL A   1      34.340  17.551  22.331  1.00  0.00     0.029 H 
BRANCH  32  43
ATOM     43  O   UNL A   1      31.792  17.810  22.007  1.00  0.00    -0.393 OA
ATOM     44  H   UNL A   1      32.445  17.566  21.334  1.00  0.00     0.210 HD
ENDBRANCH  32  43
ENDBRANCH  27  30
ENDBRANCH  24  27
ENDBRANCH  11  17
ENDBRANCH   8  11
ENDBRANCH   4   7
ENDBRANCH   1   4
BRANCH   1  45
ATOM     45  C   UNL A   1      34.321  23.795  26.193  1.00  0.00    -0.052 C 
ATOM     46  H   UNL A   1      33.297  23.593  25.959  1.00  0.00     0.027 H 
ATOM     47  H   UNL A   1      34.461  24.178  27.182  1.00  0.00     0.027 H 
BRANCH  45  48
ATOM     48  C   UNL A   1      35.093  22.473  26.132  1.00  0.00    -0.052 C 
ATOM     49  H   UNL A   1      34.414  21.679  26.366  1.00  0.00     0.027 H 
ATOM     50  H   UNL A   1      35.897  22.558  26.832  1.00  0.00     0.027 H 
BRANCH  48  51
ATOM     51  C   UNL A   1      35.732  22.168  24.775  1.00  0.00    -0.036 C 
ATOM     52  H   UNL A   1      35.308  22.830  24.048  1.00  0.00     0.028 H 
ATOM     53  H   UNL A   1      35.530  21.138  24.566  1.00  0.00     0.028 H 
BRANCH  51  54
ATOM     54  C   UNL A   1      37.247  22.332  24.746  1.00  0.00     0.018 C 
ATOM     55  H   UNL A   1      37.509  23.223  25.278  1.00  0.00     0.049 H 
ATOM     56  H   UNL A   1      37.554  22.388  23.722  1.00  0.00     0.049 H 
BRANCH  54  57
ATOM     57  N   UNL A   1      37.929  21.202  25.359  1.00  0.00    -0.352 N 
ATOM     58  C   UNL A   1      39.060  21.189  26.134  1.00  0.00     0.251 C 
ATOM     59  H   UNL A   1      37.521  20.322  25.193  1.00  0.00     0.163 HD
ATOM     60  O   UNL A   1      39.623  20.130  26.398  1.00  0.00    -0.269 OA
BRANCH  58  61
ATOM     61  C   UNL A   1      39.614  22.462  26.637  1.00  0.00     0.039 A 
ATOM     62  C   UNL A   1      40.639  22.428  27.586  1.00  0.00    -0.049 A 
ATOM     63  C   UNL A   1      39.134  23.685  26.160  1.00  0.00    -0.049 A 
ATOM     64  C   UNL A   1      41.231  23.621  28.006  1.00  0.00    -0.053 A 
ATOM     65  H   UNL A   1      40.955  21.527  27.975  1.00  0.00     0.063 H 
ATOM     66  C   UNL A   1      39.773  24.867  26.525  1.00  0.00    -0.053 A 
ATOM     67  H   UNL A   1      38.309  23.712  25.543  1.00  0.00     0.063 H 
ATOM     68  C   UNL A   1      40.831  24.846  27.447  1.00  0.00    -0.014 A 
ATOM     69  H   UNL A   1      41.965  23.602  28.730  1.00  0.00     0.063 H 
ATOM     70  H   UNL A   1      39.466  25.763  26.114  1.00  0.00     0.063 H 
BRANCH  68  71
ATOM     71  C   UNL A   1      41.523  26.114  27.790  1.00  0.00     0.031 A 
ATOM     72  C   UNL A   1      40.778  27.218  28.485  1.00  0.00     0.074 A 
ATOM     73  C   UNL A   1      42.799  26.300  27.399  1.00  0.00     0.049 A 
ATOM     74  N   UNL A   1      41.178  28.430  28.779  1.00  0.00    -0.248 NA
ATOM     75  C   UNL A   1      39.389  26.934  28.879  1.00  0.00    -0.034 C 
ATOM     76  C   UNL A   1      43.613  25.321  26.678  1.00  0.00    -0.036 A 
ATOM     77  N   UNL A   1      43.630  27.385  27.535  1.00  0.00    -0.354 N 
ATOM     78  C   UNL A   1      40.089  29.054  29.372  1.00  0.00     0.074 A 
ATOM     79  C   UNL A   1      38.997  28.106  29.358  1.00  0.00    -0.034 C 
ATOM     80  H   UNL A   1      38.859  26.052  28.803  1.00  0.00     0.065 H 
ATOM     81  C   UNL A   1      44.827  25.842  26.444  1.00  0.00    -0.036 A 
ATOM     82  H   UNL A   1      43.302  24.378  26.394  1.00  0.00     0.065 H 
ATOM     83  C   UNL A   1      44.864  27.209  26.956  1.00  0.00     0.049 A 
ATOM     84  H   UNL A   1      43.367  28.210  28.003  1.00  0.00     0.167 HD
ATOM     85  C   UNL A   1      40.015  30.301  29.895  1.00  0.00     0.037 A 
ATOM     86  H   UNL A   1      38.039  28.314  29.680  1.00  0.00     0.065 H 
ATOM     87  H   UNL A   1      45.609  25.356  25.979  1.00  0.00     0.065 H 
ATOM     88  C   UNL A   1      45.900  28.060  26.831  1.00  0.00     0.037 A 
ATOM     89  C   UNL A   1      41.115  31.230  29.931  1.00  0.00     0.049 A 
ATOM     90  C   UNL A   1      45.783  29.447  27.406  1.00  0.00     0.074 A 
ATOM     91  C   UNL A   1      41.165  32.483  30.516  1.00  0.00    -0.036 A 
ATOM     92  N   UNL A   1      42.354  31.011  29.347  1.00  0.00    -0.354 N 
ATOM     93  N   UNL A   1      44.778  29.995  28.045  1.00  0.00    -0.248 NA
ATOM     94  C   UNL A   1      46.943  30.334  27.244  1.00  0.00    -0.034 C 
ATOM     95  C   UNL A   1      42.411  33.049  30.231  1.00  0.00    -0.036 A 
ATOM     96  H   UNL A   1      40.412  32.923  31.068  1.00  0.00     0.065 H 
ATOM     97  C   UNL A   1      43.161  32.123  29.523  1.00  0.00     0.049 A 
ATOM     98  H   UNL A   1      42.621  30.187  28.879  1.00  0.00     0.167 HD
ATOM     99  C   UNL A   1      45.193  31.276  28.383  1.00  0.00     0.074 A 
ATOM    100  C   UNL A   1      46.548  31.419  27.895  1.00  0.00    -0.034 C 
ATOM    101  H   UNL A   1      47.834  30.158  26.753  1.00  0.00     0.065 H 
ATOM    102  H   UNL A   1      42.720  33.995  30.502  1.00  0.00     0.065 H 
ATOM    103  C   UNL A   1      44.511  32.248  29.037  1.00  0.00     0.037 A 
ATOM    104  H   UNL A   1      47.132  32.258  28.035  1.00  0.00     0.065 H 
BRANCH  85 105
ATOM    105  C   UNL A   1      38.701  30.746  30.471  1.00  0.00     0.064 A 
ATOM    106  C   UNL A   1      37.653  31.201  29.658  1.00  0.00     0.173 A 
ATOM    107  C   UNL A   1      38.467  30.654  31.852  1.00  0.00     0.173 A 
ATOM    108  F   UNL A   1      37.826  31.315  28.333  1.00  0.00    -0.203 F 
ATOM    109  C   UNL A   1      36.429  31.573  30.208  1.00  0.00     0.198 A 
ATOM    110  C   UNL A   1      37.232  30.997  32.395  1.00  0.00     0.198 A 
ATOM    111  F   UNL A   1      39.433  30.218  32.675  1.00  0.00    -0.203 F 
ATOM    112  F   UNL A   1      35.456  32.046  29.416  1.00  0.00    -0.200 F 
ATOM    113  C   UNL A   1      36.216  31.462  31.573  1.00  0.00     0.200 A 
ATOM    114  F   UNL A   1      37.024  30.873  33.713  1.00  0.00    -0.200 F 
ATOM    115  F   UNL A   1      35.033  31.806  32.100  1.00  0.00    -0.200 F 
ENDBRANCH  85 105
BRANCH  88 116
ATOM    116  C   UNL A   1      47.139  27.633  26.127  1.00  0.00     0.064 A 
ATOM    117  C   UNL A   1      47.245  27.720  24.732  1.00  0.00     0.173 A 
ATOM    118  C   UNL A   1      48.234  27.110  26.831  1.00  0.00     0.173 A 
ATOM    119  F   UNL A   1      46.218  28.194  24.012  1.00  0.00    -0.203 F 
ATOM    120  C   UNL A   1      48.385  27.274  24.067  1.00  0.00     0.198 A 
ATOM    121  C   UNL A   1      49.387  26.695  26.167  1.00  0.00     0.198 A 
ATOM    122  F   UNL A   1      48.188  27.008  28.168  1.00  0.00    -0.203 F 
ATOM    123  F   UNL A   1      48.435  27.316  22.728  1.00  0.00    -0.200 F 
ATOM    124  C   UNL A   1      49.457  26.767  24.785  1.00  0.00     0.200 A 
ATOM    125  F   UNL A   1      50.427  26.221  26.867  1.00  0.00    -0.200 F 
ATOM    126  F   UNL A   1      50.553  26.339  24.144  1.00  0.00    -0.200 F 
ENDBRANCH  88 116
BRANCH 103 127
ATOM    127  C   UNL A   1      45.225  33.545  29.287  1.00  0.00     0.064 A 
ATOM    128  C   UNL A   1      45.140  34.619  28.389  1.00  0.00     0.173 A 
ATOM    129  C   UNL A   1      45.956  33.736  30.470  1.00  0.00     0.173 A 
ATOM    130  F   UNL A   1      44.468  34.482  27.236  1.00  0.00    -0.203 F 
ATOM    131  C   UNL A   1      45.778  35.828  28.656  1.00  0.00     0.198 A 
ATOM    132  C   UNL A   1      46.563  34.956  30.749  1.00  0.00     0.198 A 
ATOM    133  F   UNL A   1      46.063  32.744  31.367  1.00  0.00    -0.203 F 
ATOM    134  F   UNL A   1      45.719  36.825  27.762  1.00  0.00    -0.200 F 
ATOM    135  C   UNL A   1      46.479  35.999  29.840  1.00  0.00     0.200 A 
ATOM    136  F   UNL A   1      47.227  35.125  31.902  1.00  0.00    -0.200 F 
ATOM    137  F   UNL A   1      47.078  37.169  30.102  1.00  0.00    -0.200 F 
ENDBRANCH 103 127
ENDBRANCH  68  71
ENDBRANCH  58  61
ENDBRANCH  54  57
ENDBRANCH  51  54
ENDBRANCH  48  51
ENDBRANCH  45  48
ENDBRANCH   1  45
TORSDOF 18
ENDMDL
MODEL 9
REMARK VINA RESULT:     -11.6      4.896     10.424
REMARK SMILES C[C@@H](C(=O)NCCCCCCNC(=O)c1ccc(-c2c3nc(c(-c4c(F)c(F)c(F)c(F)c4F)c4ccc([nH]4)c(-c4c(F)c(F)c(F)c(F)c4F)c4nc(c(-c5c(F)c(F)c(F)c(F)c5F)c5ccc2[nH]5)C=C4)C=C3)cc1)c1ccc(C[C@@H]2CCC[C@@H]2O)cc1Br
REMARK SMILES IDX 7 1 6 4 5 7 3 8 4 9 2 11 1 13 78 17 79 18 90 19 80 20 89 22
REMARK SMILES IDX 91 23 81 24 82 27 83 30 84 31 87 32 85 34 86 37 88 43 8 45
REMARK SMILES IDX 9 48 10 51 11 54 12 57 13 58 14 60 15 61 16 62 77 63 17 64
REMARK SMILES IDX 76 66 18 68 19 71 20 72 70 73 21 74 75 75 69 76 71 77 22 78
REMARK SMILES IDX 74 79 68 81 67 83 23 85 55 88 35 89 54 90 36 91 39 92 53 93
REMARK SMILES IDX 72 94 37 95 38 97 52 99 73 100 40 103 24 105 25 106 33 107
REMARK SMILES IDX 26 108 27 109 31 110 34 111 28 112 29 113 32 114 30 115
REMARK SMILES IDX 56 116 57 117 65 118 58 119 59 120 63 121 66 122 60 123
REMARK SMILES IDX 61 124 64 125 62 126 41 127 42 128 50 129 43 130 44 131
REMARK SMILES IDX 48 132 51 133 45 134 46 135 49 136 47 137
REMARK H PARENT 7 2 7 3 6 5 6 6 5 10 2 12 1 14 1 15 1 16 79 21 80 25 89 26
REMARK H PARENT 82 28 82 29 83 33 84 35 84 36 87 38 85 39 85 40 86 41 86 42
REMARK H PARENT 88 44 8 46 8 47 9 49 9 50 10 52 10 53 11 55 11 56 12 59 16 65
REMARK H PARENT 77 67 17 69 76 70 75 80 69 82 71 84 74 86 68 87 36 96 39 98
REMARK H PARENT 72 101 37 102 73 104
REMARK Flexibility Score: inf
ROOT
ATOM      1  C   UNL A   1      35.817  23.212  25.821  1.00  0.00    -0.036 C 
ATOM      2  H   UNL A   1      35.128  22.661  26.427  1.00  0.00     0.028 H 
ATOM      3  H   UNL A   1      36.653  23.577  26.381  1.00  0.00     0.028 H 
ENDROOT
BRANCH   1   4
ATOM      4  C   UNL A   1      35.092  24.435  25.255  1.00  0.00     0.017 C 
ATOM      5  H   UNL A   1      35.781  25.251  25.177  1.00  0.00     0.049 H 
ATOM      6  H   UNL A   1      34.701  24.196  24.289  1.00  0.00     0.049 H 
BRANCH   4   7
ATOM      7  N   UNL A   1      34.002  24.813  26.126  1.00  0.00    -0.356 N 
ATOM      8  C   UNL A   1      32.714  25.141  25.820  1.00  0.00     0.227 C 
ATOM      9  O   UNL A   1      32.042  25.636  26.727  1.00  0.00    -0.274 OA
ATOM     10  H   UNL A   1      34.222  24.838  27.084  1.00  0.00     0.163 HD
BRANCH   8  11
ATOM     11  C   UNL A   1      32.160  24.867  24.410  1.00  0.00     0.061 C 
ATOM     12  H   UNL A   1      32.819  25.330  23.705  1.00  0.00     0.045 H 
BRANCH  11  13
ATOM     13  C   UNL A   1      30.779  25.502  24.195  1.00  0.00    -0.049 C 
ATOM     14  H   UNL A   1      30.667  25.774  23.166  1.00  0.00     0.024 H 
ATOM     15  H   UNL A   1      30.689  26.375  24.805  1.00  0.00     0.024 H 
ATOM     16  H   UNL A   1      30.017  24.800  24.462  1.00  0.00     0.024 H 
ENDBRANCH  11  13
BRANCH  11  17
ATOM     17  C   UNL A   1      32.135  23.363  24.132  1.00  0.00    -0.022 A 
ATOM     18  C   UNL A   1      31.738  22.484  25.157  1.00  0.00    -0.057 A 
ATOM     19  C   UNL A   1      32.587  22.795  22.928  1.00  0.00     0.022 A 
ATOM     20  C   UNL A   1      31.778  21.101  24.991  1.00  0.00    -0.059 A 
ATOM     21  H   UNL A   1      31.407  22.873  26.054  1.00  0.00     0.063 H 
ATOM     22  C   UNL A   1      32.655  21.403  22.776  1.00  0.00    -0.044 A 
ATOM     23  Br  UNL A   1      33.166  23.844  21.450  1.00  0.00    -0.051 Br
ATOM     24  C   UNL A   1      32.280  20.542  23.817  1.00  0.00    -0.047 A 
ATOM     25  H   UNL A   1      31.435  20.485  25.744  1.00  0.00     0.063 H 
ATOM     26  H   UNL A   1      32.989  21.005  21.883  1.00  0.00     0.064 H 
BRANCH  24  27
ATOM     27  C   UNL A   1      32.456  19.051  23.687  1.00  0.00    -0.023 C 
ATOM     28  H   UNL A   1      32.490  18.825  22.642  1.00  0.00     0.032 H 
ATOM     29  H   UNL A   1      31.628  18.639  24.226  1.00  0.00     0.032 H 
BRANCH  27  30
ATOM     30  C   UNL A   1      33.702  18.405  24.340  1.00  0.00    -0.011 C 
ATOM     31  C   UNL A   1      34.403  17.328  23.501  1.00  0.00    -0.048 C 
ATOM     32  C   UNL A   1      33.502  17.695  25.683  1.00  0.00     0.057 C 
ATOM     33  H   UNL A   1      34.276  19.302  24.450  1.00  0.00     0.033 H 
ATOM     34  C   UNL A   1      33.942  15.973  24.049  1.00  0.00    -0.050 C 
ATOM     35  H   UNL A   1      35.463  17.422  23.593  1.00  0.00     0.027 H 
ATOM     36  H   UNL A   1      34.155  17.427  22.465  1.00  0.00     0.027 H 
ATOM     37  C   UNL A   1      33.142  16.262  25.316  1.00  0.00    -0.027 C 
ATOM     38  H   UNL A   1      34.390  17.751  26.277  1.00  0.00     0.060 H 
ATOM     39  H   UNL A   1      34.790  15.361  24.279  1.00  0.00     0.027 H 
ATOM     40  H   UNL A   1      33.349  15.448  23.330  1.00  0.00     0.027 H 
ATOM     41  H   UNL A   1      33.422  15.590  26.101  1.00  0.00     0.029 H 
ATOM     42  H   UNL A   1      32.090  16.134  25.169  1.00  0.00     0.029 H 
BRANCH  32  43
ATOM     43  O   UNL A   1      32.528  18.297  26.509  1.00  0.00    -0.393 OA
ATOM     44  H   UNL A   1      32.966  18.765  27.237  1.00  0.00     0.210 HD
ENDBRANCH  32  43
ENDBRANCH  27  30
ENDBRANCH  24  27
ENDBRANCH  11  17
ENDBRANCH   8  11
ENDBRANCH   4   7
ENDBRANCH   1   4
BRANCH   1  45
ATOM     45  C   UNL A   1      36.375  22.271  24.744  1.00  0.00    -0.052 C 
ATOM     46  H   UNL A   1      37.359  22.606  24.488  1.00  0.00     0.027 H 
ATOM     47  H   UNL A   1      35.688  22.311  23.926  1.00  0.00     0.027 H 
BRANCH  45  48
ATOM     48  C   UNL A   1      36.467  20.799  25.158  1.00  0.00    -0.052 C 
ATOM     49  H   UNL A   1      35.682  20.265  24.663  1.00  0.00     0.027 H 
ATOM     50  H   UNL A   1      36.382  20.778  26.224  1.00  0.00     0.027 H 
BRANCH  48  51
ATOM     51  C   UNL A   1      37.794  20.120  24.817  1.00  0.00    -0.036 C 
ATOM     52  H   UNL A   1      38.069  20.401  23.821  1.00  0.00     0.028 H 
ATOM     53  H   UNL A   1      37.637  19.067  24.923  1.00  0.00     0.028 H 
BRANCH  51  54
ATOM     54  C   UNL A   1      38.943  20.487  25.750  1.00  0.00     0.018 C 
ATOM     55  H   UNL A   1      38.541  20.751  26.706  1.00  0.00     0.049 H 
ATOM     56  H   UNL A   1      39.476  21.306  25.314  1.00  0.00     0.049 H 
BRANCH  54  57
ATOM     57  N   UNL A   1      39.877  19.383  25.923  1.00  0.00    -0.352 N 
ATOM     58  C   UNL A   1      41.232  19.420  26.126  1.00  0.00     0.251 C 
ATOM     59  H   UNL A   1      39.479  18.484  25.887  1.00  0.00     0.163 HD
ATOM     60  O   UNL A   1      41.904  18.394  26.041  1.00  0.00    -0.269 OA
BRANCH  58  61
ATOM     61  C   UNL A   1      41.891  20.706  26.427  1.00  0.00     0.039 A 
ATOM     62  C   UNL A   1      42.222  21.562  25.374  1.00  0.00    -0.049 A 
ATOM     63  C   UNL A   1      42.168  21.072  27.748  1.00  0.00    -0.049 A 
ATOM     64  C   UNL A   1      42.767  22.818  25.650  1.00  0.00    -0.053 A 
ATOM     65  H   UNL A   1      42.066  21.268  24.398  1.00  0.00     0.063 H 
ATOM     66  C   UNL A   1      42.643  22.350  28.024  1.00  0.00    -0.053 A 
ATOM     67  H   UNL A   1      42.022  20.397  28.513  1.00  0.00     0.063 H 
ATOM     68  C   UNL A   1      42.942  23.238  26.979  1.00  0.00    -0.014 A 
ATOM     69  H   UNL A   1      43.043  23.440  24.874  1.00  0.00     0.063 H 
ATOM     70  H   UNL A   1      42.776  22.647  29.004  1.00  0.00     0.063 H 
BRANCH  68  71
ATOM     71  C   UNL A   1      43.410  24.610  27.300  1.00  0.00     0.031 A 
ATOM     72  C   UNL A   1      42.447  25.633  27.830  1.00  0.00     0.074 A 
ATOM     73  C   UNL A   1      44.685  24.956  27.031  1.00  0.00     0.049 A 
ATOM     74  N   UNL A   1      42.640  26.905  28.075  1.00  0.00    -0.248 NA
ATOM     75  C   UNL A   1      41.075  25.174  28.098  1.00  0.00    -0.034 C 
ATOM     76  C   UNL A   1      45.702  24.064  26.471  1.00  0.00    -0.036 A 
ATOM     77  N   UNL A   1      45.338  26.155  27.173  1.00  0.00    -0.354 N 
ATOM     78  C   UNL A   1      41.417  27.399  28.504  1.00  0.00     0.074 A 
ATOM     79  C   UNL A   1      40.474  26.303  28.447  1.00  0.00    -0.034 C 
ATOM     80  H   UNL A   1      40.682  24.222  28.031  1.00  0.00     0.065 H 
ATOM     81  C   UNL A   1      46.852  24.741  26.328  1.00  0.00    -0.036 A 
ATOM     82  H   UNL A   1      45.558  23.072  26.226  1.00  0.00     0.065 H 
ATOM     83  C   UNL A   1      46.643  26.127  26.740  1.00  0.00     0.049 A 
ATOM     84  H   UNL A   1      44.913  26.959  27.550  1.00  0.00     0.167 HD
ATOM     85  C   UNL A   1      41.113  28.649  28.925  1.00  0.00     0.037 A 
ATOM     86  H   UNL A   1      39.465  26.389  28.651  1.00  0.00     0.065 H 
ATOM     87  H   UNL A   1      47.741  24.348  25.984  1.00  0.00     0.065 H 
ATOM     88  C   UNL A   1      47.559  27.110  26.662  1.00  0.00     0.037 A 
ATOM     89  C   UNL A   1      42.064  29.728  29.007  1.00  0.00     0.049 A 
ATOM     90  C   UNL A   1      47.188  28.496  27.119  1.00  0.00     0.074 A 
ATOM     91  C   UNL A   1      41.874  31.006  29.501  1.00  0.00    -0.036 A 
ATOM     92  N   UNL A   1      43.379  29.657  28.573  1.00  0.00    -0.354 N 
ATOM     93  N   UNL A   1      46.051  28.929  27.608  1.00  0.00    -0.248 NA
ATOM     94  C   UNL A   1      48.227  29.530  27.015  1.00  0.00    -0.034 C 
ATOM     95  C   UNL A   1      43.055  31.729  29.307  1.00  0.00    -0.036 A 
ATOM     96  H   UNL A   1      41.011  31.364  29.938  1.00  0.00     0.065 H 
ATOM     97  C   UNL A   1      44.000  30.883  28.750  1.00  0.00     0.049 A 
ATOM     98  H   UNL A   1      43.808  28.855  28.196  1.00  0.00     0.167 HD
ATOM     99  C   UNL A   1      46.245  30.274  27.892  1.00  0.00     0.074 A 
ATOM    100  C   UNL A   1      47.615  30.582  27.540  1.00  0.00    -0.034 C 
ATOM    101  H   UNL A   1      49.183  29.457  26.632  1.00  0.00     0.065 H 
ATOM    102  H   UNL A   1      43.198  32.724  29.539  1.00  0.00     0.065 H 
ATOM    103  C   UNL A   1      45.367  31.173  28.399  1.00  0.00     0.037 A 
ATOM    104  H   UNL A   1      48.058  31.504  27.678  1.00  0.00     0.065 H 
BRANCH  85 105
ATOM    105  C   UNL A   1      39.693  28.932  29.326  1.00  0.00     0.064 A 
ATOM    106  C   UNL A   1      38.744  29.402  28.408  1.00  0.00     0.173 A 
ATOM    107  C   UNL A   1      39.264  28.667  30.636  1.00  0.00     0.173 A 
ATOM    108  F   UNL A   1      39.104  29.679  27.146  1.00  0.00    -0.203 F 
ATOM    109  C   UNL A   1      37.423  29.622  28.792  1.00  0.00     0.198 A 
ATOM    110  C   UNL A   1      37.936  28.858  31.008  1.00  0.00     0.198 A 
ATOM    111  F   UNL A   1      40.130  28.209  31.554  1.00  0.00    -0.203 F 
ATOM    112  F   UNL A   1      36.543  30.113  27.908  1.00  0.00    -0.200 F 
ATOM    113  C   UNL A   1      37.018  29.341  30.087  1.00  0.00     0.200 A 
ATOM    114  F   UNL A   1      37.544  28.570  32.257  1.00  0.00    -0.200 F 
ATOM    115  F   UNL A   1      35.744  29.538  30.451  1.00  0.00    -0.200 F 
ENDBRANCH  85 105
BRANCH  88 116
ATOM    116  C   UNL A   1      48.917  26.826  26.124  1.00  0.00     0.064 A 
ATOM    117  C   UNL A   1      49.211  27.015  24.766  1.00  0.00     0.173 A 
ATOM    118  C   UNL A   1      49.942  26.341  26.950  1.00  0.00     0.173 A 
ATOM    119  F   UNL A   1      48.259  27.457  23.931  1.00  0.00    -0.203 F 
ATOM    120  C   UNL A   1      50.467  26.703  24.251  1.00  0.00     0.198 A 
ATOM    121  C   UNL A   1      51.208  26.061  26.440  1.00  0.00     0.198 A 
ATOM    122  F   UNL A   1      49.716  26.146  28.258  1.00  0.00    -0.203 F 
ATOM    123  F   UNL A   1      50.702  26.838  22.938  1.00  0.00    -0.200 F 
ATOM    124  C   UNL A   1      51.466  26.231  25.089  1.00  0.00     0.200 A 
ATOM    125  F   UNL A   1      52.174  25.621  27.257  1.00  0.00    -0.200 F 
ATOM    126  F   UNL A   1      52.674  25.931  24.592  1.00  0.00    -0.200 F 
ENDBRANCH  88 116
BRANCH 103 127
ATOM    127  C   UNL A   1      45.863  32.572  28.627  1.00  0.00     0.064 A 
ATOM    128  C   UNL A   1      46.508  32.940  29.817  1.00  0.00     0.173 A 
ATOM    129  C   UNL A   1      45.742  33.541  27.619  1.00  0.00     0.173 A 
ATOM    130  F   UNL A   1      46.634  32.056  30.817  1.00  0.00    -0.203 F 
ATOM    131  C   UNL A   1      46.995  34.232  29.997  1.00  0.00     0.198 A 
ATOM    132  C   UNL A   1      46.260  34.821  27.789  1.00  0.00     0.198 A 
ATOM    133  F   UNL A   1      45.140  33.239  26.459  1.00  0.00    -0.203 F 
ATOM    134  F   UNL A   1      47.570  34.574  31.158  1.00  0.00    -0.200 F 
ATOM    135  C   UNL A   1      46.881  35.168  28.979  1.00  0.00     0.200 A 
ATOM    136  F   UNL A   1      46.163  35.719  26.798  1.00  0.00    -0.200 F 
ATOM    137  F   UNL A   1      47.366  36.406  29.148  1.00  0.00    -0.200 F 
ENDBRANCH 103 127
ENDBRANCH  68  71
ENDBRANCH  58  61
ENDBRANCH  54  57
ENDBRANCH  51  54
ENDBRANCH  48  51
ENDBRANCH  45  48
ENDBRANCH   1  45
TORSDOF 18
ENDMDL
MODEL 10
REMARK VINA RESULT:     -11.5      4.255      9.745
REMARK SMILES C[C@@H](C(=O)NCCCCCCNC(=O)c1ccc(-c2c3nc(c(-c4c(F)c(F)c(F)c(F)c4F)c4ccc([nH]4)c(-c4c(F)c(F)c(F)c(F)c4F)c4nc(c(-c5c(F)c(F)c(F)c(F)c5F)c5ccc2[nH]5)C=C4)C=C3)cc1)c1ccc(C[C@@H]2CCC[C@@H]2O)cc1Br
REMARK SMILES IDX 7 1 6 4 5 7 3 8 4 9 2 11 1 13 78 17 79 18 90 19 80 20 89 22
REMARK SMILES IDX 91 23 81 24 82 27 83 30 84 31 87 32 85 34 86 37 88 43 8 45
REMARK SMILES IDX 9 48 10 51 11 54 12 57 13 58 14 60 15 61 16 62 77 63 17 64
REMARK SMILES IDX 76 66 18 68 19 71 20 72 70 73 21 74 75 75 69 76 71 77 22 78
REMARK SMILES IDX 74 79 68 81 67 83 23 85 55 88 35 89 54 90 36 91 39 92 53 93
REMARK SMILES IDX 72 94 37 95 38 97 52 99 73 100 40 103 24 105 25 106 33 107
REMARK SMILES IDX 26 108 27 109 31 110 34 111 28 112 29 113 32 114 30 115
REMARK SMILES IDX 56 116 57 117 65 118 58 119 59 120 63 121 66 122 60 123
REMARK SMILES IDX 61 124 64 125 62 126 41 127 42 128 50 129 43 130 44 131
REMARK SMILES IDX 48 132 51 133 45 134 46 135 49 136 47 137
REMARK H PARENT 7 2 7 3 6 5 6 6 5 10 2 12 1 14 1 15 1 16 79 21 80 25 89 26
REMARK H PARENT 82 28 82 29 83 33 84 35 84 36 87 38 85 39 85 40 86 41 86 42
REMARK H PARENT 88 44 8 46 8 47 9 49 9 50 10 52 10 53 11 55 11 56 12 59 16 65
REMARK H PARENT 77 67 17 69 76 70 75 80 69 82 71 84 74 86 68 87 36 96 39 98
REMARK H PARENT 72 101 37 102 73 104
REMARK Flexibility Score: inf
ROOT
ATOM      1  C   UNL A   1      34.764  25.866  25.766  1.00  0.00    -0.036 C 
ATOM      2  H   UNL A   1      34.735  25.870  26.836  1.00  0.00     0.028 H 
ATOM      3  H   UNL A   1      35.656  26.313  25.379  1.00  0.00     0.028 H 
ENDROOT
BRANCH   1   4
ATOM      4  C   UNL A   1      33.587  26.697  25.248  1.00  0.00     0.017 C 
ATOM      5  H   UNL A   1      33.853  27.734  25.262  1.00  0.00     0.049 H 
ATOM      6  H   UNL A   1      33.357  26.394  24.248  1.00  0.00     0.049 H 
BRANCH   4   7
ATOM      7  N   UNL A   1      32.427  26.489  26.085  1.00  0.00    -0.356 N 
ATOM      8  C   UNL A   1      31.135  26.232  25.736  1.00  0.00     0.227 C 
ATOM      9  O   UNL A   1      30.295  26.312  26.635  1.00  0.00    -0.274 OA
ATOM     10  H   UNL A   1      32.596  26.542  27.052  1.00  0.00     0.163 HD
BRANCH   8  11
ATOM     11  C   UNL A   1      30.788  25.839  24.287  1.00  0.00     0.061 C 
ATOM     12  H   UNL A   1      31.265  26.542  23.636  1.00  0.00     0.045 H 
BRANCH  11  13
ATOM     13  C   UNL A   1      29.282  25.939  24.004  1.00  0.00    -0.049 C 
ATOM     14  H   UNL A   1      28.796  25.046  24.339  1.00  0.00     0.024 H 
ATOM     15  H   UNL A   1      29.124  26.057  22.953  1.00  0.00     0.024 H 
ATOM     16  H   UNL A   1      28.875  26.782  24.523  1.00  0.00     0.024 H 
ENDBRANCH  11  13
BRANCH  11  17
ATOM     17  C   UNL A   1      31.328  24.443  23.972  1.00  0.00    -0.022 A 
ATOM     18  C   UNL A   1      31.088  23.395  24.880  1.00  0.00    -0.057 A 
ATOM     19  C   UNL A   1      32.145  24.168  22.862  1.00  0.00     0.022 A 
ATOM     20  C   UNL A   1      31.628  22.125  24.689  1.00  0.00    -0.059 A 
ATOM     21  H   UNL A   1      30.497  23.571  25.707  1.00  0.00     0.063 H 
ATOM     22  C   UNL A   1      32.711  22.897  22.690  1.00  0.00    -0.044 A 
ATOM     23  Br  UNL A   1      32.571  25.476  21.548  1.00  0.00    -0.051 Br
ATOM     24  C   UNL A   1      32.482  21.871  23.618  1.00  0.00    -0.047 A 
ATOM     25  H   UNL A   1      31.394  21.365  25.348  1.00  0.00     0.063 H 
ATOM     26  H   UNL A   1      33.307  22.713  21.867  1.00  0.00     0.064 H 
BRANCH  24  27
ATOM     27  C   UNL A   1      33.179  20.541  23.486  1.00  0.00    -0.023 C 
ATOM     28  H   UNL A   1      34.099  20.608  24.027  1.00  0.00     0.032 H 
ATOM     29  H   UNL A   1      33.269  20.393  22.430  1.00  0.00     0.032 H 
BRANCH  27  30
ATOM     30  C   UNL A   1      32.438  19.278  23.990  1.00  0.00    -0.011 C 
ATOM     31  C   UNL A   1      33.061  18.592  25.213  1.00  0.00    -0.048 C 
ATOM     32  C   UNL A   1      32.285  18.115  23.005  1.00  0.00     0.057 C 
ATOM     33  H   UNL A   1      31.498  19.747  24.195  1.00  0.00     0.033 H 
ATOM     34  C   UNL A   1      33.859  17.393  24.688  1.00  0.00    -0.050 C 
ATOM     35  H   UNL A   1      32.295  18.261  25.880  1.00  0.00     0.027 H 
ATOM     36  H   UNL A   1      33.694  19.267  25.751  1.00  0.00     0.027 H 
ATOM     37  C   UNL A   1      33.536  17.271  23.201  1.00  0.00    -0.027 C 
ATOM     38  H   UNL A   1      31.389  17.565  23.205  1.00  0.00     0.060 H 
ATOM     39  H   UNL A   1      33.566  16.502  25.203  1.00  0.00     0.027 H 
ATOM     40  H   UNL A   1      34.908  17.529  24.844  1.00  0.00     0.027 H 
ATOM     41  H   UNL A   1      33.348  16.250  22.938  1.00  0.00     0.029 H 
ATOM     42  H   UNL A   1      34.346  17.598  22.583  1.00  0.00     0.029 H 
BRANCH  32  43
ATOM     43  O   UNL A   1      32.116  18.519  21.663  1.00  0.00    -0.393 OA
ATOM     44  H   UNL A   1      32.955  18.418  21.187  1.00  0.00     0.210 HD
ENDBRANCH  32  43
ENDBRANCH  27  30
ENDBRANCH  24  27
ENDBRANCH  11  17
ENDBRANCH   8  11
ENDBRANCH   4   7
ENDBRANCH   1   4
BRANCH   1  45
ATOM     45  C   UNL A   1      34.749  24.407  25.286  1.00  0.00    -0.052 C 
ATOM     46  H   UNL A   1      35.640  24.235  24.719  1.00  0.00     0.027 H 
ATOM     47  H   UNL A   1      33.853  24.289  24.714  1.00  0.00     0.027 H 
BRANCH  45  48
ATOM     48  C   UNL A   1      34.687  23.361  26.404  1.00  0.00    -0.052 C 
ATOM     49  H   UNL A   1      33.657  23.150  26.605  1.00  0.00     0.027 H 
ATOM     50  H   UNL A   1      35.201  23.782  27.242  1.00  0.00     0.027 H 
BRANCH  48  51
ATOM     51  C   UNL A   1      35.391  22.041  26.084  1.00  0.00    -0.036 C 
ATOM     52  H   UNL A   1      34.720  21.433  25.513  1.00  0.00     0.028 H 
ATOM     53  H   UNL A   1      35.656  21.600  27.022  1.00  0.00     0.028 H 
BRANCH  51  54
ATOM     54  C   UNL A   1      36.685  22.197  25.292  1.00  0.00     0.018 C 
ATOM     55  H   UNL A   1      37.164  23.107  25.589  1.00  0.00     0.049 H 
ATOM     56  H   UNL A   1      36.437  22.211  24.251  1.00  0.00     0.049 H 
BRANCH  54  57
ATOM     57  N   UNL A   1      37.600  21.088  25.522  1.00  0.00    -0.352 N 
ATOM     58  C   UNL A   1      38.899  21.114  25.959  1.00  0.00     0.251 C 
ATOM     59  H   UNL A   1      37.234  20.193  25.337  1.00  0.00     0.163 HD
ATOM     60  O   UNL A   1      39.598  20.105  25.898  1.00  0.00    -0.269 OA
BRANCH  58  61
ATOM     61  C   UNL A   1      39.468  22.371  26.486  1.00  0.00     0.039 A 
ATOM     62  C   UNL A   1      40.477  22.307  27.449  1.00  0.00    -0.049 A 
ATOM     63  C   UNL A   1      39.014  23.608  26.018  1.00  0.00    -0.049 A 
ATOM     64  C   UNL A   1      41.083  23.484  27.893  1.00  0.00    -0.053 A 
ATOM     65  H   UNL A   1      40.773  21.396  27.831  1.00  0.00     0.063 H 
ATOM     66  C   UNL A   1      39.668  24.773  26.407  1.00  0.00    -0.053 A 
ATOM     67  H   UNL A   1      38.199  23.657  25.389  1.00  0.00     0.063 H 
ATOM     68  C   UNL A   1      40.712  24.724  27.344  1.00  0.00    -0.014 A 
ATOM     69  H   UNL A   1      41.806  23.444  28.627  1.00  0.00     0.063 H 
ATOM     70  H   UNL A   1      39.382  25.680  26.004  1.00  0.00     0.063 H 
BRANCH  68  71
ATOM     71  C   UNL A   1      41.420  25.975  27.714  1.00  0.00     0.031 A 
ATOM     72  C   UNL A   1      40.689  27.072  28.433  1.00  0.00     0.074 A 
ATOM     73  C   UNL A   1      42.698  26.154  27.325  1.00  0.00     0.049 A 
ATOM     74  N   UNL A   1      41.104  28.273  28.753  1.00  0.00    -0.248 NA
ATOM     75  C   UNL A   1      39.298  26.797  28.824  1.00  0.00    -0.034 C 
ATOM     76  C   UNL A   1      43.498  25.180  26.581  1.00  0.00    -0.036 A 
ATOM     77  N   UNL A   1      43.542  27.225  27.483  1.00  0.00    -0.354 N 
ATOM     78  C   UNL A   1      40.025  28.897  29.361  1.00  0.00     0.074 A 
ATOM     79  C   UNL A   1      38.921  27.963  29.329  1.00  0.00    -0.034 C 
ATOM     80  H   UNL A   1      38.756  25.923  28.729  1.00  0.00     0.065 H 
ATOM     81  C   UNL A   1      44.719  25.692  26.356  1.00  0.00    -0.036 A 
ATOM     82  H   UNL A   1      43.176  24.248  26.277  1.00  0.00     0.065 H 
ATOM     83  C   UNL A   1      44.773  27.047  26.898  1.00  0.00     0.049 A 
ATOM     84  H   UNL A   1      43.290  28.043  27.969  1.00  0.00     0.167 HD
ATOM     85  C   UNL A   1      39.966  30.133  29.911  1.00  0.00     0.037 A 
ATOM     86  H   UNL A   1      37.965  28.176  29.657  1.00  0.00     0.065 H 
ATOM     87  H   UNL A   1      45.494  25.206  25.880  1.00  0.00     0.065 H 
ATOM     88  C   UNL A   1      45.819  27.888  26.790  1.00  0.00     0.037 A 
ATOM     89  C   UNL A   1      41.077  31.047  29.965  1.00  0.00     0.049 A 
ATOM     90  C   UNL A   1      45.720  29.263  27.395  1.00  0.00     0.074 A 
ATOM     91  C   UNL A   1      41.143  32.287  30.578  1.00  0.00    -0.036 A 
ATOM     92  N   UNL A   1      42.313  30.827  29.375  1.00  0.00    -0.354 N 
ATOM     93  N   UNL A   1      44.722  29.809  28.047  1.00  0.00    -0.248 NA
ATOM     94  C   UNL A   1      46.891  30.139  27.251  1.00  0.00    -0.034 C 
ATOM     95  C   UNL A   1      42.396  32.844  30.303  1.00  0.00    -0.036 A 
ATOM     96  H   UNL A   1      40.397  32.724  31.140  1.00  0.00     0.065 H 
ATOM     97  C   UNL A   1      43.133  31.925  29.574  1.00  0.00     0.049 A 
ATOM     98  H   UNL A   1      42.569  30.010  28.888  1.00  0.00     0.167 HD
ATOM     99  C   UNL A   1      45.153  31.078  28.412  1.00  0.00     0.074 A 
ATOM    100  C   UNL A   1      46.510  31.214  27.925  1.00  0.00    -0.034 C 
ATOM    101  H   UNL A   1      47.778  29.963  26.754  1.00  0.00     0.065 H 
ATOM    102  H   UNL A   1      42.717  33.780  30.594  1.00  0.00     0.065 H 
ATOM    103  C   UNL A   1      44.484  32.044  29.088  1.00  0.00     0.037 A 
ATOM    104  H   UNL A   1      47.104  32.043  28.083  1.00  0.00     0.065 H 
BRANCH  85 105
ATOM    105  C   UNL A   1      38.658  30.581  30.498  1.00  0.00     0.064 A 
ATOM    106  C   UNL A   1      38.418  30.550  31.879  1.00  0.00     0.173 A 
ATOM    107  C   UNL A   1      37.655  31.107  29.669  1.00  0.00     0.173 A 
ATOM    108  F   UNL A   1      39.340  30.050  32.715  1.00  0.00    -0.203 F 
ATOM    109  C   UNL A   1      37.212  31.006  32.407  1.00  0.00     0.198 A 
ATOM    110  C   UNL A   1      36.463  31.590  30.203  1.00  0.00     0.198 A 
ATOM    111  F   UNL A   1      37.835  31.166  28.341  1.00  0.00    -0.203 F 
ATOM    112  F   UNL A   1      36.988  30.927  33.726  1.00  0.00    -0.200 F 
ATOM    113  C   UNL A   1      36.240  31.534  31.571  1.00  0.00     0.200 A 
ATOM    114  F   UNL A   1      35.533  32.116  29.394  1.00  0.00    -0.200 F 
ATOM    115  F   UNL A   1      35.087  31.985  32.081  1.00  0.00    -0.200 F 
ENDBRANCH  85 105
BRANCH  88 116
ATOM    116  C   UNL A   1      47.052  27.460  26.074  1.00  0.00     0.064 A 
ATOM    117  C   UNL A   1      48.126  26.882  26.765  1.00  0.00     0.173 A 
ATOM    118  C   UNL A   1      47.190  27.640  24.690  1.00  0.00     0.173 A 
ATOM    119  F   UNL A   1      48.051  26.707  28.093  1.00  0.00    -0.203 F 
ATOM    120  C   UNL A   1      49.299  26.526  26.105  1.00  0.00     0.198 A 
ATOM    121  C   UNL A   1      48.352  27.254  24.025  1.00  0.00     0.198 A 
ATOM    122  F   UNL A   1      46.191  28.186  23.979  1.00  0.00    -0.203 F 
ATOM    123  F   UNL A   1      50.332  26.028  26.799  1.00  0.00    -0.200 F 
ATOM    124  C   UNL A   1      49.410  26.708  24.734  1.00  0.00     0.200 A 
ATOM    125  F   UNL A   1      48.447  27.416  22.698  1.00  0.00    -0.200 F 
ATOM    126  F   UNL A   1      50.539  26.366  24.099  1.00  0.00    -0.200 F 
ENDBRANCH  88 116
BRANCH 103 127
ATOM    127  C   UNL A   1      45.214  33.326  29.365  1.00  0.00     0.064 A 
ATOM    128  C   UNL A   1      46.017  33.486  30.505  1.00  0.00     0.173 A 
ATOM    129  C   UNL A   1      45.157  34.388  28.449  1.00  0.00     0.173 A 
ATOM    130  F   UNL A   1      46.092  32.507  31.419  1.00  0.00    -0.203 F 
ATOM    131  C   UNL A   1      46.717  34.669  30.727  1.00  0.00     0.198 A 
ATOM    132  C   UNL A   1      45.885  35.556  28.658  1.00  0.00     0.198 A 
ATOM    133  F   UNL A   1      44.410  34.285  27.340  1.00  0.00    -0.203 F 
ATOM    134  F   UNL A   1      47.442  34.815  31.845  1.00  0.00    -0.200 F 
ATOM    135  C   UNL A   1      46.659  35.697  29.799  1.00  0.00     0.200 A 
ATOM    136  F   UNL A   1      45.841  36.542  27.751  1.00  0.00    -0.200 F 
ATOM    137  F   UNL A   1      47.347  36.828  30.007  1.00  0.00    -0.200 F 
ENDBRANCH 103 127
ENDBRANCH  68  71
ENDBRANCH  58  61
ENDBRANCH  54  57
ENDBRANCH  51  54
ENDBRANCH  48  51
ENDBRANCH  45  48
ENDBRANCH   1  45
TORSDOF 18
ENDMDL
