MODEL 1
REMARK VINA RESULT:     -12.1      0.000      0.000
REMARK SMILES C=Cc1cncc(-c2ccc([C@@H](C)C(=O)NCCCCCCNC(=O)c3ccc(-c4c5nc(c(-c6c(F)c(F)c(F)c(F)c6F)c6ccc([nH]6)c(-c6c(F)c(F)c(F)c(F)c6F)c6nc(c(-c7c(F)c(F)c(F)c(F)c7F)c7ccc4[nH]7)C=C6)C=C5)cc3)cc2)c1
REMARK SMILES IDX 19 1 18 4 17 7 16 10 14 11 15 12 12 14 11 16 8 17 9 18 90 19
REMARK SMILES IDX 10 20 89 22 7 26 3 27 4 28 91 29 5 30 6 33 2 35 1 36 13 40
REMARK SMILES IDX 20 44 21 47 22 50 23 53 24 54 25 56 26 57 27 58 88 59 28 60
REMARK SMILES IDX 87 62 29 64 30 67 31 68 81 69 32 70 86 71 80 72 82 73 33 74
REMARK SMILES IDX 85 75 79 77 78 79 34 81 66 84 46 85 65 86 47 87 50 88 64 89
REMARK SMILES IDX 83 90 48 91 49 93 63 95 84 96 51 99 35 101 36 102 44 103
REMARK SMILES IDX 37 104 38 105 42 106 45 107 39 108 40 109 43 110 41 111
REMARK SMILES IDX 67 112 68 113 76 114 69 115 70 116 74 117 77 118 71 119
REMARK SMILES IDX 72 120 75 121 73 122 52 123 53 124 61 125 54 126 55 127
REMARK SMILES IDX 59 128 62 129 56 130 57 131 60 132 58 133
REMARK H PARENT 19 2 19 3 18 5 18 6 17 8 17 9 16 13 12 15 9 21 90 23 10 24
REMARK H PARENT 89 25 4 31 91 32 6 34 1 37 1 38 2 39 13 41 13 42 13 43 20 45
REMARK H PARENT 20 46 21 48 21 49 22 51 22 52 23 55 27 61 88 63 28 65 87 66
REMARK H PARENT 86 76 80 78 82 80 85 82 79 83 47 92 50 94 83 97 48 98 84 100
REMARK Flexibility Score: inf
ROOT
ATOM      1  C   UNL A   1      32.083  26.522  26.655  1.00  0.00    -0.052 C 
ATOM      2  H   UNL A   1      31.975  25.846  27.478  1.00  0.00     0.027 H 
ATOM      3  H   UNL A   1      31.376  26.355  25.870  1.00  0.00     0.027 H 
ENDROOT
BRANCH   1   4
ATOM      4  C   UNL A   1      33.467  26.299  26.038  1.00  0.00    -0.036 C 
ATOM      5  H   UNL A   1      33.469  26.718  25.052  1.00  0.00     0.028 H 
ATOM      6  H   UNL A   1      34.177  26.771  26.685  1.00  0.00     0.028 H 
BRANCH   4   7
ATOM      7  C   UNL A   1      33.870  24.826  25.936  1.00  0.00     0.017 C 
ATOM      8  H   UNL A   1      34.487  24.576  26.774  1.00  0.00     0.049 H 
ATOM      9  H   UNL A   1      32.978  24.236  25.928  1.00  0.00     0.049 H 
BRANCH   7  10
ATOM     10  N   UNL A   1      34.603  24.554  24.718  1.00  0.00    -0.356 N 
ATOM     11  C   UNL A   1      34.216  24.017  23.529  1.00  0.00     0.227 C 
ATOM     12  O   UNL A   1      35.113  23.813  22.702  1.00  0.00    -0.274 OA
ATOM     13  H   UNL A   1      35.555  24.801  24.758  1.00  0.00     0.163 HD
BRANCH  11  14
ATOM     14  C   UNL A   1      32.759  23.686  23.174  1.00  0.00     0.060 C 
ATOM     15  H   UNL A   1      32.388  23.119  24.003  1.00  0.00     0.045 H 
BRANCH  14  16
ATOM     16  C   UNL A   1      31.839  24.899  23.152  1.00  0.00    -0.036 A 
ATOM     17  C   UNL A   1      30.086  27.160  23.228  1.00  0.00    -0.017 A 
ATOM     18  C   UNL A   1      31.319  27.202  22.559  1.00  0.00    -0.054 A 
ATOM     19  C   UNL A   1      29.743  25.949  23.849  1.00  0.00    -0.054 A 
ATOM     20  C   UNL A   1      32.162  26.087  22.495  1.00  0.00    -0.058 A 
ATOM     21  H   UNL A   1      31.613  28.080  22.103  1.00  0.00     0.063 H 
ATOM     22  C   UNL A   1      30.611  24.846  23.827  1.00  0.00    -0.058 A 
ATOM     23  H   UNL A   1      28.835  25.869  24.333  1.00  0.00     0.063 H 
ATOM     24  H   UNL A   1      33.037  26.144  21.951  1.00  0.00     0.063 H 
ATOM     25  H   UNL A   1      30.339  23.979  24.317  1.00  0.00     0.063 H 
BRANCH  17  26
ATOM     26  C   UNL A   1      29.197  28.341  23.256  1.00  0.00     0.001 A 
ATOM     27  C   UNL A   1      28.805  30.749  23.403  1.00  0.00    -0.007 A 
ATOM     28  C   UNL A   1      27.445  30.481  23.276  1.00  0.00     0.034 A 
ATOM     29  C   UNL A   1      29.680  29.654  23.395  1.00  0.00    -0.044 A 
ATOM     30  N   UNL A   1      26.925  29.243  23.138  1.00  0.00    -0.263 NA
ATOM     31  H   UNL A   1      26.793  31.279  23.288  1.00  0.00     0.085 H 
ATOM     32  H   UNL A   1      30.694  29.814  23.493  1.00  0.00     0.064 H 
ATOM     33  C   UNL A   1      27.808  28.217  23.140  1.00  0.00     0.035 A 
ATOM     34  H   UNL A   1      27.426  27.262  23.048  1.00  0.00     0.085 H 
BRANCH  27  35
ATOM     35  C   UNL A   1      29.255  32.130  23.599  1.00  0.00    -0.061 C 
ATOM     36  C   UNL A   1      28.824  33.171  22.875  1.00  0.00    -0.098 C 
ATOM     37  H   UNL A   1      29.185  34.118  23.068  1.00  0.00     0.054 H 
ATOM     38  H   UNL A   1      28.131  33.025  22.126  1.00  0.00     0.054 H 
ATOM     39  H   UNL A   1      29.949  32.312  24.341  1.00  0.00     0.062 H 
ENDBRANCH  27  35
ENDBRANCH  17  26
ENDBRANCH  14  16
BRANCH  14  40
ATOM     40  C   UNL A   1      32.608  22.713  22.004  1.00  0.00    -0.049 C 
ATOM     41  H   UNL A   1      31.711  22.142  22.130  1.00  0.00     0.024 H 
ATOM     42  H   UNL A   1      33.450  22.053  21.977  1.00  0.00     0.024 H 
ATOM     43  H   UNL A   1      32.555  23.262  21.088  1.00  0.00     0.024 H 
ENDBRANCH  14  40
ENDBRANCH  11  14
ENDBRANCH   7  10
ENDBRANCH   4   7
ENDBRANCH   1   4
BRANCH   1  44
ATOM     44  C   UNL A   1      31.822  27.945  27.170  1.00  0.00    -0.052 C 
ATOM     45  H   UNL A   1      32.646  28.227  27.791  1.00  0.00     0.027 H 
ATOM     46  H   UNL A   1      30.886  27.901  27.688  1.00  0.00     0.027 H 
BRANCH  44  47
ATOM     47  C   UNL A   1      31.654  29.018  26.090  1.00  0.00    -0.036 C 
ATOM     48  H   UNL A   1      30.824  29.637  26.361  1.00  0.00     0.028 H 
ATOM     49  H   UNL A   1      31.507  28.496  25.167  1.00  0.00     0.028 H 
BRANCH  47  50
ATOM     50  C   UNL A   1      32.871  29.918  25.886  1.00  0.00     0.018 C 
ATOM     51  H   UNL A   1      33.124  29.927  24.846  1.00  0.00     0.049 H 
ATOM     52  H   UNL A   1      33.675  29.526  26.475  1.00  0.00     0.049 H 
BRANCH  50  53
ATOM     53  N   UNL A   1      32.618  31.284  26.321  1.00  0.00    -0.352 N 
ATOM     54  C   UNL A   1      33.262  32.041  27.268  1.00  0.00     0.251 C 
ATOM     55  H   UNL A   1      31.870  31.733  25.865  1.00  0.00     0.163 HD
ATOM     56  O   UNL A   1      32.762  33.090  27.662  1.00  0.00    -0.269 OA
BRANCH  54  57
ATOM     57  C   UNL A   1      34.550  31.587  27.831  1.00  0.00     0.039 A 
ATOM     58  C   UNL A   1      35.593  32.507  27.965  1.00  0.00    -0.049 A 
ATOM     59  C   UNL A   1      34.735  30.255  28.212  1.00  0.00    -0.049 A 
ATOM     60  C   UNL A   1      36.794  32.113  28.559  1.00  0.00    -0.053 A 
ATOM     61  H   UNL A   1      35.476  33.475  27.625  1.00  0.00     0.063 H 
ATOM     62  C   UNL A   1      35.910  29.877  28.859  1.00  0.00    -0.053 A 
ATOM     63  H   UNL A   1      34.004  29.554  28.017  1.00  0.00     0.063 H 
ATOM     64  C   UNL A   1      36.944  30.806  29.053  1.00  0.00    -0.014 A 
ATOM     65  H   UNL A   1      37.574  32.784  28.635  1.00  0.00     0.063 H 
ATOM     66  H   UNL A   1      36.021  28.908  29.197  1.00  0.00     0.063 H 
BRANCH  64  67
ATOM     67  C   UNL A   1      38.146  30.412  29.828  1.00  0.00     0.031 A 
ATOM     68  C   UNL A   1      39.131  29.428  29.266  1.00  0.00     0.074 A 
ATOM     69  C   UNL A   1      38.299  30.882  31.081  1.00  0.00     0.049 A 
ATOM     70  N   UNL A   1      40.187  28.900  29.834  1.00  0.00    -0.248 NA
ATOM     71  C   UNL A   1      38.886  28.957  27.895  1.00  0.00    -0.034 C 
ATOM     72  C   UNL A   1      37.385  31.807  31.752  1.00  0.00    -0.036 A 
ATOM     73  N   UNL A   1      39.268  30.633  32.021  1.00  0.00    -0.354 N 
ATOM     74  C   UNL A   1      40.726  28.032  28.894  1.00  0.00     0.074 A 
ATOM     75  C   UNL A   1      39.858  28.069  27.736  1.00  0.00    -0.034 C 
ATOM     76  H   UNL A   1      38.151  29.243  27.229  1.00  0.00     0.065 H 
ATOM     77  C   UNL A   1      37.841  32.057  32.989  1.00  0.00    -0.036 A 
ATOM     78  H   UNL A   1      36.527  32.204  31.340  1.00  0.00     0.065 H 
ATOM     79  C   UNL A   1      39.055  31.280  33.213  1.00  0.00     0.049 A 
ATOM     80  H   UNL A   1      40.043  30.047  31.855  1.00  0.00     0.167 HD
ATOM     81  C   UNL A   1      41.854  27.286  28.986  1.00  0.00     0.037 A 
ATOM     82  H   UNL A   1      39.979  27.481  26.898  1.00  0.00     0.065 H 
ATOM     83  H   UNL A   1      37.406  32.697  33.671  1.00  0.00     0.065 H 
ATOM     84  C   UNL A   1      39.750  31.236  34.366  1.00  0.00     0.037 A 
ATOM     85  C   UNL A   1      42.721  27.264  30.135  1.00  0.00     0.049 A 
ATOM     86  C   UNL A   1      40.983  30.378  34.449  1.00  0.00     0.074 A 
ATOM     87  C   UNL A   1      43.924  26.597  30.296  1.00  0.00    -0.036 A 
ATOM     88  N   UNL A   1      42.474  27.931  31.325  1.00  0.00    -0.354 N 
ATOM     89  N   UNL A   1      41.525  29.620  33.528  1.00  0.00    -0.248 NA
ATOM     90  C   UNL A   1      41.699  30.370  35.732  1.00  0.00    -0.034 C 
ATOM     91  C   UNL A   1      44.378  26.819  31.600  1.00  0.00    -0.036 A 
ATOM     92  H   UNL A   1      44.404  26.033  29.577  1.00  0.00     0.065 H 
ATOM     93  C   UNL A   1      43.484  27.664  32.237  1.00  0.00     0.049 A 
ATOM     94  H   UNL A   1      41.696  28.509  31.498  1.00  0.00     0.167 HD
ATOM     95  C   UNL A   1      42.652  29.058  34.112  1.00  0.00     0.074 A 
ATOM     96  C   UNL A   1      42.728  29.581  35.461  1.00  0.00    -0.034 C 
ATOM     97  H   UNL A   1      41.462  30.852  36.614  1.00  0.00     0.065 H 
ATOM     98  H   UNL A   1      45.233  26.420  32.017  1.00  0.00     0.065 H 
ATOM     99  C   UNL A   1      43.542  28.185  33.579  1.00  0.00     0.037 A 
ATOM    100  H   UNL A   1      43.488  29.367  36.125  1.00  0.00     0.065 H 
BRANCH  81 101
ATOM    101  C   UNL A   1      42.219  26.429  27.809  1.00  0.00     0.064 A 
ATOM    102  C   UNL A   1      43.134  26.865  26.838  1.00  0.00     0.173 A 
ATOM    103  C   UNL A   1      41.690  25.135  27.678  1.00  0.00     0.173 A 
ATOM    104  F   UNL A   1      43.663  28.095  26.914  1.00  0.00    -0.203 F 
ATOM    105  C   UNL A   1      43.486  26.047  25.767  1.00  0.00     0.198 A 
ATOM    106  C   UNL A   1      42.065  24.311  26.620  1.00  0.00     0.198 A 
ATOM    107  F   UNL A   1      40.817  24.667  28.582  1.00  0.00    -0.203 F 
ATOM    108  F   UNL A   1      44.330  26.501  24.830  1.00  0.00    -0.200 F 
ATOM    109  C   UNL A   1      42.957  24.769  25.663  1.00  0.00     0.200 A 
ATOM    110  F   UNL A   1      41.565  23.071  26.529  1.00  0.00    -0.200 F 
ATOM    111  F   UNL A   1      43.305  23.980  24.637  1.00  0.00    -0.200 F 
ENDBRANCH  81 101
BRANCH  84 112
ATOM    112  C   UNL A   1      39.298  32.035  35.535  1.00  0.00     0.064 A 
ATOM    113  C   UNL A   1      39.714  33.363  35.703  1.00  0.00     0.173 A 
ATOM    114  C   UNL A   1      38.444  31.491  36.505  1.00  0.00     0.173 A 
ATOM    115  F   UNL A   1      40.548  33.920  34.813  1.00  0.00    -0.203 F 
ATOM    116  C   UNL A   1      39.308  34.110  36.806  1.00  0.00     0.198 A 
ATOM    117  C   UNL A   1      38.015  32.247  37.592  1.00  0.00     0.198 A 
ATOM    118  F   UNL A   1      38.013  30.226  36.387  1.00  0.00    -0.203 F 
ATOM    119  F   UNL A   1      39.756  35.363  36.966  1.00  0.00    -0.200 F 
ATOM    120  C   UNL A   1      38.454  33.554  37.747  1.00  0.00     0.200 A 
ATOM    121  F   UNL A   1      37.177  31.712  38.491  1.00  0.00    -0.200 F 
ATOM    122  F   UNL A   1      38.059  34.275  38.805  1.00  0.00    -0.200 F 
ENDBRANCH  84 112
BRANCH  99 123
ATOM    123  C   UNL A   1      44.678  27.748  34.456  1.00  0.00     0.064 A 
ATOM    124  C   UNL A   1      44.595  26.588  35.240  1.00  0.00     0.173 A 
ATOM    125  C   UNL A   1      45.876  28.477  34.487  1.00  0.00     0.173 A 
ATOM    126  F   UNL A   1      43.464  25.866  35.259  1.00  0.00    -0.203 F 
ATOM    127  C   UNL A   1      45.661  26.188  36.041  1.00  0.00     0.198 A 
ATOM    128  C   UNL A   1      46.951  28.057  35.266  1.00  0.00     0.198 A 
ATOM    129  F   UNL A   1      46.009  29.592  33.753  1.00  0.00    -0.203 F 
ATOM    130  F   UNL A   1      45.540  25.103  36.819  1.00  0.00    -0.200 F 
ATOM    131  C   UNL A   1      46.840  26.917  36.048  1.00  0.00     0.200 A 
ATOM    132  F   UNL A   1      48.094  28.758  35.264  1.00  0.00    -0.200 F 
ATOM    133  F   UNL A   1      47.866  26.527  36.816  1.00  0.00    -0.200 F 
ENDBRANCH  99 123
ENDBRANCH  64  67
ENDBRANCH  54  57
ENDBRANCH  50  53
ENDBRANCH  47  50
ENDBRANCH  44  47
ENDBRANCH   1  44
TORSDOF 17
ENDMDL
MODEL 2
REMARK VINA RESULT:     -12.1      1.826      2.730
REMARK SMILES C=Cc1cncc(-c2ccc([C@@H](C)C(=O)NCCCCCCNC(=O)c3ccc(-c4c5nc(c(-c6c(F)c(F)c(F)c(F)c6F)c6ccc([nH]6)c(-c6c(F)c(F)c(F)c(F)c6F)c6nc(c(-c7c(F)c(F)c(F)c(F)c7F)c7ccc4[nH]7)C=C6)C=C5)cc3)cc2)c1
REMARK SMILES IDX 19 1 18 4 17 7 16 10 14 11 15 12 12 14 11 16 8 17 9 18 90 19
REMARK SMILES IDX 10 20 89 22 7 26 3 27 4 28 91 29 5 30 6 33 2 35 1 36 13 40
REMARK SMILES IDX 20 44 21 47 22 50 23 53 24 54 25 56 26 57 27 58 88 59 28 60
REMARK SMILES IDX 87 62 29 64 30 67 31 68 81 69 32 70 86 71 80 72 82 73 33 74
REMARK SMILES IDX 85 75 79 77 78 79 34 81 66 84 46 85 65 86 47 87 50 88 64 89
REMARK SMILES IDX 83 90 48 91 49 93 63 95 84 96 51 99 35 101 36 102 44 103
REMARK SMILES IDX 37 104 38 105 42 106 45 107 39 108 40 109 43 110 41 111
REMARK SMILES IDX 67 112 68 113 76 114 69 115 70 116 74 117 77 118 71 119
REMARK SMILES IDX 72 120 75 121 73 122 52 123 53 124 61 125 54 126 55 127
REMARK SMILES IDX 59 128 62 129 56 130 57 131 60 132 58 133
REMARK H PARENT 19 2 19 3 18 5 18 6 17 8 17 9 16 13 12 15 9 21 90 23 10 24
REMARK H PARENT 89 25 4 31 91 32 6 34 1 37 1 38 2 39 13 41 13 42 13 43 20 45
REMARK H PARENT 20 46 21 48 21 49 22 51 22 52 23 55 27 61 88 63 28 65 87 66
REMARK H PARENT 86 76 80 78 82 80 85 82 79 83 47 92 50 94 83 97 48 98 84 100
REMARK Flexibility Score: inf
ROOT
ATOM      1  C   UNL A   1      32.343  29.357  26.740  1.00  0.00    -0.052 C 
ATOM      2  H   UNL A   1      33.261  29.054  26.279  1.00  0.00     0.027 H 
ATOM      3  H   UNL A   1      32.477  29.805  27.702  1.00  0.00     0.027 H 
ENDROOT
BRANCH   1   4
ATOM      4  C   UNL A   1      31.492  28.104  26.967  1.00  0.00    -0.036 C 
ATOM      5  H   UNL A   1      31.246  28.047  28.008  1.00  0.00     0.028 H 
ATOM      6  H   UNL A   1      30.625  28.200  26.347  1.00  0.00     0.028 H 
BRANCH   4   7
ATOM      7  C   UNL A   1      32.186  26.801  26.564  1.00  0.00     0.017 C 
ATOM      8  H   UNL A   1      32.362  26.814  25.508  1.00  0.00     0.049 H 
ATOM      9  H   UNL A   1      33.106  26.732  27.105  1.00  0.00     0.049 H 
BRANCH   7  10
ATOM     10  N   UNL A   1      31.382  25.643  26.891  1.00  0.00    -0.356 N 
ATOM     11  C   UNL A   1      30.665  24.789  26.111  1.00  0.00     0.227 C 
ATOM     12  O   UNL A   1      29.987  23.942  26.705  1.00  0.00    -0.274 OA
ATOM     13  H   UNL A   1      31.347  25.436  27.853  1.00  0.00     0.163 HD
BRANCH  11  14
ATOM     14  C   UNL A   1      30.680  24.817  24.576  1.00  0.00     0.060 C 
ATOM     15  H   UNL A   1      29.904  24.143  24.273  1.00  0.00     0.045 H 
BRANCH  14  16
ATOM     16  C   UNL A   1      30.231  26.143  23.978  1.00  0.00    -0.036 A 
ATOM     17  C   UNL A   1      29.316  28.652  22.950  1.00  0.00    -0.017 A 
ATOM     18  C   UNL A   1      30.668  28.282  22.901  1.00  0.00    -0.054 A 
ATOM     19  C   UNL A   1      28.426  27.727  23.516  1.00  0.00    -0.054 A 
ATOM     20  C   UNL A   1      31.112  27.041  23.375  1.00  0.00    -0.058 A 
ATOM     21  H   UNL A   1      31.356  28.943  22.506  1.00  0.00     0.063 H 
ATOM     22  C   UNL A   1      28.877  26.504  24.036  1.00  0.00    -0.058 A 
ATOM     23  H   UNL A   1      27.419  27.950  23.550  1.00  0.00     0.063 H 
ATOM     24  H   UNL A   1      32.107  26.787  23.275  1.00  0.00     0.063 H 
ATOM     25  H   UNL A   1      28.199  25.857  24.469  1.00  0.00     0.063 H 
BRANCH  17  26
ATOM     26  C   UNL A   1      28.866  29.955  22.414  1.00  0.00     0.001 A 
ATOM     27  C   UNL A   1      28.684  32.389  22.521  1.00  0.00    -0.007 A 
ATOM     28  C   UNL A   1      27.995  32.337  21.313  1.00  0.00     0.034 A 
ATOM     29  C   UNL A   1      29.116  31.174  23.068  1.00  0.00    -0.044 A 
ATOM     30  N   UNL A   1      27.727  31.198  20.640  1.00  0.00    -0.263 NA
ATOM     31  H   UNL A   1      27.667  33.226  20.906  1.00  0.00     0.085 H 
ATOM     32  H   UNL A   1      29.625  31.174  23.966  1.00  0.00     0.064 H 
ATOM     33  C   UNL A   1      28.161  30.049  21.210  1.00  0.00     0.035 A 
ATOM     34  H   UNL A   1      27.953  29.167  20.715  1.00  0.00     0.085 H 
BRANCH  27  35
ATOM     35  C   UNL A   1      28.874  33.680  23.191  1.00  0.00    -0.061 C 
ATOM     36  C   UNL A   1      30.046  34.115  23.667  1.00  0.00    -0.098 C 
ATOM     37  H   UNL A   1      30.107  35.036  24.127  1.00  0.00     0.054 H 
ATOM     38  H   UNL A   1      30.891  33.530  23.571  1.00  0.00     0.054 H 
ATOM     39  H   UNL A   1      28.050  34.291  23.303  1.00  0.00     0.062 H 
ENDBRANCH  27  35
ENDBRANCH  17  26
ENDBRANCH  14  16
BRANCH  14  40
ATOM     40  C   UNL A   1      31.930  24.194  23.952  1.00  0.00    -0.049 C 
ATOM     41  H   UNL A   1      32.481  23.671  24.707  1.00  0.00     0.024 H 
ATOM     42  H   UNL A   1      32.542  24.965  23.533  1.00  0.00     0.024 H 
ATOM     43  H   UNL A   1      31.641  23.509  23.183  1.00  0.00     0.024 H 
ENDBRANCH  14  40
ENDBRANCH  11  14
ENDBRANCH   7  10
ENDBRANCH   4   7
ENDBRANCH   1   4
BRANCH   1  44
ATOM     44  C   UNL A   1      31.698  30.431  25.854  1.00  0.00    -0.052 C 
ATOM     45  H   UNL A   1      30.778  30.038  25.476  1.00  0.00     0.027 H 
ATOM     46  H   UNL A   1      32.417  30.653  25.093  1.00  0.00     0.027 H 
BRANCH  44  47
ATOM     47  C   UNL A   1      31.394  31.764  26.546  1.00  0.00    -0.036 C 
ATOM     48  H   UNL A   1      30.647  31.589  27.292  1.00  0.00     0.028 H 
ATOM     49  H   UNL A   1      31.072  32.435  25.777  1.00  0.00     0.028 H 
BRANCH  47  50
ATOM     50  C   UNL A   1      32.594  32.424  27.220  1.00  0.00     0.018 C 
ATOM     51  H   UNL A   1      33.449  32.316  26.586  1.00  0.00     0.049 H 
ATOM     52  H   UNL A   1      32.750  31.944  28.164  1.00  0.00     0.049 H 
BRANCH  50  53
ATOM     53  N   UNL A   1      32.368  33.841  27.467  1.00  0.00    -0.352 N 
ATOM     54  C   UNL A   1      32.945  34.678  28.390  1.00  0.00     0.251 C 
ATOM     55  H   UNL A   1      31.700  34.264  26.881  1.00  0.00     0.163 HD
ATOM     56  O   UNL A   1      32.462  35.785  28.605  1.00  0.00    -0.269 OA
BRANCH  54  57
ATOM     57  C   UNL A   1      34.138  34.241  29.144  1.00  0.00     0.039 A 
ATOM     58  C   UNL A   1      33.965  33.552  30.347  1.00  0.00    -0.049 A 
ATOM     59  C   UNL A   1      35.424  34.522  28.675  1.00  0.00    -0.049 A 
ATOM     60  C   UNL A   1      35.080  33.071  31.038  1.00  0.00    -0.053 A 
ATOM     61  H   UNL A   1      33.016  33.400  30.725  1.00  0.00     0.063 H 
ATOM     62  C   UNL A   1      36.532  33.991  29.331  1.00  0.00    -0.053 A 
ATOM     63  H   UNL A   1      35.553  35.121  27.844  1.00  0.00     0.063 H 
ATOM     64  C   UNL A   1      36.369  33.247  30.510  1.00  0.00    -0.014 A 
ATOM     65  H   UNL A   1      34.955  32.585  31.940  1.00  0.00     0.063 H 
ATOM     66  H   UNL A   1      37.479  34.146  28.949  1.00  0.00     0.063 H 
BRANCH  64  67
ATOM     67  C   UNL A   1      37.551  32.608  31.141  1.00  0.00     0.031 A 
ATOM     68  C   UNL A   1      38.252  31.463  30.470  1.00  0.00     0.074 A 
ATOM     69  C   UNL A   1      37.936  33.013  32.366  1.00  0.00     0.049 A 
ATOM     70  N   UNL A   1      39.241  30.726  30.912  1.00  0.00    -0.248 NA
ATOM     71  C   UNL A   1      37.764  31.078  29.137  1.00  0.00    -0.034 C 
ATOM     72  C   UNL A   1      37.305  34.085  33.138  1.00  0.00    -0.036 A 
ATOM     73  N   UNL A   1      38.938  32.559  33.187  1.00  0.00    -0.354 N 
ATOM     74  C   UNL A   1      39.488  29.789  29.917  1.00  0.00     0.074 A 
ATOM     75  C   UNL A   1      38.518  30.021  28.868  1.00  0.00    -0.034 C 
ATOM     76  H   UNL A   1      37.029  31.517  28.561  1.00  0.00     0.065 H 
ATOM     77  C   UNL A   1      37.940  34.214  34.313  1.00  0.00    -0.036 A 
ATOM     78  H   UNL A   1      36.500  34.650  32.828  1.00  0.00     0.065 H 
ATOM     79  C   UNL A   1      38.995  33.209  34.396  1.00  0.00     0.049 A 
ATOM     80  H   UNL A   1      39.558  31.837  32.934  1.00  0.00     0.167 HD
ATOM     81  C   UNL A   1      40.450  28.836  29.878  1.00  0.00     0.037 A 
ATOM     82  H   UNL A   1      38.424  29.438  28.022  1.00  0.00     0.065 H 
ATOM     83  H   UNL A   1      37.720  34.912  35.040  1.00  0.00     0.065 H 
ATOM     84  C   UNL A   1      39.795  33.007  35.460  1.00  0.00     0.037 A 
ATOM     85  C   UNL A   1      41.422  28.620  30.919  1.00  0.00     0.049 A 
ATOM     86  C   UNL A   1      40.835  31.922  35.400  1.00  0.00     0.074 A 
ATOM     87  C   UNL A   1      42.480  27.727  30.940  1.00  0.00    -0.036 A 
ATOM     88  N   UNL A   1      41.449  29.297  32.128  1.00  0.00    -0.354 N 
ATOM     89  N   UNL A   1      41.109  31.092  34.424  1.00  0.00    -0.248 NA
ATOM     90  C   UNL A   1      41.678  31.747  36.592  1.00  0.00    -0.034 C 
ATOM     91  C   UNL A   1      43.115  27.828  32.181  1.00  0.00    -0.036 A 
ATOM     92  H   UNL A   1      42.754  27.095  30.170  1.00  0.00     0.065 H 
ATOM     93  C   UNL A   1      42.483  28.818  32.917  1.00  0.00     0.049 A 
ATOM     94  H   UNL A   1      40.824  30.012  32.390  1.00  0.00     0.167 HD
ATOM     95  C   UNL A   1      42.162  30.308  34.873  1.00  0.00     0.074 A 
ATOM     96  C   UNL A   1      42.494  30.778  36.203  1.00  0.00    -0.034 C 
ATOM     97  H   UNL A   1      41.643  32.246  37.494  1.00  0.00     0.065 H 
ATOM     98  H   UNL A   1      43.917  27.261  32.498  1.00  0.00     0.065 H 
ATOM     99  C   UNL A   1      42.796  29.289  34.242  1.00  0.00     0.037 A 
ATOM    100  H   UNL A   1      43.267  30.404  36.775  1.00  0.00     0.065 H 
BRANCH  81 101
ATOM    101  C   UNL A   1      40.502  27.949  28.669  1.00  0.00     0.064 A 
ATOM    102  C   UNL A   1      41.257  28.294  27.537  1.00  0.00     0.173 A 
ATOM    103  C   UNL A   1      39.833  26.715  28.660  1.00  0.00     0.173 A 
ATOM    104  F   UNL A   1      41.909  29.465  27.492  1.00  0.00    -0.203 F 
ATOM    105  C   UNL A   1      41.320  27.447  26.432  1.00  0.00     0.198 A 
ATOM    106  C   UNL A   1      39.920  25.859  27.565  1.00  0.00     0.198 A 
ATOM    107  F   UNL A   1      39.104  26.334  29.719  1.00  0.00    -0.203 F 
ATOM    108  F   UNL A   1      42.013  27.816  25.347  1.00  0.00    -0.200 F 
ATOM    109  C   UNL A   1      40.658  26.228  26.450  1.00  0.00     0.200 A 
ATOM    110  F   UNL A   1      39.292  24.676  27.589  1.00  0.00    -0.200 F 
ATOM    111  F   UNL A   1      40.729  25.411  25.390  1.00  0.00    -0.200 F 
ENDBRANCH  81 101
BRANCH  84 112
ATOM    112  C   UNL A   1      39.646  33.853  36.672  1.00  0.00     0.064 A 
ATOM    113  C   UNL A   1      40.303  35.087  36.773  1.00  0.00     0.173 A 
ATOM    114  C   UNL A   1      38.845  33.449  37.750  1.00  0.00     0.173 A 
ATOM    115  F   UNL A   1      41.096  35.505  35.776  1.00  0.00    -0.203 F 
ATOM    116  C   UNL A   1      40.182  35.876  37.915  1.00  0.00     0.198 A 
ATOM    117  C   UNL A   1      38.700  34.252  38.880  1.00  0.00     0.198 A 
ATOM    118  F   UNL A   1      38.190  32.280  37.700  1.00  0.00    -0.203 F 
ATOM    119  F   UNL A   1      40.856  37.030  38.004  1.00  0.00    -0.200 F 
ATOM    120  C   UNL A   1      39.376  35.461  38.964  1.00  0.00     0.200 A 
ATOM    121  F   UNL A   1      37.909  33.855  39.885  1.00  0.00    -0.200 F 
ATOM    122  F   UNL A   1      39.254  36.223  40.060  1.00  0.00    -0.200 F 
ENDBRANCH  84 112
BRANCH  99 123
ATOM    123  C   UNL A   1      43.917  28.619  34.981  1.00  0.00     0.064 A 
ATOM    124  C   UNL A   1      45.241  29.065  34.864  1.00  0.00     0.173 A 
ATOM    125  C   UNL A   1      43.661  27.542  35.842  1.00  0.00     0.173 A 
ATOM    126  F   UNL A   1      45.541  30.081  34.039  1.00  0.00    -0.203 F 
ATOM    127  C   UNL A   1      46.271  28.442  35.563  1.00  0.00     0.198 A 
ATOM    128  C   UNL A   1      44.688  26.940  36.562  1.00  0.00     0.198 A 
ATOM    129  F   UNL A   1      42.411  27.078  35.993  1.00  0.00    -0.203 F 
ATOM    130  F   UNL A   1      47.536  28.855  35.398  1.00  0.00    -0.200 F 
ATOM    131  C   UNL A   1      45.993  27.385  36.417  1.00  0.00     0.200 A 
ATOM    132  F   UNL A   1      44.417  25.925  37.396  1.00  0.00    -0.200 F 
ATOM    133  F   UNL A   1      46.985  26.790  37.093  1.00  0.00    -0.200 F 
ENDBRANCH  99 123
ENDBRANCH  64  67
ENDBRANCH  54  57
ENDBRANCH  50  53
ENDBRANCH  47  50
ENDBRANCH  44  47
ENDBRANCH   1  44
TORSDOF 17
ENDMDL
MODEL 3
REMARK VINA RESULT:     -12.0      2.320      5.464
REMARK SMILES C=Cc1cncc(-c2ccc([C@@H](C)C(=O)NCCCCCCNC(=O)c3ccc(-c4c5nc(c(-c6c(F)c(F)c(F)c(F)c6F)c6ccc([nH]6)c(-c6c(F)c(F)c(F)c(F)c6F)c6nc(c(-c7c(F)c(F)c(F)c(F)c7F)c7ccc4[nH]7)C=C6)C=C5)cc3)cc2)c1
REMARK SMILES IDX 19 1 18 4 17 7 16 10 14 11 15 12 12 14 11 16 8 17 9 18 90 19
REMARK SMILES IDX 10 20 89 22 7 26 3 27 4 28 91 29 5 30 6 33 2 35 1 36 13 40
REMARK SMILES IDX 20 44 21 47 22 50 23 53 24 54 25 56 26 57 27 58 88 59 28 60
REMARK SMILES IDX 87 62 29 64 30 67 31 68 81 69 32 70 86 71 80 72 82 73 33 74
REMARK SMILES IDX 85 75 79 77 78 79 34 81 66 84 46 85 65 86 47 87 50 88 64 89
REMARK SMILES IDX 83 90 48 91 49 93 63 95 84 96 51 99 35 101 36 102 44 103
REMARK SMILES IDX 37 104 38 105 42 106 45 107 39 108 40 109 43 110 41 111
REMARK SMILES IDX 67 112 68 113 76 114 69 115 70 116 74 117 77 118 71 119
REMARK SMILES IDX 72 120 75 121 73 122 52 123 53 124 61 125 54 126 55 127
REMARK SMILES IDX 59 128 62 129 56 130 57 131 60 132 58 133
REMARK H PARENT 19 2 19 3 18 5 18 6 17 8 17 9 16 13 12 15 9 21 90 23 10 24
REMARK H PARENT 89 25 4 31 91 32 6 34 1 37 1 38 2 39 13 41 13 42 13 43 20 45
REMARK H PARENT 20 46 21 48 21 49 22 51 22 52 23 55 27 61 88 63 28 65 87 66
REMARK H PARENT 86 76 80 78 82 80 85 82 79 83 47 92 50 94 83 97 48 98 84 100
REMARK Flexibility Score: inf
ROOT
ATOM      1  C   UNL A   1      32.154  29.413  27.102  1.00  0.00    -0.052 C 
ATOM      2  H   UNL A   1      32.096  29.858  28.074  1.00  0.00     0.027 H 
ATOM      3  H   UNL A   1      31.466  28.607  26.960  1.00  0.00     0.027 H 
ENDROOT
BRANCH   1   4
ATOM      4  C   UNL A   1      33.554  28.815  26.937  1.00  0.00    -0.036 C 
ATOM      5  H   UNL A   1      34.257  29.620  26.855  1.00  0.00     0.028 H 
ATOM      6  H   UNL A   1      33.733  28.201  27.794  1.00  0.00     0.028 H 
BRANCH   4   7
ATOM      7  C   UNL A   1      33.704  27.918  25.706  1.00  0.00     0.017 C 
ATOM      8  H   UNL A   1      33.370  28.454  24.843  1.00  0.00     0.049 H 
ATOM      9  H   UNL A   1      34.736  27.648  25.614  1.00  0.00     0.049 H 
BRANCH   7  10
ATOM     10  N   UNL A   1      32.929  26.702  25.833  1.00  0.00    -0.356 N 
ATOM     11  C   UNL A   1      32.926  25.551  25.108  1.00  0.00     0.227 C 
ATOM     12  O   UNL A   1      32.060  24.719  25.404  1.00  0.00    -0.274 OA
ATOM     13  H   UNL A   1      32.286  26.711  26.578  1.00  0.00     0.163 HD
BRANCH  11  14
ATOM     14  C   UNL A   1      33.933  25.241  23.991  1.00  0.00     0.060 C 
ATOM     15  H   UNL A   1      34.469  26.154  23.832  1.00  0.00     0.045 H 
BRANCH  14  16
ATOM     16  C   UNL A   1      35.031  24.270  24.401  1.00  0.00    -0.036 A 
ATOM     17  C   UNL A   1      37.150  22.465  25.068  1.00  0.00    -0.017 A 
ATOM     18  C   UNL A   1      36.628  23.370  26.004  1.00  0.00    -0.054 A 
ATOM     19  C   UNL A   1      36.575  22.475  23.788  1.00  0.00    -0.054 A 
ATOM     20  C   UNL A   1      35.569  24.231  25.688  1.00  0.00    -0.058 A 
ATOM     21  H   UNL A   1      37.034  23.404  26.953  1.00  0.00     0.063 H 
ATOM     22  C   UNL A   1      35.548  23.372  23.456  1.00  0.00    -0.058 A 
ATOM     23  H   UNL A   1      36.914  21.810  23.077  1.00  0.00     0.063 H 
ATOM     24  H   UNL A   1      35.181  24.846  26.420  1.00  0.00     0.063 H 
ATOM     25  H   UNL A   1      35.166  23.370  22.497  1.00  0.00     0.063 H 
BRANCH  17  26
ATOM     26  C   UNL A   1      38.246  21.543  25.434  1.00  0.00     0.001 A 
ATOM     27  C   UNL A   1      40.383  21.044  26.511  1.00  0.00    -0.007 A 
ATOM     28  C   UNL A   1      40.231  19.730  26.081  1.00  0.00     0.034 A 
ATOM     29  C   UNL A   1      39.370  21.952  26.172  1.00  0.00    -0.044 A 
ATOM     30  N   UNL A   1      39.175  19.279  25.372  1.00  0.00    -0.263 NA
ATOM     31  H   UNL A   1      40.974  19.055  26.320  1.00  0.00     0.085 H 
ATOM     32  H   UNL A   1      39.452  22.937  26.469  1.00  0.00     0.064 H 
ATOM     33  C   UNL A   1      38.224  20.194  25.065  1.00  0.00     0.035 A 
ATOM     34  H   UNL A   1      37.415  19.869  24.512  1.00  0.00     0.085 H 
BRANCH  27  35
ATOM     35  C   UNL A   1      41.598  21.434  27.232  1.00  0.00    -0.061 C 
ATOM     36  C   UNL A   1      41.642  22.386  28.172  1.00  0.00    -0.098 C 
ATOM     37  H   UNL A   1      42.534  22.609  28.640  1.00  0.00     0.054 H 
ATOM     38  H   UNL A   1      40.783  22.896  28.429  1.00  0.00     0.054 H 
ATOM     39  H   UNL A   1      42.476  20.944  27.000  1.00  0.00     0.062 H 
ENDBRANCH  27  35
ENDBRANCH  17  26
ENDBRANCH  14  16
BRANCH  14  40
ATOM     40  C   UNL A   1      33.292  24.984  22.626  1.00  0.00    -0.049 C 
ATOM     41  H   UNL A   1      33.723  24.108  22.189  1.00  0.00     0.024 H 
ATOM     42  H   UNL A   1      33.465  25.824  21.986  1.00  0.00     0.024 H 
ATOM     43  H   UNL A   1      32.239  24.840  22.748  1.00  0.00     0.024 H 
ENDBRANCH  14  40
ENDBRANCH  11  14
ENDBRANCH   7  10
ENDBRANCH   4   7
ENDBRANCH   1   4
BRANCH   1  44
ATOM     44  C   UNL A   1      31.776  30.483  26.067  1.00  0.00    -0.052 C 
ATOM     45  H   UNL A   1      30.895  30.153  25.559  1.00  0.00     0.027 H 
ATOM     46  H   UNL A   1      32.630  30.587  25.429  1.00  0.00     0.027 H 
BRANCH  44  47
ATOM     47  C   UNL A   1      31.502  31.881  26.632  1.00  0.00    -0.036 C 
ATOM     48  H   UNL A   1      30.709  31.802  27.345  1.00  0.00     0.028 H 
ATOM     49  H   UNL A   1      31.256  32.500  25.794  1.00  0.00     0.028 H 
BRANCH  47  50
ATOM     50  C   UNL A   1      32.696  32.539  27.319  1.00  0.00     0.018 C 
ATOM     51  H   UNL A   1      33.550  32.460  26.680  1.00  0.00     0.049 H 
ATOM     52  H   UNL A   1      32.862  32.036  28.249  1.00  0.00     0.049 H 
BRANCH  50  53
ATOM     53  N   UNL A   1      32.452  33.945  27.606  1.00  0.00    -0.352 N 
ATOM     54  C   UNL A   1      33.009  34.761  28.559  1.00  0.00     0.251 C 
ATOM     55  H   UNL A   1      31.784  34.378  27.025  1.00  0.00     0.163 HD
ATOM     56  O   UNL A   1      32.512  35.856  28.801  1.00  0.00    -0.269 OA
BRANCH  54  57
ATOM     57  C   UNL A   1      34.200  34.315  29.312  1.00  0.00     0.039 A 
ATOM     58  C   UNL A   1      34.028  33.756  30.581  1.00  0.00    -0.049 A 
ATOM     59  C   UNL A   1      35.482  34.462  28.776  1.00  0.00    -0.049 A 
ATOM     60  C   UNL A   1      35.135  33.266  31.278  1.00  0.00    -0.053 A 
ATOM     61  H   UNL A   1      33.087  33.706  31.002  1.00  0.00     0.063 H 
ATOM     62  C   UNL A   1      36.578  33.920  29.444  1.00  0.00    -0.053 A 
ATOM     63  H   UNL A   1      35.617  34.969  27.888  1.00  0.00     0.063 H 
ATOM     64  C   UNL A   1      36.412  33.302  30.694  1.00  0.00    -0.014 A 
ATOM     65  H   UNL A   1      35.015  32.876  32.226  1.00  0.00     0.063 H 
ATOM     66  H   UNL A   1      37.516  33.972  29.019  1.00  0.00     0.063 H 
BRANCH  64  67
ATOM     67  C   UNL A   1      37.573  32.646  31.344  1.00  0.00     0.031 A 
ATOM     68  C   UNL A   1      38.231  31.452  30.714  1.00  0.00     0.074 A 
ATOM     69  C   UNL A   1      37.977  33.080  32.553  1.00  0.00     0.049 A 
ATOM     70  N   UNL A   1      39.195  30.698  31.179  1.00  0.00    -0.248 NA
ATOM     71  C   UNL A   1      37.725  31.037  29.397  1.00  0.00    -0.034 C 
ATOM     72  C   UNL A   1      37.387  34.201  33.287  1.00  0.00    -0.036 A 
ATOM     73  N   UNL A   1      38.966  32.622  33.388  1.00  0.00    -0.354 N 
ATOM     74  C   UNL A   1      39.405  29.718  30.219  1.00  0.00     0.074 A 
ATOM     75  C   UNL A   1      38.439  29.945  29.164  1.00  0.00    -0.034 C 
ATOM     76  H   UNL A   1      37.003  31.481  28.807  1.00  0.00     0.065 H 
ATOM     77  C   UNL A   1      38.031  34.350  34.455  1.00  0.00    -0.036 A 
ATOM     78  H   UNL A   1      36.601  34.783  32.959  1.00  0.00     0.065 H 
ATOM     79  C   UNL A   1      39.050  33.313  34.571  1.00  0.00     0.049 A 
ATOM     80  H   UNL A   1      39.559  31.869  33.159  1.00  0.00     0.167 HD
ATOM     81  C   UNL A   1      40.333  28.730  30.212  1.00  0.00     0.037 A 
ATOM     82  H   UNL A   1      38.322  29.336  28.340  1.00  0.00     0.065 H 
ATOM     83  H   UNL A   1      37.838  35.082  35.157  1.00  0.00     0.065 H 
ATOM     84  C   UNL A   1      39.846  33.120  35.640  1.00  0.00     0.037 A 
ATOM     85  C   UNL A   1      41.300  28.517  31.257  1.00  0.00     0.049 A 
ATOM     86  C   UNL A   1      40.848  31.999  35.617  1.00  0.00     0.074 A 
ATOM     87  C   UNL A   1      42.327  27.589  31.308  1.00  0.00    -0.036 A 
ATOM     88  N   UNL A   1      41.356  29.237  32.441  1.00  0.00    -0.354 N 
ATOM     89  N   UNL A   1      41.088  31.124  34.671  1.00  0.00    -0.248 NA
ATOM     90  C   UNL A   1      41.688  31.837  36.812  1.00  0.00    -0.034 C 
ATOM     91  C   UNL A   1      42.969  27.713  32.543  1.00  0.00    -0.036 A 
ATOM     92  H   UNL A   1      42.575  26.921  30.561  1.00  0.00     0.065 H 
ATOM     93  C   UNL A   1      42.376  28.751  33.244  1.00  0.00     0.049 A 
ATOM     94  H   UNL A   1      40.758  29.982  32.678  1.00  0.00     0.167 HD
ATOM     95  C   UNL A   1      42.115  30.321  35.146  1.00  0.00     0.074 A 
ATOM     96  C   UNL A   1      42.468  30.826  36.457  1.00  0.00    -0.034 C 
ATOM     97  H   UNL A   1      41.674  32.370  37.696  1.00  0.00     0.065 H 
ATOM     98  H   UNL A   1      43.752  27.130  32.878  1.00  0.00     0.065 H 
ATOM     99  C   UNL A   1      42.710  29.258  34.551  1.00  0.00     0.037 A 
ATOM    100  H   UNL A   1      43.231  30.447  37.040  1.00  0.00     0.065 H 
BRANCH  81 101
ATOM    101  C   UNL A   1      40.349  27.798  29.035  1.00  0.00     0.064 A 
ATOM    102  C   UNL A   1      41.131  28.062  27.900  1.00  0.00     0.173 A 
ATOM    103  C   UNL A   1      39.616  26.602  29.063  1.00  0.00     0.173 A 
ATOM    104  F   UNL A   1      41.845  29.195  27.821  1.00  0.00    -0.203 F 
ATOM    105  C   UNL A   1      41.159  27.174  26.827  1.00  0.00     0.198 A 
ATOM    106  C   UNL A   1      39.667  25.704  28.000  1.00  0.00     0.198 A 
ATOM    107  F   UNL A   1      38.857  26.298  30.127  1.00  0.00    -0.203 F 
ATOM    108  F   UNL A   1      41.882  27.467  25.737  1.00  0.00    -0.200 F 
ATOM    109  C   UNL A   1      40.434  25.993  26.881  1.00  0.00     0.200 A 
ATOM    110  F   UNL A   1      38.977  24.557  28.059  1.00  0.00    -0.200 F 
ATOM    111  F   UNL A   1      40.471  25.136  25.852  1.00  0.00    -0.200 F 
ENDBRANCH  81 101
BRANCH  84 112
ATOM    112  C   UNL A   1      39.732  34.015  36.821  1.00  0.00     0.064 A 
ATOM    113  C   UNL A   1      38.930  33.664  37.915  1.00  0.00     0.173 A 
ATOM    114  C   UNL A   1      40.420  35.236  36.881  1.00  0.00     0.173 A 
ATOM    115  F   UNL A   1      38.237  32.516  37.895  1.00  0.00    -0.203 F 
ATOM    116  C   UNL A   1      38.805  34.507  39.017  1.00  0.00     0.198 A 
ATOM    117  C   UNL A   1      40.318  36.066  37.995  1.00  0.00     0.198 A 
ATOM    118  F   UNL A   1      41.205  35.616  35.862  1.00  0.00    -0.203 F 
ATOM    119  F   UNL A   1      37.997  34.168  40.030  1.00  0.00    -0.200 F 
ATOM    120  C   UNL A   1      39.504  35.705  39.058  1.00  0.00     0.200 A 
ATOM    121  F   UNL A   1      41.006  37.215  38.038  1.00  0.00    -0.200 F 
ATOM    122  F   UNL A   1      39.388  36.514  40.121  1.00  0.00    -0.200 F 
ENDBRANCH  84 112
BRANCH  99 123
ATOM    123  C   UNL A   1      43.810  28.576  35.311  1.00  0.00     0.064 A 
ATOM    124  C   UNL A   1      43.540  27.548  36.225  1.00  0.00     0.173 A 
ATOM    125  C   UNL A   1      45.150  28.931  35.098  1.00  0.00     0.173 A 
ATOM    126  F   UNL A   1      42.273  27.184  36.477  1.00  0.00    -0.203 F 
ATOM    127  C   UNL A   1      44.570  26.916  36.917  1.00  0.00     0.198 A 
ATOM    128  C   UNL A   1      46.180  28.277  35.769  1.00  0.00     0.198 A 
ATOM    129  F   UNL A   1      45.463  29.906  34.231  1.00  0.00    -0.203 F 
ATOM    130  F   UNL A   1      44.285  25.969  37.821  1.00  0.00    -0.200 F 
ATOM    131  C   UNL A   1      45.889  27.275  36.682  1.00  0.00     0.200 A 
ATOM    132  F   UNL A   1      47.455  28.618  35.533  1.00  0.00    -0.200 F 
ATOM    133  F   UNL A   1      46.880  26.662  37.345  1.00  0.00    -0.200 F 
ENDBRANCH  99 123
ENDBRANCH  64  67
ENDBRANCH  54  57
ENDBRANCH  50  53
ENDBRANCH  47  50
ENDBRANCH  44  47
ENDBRANCH   1  44
TORSDOF 17
ENDMDL
MODEL 4
REMARK VINA RESULT:     -12.0      0.114      1.579
REMARK SMILES C=Cc1cncc(-c2ccc([C@@H](C)C(=O)NCCCCCCNC(=O)c3ccc(-c4c5nc(c(-c6c(F)c(F)c(F)c(F)c6F)c6ccc([nH]6)c(-c6c(F)c(F)c(F)c(F)c6F)c6nc(c(-c7c(F)c(F)c(F)c(F)c7F)c7ccc4[nH]7)C=C6)C=C5)cc3)cc2)c1
REMARK SMILES IDX 19 1 18 4 17 7 16 10 14 11 15 12 12 14 11 16 8 17 9 18 90 19
REMARK SMILES IDX 10 20 89 22 7 26 3 27 4 28 91 29 5 30 6 33 2 35 1 36 13 40
REMARK SMILES IDX 20 44 21 47 22 50 23 53 24 54 25 56 26 57 27 58 88 59 28 60
REMARK SMILES IDX 87 62 29 64 30 67 31 68 81 69 32 70 86 71 80 72 82 73 33 74
REMARK SMILES IDX 85 75 79 77 78 79 34 81 66 84 46 85 65 86 47 87 50 88 64 89
REMARK SMILES IDX 83 90 48 91 49 93 63 95 84 96 51 99 35 101 36 102 44 103
REMARK SMILES IDX 37 104 38 105 42 106 45 107 39 108 40 109 43 110 41 111
REMARK SMILES IDX 67 112 68 113 76 114 69 115 70 116 74 117 77 118 71 119
REMARK SMILES IDX 72 120 75 121 73 122 52 123 53 124 61 125 54 126 55 127
REMARK SMILES IDX 59 128 62 129 56 130 57 131 60 132 58 133
REMARK H PARENT 19 2 19 3 18 5 18 6 17 8 17 9 16 13 12 15 9 21 90 23 10 24
REMARK H PARENT 89 25 4 31 91 32 6 34 1 37 1 38 2 39 13 41 13 42 13 43 20 45
REMARK H PARENT 20 46 21 48 21 49 22 51 22 52 23 55 27 61 88 63 28 65 87 66
REMARK H PARENT 86 76 80 78 82 80 85 82 79 83 47 92 50 94 83 97 48 98 84 100
REMARK Flexibility Score: inf
ROOT
ATOM      1  C   UNL A   1      32.152  26.562  26.907  1.00  0.00    -0.052 C 
ATOM      2  H   UNL A   1      32.418  26.191  27.876  1.00  0.00     0.027 H 
ATOM      3  H   UNL A   1      31.312  26.061  26.475  1.00  0.00     0.027 H 
ENDROOT
BRANCH   1   4
ATOM      4  C   UNL A   1      33.332  26.311  25.963  1.00  0.00    -0.036 C 
ATOM      5  H   UNL A   1      33.040  26.601  24.974  1.00  0.00     0.028 H 
ATOM      6  H   UNL A   1      34.155  26.886  26.333  1.00  0.00     0.028 H 
BRANCH   4   7
ATOM      7  C   UNL A   1      33.793  24.852  25.921  1.00  0.00     0.017 C 
ATOM      8  H   UNL A   1      34.403  24.656  26.779  1.00  0.00     0.049 H 
ATOM      9  H   UNL A   1      32.924  24.228  25.918  1.00  0.00     0.049 H 
BRANCH   7  10
ATOM     10  N   UNL A   1      34.558  24.566  24.726  1.00  0.00    -0.356 N 
ATOM     11  C   UNL A   1      34.204  24.012  23.536  1.00  0.00     0.227 C 
ATOM     12  O   UNL A   1      35.123  23.800  22.735  1.00  0.00    -0.274 OA
ATOM     13  H   UNL A   1      35.508  24.817  24.788  1.00  0.00     0.163 HD
BRANCH  11  14
ATOM     14  C   UNL A   1      32.758  23.672  23.147  1.00  0.00     0.060 C 
ATOM     15  H   UNL A   1      32.377  23.085  23.958  1.00  0.00     0.045 H 
BRANCH  14  16
ATOM     16  C   UNL A   1      31.824  24.874  23.130  1.00  0.00    -0.036 A 
ATOM     17  C   UNL A   1      30.055  27.122  23.216  1.00  0.00    -0.017 A 
ATOM     18  C   UNL A   1      31.237  27.140  22.460  1.00  0.00    -0.054 A 
ATOM     19  C   UNL A   1      29.771  25.942  23.920  1.00  0.00    -0.054 A 
ATOM     20  C   UNL A   1      32.086  26.029  22.392  1.00  0.00    -0.058 A 
ATOM     21  H   UNL A   1      31.488  27.996  21.940  1.00  0.00     0.063 H 
ATOM     22  C   UNL A   1      30.648  24.846  23.892  1.00  0.00    -0.058 A 
ATOM     23  H   UNL A   1      28.901  25.879  24.471  1.00  0.00     0.063 H 
ATOM     24  H   UNL A   1      32.920  26.066  21.785  1.00  0.00     0.063 H 
ATOM     25  H   UNL A   1      30.421  24.003  24.443  1.00  0.00     0.063 H 
BRANCH  17  26
ATOM     26  C   UNL A   1      29.156  28.296  23.248  1.00  0.00     0.001 A 
ATOM     27  C   UNL A   1      28.747  30.702  23.372  1.00  0.00    -0.007 A 
ATOM     28  C   UNL A   1      27.387  30.421  23.278  1.00  0.00     0.034 A 
ATOM     29  C   UNL A   1      29.630  29.614  23.359  1.00  0.00    -0.044 A 
ATOM     30  N   UNL A   1      26.874  29.177  23.168  1.00  0.00    -0.263 NA
ATOM     31  H   UNL A   1      26.728  31.214  23.293  1.00  0.00     0.085 H 
ATOM     32  H   UNL A   1      30.646  29.785  23.433  1.00  0.00     0.064 H 
ATOM     33  C   UNL A   1      27.767  28.158  23.163  1.00  0.00     0.035 A 
ATOM     34  H   UNL A   1      27.391  27.200  23.093  1.00  0.00     0.085 H 
BRANCH  27  35
ATOM     35  C   UNL A   1      29.189  32.089  23.540  1.00  0.00    -0.061 C 
ATOM     36  C   UNL A   1      28.758  33.112  22.791  1.00  0.00    -0.098 C 
ATOM     37  H   UNL A   1      29.112  34.065  22.965  1.00  0.00     0.054 H 
ATOM     38  H   UNL A   1      28.069  32.946  22.040  1.00  0.00     0.054 H 
ATOM     39  H   UNL A   1      29.877  32.291  24.282  1.00  0.00     0.062 H 
ENDBRANCH  27  35
ENDBRANCH  17  26
ENDBRANCH  14  16
BRANCH  14  40
ATOM     40  C   UNL A   1      32.639  22.719  21.957  1.00  0.00    -0.049 C 
ATOM     41  H   UNL A   1      33.248  23.076  21.152  1.00  0.00     0.024 H 
ATOM     42  H   UNL A   1      31.619  22.670  21.638  1.00  0.00     0.024 H 
ATOM     43  H   UNL A   1      32.969  21.743  22.247  1.00  0.00     0.024 H 
ENDBRANCH  14  40
ENDBRANCH  11  14
ENDBRANCH   7  10
ENDBRANCH   4   7
ENDBRANCH   1   4
BRANCH   1  44
ATOM     44  C   UNL A   1      31.740  28.033  27.058  1.00  0.00    -0.052 C 
ATOM     45  H   UNL A   1      32.379  28.481  27.789  1.00  0.00     0.027 H 
ATOM     46  H   UNL A   1      30.707  28.021  27.336  1.00  0.00     0.027 H 
BRANCH  44  47
ATOM     47  C   UNL A   1      31.820  28.876  25.780  1.00  0.00    -0.036 C 
ATOM     48  H   UNL A   1      30.930  29.466  25.714  1.00  0.00     0.028 H 
ATOM     49  H   UNL A   1      31.929  28.185  24.971  1.00  0.00     0.028 H 
BRANCH  47  50
ATOM     50  C   UNL A   1      33.021  29.817  25.708  1.00  0.00     0.018 C 
ATOM     51  H   UNL A   1      33.334  29.900  24.689  1.00  0.00     0.049 H 
ATOM     52  H   UNL A   1      33.799  29.409  26.319  1.00  0.00     0.049 H 
BRANCH  50  53
ATOM     53  N   UNL A   1      32.702  31.145  26.212  1.00  0.00    -0.352 N 
ATOM     54  C   UNL A   1      33.290  31.871  27.217  1.00  0.00     0.251 C 
ATOM     55  H   UNL A   1      31.949  31.591  25.761  1.00  0.00     0.163 HD
ATOM     56  O   UNL A   1      32.740  32.876  27.656  1.00  0.00    -0.269 OA
BRANCH  54  57
ATOM     57  C   UNL A   1      34.581  31.435  27.790  1.00  0.00     0.039 A 
ATOM     58  C   UNL A   1      35.612  32.368  27.925  1.00  0.00    -0.049 A 
ATOM     59  C   UNL A   1      34.779  30.107  28.179  1.00  0.00    -0.049 A 
ATOM     60  C   UNL A   1      36.814  31.990  28.528  1.00  0.00    -0.053 A 
ATOM     61  H   UNL A   1      35.486  33.332  27.580  1.00  0.00     0.063 H 
ATOM     62  C   UNL A   1      35.955  29.746  28.835  1.00  0.00    -0.053 A 
ATOM     63  H   UNL A   1      34.057  29.396  27.984  1.00  0.00     0.063 H 
ATOM     64  C   UNL A   1      36.976  30.688  29.029  1.00  0.00    -0.014 A 
ATOM     65  H   UNL A   1      37.586  32.671  28.605  1.00  0.00     0.063 H 
ATOM     66  H   UNL A   1      36.075  28.781  29.179  1.00  0.00     0.063 H 
BRANCH  64  67
ATOM     67  C   UNL A   1      38.179  30.312  29.814  1.00  0.00     0.031 A 
ATOM     68  C   UNL A   1      39.167  29.320  29.272  1.00  0.00     0.074 A 
ATOM     69  C   UNL A   1      38.329  30.806  31.058  1.00  0.00     0.049 A 
ATOM     70  N   UNL A   1      40.224  28.806  29.850  1.00  0.00    -0.248 NA
ATOM     71  C   UNL A   1      38.926  28.823  27.909  1.00  0.00    -0.034 C 
ATOM     72  C   UNL A   1      37.411  31.741  31.710  1.00  0.00    -0.036 A 
ATOM     73  N   UNL A   1      39.297  30.577  32.003  1.00  0.00    -0.354 N 
ATOM     74  C   UNL A   1      40.767  27.922  28.928  1.00  0.00     0.074 A 
ATOM     75  C   UNL A   1      39.901  27.935  27.768  1.00  0.00    -0.034 C 
ATOM     76  H   UNL A   1      38.191  29.095  27.237  1.00  0.00     0.065 H 
ATOM     77  C   UNL A   1      37.865  32.015  32.943  1.00  0.00    -0.036 A 
ATOM     78  H   UNL A   1      36.552  32.127  31.290  1.00  0.00     0.065 H 
ATOM     79  C   UNL A   1      39.081  31.245  33.183  1.00  0.00     0.049 A 
ATOM     80  H   UNL A   1      40.074  29.991  31.850  1.00  0.00     0.167 HD
ATOM     81  C   UNL A   1      41.897  27.182  29.035  1.00  0.00     0.037 A 
ATOM     82  H   UNL A   1      40.025  27.332  26.941  1.00  0.00     0.065 H 
ATOM     83  H   UNL A   1      37.427  32.666  33.613  1.00  0.00     0.065 H 
ATOM     84  C   UNL A   1      39.774  31.225  34.338  1.00  0.00     0.037 A 
ATOM     85  C   UNL A   1      42.763  27.183  30.185  1.00  0.00     0.049 A 
ATOM     86  C   UNL A   1      41.009  30.373  34.438  1.00  0.00     0.074 A 
ATOM     87  C   UNL A   1      43.968  26.523  30.360  1.00  0.00    -0.036 A 
ATOM     88  N   UNL A   1      42.512  27.872  31.362  1.00  0.00    -0.354 N 
ATOM     89  N   UNL A   1      41.555  29.599  33.532  1.00  0.00    -0.248 NA
ATOM     90  C   UNL A   1      41.723  30.390  35.722  1.00  0.00    -0.034 C 
ATOM     91  C   UNL A   1      44.419  26.770  31.660  1.00  0.00    -0.036 A 
ATOM     92  H   UNL A   1      44.450  25.947  29.652  1.00  0.00     0.065 H 
ATOM     93  C   UNL A   1      43.521  27.625  32.280  1.00  0.00     0.049 A 
ATOM     94  H   UNL A   1      41.732  28.451  31.524  1.00  0.00     0.167 HD
ATOM     95  C   UNL A   1      42.683  29.051  34.128  1.00  0.00     0.074 A 
ATOM     96  C   UNL A   1      42.755  29.600  35.467  1.00  0.00    -0.034 C 
ATOM     97  H   UNL A   1      41.484  30.887  36.595  1.00  0.00     0.065 H 
ATOM     98  H   UNL A   1      45.274  26.382  32.086  1.00  0.00     0.065 H 
ATOM     99  C   UNL A   1      43.576  28.171  33.613  1.00  0.00     0.037 A 
ATOM    100  H   UNL A   1      43.515  29.400  36.136  1.00  0.00     0.065 H 
BRANCH  81 101
ATOM    101  C   UNL A   1      42.266  26.304  27.875  1.00  0.00     0.064 A 
ATOM    102  C   UNL A   1      41.687  25.038  27.697  1.00  0.00     0.173 A 
ATOM    103  C   UNL A   1      43.169  26.754  26.899  1.00  0.00     0.173 A 
ATOM    104  F   UNL A   1      40.823  24.558  28.605  1.00  0.00    -0.203 F 
ATOM    105  C   UNL A   1      42.017  24.246  26.600  1.00  0.00     0.198 A 
ATOM    106  C   UNL A   1      43.476  25.970  25.790  1.00  0.00     0.198 A 
ATOM    107  F   UNL A   1      43.746  27.959  27.016  1.00  0.00    -0.203 F 
ATOM    108  F   UNL A   1      41.482  23.024  26.474  1.00  0.00    -0.200 F 
ATOM    109  C   UNL A   1      42.905  24.715  25.644  1.00  0.00     0.200 A 
ATOM    110  F   UNL A   1      44.324  26.431  24.859  1.00  0.00    -0.200 F 
ATOM    111  F   UNL A   1      43.213  23.956  24.584  1.00  0.00    -0.200 F 
ENDBRANCH  81 101
BRANCH  84 112
ATOM    112  C   UNL A   1      39.319  32.044  35.491  1.00  0.00     0.064 A 
ATOM    113  C   UNL A   1      38.485  31.499  36.476  1.00  0.00     0.173 A 
ATOM    114  C   UNL A   1      39.706  33.385  35.632  1.00  0.00     0.173 A 
ATOM    115  F   UNL A   1      38.071  30.228  36.373  1.00  0.00    -0.203 F 
ATOM    116  C   UNL A   1      38.040  32.267  37.550  1.00  0.00     0.198 A 
ATOM    117  C   UNL A   1      39.285  34.145  36.721  1.00  0.00     0.198 A 
ATOM    118  F   UNL A   1      40.508  33.953  34.719  1.00  0.00    -0.203 F 
ATOM    119  F   UNL A   1      37.208  31.734  38.454  1.00  0.00    -0.200 F 
ATOM    120  C   UNL A   1      38.445  33.588  37.674  1.00  0.00     0.200 A 
ATOM    121  F   UNL A   1      39.690  35.416  36.846  1.00  0.00    -0.200 F 
ATOM    122  F   UNL A   1      38.022  34.326  38.710  1.00  0.00    -0.200 F 
ENDBRANCH  84 112
BRANCH  99 123
ATOM    123  C   UNL A   1      44.712  27.753  34.499  1.00  0.00     0.064 A 
ATOM    124  C   UNL A   1      44.628  26.613  35.310  1.00  0.00     0.173 A 
ATOM    125  C   UNL A   1      45.911  28.481  34.512  1.00  0.00     0.173 A 
ATOM    126  F   UNL A   1      43.496  25.893  35.347  1.00  0.00    -0.203 F 
ATOM    127  C   UNL A   1      45.694  26.230  36.121  1.00  0.00     0.198 A 
ATOM    128  C   UNL A   1      46.986  28.079  35.300  1.00  0.00     0.198 A 
ATOM    129  F   UNL A   1      46.045  29.578  33.751  1.00  0.00    -0.203 F 
ATOM    130  F   UNL A   1      45.573  25.164  36.924  1.00  0.00    -0.200 F 
ATOM    131  C   UNL A   1      46.874  26.959  36.109  1.00  0.00     0.200 A 
ATOM    132  F   UNL A   1      48.130  28.778  35.280  1.00  0.00    -0.200 F 
ATOM    133  F   UNL A   1      47.901  26.586  36.885  1.00  0.00    -0.200 F 
ENDBRANCH  99 123
ENDBRANCH  64  67
ENDBRANCH  54  57
ENDBRANCH  50  53
ENDBRANCH  47  50
ENDBRANCH  44  47
ENDBRANCH   1  44
TORSDOF 17
ENDMDL
MODEL 5
REMARK VINA RESULT:     -11.9      4.764      9.862
REMARK SMILES C=Cc1cncc(-c2ccc([C@@H](C)C(=O)NCCCCCCNC(=O)c3ccc(-c4c5nc(c(-c6c(F)c(F)c(F)c(F)c6F)c6ccc([nH]6)c(-c6c(F)c(F)c(F)c(F)c6F)c6nc(c(-c7c(F)c(F)c(F)c(F)c7F)c7ccc4[nH]7)C=C6)C=C5)cc3)cc2)c1
REMARK SMILES IDX 19 1 18 4 17 7 16 10 14 11 15 12 12 14 11 16 8 17 9 18 90 19
REMARK SMILES IDX 10 20 89 22 7 26 3 27 4 28 91 29 5 30 6 33 2 35 1 36 13 40
REMARK SMILES IDX 20 44 21 47 22 50 23 53 24 54 25 56 26 57 27 58 88 59 28 60
REMARK SMILES IDX 87 62 29 64 30 67 31 68 81 69 32 70 86 71 80 72 82 73 33 74
REMARK SMILES IDX 85 75 79 77 78 79 34 81 66 84 46 85 65 86 47 87 50 88 64 89
REMARK SMILES IDX 83 90 48 91 49 93 63 95 84 96 51 99 35 101 36 102 44 103
REMARK SMILES IDX 37 104 38 105 42 106 45 107 39 108 40 109 43 110 41 111
REMARK SMILES IDX 67 112 68 113 76 114 69 115 70 116 74 117 77 118 71 119
REMARK SMILES IDX 72 120 75 121 73 122 52 123 53 124 61 125 54 126 55 127
REMARK SMILES IDX 59 128 62 129 56 130 57 131 60 132 58 133
REMARK H PARENT 19 2 19 3 18 5 18 6 17 8 17 9 16 13 12 15 9 21 90 23 10 24
REMARK H PARENT 89 25 4 31 91 32 6 34 1 37 1 38 2 39 13 41 13 42 13 43 20 45
REMARK H PARENT 20 46 21 48 21 49 22 51 22 52 23 55 27 61 88 63 28 65 87 66
REMARK H PARENT 86 76 80 78 82 80 85 82 79 83 47 92 50 94 83 97 48 98 84 100
REMARK Flexibility Score: inf
ROOT
ATOM      1  C   UNL A   1      37.093  22.195  24.222  1.00  0.00    -0.052 C 
ATOM      2  H   UNL A   1      37.541  22.882  24.911  1.00  0.00     0.027 H 
ATOM      3  H   UNL A   1      37.732  21.931  23.407  1.00  0.00     0.027 H 
ENDROOT
BRANCH   1   4
ATOM      4  C   UNL A   1      35.869  22.878  23.602  1.00  0.00    -0.036 C 
ATOM      5  H   UNL A   1      36.190  23.424  22.738  1.00  0.00     0.028 H 
ATOM      6  H   UNL A   1      35.170  22.104  23.361  1.00  0.00     0.028 H 
BRANCH   4   7
ATOM      7  C   UNL A   1      35.154  23.846  24.547  1.00  0.00     0.017 C 
ATOM      8  H   UNL A   1      34.833  23.309  25.415  1.00  0.00     0.049 H 
ATOM      9  H   UNL A   1      35.840  24.624  24.809  1.00  0.00     0.049 H 
BRANCH   7  10
ATOM     10  N   UNL A   1      34.000  24.453  23.918  1.00  0.00    -0.356 N 
ATOM     11  C   UNL A   1      32.887  25.036  24.440  1.00  0.00     0.227 C 
ATOM     12  O   UNL A   1      32.015  25.374  23.631  1.00  0.00    -0.274 OA
ATOM     13  H   UNL A   1      34.025  24.439  22.934  1.00  0.00     0.163 HD
BRANCH  11  14
ATOM     14  C   UNL A   1      32.686  25.306  25.938  1.00  0.00     0.060 C 
ATOM     15  H   UNL A   1      33.554  24.902  26.418  1.00  0.00     0.045 H 
BRANCH  14  16
ATOM     16  C   UNL A   1      32.744  26.779  26.314  1.00  0.00    -0.036 A 
ATOM     17  C   UNL A   1      32.896  29.575  26.910  1.00  0.00    -0.017 A 
ATOM     18  C   UNL A   1      31.788  28.799  27.282  1.00  0.00    -0.054 A 
ATOM     19  C   UNL A   1      33.937  28.913  26.242  1.00  0.00    -0.054 A 
ATOM     20  C   UNL A   1      31.727  27.425  27.019  1.00  0.00    -0.058 A 
ATOM     21  H   UNL A   1      30.995  29.253  27.762  1.00  0.00     0.063 H 
ATOM     22  C   UNL A   1      33.855  27.546  25.934  1.00  0.00    -0.058 A 
ATOM     23  H   UNL A   1      34.781  29.442  25.971  1.00  0.00     0.063 H 
ATOM     24  H   UNL A   1      30.917  26.881  27.353  1.00  0.00     0.063 H 
ATOM     25  H   UNL A   1      34.628  27.097  25.418  1.00  0.00     0.063 H 
BRANCH  17  26
ATOM     26  C   UNL A   1      32.953  31.018  27.227  1.00  0.00     0.001 A 
ATOM     27  C   UNL A   1      34.097  33.000  28.083  1.00  0.00    -0.007 A 
ATOM     28  C   UNL A   1      32.958  33.731  27.760  1.00  0.00     0.034 A 
ATOM     29  C   UNL A   1      34.078  31.626  27.810  1.00  0.00    -0.044 A 
ATOM     30  N   UNL A   1      31.850  33.203  27.198  1.00  0.00    -0.263 NA
ATOM     31  H   UNL A   1      32.960  34.742  27.963  1.00  0.00     0.085 H 
ATOM     32  H   UNL A   1      34.903  31.051  28.042  1.00  0.00     0.064 H 
ATOM     33  C   UNL A   1      31.877  31.871  26.957  1.00  0.00     0.035 A 
ATOM     34  H   UNL A   1      31.033  31.448  26.539  1.00  0.00     0.085 H 
BRANCH  27  35
ATOM     35  C   UNL A   1      35.225  33.669  28.738  1.00  0.00    -0.061 C 
ATOM     36  C   UNL A   1      36.499  33.274  28.632  1.00  0.00    -0.098 C 
ATOM     37  H   UNL A   1      37.244  33.793  29.121  1.00  0.00     0.054 H 
ATOM     38  H   UNL A   1      36.737  32.449  28.059  1.00  0.00     0.054 H 
ATOM     39  H   UNL A   1      35.024  34.499  29.318  1.00  0.00     0.062 H 
ENDBRANCH  27  35
ENDBRANCH  17  26
ENDBRANCH  14  16
BRANCH  14  40
ATOM     40  C   UNL A   1      31.547  24.502  26.569  1.00  0.00    -0.049 C 
ATOM     41  H   UNL A   1      31.860  24.130  27.523  1.00  0.00     0.024 H 
ATOM     42  H   UNL A   1      31.294  23.680  25.931  1.00  0.00     0.024 H 
ATOM     43  H   UNL A   1      30.693  25.132  26.695  1.00  0.00     0.024 H 
ENDBRANCH  14  40
ENDBRANCH  11  14
ENDBRANCH   7  10
ENDBRANCH   4   7
ENDBRANCH   1   4
BRANCH   1  44
ATOM     44  C   UNL A   1      36.798  20.891  24.976  1.00  0.00    -0.052 C 
ATOM     45  H   UNL A   1      35.948  20.431  24.519  1.00  0.00     0.027 H 
ATOM     46  H   UNL A   1      36.641  21.171  25.997  1.00  0.00     0.027 H 
BRANCH  44  47
ATOM     47  C   UNL A   1      37.938  19.866  24.993  1.00  0.00    -0.036 C 
ATOM     48  H   UNL A   1      38.223  19.669  23.981  1.00  0.00     0.028 H 
ATOM     49  H   UNL A   1      37.559  19.003  25.500  1.00  0.00     0.028 H 
BRANCH  47  50
ATOM     50  C   UNL A   1      39.182  20.305  25.761  1.00  0.00     0.018 C 
ATOM     51  H   UNL A   1      38.893  20.602  26.747  1.00  0.00     0.049 H 
ATOM     52  H   UNL A   1      39.630  21.119  25.229  1.00  0.00     0.049 H 
BRANCH  50  53
ATOM     53  N   UNL A   1      40.166  19.237  25.860  1.00  0.00    -0.352 N 
ATOM     54  C   UNL A   1      41.522  19.303  26.061  1.00  0.00     0.251 C 
ATOM     55  H   UNL A   1      39.801  18.327  25.770  1.00  0.00     0.163 HD
ATOM     56  O   UNL A   1      42.221  18.310  25.885  1.00  0.00    -0.269 OA
BRANCH  54  57
ATOM     57  C   UNL A   1      42.151  20.576  26.472  1.00  0.00     0.039 A 
ATOM     58  C   UNL A   1      42.679  21.418  25.490  1.00  0.00    -0.049 A 
ATOM     59  C   UNL A   1      42.232  20.931  27.821  1.00  0.00    -0.049 A 
ATOM     60  C   UNL A   1      43.213  22.656  25.853  1.00  0.00    -0.053 A 
ATOM     61  H   UNL A   1      42.674  21.126  24.500  1.00  0.00     0.063 H 
ATOM     62  C   UNL A   1      42.710  22.191  28.177  1.00  0.00    -0.053 A 
ATOM     63  H   UNL A   1      41.939  20.264  28.551  1.00  0.00     0.063 H 
ATOM     64  C   UNL A   1      43.190  23.071  27.195  1.00  0.00    -0.014 A 
ATOM     65  H   UNL A   1      43.627  23.269  25.133  1.00  0.00     0.063 H 
ATOM     66  H   UNL A   1      42.712  22.478  29.168  1.00  0.00     0.063 H 
BRANCH  64  67
ATOM     67  C   UNL A   1      43.604  24.442  27.582  1.00  0.00     0.031 A 
ATOM     68  C   UNL A   1      42.580  25.481  27.936  1.00  0.00     0.074 A 
ATOM     69  C   UNL A   1      44.909  24.771  27.528  1.00  0.00     0.049 A 
ATOM     70  N   UNL A   1      42.750  26.750  28.210  1.00  0.00    -0.248 NA
ATOM     71  C   UNL A   1      41.176  25.043  27.963  1.00  0.00    -0.034 C 
ATOM     72  C   UNL A   1      45.993  23.861  27.155  1.00  0.00    -0.036 A 
ATOM     73  N   UNL A   1      45.546  25.962  27.770  1.00  0.00    -0.354 N 
ATOM     74  C   UNL A   1      41.479  27.262  28.435  1.00  0.00     0.074 A 
ATOM     75  C   UNL A   1      40.543  26.179  28.221  1.00  0.00    -0.034 C 
ATOM     76  H   UNL A   1      40.786  24.098  27.819  1.00  0.00     0.065 H 
ATOM     77  C   UNL A   1      47.160  24.523  27.203  1.00  0.00    -0.036 A 
ATOM     78  H   UNL A   1      45.879  22.869  26.895  1.00  0.00     0.065 H 
ATOM     79  C   UNL A   1      46.903  25.911  27.570  1.00  0.00     0.049 A 
ATOM     80  H   UNL A   1      45.074  26.777  28.060  1.00  0.00     0.167 HD
ATOM     81  C   UNL A   1      41.130  28.519  28.803  1.00  0.00     0.037 A 
ATOM     82  H   UNL A   1      39.517  26.278  28.264  1.00  0.00     0.065 H 
ATOM     83  H   UNL A   1      48.089  24.115  27.013  1.00  0.00     0.065 H 
ATOM     84  C   UNL A   1      47.836  26.879  27.654  1.00  0.00     0.037 A 
ATOM     85  C   UNL A   1      42.067  29.589  29.027  1.00  0.00     0.049 A 
ATOM     86  C   UNL A   1      47.417  28.271  28.037  1.00  0.00     0.074 A 
ATOM     87  C   UNL A   1      41.817  30.876  29.472  1.00  0.00    -0.036 A 
ATOM     88  N   UNL A   1      43.434  29.500  28.815  1.00  0.00    -0.354 N 
ATOM     89  N   UNL A   1      46.220  28.725  28.321  1.00  0.00    -0.248 NA
ATOM     90  C   UNL A   1      48.478  29.285  28.112  1.00  0.00    -0.034 C 
ATOM     91  C   UNL A   1      43.025  31.580  29.479  1.00  0.00    -0.036 A 
ATOM     92  H   UNL A   1      40.897  31.252  29.752  1.00  0.00     0.065 H 
ATOM     93  C   UNL A   1      44.037  30.719  29.086  1.00  0.00     0.049 A 
ATOM     94  H   UNL A   1      43.909  28.691  28.515  1.00  0.00     0.167 HD
ATOM     95  C   UNL A   1      46.385  30.070  28.623  1.00  0.00     0.074 A 
ATOM     96  C   UNL A   1      47.801  30.353  28.510  1.00  0.00    -0.034 C 
ATOM     97  H   UNL A   1      49.485  29.191  27.907  1.00  0.00     0.065 H 
ATOM     98  H   UNL A   1      43.143  32.573  29.733  1.00  0.00     0.065 H 
ATOM     99  C   UNL A   1      45.446  30.988  28.960  1.00  0.00     0.037 A 
ATOM    100  H   UNL A   1      48.228  31.270  28.713  1.00  0.00     0.065 H 
BRANCH  81 101
ATOM    101  C   UNL A   1      39.669  28.809  28.988  1.00  0.00     0.064 A 
ATOM    102  C   UNL A   1      39.043  28.662  30.235  1.00  0.00     0.173 A 
ATOM    103  C   UNL A   1      38.897  29.291  27.920  1.00  0.00     0.173 A 
ATOM    104  F   UNL A   1      39.735  28.198  31.287  1.00  0.00    -0.203 F 
ATOM    105  C   UNL A   1      37.693  28.963  30.400  1.00  0.00     0.198 A 
ATOM    106  C   UNL A   1      37.555  29.617  28.095  1.00  0.00     0.198 A 
ATOM    107  F   UNL A   1      39.448  29.457  26.708  1.00  0.00    -0.203 F 
ATOM    108  F   UNL A   1      37.107  28.775  31.590  1.00  0.00    -0.200 F 
ATOM    109  C   UNL A   1      36.952  29.447  29.332  1.00  0.00     0.200 A 
ATOM    110  F   UNL A   1      36.843  30.098  27.065  1.00  0.00    -0.200 F 
ATOM    111  F   UNL A   1      35.656  29.745  29.495  1.00  0.00    -0.200 F 
ENDBRANCH  81 101
BRANCH  84 112
ATOM    112  C   UNL A   1      49.260  26.563  27.374  1.00  0.00     0.064 A 
ATOM    113  C   UNL A   1      49.751  26.553  26.061  1.00  0.00     0.173 A 
ATOM    114  C   UNL A   1      50.159  26.266  28.409  1.00  0.00     0.173 A 
ATOM    115  F   UNL A   1      48.925  26.809  25.037  1.00  0.00    -0.203 F 
ATOM    116  C   UNL A   1      51.081  26.239  25.792  1.00  0.00     0.198 A 
ATOM    117  C   UNL A   1      51.496  25.980  28.142  1.00  0.00     0.198 A 
ATOM    118  F   UNL A   1      49.741  26.268  29.683  1.00  0.00    -0.203 F 
ATOM    119  F   UNL A   1      51.513  26.193  24.524  1.00  0.00    -0.200 F 
ATOM    120  C   UNL A   1      51.954  25.959  26.832  1.00  0.00     0.200 A 
ATOM    121  F   UNL A   1      52.340  25.726  29.150  1.00  0.00    -0.200 F 
ATOM    122  F   UNL A   1      53.236  25.663  26.573  1.00  0.00    -0.200 F 
ENDBRANCH  84 112
BRANCH  99 123
ATOM    123  C   UNL A   1      45.924  32.383  29.239  1.00  0.00     0.064 A 
ATOM    124  C   UNL A   1      46.341  32.772  30.520  1.00  0.00     0.173 A 
ATOM    125  C   UNL A   1      45.998  33.332  28.208  1.00  0.00     0.173 A 
ATOM    126  F   UNL A   1      46.273  31.908  31.544  1.00  0.00    -0.203 F 
ATOM    127  C   UNL A   1      46.792  34.067  30.763  1.00  0.00     0.198 A 
ATOM    128  C   UNL A   1      46.477  34.616  28.448  1.00  0.00     0.198 A 
ATOM    129  F   UNL A   1      45.614  33.009  26.963  1.00  0.00    -0.203 F 
ATOM    130  F   UNL A   1      47.140  34.430  32.006  1.00  0.00    -0.200 F 
ATOM    131  C   UNL A   1      46.868  34.985  29.726  1.00  0.00     0.200 A 
ATOM    132  F   UNL A   1      46.560  35.499  27.443  1.00  0.00    -0.200 F 
ATOM    133  F   UNL A   1      47.307  36.229  29.962  1.00  0.00    -0.200 F 
ENDBRANCH  99 123
ENDBRANCH  64  67
ENDBRANCH  54  57
ENDBRANCH  50  53
ENDBRANCH  47  50
ENDBRANCH  44  47
ENDBRANCH   1  44
TORSDOF 17
ENDMDL
MODEL 6
REMARK VINA RESULT:     -11.9      1.743      7.470
REMARK SMILES C=Cc1cncc(-c2ccc([C@@H](C)C(=O)NCCCCCCNC(=O)c3ccc(-c4c5nc(c(-c6c(F)c(F)c(F)c(F)c6F)c6ccc([nH]6)c(-c6c(F)c(F)c(F)c(F)c6F)c6nc(c(-c7c(F)c(F)c(F)c(F)c7F)c7ccc4[nH]7)C=C6)C=C5)cc3)cc2)c1
REMARK SMILES IDX 19 1 18 4 17 7 16 10 14 11 15 12 12 14 11 16 8 17 9 18 90 19
REMARK SMILES IDX 10 20 89 22 7 26 3 27 4 28 91 29 5 30 6 33 2 35 1 36 13 40
REMARK SMILES IDX 20 44 21 47 22 50 23 53 24 54 25 56 26 57 27 58 88 59 28 60
REMARK SMILES IDX 87 62 29 64 30 67 31 68 81 69 32 70 86 71 80 72 82 73 33 74
REMARK SMILES IDX 85 75 79 77 78 79 34 81 66 84 46 85 65 86 47 87 50 88 64 89
REMARK SMILES IDX 83 90 48 91 49 93 63 95 84 96 51 99 35 101 36 102 44 103
REMARK SMILES IDX 37 104 38 105 42 106 45 107 39 108 40 109 43 110 41 111
REMARK SMILES IDX 67 112 68 113 76 114 69 115 70 116 74 117 77 118 71 119
REMARK SMILES IDX 72 120 75 121 73 122 52 123 53 124 61 125 54 126 55 127
REMARK SMILES IDX 59 128 62 129 56 130 57 131 60 132 58 133
REMARK H PARENT 19 2 19 3 18 5 18 6 17 8 17 9 16 13 12 15 9 21 90 23 10 24
REMARK H PARENT 89 25 4 31 91 32 6 34 1 37 1 38 2 39 13 41 13 42 13 43 20 45
REMARK H PARENT 20 46 21 48 21 49 22 51 22 52 23 55 27 61 88 63 28 65 87 66
REMARK H PARENT 86 76 80 78 82 80 85 82 79 83 47 92 50 94 83 97 48 98 84 100
REMARK Flexibility Score: inf
ROOT
ATOM      1  C   UNL A   1      32.169  29.479  26.925  1.00  0.00    -0.052 C 
ATOM      2  H   UNL A   1      33.152  29.207  26.597  1.00  0.00     0.027 H 
ATOM      3  H   UNL A   1      32.157  29.966  27.876  1.00  0.00     0.027 H 
ENDROOT
BRANCH   1   4
ATOM      4  C   UNL A   1      31.353  28.193  27.092  1.00  0.00    -0.036 C 
ATOM      5  H   UNL A   1      31.091  28.093  28.126  1.00  0.00     0.028 H 
ATOM      6  H   UNL A   1      30.496  28.283  26.459  1.00  0.00     0.028 H 
BRANCH   4   7
ATOM      7  C   UNL A   1      32.096  26.927  26.659  1.00  0.00     0.017 C 
ATOM      8  H   UNL A   1      32.290  26.982  25.607  1.00  0.00     0.049 H 
ATOM      9  H   UNL A   1      33.008  26.868  27.215  1.00  0.00     0.049 H 
BRANCH   7  10
ATOM     10  N   UNL A   1      31.323  25.734  26.931  1.00  0.00    -0.356 N 
ATOM     11  C   UNL A   1      30.683  24.862  26.106  1.00  0.00     0.227 C 
ATOM     12  O   UNL A   1      30.009  23.982  26.655  1.00  0.00    -0.274 OA
ATOM     13  H   UNL A   1      31.246  25.514  27.888  1.00  0.00     0.163 HD
BRANCH  11  14
ATOM     14  C   UNL A   1      30.776  24.909  24.574  1.00  0.00     0.060 C 
ATOM     15  H   UNL A   1      30.046  24.209  24.224  1.00  0.00     0.045 H 
BRANCH  14  16
ATOM     16  C   UNL A   1      30.306  26.223  23.967  1.00  0.00    -0.036 A 
ATOM     17  C   UNL A   1      29.349  28.710  22.920  1.00  0.00    -0.017 A 
ATOM     18  C   UNL A   1      30.710  28.370  22.890  1.00  0.00    -0.054 A 
ATOM     19  C   UNL A   1      28.472  27.766  23.477  1.00  0.00    -0.054 A 
ATOM     20  C   UNL A   1      31.175  27.140  23.372  1.00  0.00    -0.058 A 
ATOM     21  H   UNL A   1      31.388  29.044  22.502  1.00  0.00     0.063 H 
ATOM     22  C   UNL A   1      28.944  26.554  24.006  1.00  0.00    -0.058 A 
ATOM     23  H   UNL A   1      27.461  27.967  23.498  1.00  0.00     0.063 H 
ATOM     24  H   UNL A   1      32.176  26.908  23.286  1.00  0.00     0.063 H 
ATOM     25  H   UNL A   1      28.274  25.894  24.432  1.00  0.00     0.063 H 
BRANCH  17  26
ATOM     26  C   UNL A   1      28.877  30.001  22.375  1.00  0.00     0.001 A 
ATOM     27  C   UNL A   1      28.681  32.435  22.449  1.00  0.00    -0.007 A 
ATOM     28  C   UNL A   1      27.963  32.360  21.259  1.00  0.00     0.034 A 
ATOM     29  C   UNL A   1      29.134  31.231  23.004  1.00  0.00    -0.044 A 
ATOM     30  N   UNL A   1      27.687  31.208  20.610  1.00  0.00    -0.263 NA
ATOM     31  H   UNL A   1      27.620  33.240  20.846  1.00  0.00     0.085 H 
ATOM     32  H   UNL A   1      29.665  31.249  23.889  1.00  0.00     0.064 H 
ATOM     33  C   UNL A   1      28.142  30.071  21.187  1.00  0.00     0.035 A 
ATOM     34  H   UNL A   1      27.929  29.180  20.711  1.00  0.00     0.085 H 
BRANCH  27  35
ATOM     35  C   UNL A   1      28.878  33.737  23.093  1.00  0.00    -0.061 C 
ATOM     36  C   UNL A   1      29.986  34.089  23.756  1.00  0.00    -0.098 C 
ATOM     37  H   UNL A   1      30.056  35.024  24.185  1.00  0.00     0.054 H 
ATOM     38  H   UNL A   1      30.771  33.424  23.836  1.00  0.00     0.054 H 
ATOM     39  H   UNL A   1      28.112  34.427  23.032  1.00  0.00     0.062 H 
ENDBRANCH  27  35
ENDBRANCH  17  26
ENDBRANCH  14  16
BRANCH  14  40
ATOM     40  C   UNL A   1      32.081  24.344  24.011  1.00  0.00    -0.049 C 
ATOM     41  H   UNL A   1      32.682  23.967  24.813  1.00  0.00     0.024 H 
ATOM     42  H   UNL A   1      32.615  25.119  23.500  1.00  0.00     0.024 H 
ATOM     43  H   UNL A   1      31.862  23.552  23.327  1.00  0.00     0.024 H 
ENDBRANCH  14  40
ENDBRANCH  11  14
ENDBRANCH   7  10
ENDBRANCH   4   7
ENDBRANCH   1   4
BRANCH   1  44
ATOM     44  C   UNL A   1      31.595  30.488  25.920  1.00  0.00    -0.052 C 
ATOM     45  H   UNL A   1      30.637  30.131  25.606  1.00  0.00     0.027 H 
ATOM     46  H   UNL A   1      32.313  30.553  25.128  1.00  0.00     0.027 H 
BRANCH  44  47
ATOM     47  C   UNL A   1      31.419  31.916  26.446  1.00  0.00    -0.036 C 
ATOM     48  H   UNL A   1      30.581  31.925  27.112  1.00  0.00     0.028 H 
ATOM     49  H   UNL A   1      31.281  32.538  25.586  1.00  0.00     0.028 H 
BRANCH  47  50
ATOM     50  C   UNL A   1      32.627  32.477  27.193  1.00  0.00     0.018 C 
ATOM     51  H   UNL A   1      33.498  32.355  26.584  1.00  0.00     0.049 H 
ATOM     52  H   UNL A   1      32.723  31.943  28.116  1.00  0.00     0.049 H 
BRANCH  50  53
ATOM     53  N   UNL A   1      32.465  33.890  27.506  1.00  0.00    -0.352 N 
ATOM     54  C   UNL A   1      33.058  34.649  28.484  1.00  0.00     0.251 C 
ATOM     55  H   UNL A   1      31.834  34.374  26.926  1.00  0.00     0.163 HD
ATOM     56  O   UNL A   1      32.626  35.768  28.742  1.00  0.00    -0.269 OA
BRANCH  54  57
ATOM     57  C   UNL A   1      34.208  34.116  29.244  1.00  0.00     0.039 A 
ATOM     58  C   UNL A   1      33.968  33.379  30.406  1.00  0.00    -0.049 A 
ATOM     59  C   UNL A   1      35.518  34.353  28.820  1.00  0.00    -0.049 A 
ATOM     60  C   UNL A   1      35.039  32.808  31.098  1.00  0.00    -0.053 A 
ATOM     61  H   UNL A   1      33.003  33.257  30.752  1.00  0.00     0.063 H 
ATOM     62  C   UNL A   1      36.580  33.735  29.475  1.00  0.00    -0.053 A 
ATOM     63  H   UNL A   1      35.699  34.984  28.023  1.00  0.00     0.063 H 
ATOM     64  C   UNL A   1      36.349  32.943  30.611  1.00  0.00    -0.014 A 
ATOM     65  H   UNL A   1      34.866  32.285  31.971  1.00  0.00     0.063 H 
ATOM     66  H   UNL A   1      37.543  33.859  29.124  1.00  0.00     0.063 H 
BRANCH  64  67
ATOM     67  C   UNL A   1      37.480  32.215  31.237  1.00  0.00     0.031 A 
ATOM     68  C   UNL A   1      37.989  32.610  32.594  1.00  0.00     0.074 A 
ATOM     69  C   UNL A   1      38.103  31.248  30.537  1.00  0.00     0.049 A 
ATOM     70  N   UNL A   1      39.020  32.148  33.256  1.00  0.00    -0.248 NA
ATOM     71  C   UNL A   1      37.257  33.680  33.288  1.00  0.00    -0.034 C 
ATOM     72  C   UNL A   1      37.730  30.807  29.192  1.00  0.00    -0.036 A 
ATOM     73  N   UNL A   1      39.193  30.474  30.849  1.00  0.00    -0.354 N 
ATOM     74  C   UNL A   1      39.065  32.874  34.439  1.00  0.00     0.074 A 
ATOM     75  C   UNL A   1      37.985  33.838  34.385  1.00  0.00    -0.034 C 
ATOM     76  H   UNL A   1      36.401  34.177  32.998  1.00  0.00     0.065 H 
ATOM     77  C   UNL A   1      38.567  29.834  28.799  1.00  0.00    -0.036 A 
ATOM     78  H   UNL A   1      36.948  31.184  28.635  1.00  0.00     0.065 H 
ATOM     79  C   UNL A   1      39.560  29.612  29.845  1.00  0.00     0.049 A 
ATOM     80  H   UNL A   1      39.666  30.531  31.711  1.00  0.00     0.167 HD
ATOM     81  C   UNL A   1      39.920  32.735  35.481  1.00  0.00     0.037 A 
ATOM     82  H   UNL A   1      37.807  34.554  35.105  1.00  0.00     0.065 H 
ATOM     83  H   UNL A   1      38.516  29.325  27.903  1.00  0.00     0.065 H 
ATOM     84  C   UNL A   1      40.593  28.751  29.766  1.00  0.00     0.037 A 
ATOM     85  C   UNL A   1      40.983  31.765  35.535  1.00  0.00     0.049 A 
ATOM     86  C   UNL A   1      41.543  28.637  30.927  1.00  0.00     0.074 A 
ATOM     87  C   UNL A   1      41.856  31.499  36.576  1.00  0.00    -0.036 A 
ATOM     88  N   UNL A   1      41.325  30.909  34.500  1.00  0.00    -0.354 N 
ATOM     89  N   UNL A   1      41.530  29.276  32.071  1.00  0.00    -0.248 NA
ATOM     90  C   UNL A   1      42.651  27.683  30.784  1.00  0.00    -0.034 C 
ATOM     91  C   UNL A   1      42.758  30.518  36.152  1.00  0.00    -0.036 A 
ATOM     92  H   UNL A   1      41.843  31.947  37.506  1.00  0.00     0.065 H 
ATOM     93  C   UNL A   1      42.418  30.137  34.864  1.00  0.00     0.049 A 
ATOM     94  H   UNL A   1      40.862  30.857  33.633  1.00  0.00     0.167 HD
ATOM     95  C   UNL A   1      42.614  28.792  32.790  1.00  0.00     0.074 A 
ATOM     96  C   UNL A   1      43.250  27.788  31.961  1.00  0.00    -0.034 C 
ATOM     97  H   UNL A   1      42.899  27.087  29.978  1.00  0.00     0.065 H 
ATOM     98  H   UNL A   1      43.544  30.142  36.704  1.00  0.00     0.065 H 
ATOM     99  C   UNL A   1      43.046  29.149  34.025  1.00  0.00     0.037 A 
ATOM    100  H   UNL A   1      44.066  27.227  32.251  1.00  0.00     0.065 H 
BRANCH  81 101
ATOM    101  C   UNL A   1      39.742  33.654  36.654  1.00  0.00     0.064 A 
ATOM    102  C   UNL A   1      40.379  34.904  36.711  1.00  0.00     0.173 A 
ATOM    103  C   UNL A   1      38.884  33.307  37.709  1.00  0.00     0.173 A 
ATOM    104  F   UNL A   1      41.214  35.281  35.732  1.00  0.00    -0.203 F 
ATOM    105  C   UNL A   1      40.182  35.759  37.792  1.00  0.00     0.198 A 
ATOM    106  C   UNL A   1      38.670  34.176  38.775  1.00  0.00     0.198 A 
ATOM    107  F   UNL A   1      38.246  32.127  37.700  1.00  0.00    -0.203 F 
ATOM    108  F   UNL A   1      40.833  36.930  37.845  1.00  0.00    -0.200 F 
ATOM    109  C   UNL A   1      39.323  35.398  38.820  1.00  0.00     0.200 A 
ATOM    110  F   UNL A   1      37.828  33.832  39.760  1.00  0.00    -0.200 F 
ATOM    111  F   UNL A   1      39.127  36.228  39.854  1.00  0.00    -0.200 F 
ENDBRANCH  81 101
BRANCH  84 112
ATOM    112  C   UNL A   1      40.779  27.925  28.546  1.00  0.00     0.064 A 
ATOM    113  C   UNL A   1      41.556  28.388  27.475  1.00  0.00     0.173 A 
ATOM    114  C   UNL A   1      40.188  26.659  28.424  1.00  0.00     0.173 A 
ATOM    115  F   UNL A   1      42.123  29.601  27.536  1.00  0.00    -0.203 F 
ATOM    116  C   UNL A   1      41.718  27.625  26.321  1.00  0.00     0.198 A 
ATOM    117  C   UNL A   1      40.375  25.884  27.282  1.00  0.00     0.198 A 
ATOM    118  F   UNL A   1      39.441  26.167  29.424  1.00  0.00    -0.203 F 
ATOM    119  F   UNL A   1      42.429  28.110  25.294  1.00  0.00    -0.200 F 
ATOM    120  C   UNL A   1      41.133  26.371  26.228  1.00  0.00     0.200 A 
ATOM    121  F   UNL A   1      39.821  24.666  27.202  1.00  0.00    -0.200 F 
ATOM    122  F   UNL A   1      41.295  25.635  25.119  1.00  0.00    -0.200 F 
ENDBRANCH  84 112
BRANCH  99 123
ATOM    123  C   UNL A   1      44.258  28.443  34.556  1.00  0.00     0.064 A 
ATOM    124  C   UNL A   1      44.156  27.220  35.234  1.00  0.00     0.173 A 
ATOM    125  C   UNL A   1      45.540  28.976  34.355  1.00  0.00     0.173 A 
ATOM    126  F   UNL A   1      42.951  26.677  35.468  1.00  0.00    -0.203 F 
ATOM    127  C   UNL A   1      45.290  26.569  35.713  1.00  0.00     0.198 A 
ATOM    128  C   UNL A   1      46.674  28.309  34.809  1.00  0.00     0.198 A 
ATOM    129  F   UNL A   1      45.694  30.142  33.708  1.00  0.00    -0.203 F 
ATOM    130  F   UNL A   1      45.163  25.426  36.401  1.00  0.00    -0.200 F 
ATOM    131  C   UNL A   1      46.548  27.109  35.493  1.00  0.00     0.200 A 
ATOM    132  F   UNL A   1      47.890  28.827  34.586  1.00  0.00    -0.200 F 
ATOM    133  F   UNL A   1      47.638  26.479  35.950  1.00  0.00    -0.200 F 
ENDBRANCH  99 123
ENDBRANCH  64  67
ENDBRANCH  54  57
ENDBRANCH  50  53
ENDBRANCH  47  50
ENDBRANCH  44  47
ENDBRANCH   1  44
TORSDOF 17
ENDMDL
MODEL 7
REMARK VINA RESULT:     -11.8      5.588      9.856
REMARK SMILES C=Cc1cncc(-c2ccc([C@@H](C)C(=O)NCCCCCCNC(=O)c3ccc(-c4c5nc(c(-c6c(F)c(F)c(F)c(F)c6F)c6ccc([nH]6)c(-c6c(F)c(F)c(F)c(F)c6F)c6nc(c(-c7c(F)c(F)c(F)c(F)c7F)c7ccc4[nH]7)C=C6)C=C5)cc3)cc2)c1
REMARK SMILES IDX 19 1 18 4 17 7 16 10 14 11 15 12 12 14 11 16 8 17 9 18 90 19
REMARK SMILES IDX 10 20 89 22 7 26 3 27 4 28 91 29 5 30 6 33 2 35 1 36 13 40
REMARK SMILES IDX 20 44 21 47 22 50 23 53 24 54 25 56 26 57 27 58 88 59 28 60
REMARK SMILES IDX 87 62 29 64 30 67 31 68 81 69 32 70 86 71 80 72 82 73 33 74
REMARK SMILES IDX 85 75 79 77 78 79 34 81 66 84 46 85 65 86 47 87 50 88 64 89
REMARK SMILES IDX 83 90 48 91 49 93 63 95 84 96 51 99 35 101 36 102 44 103
REMARK SMILES IDX 37 104 38 105 42 106 45 107 39 108 40 109 43 110 41 111
REMARK SMILES IDX 67 112 68 113 76 114 69 115 70 116 74 117 77 118 71 119
REMARK SMILES IDX 72 120 75 121 73 122 52 123 53 124 61 125 54 126 55 127
REMARK SMILES IDX 59 128 62 129 56 130 57 131 60 132 58 133
REMARK H PARENT 19 2 19 3 18 5 18 6 17 8 17 9 16 13 12 15 9 21 90 23 10 24
REMARK H PARENT 89 25 4 31 91 32 6 34 1 37 1 38 2 39 13 41 13 42 13 43 20 45
REMARK H PARENT 20 46 21 48 21 49 22 51 22 52 23 55 27 61 88 63 28 65 87 66
REMARK H PARENT 86 76 80 78 82 80 85 82 79 83 47 92 50 94 83 97 48 98 84 100
REMARK Flexibility Score: inf
ROOT
ATOM      1  C   UNL A   1      43.322  18.909  25.735  1.00  0.00    -0.052 C 
ATOM      2  H   UNL A   1      43.822  18.809  26.677  1.00  0.00     0.027 H 
ATOM      3  H   UNL A   1      43.009  17.977  25.317  1.00  0.00     0.027 H 
ENDROOT
BRANCH   1   4
ATOM      4  C   UNL A   1      44.313  19.515  24.736  1.00  0.00    -0.036 C 
ATOM      5  H   UNL A   1      44.748  18.718  24.168  1.00  0.00     0.028 H 
ATOM      6  H   UNL A   1      43.760  20.198  24.125  1.00  0.00     0.028 H 
BRANCH   4   7
ATOM      7  C   UNL A   1      45.442  20.315  25.389  1.00  0.00     0.017 C 
ATOM      8  H   UNL A   1      45.086  20.729  26.309  1.00  0.00     0.049 H 
ATOM      9  H   UNL A   1      46.264  19.652  25.559  1.00  0.00     0.049 H 
BRANCH   7  10
ATOM     10  N   UNL A   1      45.899  21.391  24.536  1.00  0.00    -0.356 N 
ATOM     11  C   UNL A   1      45.489  22.682  24.409  1.00  0.00     0.227 C 
ATOM     12  O   UNL A   1      46.016  23.338  23.503  1.00  0.00    -0.274 OA
ATOM     13  H   UNL A   1      46.640  21.143  23.937  1.00  0.00     0.163 HD
BRANCH  11  14
ATOM     14  C   UNL A   1      44.451  23.343  25.328  1.00  0.00     0.060 C 
ATOM     15  H   UNL A   1      44.598  22.896  26.289  1.00  0.00     0.045 H 
BRANCH  14  16
ATOM     16  C   UNL A   1      44.714  24.818  25.596  1.00  0.00    -0.036 A 
ATOM     17  C   UNL A   1      45.094  27.605  26.128  1.00  0.00    -0.017 A 
ATOM     18  C   UNL A   1      46.010  26.637  26.566  1.00  0.00    -0.054 A 
ATOM     19  C   UNL A   1      43.985  27.145  25.402  1.00  0.00    -0.054 A 
ATOM     20  C   UNL A   1      45.842  25.277  26.279  1.00  0.00    -0.058 A 
ATOM     21  H   UNL A   1      46.832  26.935  27.117  1.00  0.00     0.063 H 
ATOM     22  C   UNL A   1      43.790  25.777  25.156  1.00  0.00    -0.058 A 
ATOM     23  H   UNL A   1      43.299  27.826  25.041  1.00  0.00     0.063 H 
ATOM     24  H   UNL A   1      46.564  24.603  26.576  1.00  0.00     0.063 H 
ATOM     25  H   UNL A   1      42.949  25.470  24.641  1.00  0.00     0.063 H 
BRANCH  17  26
ATOM     26  C   UNL A   1      45.310  29.039  26.416  1.00  0.00     0.001 A 
ATOM     27  C   UNL A   1      44.684  31.148  27.480  1.00  0.00    -0.007 A 
ATOM     28  C   UNL A   1      45.818  31.713  26.906  1.00  0.00     0.034 A 
ATOM     29  C   UNL A   1      44.437  29.793  27.220  1.00  0.00    -0.044 A 
ATOM     30  N   UNL A   1      46.691  31.039  26.128  1.00  0.00    -0.263 NA
ATOM     31  H   UNL A   1      46.004  32.711  27.087  1.00  0.00     0.085 H 
ATOM     32  H   UNL A   1      43.602  29.342  27.625  1.00  0.00     0.064 H 
ATOM     33  C   UNL A   1      46.410  29.734  25.901  1.00  0.00     0.035 A 
ATOM     34  H   UNL A   1      47.060  29.206  25.297  1.00  0.00     0.085 H 
BRANCH  27  35
ATOM     35  C   UNL A   1      43.777  31.988  28.268  1.00  0.00    -0.061 C 
ATOM     36  C   UNL A   1      43.914  33.311  28.415  1.00  0.00    -0.098 C 
ATOM     37  H   UNL A   1      43.237  33.841  28.985  1.00  0.00     0.054 H 
ATOM     38  H   UNL A   1      44.697  33.802  27.956  1.00  0.00     0.054 H 
ATOM     39  H   UNL A   1      42.982  31.530  28.741  1.00  0.00     0.062 H 
ENDBRANCH  27  35
ENDBRANCH  17  26
ENDBRANCH  14  16
BRANCH  14  40
ATOM     40  C   UNL A   1      43.003  22.974  25.001  1.00  0.00    -0.049 C 
ATOM     41  H   UNL A   1      42.918  22.756  23.956  1.00  0.00     0.024 H 
ATOM     42  H   UNL A   1      42.361  23.794  25.248  1.00  0.00     0.024 H 
ATOM     43  H   UNL A   1      42.717  22.114  25.569  1.00  0.00     0.024 H 
ENDBRANCH  14  40
ENDBRANCH  11  14
ENDBRANCH   7  10
ENDBRANCH   4   7
ENDBRANCH   1   4
BRANCH   1  44
ATOM     44  C   UNL A   1      42.043  19.728  25.962  1.00  0.00    -0.052 C 
ATOM     45  H   UNL A   1      41.210  19.123  25.673  1.00  0.00     0.027 H 
ATOM     46  H   UNL A   1      42.157  20.616  25.375  1.00  0.00     0.027 H 
BRANCH  44  47
ATOM     47  C   UNL A   1      41.808  20.202  27.400  1.00  0.00    -0.036 C 
ATOM     48  H   UNL A   1      42.760  20.306  27.876  1.00  0.00     0.028 H 
ATOM     49  H   UNL A   1      41.184  19.465  27.861  1.00  0.00     0.028 H 
BRANCH  47  50
ATOM     50  C   UNL A   1      41.067  21.531  27.523  1.00  0.00     0.018 C 
ATOM     51  H   UNL A   1      41.765  22.330  27.390  1.00  0.00     0.049 H 
ATOM     52  H   UNL A   1      40.615  21.570  28.492  1.00  0.00     0.049 H 
BRANCH  50  53
ATOM     53  N   UNL A   1      40.010  21.660  26.529  1.00  0.00    -0.352 N 
ATOM     54  C   UNL A   1      39.177  22.717  26.259  1.00  0.00     0.251 C 
ATOM     55  H   UNL A   1      39.874  20.866  25.963  1.00  0.00     0.163 HD
ATOM     56  O   UNL A   1      38.195  22.560  25.541  1.00  0.00    -0.269 OA
BRANCH  54  57
ATOM     57  C   UNL A   1      39.449  24.045  26.848  1.00  0.00     0.039 A 
ATOM     58  C   UNL A   1      38.971  24.328  28.130  1.00  0.00    -0.049 A 
ATOM     59  C   UNL A   1      40.161  25.013  26.133  1.00  0.00    -0.049 A 
ATOM     60  C   UNL A   1      39.277  25.552  28.729  1.00  0.00    -0.053 A 
ATOM     61  H   UNL A   1      38.392  23.636  28.631  1.00  0.00     0.063 H 
ATOM     62  C   UNL A   1      40.517  26.208  26.754  1.00  0.00    -0.053 A 
ATOM     63  H   UNL A   1      40.422  24.842  25.150  1.00  0.00     0.063 H 
ATOM     64  C   UNL A   1      40.093  26.482  28.063  1.00  0.00    -0.014 A 
ATOM     65  H   UNL A   1      38.903  25.774  29.665  1.00  0.00     0.063 H 
ATOM     66  H   UNL A   1      41.096  26.896  26.248  1.00  0.00     0.063 H 
BRANCH  64  67
ATOM     67  C   UNL A   1      40.562  27.716  28.741  1.00  0.00     0.031 A 
ATOM     68  C   UNL A   1      41.961  27.809  29.280  1.00  0.00     0.074 A 
ATOM     69  C   UNL A   1      39.691  28.721  28.945  1.00  0.00     0.049 A 
ATOM     70  N   UNL A   1      42.516  28.768  29.977  1.00  0.00    -0.248 NA
ATOM     71  C   UNL A   1      42.847  26.664  29.021  1.00  0.00    -0.034 C 
ATOM     72  C   UNL A   1      38.293  28.729  28.510  1.00  0.00    -0.036 A 
ATOM     73  N   UNL A   1      39.843  29.925  29.587  1.00  0.00    -0.354 N 
ATOM     74  C   UNL A   1      43.809  28.341  30.245  1.00  0.00     0.074 A 
ATOM     75  C   UNL A   1      43.944  27.017  29.675  1.00  0.00    -0.034 C 
ATOM     76  H   UNL A   1      42.663  25.809  28.472  1.00  0.00     0.065 H 
ATOM     77  C   UNL A   1      37.721  29.882  28.885  1.00  0.00    -0.036 A 
ATOM     78  H   UNL A   1      37.824  27.967  27.995  1.00  0.00     0.065 H 
ATOM     79  C   UNL A   1      38.696  30.678  29.624  1.00  0.00     0.049 A 
ATOM     80  H   UNL A   1      40.695  30.221  29.984  1.00  0.00     0.167 HD
ATOM     81  C   UNL A   1      44.797  29.004  30.894  1.00  0.00     0.037 A 
ATOM     82  H   UNL A   1      44.784  26.426  29.767  1.00  0.00     0.065 H 
ATOM     83  H   UNL A   1      36.748  30.163  28.684  1.00  0.00     0.065 H 
ATOM     84  C   UNL A   1      38.450  31.869  30.203  1.00  0.00     0.037 A 
ATOM     85  C   UNL A   1      44.662  30.327  31.446  1.00  0.00     0.049 A 
ATOM     86  C   UNL A   1      39.558  32.569  30.940  1.00  0.00     0.074 A 
ATOM     87  C   UNL A   1      45.626  31.110  32.058  1.00  0.00    -0.036 A 
ATOM     88  N   UNL A   1      43.484  31.059  31.464  1.00  0.00    -0.354 N 
ATOM     89  N   UNL A   1      40.799  32.188  31.123  1.00  0.00    -0.248 NA
ATOM     90  C   UNL A   1      39.230  33.864  31.553  1.00  0.00    -0.034 C 
ATOM     91  C   UNL A   1      45.020  32.293  32.491  1.00  0.00    -0.036 A 
ATOM     92  H   UNL A   1      46.622  30.863  32.173  1.00  0.00     0.065 H 
ATOM     93  C   UNL A   1      43.689  32.270  32.106  1.00  0.00     0.049 A 
ATOM     94  H   UNL A   1      42.628  30.762  31.079  1.00  0.00     0.167 HD
ATOM     95  C   UNL A   1      41.404  33.201  31.854  1.00  0.00     0.074 A 
ATOM     96  C   UNL A   1      40.399  34.223  32.063  1.00  0.00    -0.034 C 
ATOM     97  H   UNL A   1      38.327  34.363  31.580  1.00  0.00     0.065 H 
ATOM     98  H   UNL A   1      45.485  33.054  33.009  1.00  0.00     0.065 H 
ATOM     99  C   UNL A   1      42.677  33.274  32.315  1.00  0.00     0.037 A 
ATOM    100  H   UNL A   1      40.573  35.118  32.548  1.00  0.00     0.065 H 
BRANCH  81 101
ATOM    101  C   UNL A   1      46.119  28.309  31.042  1.00  0.00     0.064 A 
ATOM    102  C   UNL A   1      46.334  27.342  32.037  1.00  0.00     0.173 A 
ATOM    103  C   UNL A   1      47.168  28.572  30.148  1.00  0.00     0.173 A 
ATOM    104  F   UNL A   1      45.366  27.058  32.922  1.00  0.00    -0.203 F 
ATOM    105  C   UNL A   1      47.556  26.684  32.146  1.00  0.00     0.198 A 
ATOM    106  C   UNL A   1      48.380  27.892  30.243  1.00  0.00     0.198 A 
ATOM    107  F   UNL A   1      47.014  29.481  29.174  1.00  0.00    -0.203 F 
ATOM    108  F   UNL A   1      47.751  25.795  33.129  1.00  0.00    -0.200 F 
ATOM    109  C   UNL A   1      48.575  26.954  31.244  1.00  0.00     0.200 A 
ATOM    110  F   UNL A   1      49.359  28.144  29.362  1.00  0.00    -0.200 F 
ATOM    111  F   UNL A   1      49.747  26.312  31.344  1.00  0.00    -0.200 F 
ENDBRANCH  81 101
BRANCH  84 112
ATOM    112  C   UNL A   1      37.098  32.477  30.104  1.00  0.00     0.064 A 
ATOM    113  C   UNL A   1      36.732  33.241  28.988  1.00  0.00     0.173 A 
ATOM    114  C   UNL A   1      36.145  32.307  31.120  1.00  0.00     0.173 A 
ATOM    115  F   UNL A   1      37.616  33.448  28.001  1.00  0.00    -0.203 F 
ATOM    116  C   UNL A   1      35.472  33.828  28.899  1.00  0.00     0.198 A 
ATOM    117  C   UNL A   1      34.875  32.870  31.017  1.00  0.00     0.198 A 
ATOM    118  F   UNL A   1      36.444  31.580  32.206  1.00  0.00    -0.203 F 
ATOM    119  F   UNL A   1      35.163  34.591  27.841  1.00  0.00    -0.200 F 
ATOM    120  C   UNL A   1      34.543  33.637  29.910  1.00  0.00     0.200 A 
ATOM    121  F   UNL A   1      33.975  32.671  31.989  1.00  0.00    -0.200 F 
ATOM    122  F   UNL A   1      33.328  34.198  29.822  1.00  0.00    -0.200 F 
ENDBRANCH  84 112
BRANCH  99 123
ATOM    123  C   UNL A   1      43.056  34.507  33.082  1.00  0.00     0.064 A 
ATOM    124  C   UNL A   1      43.470  35.677  32.431  1.00  0.00     0.173 A 
ATOM    125  C   UNL A   1      42.972  34.529  34.483  1.00  0.00     0.173 A 
ATOM    126  F   UNL A   1      43.585  35.701  31.094  1.00  0.00    -0.203 F 
ATOM    127  C   UNL A   1      43.809  36.817  33.154  1.00  0.00     0.198 A 
ATOM    128  C   UNL A   1      43.283  35.680  35.201  1.00  0.00     0.198 A 
ATOM    129  F   UNL A   1      42.577  33.437  35.155  1.00  0.00    -0.203 F 
ATOM    130  F   UNL A   1      44.249  37.909  32.512  1.00  0.00    -0.200 F 
ATOM    131  C   UNL A   1      43.708  36.821  34.537  1.00  0.00     0.200 A 
ATOM    132  F   UNL A   1      43.174  35.685  36.537  1.00  0.00    -0.200 F 
ATOM    133  F   UNL A   1      44.029  37.921  35.231  1.00  0.00    -0.200 F 
ENDBRANCH  99 123
ENDBRANCH  64  67
ENDBRANCH  54  57
ENDBRANCH  50  53
ENDBRANCH  47  50
ENDBRANCH  44  47
ENDBRANCH   1  44
TORSDOF 17
ENDMDL
MODEL 8
REMARK VINA RESULT:     -11.8      0.733      7.266
REMARK SMILES C=Cc1cncc(-c2ccc([C@@H](C)C(=O)NCCCCCCNC(=O)c3ccc(-c4c5nc(c(-c6c(F)c(F)c(F)c(F)c6F)c6ccc([nH]6)c(-c6c(F)c(F)c(F)c(F)c6F)c6nc(c(-c7c(F)c(F)c(F)c(F)c7F)c7ccc4[nH]7)C=C6)C=C5)cc3)cc2)c1
REMARK SMILES IDX 19 1 18 4 17 7 16 10 14 11 15 12 12 14 11 16 8 17 9 18 90 19
REMARK SMILES IDX 10 20 89 22 7 26 3 27 4 28 91 29 5 30 6 33 2 35 1 36 13 40
REMARK SMILES IDX 20 44 21 47 22 50 23 53 24 54 25 56 26 57 27 58 88 59 28 60
REMARK SMILES IDX 87 62 29 64 30 67 31 68 81 69 32 70 86 71 80 72 82 73 33 74
REMARK SMILES IDX 85 75 79 77 78 79 34 81 66 84 46 85 65 86 47 87 50 88 64 89
REMARK SMILES IDX 83 90 48 91 49 93 63 95 84 96 51 99 35 101 36 102 44 103
REMARK SMILES IDX 37 104 38 105 42 106 45 107 39 108 40 109 43 110 41 111
REMARK SMILES IDX 67 112 68 113 76 114 69 115 70 116 74 117 77 118 71 119
REMARK SMILES IDX 72 120 75 121 73 122 52 123 53 124 61 125 54 126 55 127
REMARK SMILES IDX 59 128 62 129 56 130 57 131 60 132 58 133
REMARK H PARENT 19 2 19 3 18 5 18 6 17 8 17 9 16 13 12 15 9 21 90 23 10 24
REMARK H PARENT 89 25 4 31 91 32 6 34 1 37 1 38 2 39 13 41 13 42 13 43 20 45
REMARK H PARENT 20 46 21 48 21 49 22 51 22 52 23 55 27 61 88 63 28 65 87 66
REMARK H PARENT 86 76 80 78 82 80 85 82 79 83 47 92 50 94 83 97 48 98 84 100
REMARK Flexibility Score: inf
ROOT
ATOM      1  C   UNL A   1      33.453  27.515  25.236  1.00  0.00    -0.052 C 
ATOM      2  H   UNL A   1      33.362  27.336  24.184  1.00  0.00     0.027 H 
ATOM      3  H   UNL A   1      34.307  28.103  25.497  1.00  0.00     0.027 H 
ENDROOT
BRANCH   1   4
ATOM      4  C   UNL A   1      33.637  26.163  25.933  1.00  0.00    -0.036 C 
ATOM      5  H   UNL A   1      34.291  26.301  26.769  1.00  0.00     0.028 H 
ATOM      6  H   UNL A   1      32.663  25.828  26.225  1.00  0.00     0.028 H 
BRANCH   4   7
ATOM      7  C   UNL A   1      34.229  25.077  25.031  1.00  0.00     0.017 C 
ATOM      8  H   UNL A   1      34.118  25.376  24.010  1.00  0.00     0.049 H 
ATOM      9  H   UNL A   1      35.261  24.959  25.286  1.00  0.00     0.049 H 
BRANCH   7  10
ATOM     10  N   UNL A   1      33.568  23.804  25.222  1.00  0.00    -0.356 N 
ATOM     11  C   UNL A   1      32.650  23.138  24.470  1.00  0.00     0.227 C 
ATOM     12  O   UNL A   1      32.190  22.100  24.960  1.00  0.00    -0.274 OA
ATOM     13  H   UNL A   1      33.830  23.335  26.048  1.00  0.00     0.163 HD
BRANCH  11  14
ATOM     14  C   UNL A   1      32.195  23.594  23.076  1.00  0.00     0.060 C 
ATOM     15  H   UNL A   1      31.477  22.865  22.761  1.00  0.00     0.045 H 
BRANCH  14  16
ATOM     16  C   UNL A   1      31.388  24.885  23.082  1.00  0.00    -0.036 A 
ATOM     17  C   UNL A   1      29.865  27.305  23.214  1.00  0.00    -0.017 A 
ATOM     18  C   UNL A   1      30.978  27.177  22.370  1.00  0.00    -0.054 A 
ATOM     19  C   UNL A   1      29.521  26.183  23.984  1.00  0.00    -0.054 A 
ATOM     20  C   UNL A   1      31.705  25.983  22.282  1.00  0.00    -0.058 A 
ATOM     21  H   UNL A   1      31.272  27.986  21.799  1.00  0.00     0.063 H 
ATOM     22  C   UNL A   1      30.279  25.002  23.932  1.00  0.00    -0.058 A 
ATOM     23  H   UNL A   1      28.695  26.227  24.600  1.00  0.00     0.063 H 
ATOM     24  H   UNL A   1      32.487  25.915  21.612  1.00  0.00     0.063 H 
ATOM     25  H   UNL A   1      30.013  24.205  24.532  1.00  0.00     0.063 H 
BRANCH  17  26
ATOM     26  C   UNL A   1      29.093  28.565  23.267  1.00  0.00     0.001 A 
ATOM     27  C   UNL A   1      28.931  30.992  23.505  1.00  0.00    -0.007 A 
ATOM     28  C   UNL A   1      27.557  30.863  23.329  1.00  0.00     0.034 A 
ATOM     29  C   UNL A   1      29.696  29.818  23.474  1.00  0.00    -0.044 A 
ATOM     30  N   UNL A   1      26.923  29.689  23.126  1.00  0.00    -0.263 NA
ATOM     31  H   UNL A   1      26.985  31.721  23.357  1.00  0.00     0.085 H 
ATOM     32  H   UNL A   1      30.718  29.874  23.606  1.00  0.00     0.064 H 
ATOM     33  C   UNL A   1      27.703  28.582  23.108  1.00  0.00     0.035 A 
ATOM     34  H   UNL A   1      27.234  27.674  22.967  1.00  0.00     0.085 H 
BRANCH  27  35
ATOM     35  C   UNL A   1      29.506  32.314  23.770  1.00  0.00    -0.061 C 
ATOM     36  C   UNL A   1      29.150  33.432  23.126  1.00  0.00    -0.098 C 
ATOM     37  H   UNL A   1      29.597  34.330  23.365  1.00  0.00     0.054 H 
ATOM     38  H   UNL A   1      28.426  33.395  22.391  1.00  0.00     0.054 H 
ATOM     39  H   UNL A   1      30.233  32.387  24.499  1.00  0.00     0.062 H 
ENDBRANCH  27  35
ENDBRANCH  17  26
ENDBRANCH  14  16
BRANCH  14  40
ATOM     40  C   UNL A   1      33.277  23.491  22.001  1.00  0.00    -0.049 C 
ATOM     41  H   UNL A   1      34.197  23.883  22.383  1.00  0.00     0.024 H 
ATOM     42  H   UNL A   1      32.980  24.052  21.140  1.00  0.00     0.024 H 
ATOM     43  H   UNL A   1      33.413  22.465  21.730  1.00  0.00     0.024 H 
ENDBRANCH  14  40
ENDBRANCH  11  14
ENDBRANCH   7  10
ENDBRANCH   4   7
ENDBRANCH   1   4
BRANCH   1  44
ATOM     44  C   UNL A   1      32.226  28.319  25.689  1.00  0.00    -0.052 C 
ATOM     45  H   UNL A   1      31.974  28.007  26.680  1.00  0.00     0.027 H 
ATOM     46  H   UNL A   1      31.462  28.119  24.966  1.00  0.00     0.027 H 
BRANCH  44  47
ATOM     47  C   UNL A   1      32.401  29.841  25.703  1.00  0.00    -0.036 C 
ATOM     48  H   UNL A   1      31.607  30.273  25.132  1.00  0.00     0.028 H 
ATOM     49  H   UNL A   1      33.370  30.036  25.292  1.00  0.00     0.028 H 
BRANCH  47  50
ATOM     50  C   UNL A   1      32.387  30.475  27.092  1.00  0.00     0.018 C 
ATOM     51  H   UNL A   1      33.156  30.026  27.685  1.00  0.00     0.049 H 
ATOM     52  H   UNL A   1      31.421  30.308  27.523  1.00  0.00     0.049 H 
BRANCH  50  53
ATOM     53  N   UNL A   1      32.613  31.912  27.037  1.00  0.00    -0.352 N 
ATOM     54  C   UNL A   1      33.618  32.669  27.586  1.00  0.00     0.251 C 
ATOM     55  H   UNL A   1      31.941  32.419  26.526  1.00  0.00     0.163 HD
ATOM     56  O   UNL A   1      33.517  33.891  27.629  1.00  0.00    -0.269 OA
BRANCH  54  57
ATOM     57  C   UNL A   1      34.819  32.013  28.146  1.00  0.00     0.039 A 
ATOM     58  C   UNL A   1      35.976  32.772  28.338  1.00  0.00    -0.049 A 
ATOM     59  C   UNL A   1      34.808  30.653  28.467  1.00  0.00    -0.049 A 
ATOM     60  C   UNL A   1      37.098  32.187  28.930  1.00  0.00    -0.053 A 
ATOM     61  H   UNL A   1      36.003  33.760  28.042  1.00  0.00     0.063 H 
ATOM     62  C   UNL A   1      35.905  30.086  29.112  1.00  0.00    -0.053 A 
ATOM     63  H   UNL A   1      33.990  30.071  28.228  1.00  0.00     0.063 H 
ATOM     64  C   UNL A   1      37.054  30.852  29.364  1.00  0.00    -0.014 A 
ATOM     65  H   UNL A   1      37.963  32.738  29.049  1.00  0.00     0.063 H 
ATOM     66  H   UNL A   1      35.873  29.097  29.406  1.00  0.00     0.063 H 
BRANCH  64  67
ATOM     67  C   UNL A   1      38.173  30.258  30.138  1.00  0.00     0.031 A 
ATOM     68  C   UNL A   1      38.443  30.692  31.549  1.00  0.00     0.074 A 
ATOM     69  C   UNL A   1      38.998  29.386  29.528  1.00  0.00     0.049 A 
ATOM     70  N   UNL A   1      39.426  30.351  32.345  1.00  0.00    -0.248 NA
ATOM     71  C   UNL A   1      37.499  31.654  32.138  1.00  0.00    -0.034 C 
ATOM     72  C   UNL A   1      38.865  28.923  28.146  1.00  0.00    -0.036 A 
ATOM     73  N   UNL A   1      40.124  28.747  29.985  1.00  0.00    -0.354 N 
ATOM     74  C   UNL A   1      39.223  31.059  33.522  1.00  0.00     0.074 A 
ATOM     75  C   UNL A   1      38.050  31.883  33.322  1.00  0.00    -0.034 C 
ATOM     76  H   UNL A   1      36.634  32.046  31.735  1.00  0.00     0.065 H 
ATOM     77  C   UNL A   1      39.861  28.067  27.871  1.00  0.00    -0.036 A 
ATOM     78  H   UNL A   1      38.123  29.209  27.489  1.00  0.00     0.065 H 
ATOM     79  C   UNL A   1      40.726  27.952  29.040  1.00  0.00     0.049 A 
ATOM     80  H   UNL A   1      40.468  28.848  30.902  1.00  0.00     0.167 HD
ATOM     81  C   UNL A   1      39.942  31.010  34.669  1.00  0.00     0.037 A 
ATOM     82  H   UNL A   1      37.689  32.561  34.011  1.00  0.00     0.065 H 
ATOM     83  H   UNL A   1      39.993  27.568  26.977  1.00  0.00     0.065 H 
ATOM     84  C   UNL A   1      41.858  27.226  29.102  1.00  0.00     0.037 A 
ATOM     85  C   UNL A   1      41.100  30.178  34.866  1.00  0.00     0.049 A 
ATOM     86  C   UNL A   1      42.652  27.212  30.380  1.00  0.00     0.074 A 
ATOM     87  C   UNL A   1      41.853  30.004  36.016  1.00  0.00    -0.036 A 
ATOM     88  N   UNL A   1      41.681  29.385  33.888  1.00  0.00    -0.354 N 
ATOM     89  N   UNL A   1      42.408  27.827  31.511  1.00  0.00    -0.248 NA
ATOM     90  C   UNL A   1      43.879  26.403  30.388  1.00  0.00    -0.034 C 
ATOM     91  C   UNL A   1      42.918  29.149  35.718  1.00  0.00    -0.036 A 
ATOM     92  H   UNL A   1      41.661  30.433  36.935  1.00  0.00     0.065 H 
ATOM     93  C   UNL A   1      42.802  28.749  34.396  1.00  0.00     0.049 A 
ATOM     94  H   UNL A   1      41.347  29.290  32.966  1.00  0.00     0.167 HD
ATOM     95  C   UNL A   1      43.438  27.469  32.369  1.00  0.00     0.074 A 
ATOM     96  C   UNL A   1      44.298  26.564  31.635  1.00  0.00    -0.034 C 
ATOM     97  H   UNL A   1      44.303  25.855  29.623  1.00  0.00     0.065 H 
ATOM     98  H   UNL A   1      43.664  28.864  36.371  1.00  0.00     0.065 H 
ATOM     99  C   UNL A   1      43.654  27.858  33.650  1.00  0.00     0.037 A 
ATOM    100  H   UNL A   1      45.131  26.102  32.032  1.00  0.00     0.065 H 
BRANCH  81 101
ATOM    101  C   UNL A   1      39.498  31.883  35.806  1.00  0.00     0.064 A 
ATOM    102  C   UNL A   1      40.046  33.159  36.012  1.00  0.00     0.173 A 
ATOM    103  C   UNL A   1      38.474  31.463  36.670  1.00  0.00     0.173 A 
ATOM    104  F   UNL A   1      41.031  33.605  35.218  1.00  0.00    -0.203 F 
ATOM    105  C   UNL A   1      39.603  33.970  37.054  1.00  0.00     0.198 A 
ATOM    106  C   UNL A   1      38.016  32.287  37.695  1.00  0.00     0.198 A 
ATOM    107  F   UNL A   1      37.911  30.255  36.514  1.00  0.00    -0.203 F 
ATOM    108  F   UNL A   1      40.171  35.167  37.255  1.00  0.00    -0.200 F 
ATOM    109  C   UNL A   1      38.584  33.536  37.889  1.00  0.00     0.200 A 
ATOM    110  F   UNL A   1      37.022  31.873  38.492  1.00  0.00    -0.200 F 
ATOM    111  F   UNL A   1      38.153  34.323  38.885  1.00  0.00    -0.200 F 
ENDBRANCH  81 101
BRANCH  84 112
ATOM    112  C   UNL A   1      42.306  26.447  27.919  1.00  0.00     0.064 A 
ATOM    113  C   UNL A   1      41.831  25.149  27.690  1.00  0.00     0.173 A 
ATOM    114  C   UNL A   1      43.215  26.983  26.995  1.00  0.00     0.173 A 
ATOM    115  F   UNL A   1      40.977  24.587  28.557  1.00  0.00    -0.203 F 
ATOM    116  C   UNL A   1      42.262  24.408  26.592  1.00  0.00     0.198 A 
ATOM    117  C   UNL A   1      43.623  26.252  25.881  1.00  0.00     0.198 A 
ATOM    118  F   UNL A   1      43.695  28.223  27.165  1.00  0.00    -0.203 F 
ATOM    119  F   UNL A   1      41.825  23.153  26.420  1.00  0.00    -0.200 F 
ATOM    120  C   UNL A   1      43.153  24.962  25.685  1.00  0.00     0.200 A 
ATOM    121  F   UNL A   1      44.472  26.797  24.999  1.00  0.00    -0.200 F 
ATOM    122  F   UNL A   1      43.563  24.251  24.625  1.00  0.00    -0.200 F 
ENDBRANCH  84 112
BRANCH  99 123
ATOM    123  C   UNL A   1      44.863  27.298  34.340  1.00  0.00     0.064 A 
ATOM    124  C   UNL A   1      44.818  26.069  35.015  1.00  0.00     0.173 A 
ATOM    125  C   UNL A   1      46.088  27.980  34.298  1.00  0.00     0.173 A 
ATOM    126  F   UNL A   1      43.666  25.387  35.099  1.00  0.00    -0.203 F 
ATOM    127  C   UNL A   1      45.950  25.555  35.642  1.00  0.00     0.198 A 
ATOM    128  C   UNL A   1      47.225  27.449  34.900  1.00  0.00     0.198 A 
ATOM    129  F   UNL A   1      46.186  29.157  33.662  1.00  0.00    -0.203 F 
ATOM    130  F   UNL A   1      45.872  24.403  36.322  1.00  0.00    -0.200 F 
ATOM    131  C   UNL A   1      47.154  26.241  35.578  1.00  0.00     0.200 A 
ATOM    132  F   UNL A   1      48.391  28.108  34.828  1.00  0.00    -0.200 F 
ATOM    133  F   UNL A   1      48.244  25.742  36.178  1.00  0.00    -0.200 F 
ENDBRANCH  99 123
ENDBRANCH  64  67
ENDBRANCH  54  57
ENDBRANCH  50  53
ENDBRANCH  47  50
ENDBRANCH  44  47
ENDBRANCH   1  44
TORSDOF 17
ENDMDL
MODEL 9
REMARK VINA RESULT:     -11.8      2.612      4.986
REMARK SMILES C=Cc1cncc(-c2ccc([C@@H](C)C(=O)NCCCCCCNC(=O)c3ccc(-c4c5nc(c(-c6c(F)c(F)c(F)c(F)c6F)c6ccc([nH]6)c(-c6c(F)c(F)c(F)c(F)c6F)c6nc(c(-c7c(F)c(F)c(F)c(F)c7F)c7ccc4[nH]7)C=C6)C=C5)cc3)cc2)c1
REMARK SMILES IDX 19 1 18 4 17 7 16 10 14 11 15 12 12 14 11 16 8 17 9 18 90 19
REMARK SMILES IDX 10 20 89 22 7 26 3 27 4 28 91 29 5 30 6 33 2 35 1 36 13 40
REMARK SMILES IDX 20 44 21 47 22 50 23 53 24 54 25 56 26 57 27 58 88 59 28 60
REMARK SMILES IDX 87 62 29 64 30 67 31 68 81 69 32 70 86 71 80 72 82 73 33 74
REMARK SMILES IDX 85 75 79 77 78 79 34 81 66 84 46 85 65 86 47 87 50 88 64 89
REMARK SMILES IDX 83 90 48 91 49 93 63 95 84 96 51 99 35 101 36 102 44 103
REMARK SMILES IDX 37 104 38 105 42 106 45 107 39 108 40 109 43 110 41 111
REMARK SMILES IDX 67 112 68 113 76 114 69 115 70 116 74 117 77 118 71 119
REMARK SMILES IDX 72 120 75 121 73 122 52 123 53 124 61 125 54 126 55 127
REMARK SMILES IDX 59 128 62 129 56 130 57 131 60 132 58 133
REMARK H PARENT 19 2 19 3 18 5 18 6 17 8 17 9 16 13 12 15 9 21 90 23 10 24
REMARK H PARENT 89 25 4 31 91 32 6 34 1 37 1 38 2 39 13 41 13 42 13 43 20 45
REMARK H PARENT 20 46 21 48 21 49 22 51 22 52 23 55 27 61 88 63 28 65 87 66
REMARK H PARENT 86 76 80 78 82 80 85 82 79 83 47 92 50 94 83 97 48 98 84 100
REMARK Flexibility Score: inf
ROOT
ATOM      1  C   UNL A   1      32.782  29.921  27.014  1.00  0.00    -0.052 C 
ATOM      2  H   UNL A   1      33.550  29.802  26.277  1.00  0.00     0.027 H 
ATOM      3  H   UNL A   1      33.068  30.553  27.828  1.00  0.00     0.027 H 
ENDROOT
BRANCH   1   4
ATOM      4  C   UNL A   1      32.492  28.545  27.622  1.00  0.00    -0.036 C 
ATOM      5  H   UNL A   1      33.256  28.326  28.340  1.00  0.00     0.028 H 
ATOM      6  H   UNL A   1      31.518  28.599  28.064  1.00  0.00     0.028 H 
BRANCH   4   7
ATOM      7  C   UNL A   1      32.453  27.410  26.597  1.00  0.00     0.017 C 
ATOM      8  H   UNL A   1      32.307  27.828  25.622  1.00  0.00     0.049 H 
ATOM      9  H   UNL A   1      33.381  26.880  26.652  1.00  0.00     0.049 H 
BRANCH   7  10
ATOM     10  N   UNL A   1      31.383  26.476  26.872  1.00  0.00    -0.356 N 
ATOM     11  C   UNL A   1      30.743  25.573  26.081  1.00  0.00     0.227 C 
ATOM     12  O   UNL A   1      29.782  24.983  26.589  1.00  0.00    -0.274 OA
ATOM     13  H   UNL A   1      31.057  26.500  27.801  1.00  0.00     0.163 HD
BRANCH  11  14
ATOM     14  C   UNL A   1      31.165  25.249  24.640  1.00  0.00     0.060 C 
ATOM     15  H   UNL A   1      32.081  25.781  24.487  1.00  0.00     0.045 H 
BRANCH  14  16
ATOM     16  C   UNL A   1      31.575  23.798  24.429  1.00  0.00    -0.036 A 
ATOM     17  C   UNL A   1      32.397  21.103  23.927  1.00  0.00    -0.017 A 
ATOM     18  C   UNL A   1      32.531  21.693  25.193  1.00  0.00    -0.054 A 
ATOM     19  C   UNL A   1      31.828  21.893  22.916  1.00  0.00    -0.054 A 
ATOM     20  C   UNL A   1      32.099  23.000  25.447  1.00  0.00    -0.058 A 
ATOM     21  H   UNL A   1      32.959  21.148  25.958  1.00  0.00     0.063 H 
ATOM     22  C   UNL A   1      31.441  23.221  23.158  1.00  0.00    -0.058 A 
ATOM     23  H   UNL A   1      31.691  21.490  21.977  1.00  0.00     0.063 H 
ATOM     24  H   UNL A   1      32.169  23.379  26.404  1.00  0.00     0.063 H 
ATOM     25  H   UNL A   1      31.050  23.782  22.385  1.00  0.00     0.063 H 
BRANCH  17  26
ATOM     26  C   UNL A   1      32.830  19.709  23.689  1.00  0.00     0.001 A 
ATOM     27  C   UNL A   1      34.195  17.751  24.213  1.00  0.00    -0.007 A 
ATOM     28  C   UNL A   1      33.551  17.090  23.171  1.00  0.00     0.034 A 
ATOM     29  C   UNL A   1      33.821  19.079  24.461  1.00  0.00    -0.044 A 
ATOM     30  N   UNL A   1      32.592  17.644  22.398  1.00  0.00    -0.263 NA
ATOM     31  H   UNL A   1      33.823  16.115  22.977  1.00  0.00     0.085 H 
ATOM     32  H   UNL A   1      34.282  19.601  25.222  1.00  0.00     0.064 H 
ATOM     33  C   UNL A   1      32.268  18.929  22.673  1.00  0.00     0.035 A 
ATOM     34  H   UNL A   1      31.546  19.372  22.083  1.00  0.00     0.085 H 
BRANCH  27  35
ATOM     35  C   UNL A   1      35.259  17.068  24.955  1.00  0.00    -0.061 C 
ATOM     36  C   UNL A   1      35.219  15.778  25.311  1.00  0.00    -0.098 C 
ATOM     37  H   UNL A   1      36.005  15.362  25.833  1.00  0.00     0.054 H 
ATOM     38  H   UNL A   1      34.401  15.200  25.062  1.00  0.00     0.054 H 
ATOM     39  H   UNL A   1      36.092  17.616  25.220  1.00  0.00     0.062 H 
ENDBRANCH  27  35
ENDBRANCH  17  26
ENDBRANCH  14  16
BRANCH  14  40
ATOM     40  C   UNL A   1      30.246  25.844  23.572  1.00  0.00    -0.049 C 
ATOM     41  H   UNL A   1      30.799  26.537  22.973  1.00  0.00     0.024 H 
ATOM     42  H   UNL A   1      29.432  26.352  24.045  1.00  0.00     0.024 H 
ATOM     43  H   UNL A   1      29.866  25.060  22.952  1.00  0.00     0.024 H 
ENDBRANCH  14  40
ENDBRANCH  11  14
ENDBRANCH   7  10
ENDBRANCH   4   7
ENDBRANCH   1   4
BRANCH   1  44
ATOM     44  C   UNL A   1      31.582  30.604  26.344  1.00  0.00    -0.052 C 
ATOM     45  H   UNL A   1      30.692  30.132  26.703  1.00  0.00     0.027 H 
ATOM     46  H   UNL A   1      31.734  30.495  25.290  1.00  0.00     0.027 H 
BRANCH  44  47
ATOM     47  C   UNL A   1      31.452  32.110  26.595  1.00  0.00    -0.036 C 
ATOM     48  H   UNL A   1      30.571  32.276  27.179  1.00  0.00     0.028 H 
ATOM     49  H   UNL A   1      31.413  32.573  25.631  1.00  0.00     0.028 H 
BRANCH  47  50
ATOM     50  C   UNL A   1      32.634  32.741  27.329  1.00  0.00     0.018 C 
ATOM     51  H   UNL A   1      33.506  32.658  26.715  1.00  0.00     0.049 H 
ATOM     52  H   UNL A   1      32.763  32.222  28.256  1.00  0.00     0.049 H 
BRANCH  50  53
ATOM     53  N   UNL A   1      32.401  34.146  27.629  1.00  0.00    -0.352 N 
ATOM     54  C   UNL A   1      32.969  34.949  28.586  1.00  0.00     0.251 C 
ATOM     55  H   UNL A   1      31.734  34.588  27.055  1.00  0.00     0.163 HD
ATOM     56  O   UNL A   1      32.481  36.046  28.840  1.00  0.00    -0.269 OA
BRANCH  54  57
ATOM     57  C   UNL A   1      34.160  34.489  29.329  1.00  0.00     0.039 A 
ATOM     58  C   UNL A   1      33.998  33.981  30.621  1.00  0.00    -0.049 A 
ATOM     59  C   UNL A   1      35.435  34.571  28.761  1.00  0.00    -0.049 A 
ATOM     60  C   UNL A   1      35.103  33.478  31.312  1.00  0.00    -0.053 A 
ATOM     61  H   UNL A   1      33.066  33.980  31.063  1.00  0.00     0.063 H 
ATOM     62  C   UNL A   1      36.525  34.014  29.425  1.00  0.00    -0.053 A 
ATOM     63  H   UNL A   1      35.567  35.041  27.852  1.00  0.00     0.063 H 
ATOM     64  C   UNL A   1      36.367  33.448  30.699  1.00  0.00    -0.014 A 
ATOM     65  H   UNL A   1      34.990  33.126  32.275  1.00  0.00     0.063 H 
ATOM     66  H   UNL A   1      37.455  34.017  28.978  1.00  0.00     0.063 H 
BRANCH  64  67
ATOM     67  C   UNL A   1      37.519  32.774  31.349  1.00  0.00     0.031 A 
ATOM     68  C   UNL A   1      38.180  31.592  30.700  1.00  0.00     0.074 A 
ATOM     69  C   UNL A   1      37.910  33.181  32.571  1.00  0.00     0.049 A 
ATOM     70  N   UNL A   1      39.136  30.825  31.160  1.00  0.00    -0.248 NA
ATOM     71  C   UNL A   1      37.687  31.206  29.369  1.00  0.00    -0.034 C 
ATOM     72  C   UNL A   1      37.316  34.288  33.322  1.00  0.00    -0.036 A 
ATOM     73  N   UNL A   1      38.888  32.702  33.406  1.00  0.00    -0.354 N 
ATOM     74  C   UNL A   1      39.354  29.864  30.181  1.00  0.00     0.074 A 
ATOM     75  C   UNL A   1      38.401  30.117  29.121  1.00  0.00    -0.034 C 
ATOM     76  H   UNL A   1      36.973  31.664  28.781  1.00  0.00     0.065 H 
ATOM     77  C   UNL A   1      37.947  34.410  34.500  1.00  0.00    -0.036 A 
ATOM     78  H   UNL A   1      36.535  34.879  32.997  1.00  0.00     0.065 H 
ATOM     79  C   UNL A   1      38.961  33.367  34.605  1.00  0.00     0.049 A 
ATOM     80  H   UNL A   1      39.482  31.952  33.168  1.00  0.00     0.167 HD
ATOM     81  C   UNL A   1      40.279  28.874  30.164  1.00  0.00     0.037 A 
ATOM     82  H   UNL A   1      38.291  29.526  28.283  1.00  0.00     0.065 H 
ATOM     83  H   UNL A   1      37.748  35.127  35.215  1.00  0.00     0.065 H 
ATOM     84  C   UNL A   1      39.745  33.150  35.679  1.00  0.00     0.037 A 
ATOM     85  C   UNL A   1      41.234  28.637  31.215  1.00  0.00     0.049 A 
ATOM     86  C   UNL A   1      40.744  32.026  35.643  1.00  0.00     0.074 A 
ATOM     87  C   UNL A   1      42.258  27.704  31.257  1.00  0.00    -0.036 A 
ATOM     88  N   UNL A   1      41.279  29.331  32.414  1.00  0.00    -0.354 N 
ATOM     89  N   UNL A   1      40.992  31.171  34.680  1.00  0.00    -0.248 NA
ATOM     90  C   UNL A   1      41.570  31.836  36.843  1.00  0.00    -0.034 C 
ATOM     91  C   UNL A   1      42.887  27.800  32.502  1.00  0.00    -0.036 A 
ATOM     92  H   UNL A   1      42.512  27.051  30.499  1.00  0.00     0.065 H 
ATOM     93  C   UNL A   1      42.289  28.824  33.218  1.00  0.00     0.049 A 
ATOM     94  H   UNL A   1      40.681  30.073  32.661  1.00  0.00     0.167 HD
ATOM     95  C   UNL A   1      42.011  30.355  35.150  1.00  0.00     0.074 A 
ATOM     96  C   UNL A   1      42.351  30.831  36.475  1.00  0.00    -0.034 C 
ATOM     97  H   UNL A   1      41.548  32.350  37.738  1.00  0.00     0.065 H 
ATOM     98  H   UNL A   1      43.664  27.207  32.832  1.00  0.00     0.065 H 
ATOM     99  C   UNL A   1      42.609  29.302  34.538  1.00  0.00     0.037 A 
ATOM    100  H   UNL A   1      43.106  30.436  37.058  1.00  0.00     0.065 H 
BRANCH  81 101
ATOM    101  C   UNL A   1      40.306  27.968  28.968  1.00  0.00     0.064 A 
ATOM    102  C   UNL A   1      41.072  28.272  27.832  1.00  0.00     0.173 A 
ATOM    103  C   UNL A   1      39.600  26.755  28.976  1.00  0.00     0.173 A 
ATOM    104  F   UNL A   1      41.760  29.422  27.770  1.00  0.00    -0.203 F 
ATOM    105  C   UNL A   1      41.110  27.408  26.741  1.00  0.00     0.198 A 
ATOM    106  C   UNL A   1      39.662  25.881  27.894  1.00  0.00     0.198 A 
ATOM    107  F   UNL A   1      38.857  26.412  30.040  1.00  0.00    -0.203 F 
ATOM    108  F   UNL A   1      41.816  27.739  25.651  1.00  0.00    -0.200 F 
ATOM    109  C   UNL A   1      40.412  26.210  26.776  1.00  0.00     0.200 A 
ATOM    110  F   UNL A   1      38.998  24.717  27.935  1.00  0.00    -0.200 F 
ATOM    111  F   UNL A   1      40.459  25.375  25.728  1.00  0.00    -0.200 F 
ENDBRANCH  81 101
BRANCH  84 112
ATOM    112  C   UNL A   1      39.620  34.020  36.877  1.00  0.00     0.064 A 
ATOM    113  C   UNL A   1      40.298  35.244  36.950  1.00  0.00     0.173 A 
ATOM    114  C   UNL A   1      38.824  33.647  37.969  1.00  0.00     0.173 A 
ATOM    115  F   UNL A   1      41.088  35.633  35.940  1.00  0.00    -0.203 F 
ATOM    116  C   UNL A   1      40.199  36.055  38.079  1.00  0.00     0.198 A 
ATOM    117  C   UNL A   1      38.702  34.471  39.086  1.00  0.00     0.198 A 
ATOM    118  F   UNL A   1      38.151  32.487  37.946  1.00  0.00    -0.203 F 
ATOM    119  F   UNL A   1      40.891  37.200  38.142  1.00  0.00    -0.200 F 
ATOM    120  C   UNL A   1      39.396  35.671  39.143  1.00  0.00     0.200 A 
ATOM    121  F   UNL A   1      37.914  34.104  40.105  1.00  0.00    -0.200 F 
ATOM    122  F   UNL A   1      39.296  36.454  40.226  1.00  0.00    -0.200 F 
ENDBRANCH  84 112
BRANCH  99 123
ATOM    123  C   UNL A   1      43.699  28.601  35.296  1.00  0.00     0.064 A 
ATOM    124  C   UNL A   1      43.414  27.566  36.198  1.00  0.00     0.173 A 
ATOM    125  C   UNL A   1      45.044  28.945  35.093  1.00  0.00     0.173 A 
ATOM    126  F   UNL A   1      42.143  27.212  36.441  1.00  0.00    -0.203 F 
ATOM    127  C   UNL A   1      44.435  26.917  36.887  1.00  0.00     0.198 A 
ATOM    128  C   UNL A   1      46.064  28.273  35.761  1.00  0.00     0.198 A 
ATOM    129  F   UNL A   1      45.370  29.926  34.238  1.00  0.00    -0.203 F 
ATOM    130  F   UNL A   1      44.136  25.963  37.780  1.00  0.00    -0.200 F 
ATOM    131  C   UNL A   1      45.759  27.265  36.662  1.00  0.00     0.200 A 
ATOM    132  F   UNL A   1      47.343  28.604  35.535  1.00  0.00    -0.200 F 
ATOM    133  F   UNL A   1      46.740  26.635  37.323  1.00  0.00    -0.200 F 
ENDBRANCH  99 123
ENDBRANCH  64  67
ENDBRANCH  54  57
ENDBRANCH  50  53
ENDBRANCH  47  50
ENDBRANCH  44  47
ENDBRANCH   1  44
TORSDOF 17
ENDMDL
MODEL 10
REMARK VINA RESULT:     -11.8      4.478     10.819
REMARK SMILES C=Cc1cncc(-c2ccc([C@@H](C)C(=O)NCCCCCCNC(=O)c3ccc(-c4c5nc(c(-c6c(F)c(F)c(F)c(F)c6F)c6ccc([nH]6)c(-c6c(F)c(F)c(F)c(F)c6F)c6nc(c(-c7c(F)c(F)c(F)c(F)c7F)c7ccc4[nH]7)C=C6)C=C5)cc3)cc2)c1
REMARK SMILES IDX 19 1 18 4 17 7 16 10 14 11 15 12 12 14 11 16 8 17 9 18 90 19
REMARK SMILES IDX 10 20 89 22 7 26 3 27 4 28 91 29 5 30 6 33 2 35 1 36 13 40
REMARK SMILES IDX 20 44 21 47 22 50 23 53 24 54 25 56 26 57 27 58 88 59 28 60
REMARK SMILES IDX 87 62 29 64 30 67 31 68 81 69 32 70 86 71 80 72 82 73 33 74
REMARK SMILES IDX 85 75 79 77 78 79 34 81 66 84 46 85 65 86 47 87 50 88 64 89
REMARK SMILES IDX 83 90 48 91 49 93 63 95 84 96 51 99 35 101 36 102 44 103
REMARK SMILES IDX 37 104 38 105 42 106 45 107 39 108 40 109 43 110 41 111
REMARK SMILES IDX 67 112 68 113 76 114 69 115 70 116 74 117 77 118 71 119
REMARK SMILES IDX 72 120 75 121 73 122 52 123 53 124 61 125 54 126 55 127
REMARK SMILES IDX 59 128 62 129 56 130 57 131 60 132 58 133
REMARK H PARENT 19 2 19 3 18 5 18 6 17 8 17 9 16 13 12 15 9 21 90 23 10 24
REMARK H PARENT 89 25 4 31 91 32 6 34 1 37 1 38 2 39 13 41 13 42 13 43 20 45
REMARK H PARENT 20 46 21 48 21 49 22 51 22 52 23 55 27 61 88 63 28 65 87 66
REMARK H PARENT 86 76 80 78 82 80 85 82 79 83 47 92 50 94 83 97 48 98 84 100
REMARK Flexibility Score: inf
ROOT
ATOM      1  C   UNL A   1      33.279  35.777  30.164  1.00  0.00    -0.052 C 
ATOM      2  H   UNL A   1      34.113  36.430  30.006  1.00  0.00     0.027 H 
ATOM      3  H   UNL A   1      32.335  36.234  29.959  1.00  0.00     0.027 H 
ENDROOT
BRANCH   1   4
ATOM      4  C   UNL A   1      33.254  35.391  31.646  1.00  0.00    -0.036 C 
ATOM      5  H   UNL A   1      32.364  35.794  32.085  1.00  0.00     0.028 H 
ATOM      6  H   UNL A   1      33.284  34.322  31.690  1.00  0.00     0.028 H 
BRANCH   4   7
ATOM      7  C   UNL A   1      34.458  35.902  32.440  1.00  0.00     0.017 C 
ATOM      8  H   UNL A   1      35.330  35.850  31.821  1.00  0.00     0.049 H 
ATOM      9  H   UNL A   1      34.258  36.911  32.736  1.00  0.00     0.049 H 
BRANCH   7  10
ATOM     10  N   UNL A   1      34.684  35.118  33.635  1.00  0.00    -0.356 N 
ATOM     11  C   UNL A   1      35.283  33.912  33.827  1.00  0.00     0.227 C 
ATOM     12  O   UNL A   1      35.227  33.447  34.972  1.00  0.00    -0.274 OA
ATOM     13  H   UNL A   1      34.340  35.533  34.460  1.00  0.00     0.163 HD
BRANCH  11  14
ATOM     14  C   UNL A   1      36.021  33.139  32.724  1.00  0.00     0.060 C 
ATOM     15  H   UNL A   1      36.515  33.886  32.137  1.00  0.00     0.045 H 
BRANCH  14  16
ATOM     16  C   UNL A   1      37.175  32.288  33.233  1.00  0.00    -0.036 A 
ATOM     17  C   UNL A   1      39.335  30.618  34.093  1.00  0.00    -0.017 A 
ATOM     18  C   UNL A   1      39.403  32.017  34.178  1.00  0.00    -0.054 A 
ATOM     19  C   UNL A   1      38.150  30.071  33.579  1.00  0.00    -0.054 A 
ATOM     20  C   UNL A   1      38.335  32.833  33.787  1.00  0.00    -0.058 A 
ATOM     21  H   UNL A   1      40.265  32.457  34.538  1.00  0.00     0.063 H 
ATOM     22  C   UNL A   1      37.098  30.891  33.140  1.00  0.00    -0.058 A 
ATOM     23  H   UNL A   1      38.049  29.046  33.520  1.00  0.00     0.063 H 
ATOM     24  H   UNL A   1      38.406  33.855  33.912  1.00  0.00     0.063 H 
ATOM     25  H   UNL A   1      36.250  30.456  32.742  1.00  0.00     0.063 H 
BRANCH  17  26
ATOM     26  C   UNL A   1      40.464  29.775  34.542  1.00  0.00     0.001 A 
ATOM     27  C   UNL A   1      42.275  28.188  34.127  1.00  0.00    -0.007 A 
ATOM     28  C   UNL A   1      42.569  28.251  35.485  1.00  0.00     0.034 A 
ATOM     29  C   UNL A   1      41.203  28.963  33.664  1.00  0.00    -0.044 A 
ATOM     30  N   UNL A   1      41.896  29.012  36.374  1.00  0.00    -0.263 NA
ATOM     31  H   UNL A   1      43.352  27.679  35.836  1.00  0.00     0.085 H 
ATOM     32  H   UNL A   1      40.952  28.937  32.664  1.00  0.00     0.064 H 
ATOM     33  C   UNL A   1      40.866  29.740  35.882  1.00  0.00     0.035 A 
ATOM     34  H   UNL A   1      40.332  30.318  36.550  1.00  0.00     0.085 H 
BRANCH  27  35
ATOM     35  C   UNL A   1      43.041  27.286  33.261  1.00  0.00    -0.061 C 
ATOM     36  C   UNL A   1      44.031  26.494  33.689  1.00  0.00    -0.098 C 
ATOM     37  H   UNL A   1      44.529  25.883  33.023  1.00  0.00     0.054 H 
ATOM     38  H   UNL A   1      44.295  26.492  34.687  1.00  0.00     0.054 H 
ATOM     39  H   UNL A   1      42.803  27.262  32.257  1.00  0.00     0.062 H 
ENDBRANCH  27  35
ENDBRANCH  17  26
ENDBRANCH  14  16
BRANCH  14  40
ATOM     40  C   UNL A   1      35.096  32.468  31.707  1.00  0.00    -0.049 C 
ATOM     41  H   UNL A   1      35.179  31.405  31.797  1.00  0.00     0.024 H 
ATOM     42  H   UNL A   1      35.377  32.765  30.718  1.00  0.00     0.024 H 
ATOM     43  H   UNL A   1      34.086  32.763  31.894  1.00  0.00     0.024 H 
ENDBRANCH  14  40
ENDBRANCH  11  14
ENDBRANCH   7  10
ENDBRANCH   4   7
ENDBRANCH   1   4
BRANCH   1  44
ATOM     44  C   UNL A   1      33.406  34.599  29.186  1.00  0.00    -0.052 C 
ATOM     45  H   UNL A   1      32.553  34.613  28.542  1.00  0.00     0.027 H 
ATOM     46  H   UNL A   1      33.474  33.721  29.794  1.00  0.00     0.027 H 
BRANCH  44  47
ATOM     47  C   UNL A   1      34.663  34.601  28.310  1.00  0.00    -0.036 C 
ATOM     48  H   UNL A   1      35.375  35.268  28.749  1.00  0.00     0.028 H 
ATOM     49  H   UNL A   1      34.347  34.905  27.333  1.00  0.00     0.028 H 
BRANCH  47  50
ATOM     50  C   UNL A   1      35.329  33.237  28.142  1.00  0.00     0.018 C 
ATOM     51  H   UNL A   1      35.938  33.043  28.999  1.00  0.00     0.049 H 
ATOM     52  H   UNL A   1      35.916  33.264  27.248  1.00  0.00     0.049 H 
BRANCH  50  53
ATOM     53  N   UNL A   1      34.351  32.167  28.006  1.00  0.00    -0.352 N 
ATOM     54  C   UNL A   1      34.535  30.809  27.931  1.00  0.00     0.251 C 
ATOM     55  H   UNL A   1      33.413  32.464  27.963  1.00  0.00     0.163 HD
ATOM     56  O   UNL A   1      33.611  30.079  27.586  1.00  0.00    -0.269 OA
BRANCH  54  57
ATOM     57  C   UNL A   1      35.854  30.220  28.246  1.00  0.00     0.039 A 
ATOM     58  C   UNL A   1      36.837  30.192  27.253  1.00  0.00    -0.049 A 
ATOM     59  C   UNL A   1      36.115  29.684  29.510  1.00  0.00    -0.049 A 
ATOM     60  C   UNL A   1      38.111  29.703  27.554  1.00  0.00    -0.053 A 
ATOM     61  H   UNL A   1      36.623  30.531  26.302  1.00  0.00     0.063 H 
ATOM     62  C   UNL A   1      37.402  29.253  29.826  1.00  0.00    -0.053 A 
ATOM     63  H   UNL A   1      35.358  29.610  30.207  1.00  0.00     0.063 H 
ATOM     64  C   UNL A   1      38.415  29.274  28.856  1.00  0.00    -0.014 A 
ATOM     65  H   UNL A   1      38.831  29.658  26.816  1.00  0.00     0.063 H 
ATOM     66  H   UNL A   1      37.611  28.916  30.779  1.00  0.00     0.063 H 
BRANCH  64  67
ATOM     67  C   UNL A   1      39.800  28.902  29.238  1.00  0.00     0.031 A 
ATOM     68  C   UNL A   1      40.664  29.856  30.012  1.00  0.00     0.074 A 
ATOM     69  C   UNL A   1      40.306  27.731  28.806  1.00  0.00     0.049 A 
ATOM     70  N   UNL A   1      41.922  29.739  30.354  1.00  0.00    -0.248 NA
ATOM     71  C   UNL A   1      40.038  31.117  30.438  1.00  0.00    -0.034 C 
ATOM     72  C   UNL A   1      39.579  26.742  28.008  1.00  0.00    -0.036 A 
ATOM     73  N   UNL A   1      41.553  27.180  28.960  1.00  0.00    -0.354 N 
ATOM     74  C   UNL A   1      42.241  30.911  31.028  1.00  0.00     0.074 A 
ATOM     75  C   UNL A   1      41.057  31.745  31.009  1.00  0.00    -0.034 C 
ATOM     76  H   UNL A   1      39.062  31.430  30.325  1.00  0.00     0.065 H 
ATOM     77  C   UNL A   1      40.388  25.702  27.753  1.00  0.00    -0.036 A 
ATOM     78  H   UNL A   1      38.601  26.831  27.692  1.00  0.00     0.065 H 
ATOM     79  C   UNL A   1      41.700  25.968  28.332  1.00  0.00     0.049 A 
ATOM     80  H   UNL A   1      42.274  27.613  29.473  1.00  0.00     0.167 HD
ATOM     81  C   UNL A   1      43.410  31.249  31.624  1.00  0.00     0.037 A 
ATOM     82  H   UNL A   1      41.013  32.703  31.388  1.00  0.00     0.065 H 
ATOM     83  H   UNL A   1      40.124  24.851  27.232  1.00  0.00     0.065 H 
ATOM     84  C   UNL A   1      42.778  25.168  28.218  1.00  0.00     0.037 A 
ATOM     85  C   UNL A   1      44.579  30.409  31.653  1.00  0.00     0.049 A 
ATOM     86  C   UNL A   1      44.071  25.582  28.866  1.00  0.00     0.074 A 
ATOM     87  C   UNL A   1      45.787  30.633  32.292  1.00  0.00    -0.036 A 
ATOM     88  N   UNL A   1      44.691  29.188  31.006  1.00  0.00    -0.354 N 
ATOM     89  N   UNL A   1      44.338  26.658  29.565  1.00  0.00    -0.248 NA
ATOM     90  C   UNL A   1      45.212  24.669  28.707  1.00  0.00    -0.034 C 
ATOM     91  C   UNL A   1      46.646  29.573  31.989  1.00  0.00    -0.036 A 
ATOM     92  H   UNL A   1      46.014  31.443  32.890  1.00  0.00     0.065 H 
ATOM     93  C   UNL A   1      45.959  28.663  31.201  1.00  0.00     0.049 A 
ATOM     94  H   UNL A   1      43.977  28.758  30.483  1.00  0.00     0.167 HD
ATOM     95  C   UNL A   1      45.668  26.545  29.943  1.00  0.00     0.074 A 
ATOM     96  C   UNL A   1      46.148  25.285  29.415  1.00  0.00    -0.034 C 
ATOM     97  H   UNL A   1      45.270  23.783  28.182  1.00  0.00     0.065 H 
ATOM     98  H   UNL A   1      47.626  29.482  32.299  1.00  0.00     0.065 H 
ATOM     99  C   UNL A   1      46.426  27.411  30.661  1.00  0.00     0.037 A 
ATOM    100  H   UNL A   1      47.098  24.914  29.570  1.00  0.00     0.065 H 
BRANCH  81 101
ATOM    101  C   UNL A   1      43.486  32.589  32.297  1.00  0.00     0.064 A 
ATOM    102  C   UNL A   1      43.319  32.724  33.684  1.00  0.00     0.173 A 
ATOM    103  C   UNL A   1      43.781  33.744  31.556  1.00  0.00     0.173 A 
ATOM    104  F   UNL A   1      43.029  31.653  34.437  1.00  0.00    -0.203 F 
ATOM    105  C   UNL A   1      43.421  33.969  34.300  1.00  0.00     0.198 A 
ATOM    106  C   UNL A   1      43.909  34.982  32.179  1.00  0.00     0.198 A 
ATOM    107  F   UNL A   1      43.956  33.668  30.228  1.00  0.00    -0.203 F 
ATOM    108  F   UNL A   1      43.218  34.080  35.620  1.00  0.00    -0.200 F 
ATOM    109  C   UNL A   1      43.723  35.096  33.548  1.00  0.00     0.200 A 
ATOM    110  F   UNL A   1      44.215  36.067  31.454  1.00  0.00    -0.200 F 
ATOM    111  F   UNL A   1      43.831  36.291  34.144  1.00  0.00    -0.200 F 
ENDBRANCH  81 101
BRANCH  84 112
ATOM    112  C   UNL A   1      42.678  23.891  27.465  1.00  0.00     0.064 A 
ATOM    113  C   UNL A   1      42.228  22.720  28.089  1.00  0.00     0.173 A 
ATOM    114  C   UNL A   1      43.028  23.815  26.109  1.00  0.00     0.173 A 
ATOM    115  F   UNL A   1      41.902  22.739  29.390  1.00  0.00    -0.203 F 
ATOM    116  C   UNL A   1      42.149  21.517  27.392  1.00  0.00     0.198 A 
ATOM    117  C   UNL A   1      42.922  22.618  25.404  1.00  0.00     0.198 A 
ATOM    118  F   UNL A   1      43.459  24.909  25.463  1.00  0.00    -0.203 F 
ATOM    119  F   UNL A   1      41.758  20.402  28.024  1.00  0.00    -0.200 F 
ATOM    120  C   UNL A   1      42.491  21.468  26.048  1.00  0.00     0.200 A 
ATOM    121  F   UNL A   1      43.238  22.578  24.103  1.00  0.00    -0.200 F 
ATOM    122  F   UNL A   1      42.410  20.311  25.376  1.00  0.00    -0.200 F 
ENDBRANCH  84 112
BRANCH  99 123
ATOM    123  C   UNL A   1      47.850  27.018  30.923  1.00  0.00     0.064 A 
ATOM    124  C   UNL A   1      48.191  26.164  31.982  1.00  0.00     0.173 A 
ATOM    125  C   UNL A   1      48.881  27.473  30.088  1.00  0.00     0.173 A 
ATOM    126  F   UNL A   1      47.244  25.716  32.821  1.00  0.00    -0.203 F 
ATOM    127  C   UNL A   1      49.516  25.799  32.208  1.00  0.00     0.198 A 
ATOM    128  C   UNL A   1      50.200  27.082  30.299  1.00  0.00     0.198 A 
ATOM    129  F   UNL A   1      48.608  28.290  29.059  1.00  0.00    -0.203 F 
ATOM    130  F   UNL A   1      49.824  25.020  33.255  1.00  0.00    -0.200 F 
ATOM    131  C   UNL A   1      50.517  26.251  31.363  1.00  0.00     0.200 A 
ATOM    132  F   UNL A   1      51.166  27.512  29.475  1.00  0.00    -0.200 F 
ATOM    133  F   UNL A   1      51.791  25.894  31.579  1.00  0.00    -0.200 F 
ENDBRANCH  99 123
ENDBRANCH  64  67
ENDBRANCH  54  57
ENDBRANCH  50  53
ENDBRANCH  47  50
ENDBRANCH  44  47
ENDBRANCH   1  44
TORSDOF 17
ENDMDL
