MODEL 1
REMARK VINA RESULT:     -12.6      0.000      0.000
REMARK SMILES O=C(NCCCCCCNC(=O)c1ccccc1/N=C/c1coc2ccccc2c1=O)c1ccc(-c2c3nc(c(-c4c(F)c(F)c(F)c(F)c4F)c4ccc([nH]4)c(-c4c(F)c(F)c(F)c(F)c4F)c4nc(c(-c5c(F)c(F)c(F)c(F)c5F)c5ccc2[nH]5)C=C4)C=C3)cc1
REMARK SMILES IDX 6 1 5 4 4 7 3 10 1 11 2 12 32 14 33 15 94 16 34 17 93 19
REMARK SMILES IDX 35 21 36 24 37 25 87 26 38 27 92 28 86 29 88 30 39 31 91 32
REMARK SMILES IDX 85 34 84 36 40 38 72 41 52 42 71 43 53 44 56 45 70 46 89 47
REMARK SMILES IDX 54 48 55 50 69 52 90 53 57 56 41 58 42 59 50 60 43 61 44 62
REMARK SMILES IDX 48 63 51 64 45 65 46 66 49 67 47 68 73 69 74 70 82 71 75 72
REMARK SMILES IDX 76 73 80 74 83 75 77 76 78 77 81 78 79 79 58 80 59 81 67 82
REMARK SMILES IDX 60 83 61 84 65 85 68 86 62 87 63 88 66 89 64 90 7 91 8 94
REMARK SMILES IDX 9 97 10 100 11 101 12 103 13 104 14 105 18 106 15 107 17 109
REMARK SMILES IDX 16 110 19 114 20 115 21 117 22 118 30 119 23 120 29 122
REMARK SMILES IDX 31 123 24 124 28 125 25 126 27 127 26 129
REMARK H PARENT 6 2 6 3 5 5 5 6 4 8 4 9 3 13 33 18 94 20 34 22 93 23 92 33
REMARK H PARENT 86 35 88 37 91 39 85 40 53 49 56 51 89 54 54 55 90 57 7 92
REMARK H PARENT 7 93 8 95 8 96 9 98 9 99 10 102 14 108 15 111 17 112 16 113
REMARK H PARENT 20 116 22 121 28 128 25 130 27 131 26 132
REMARK Flexibility Score: inf
ROOT
ATOM      1  C   UNL A   1      31.305  30.509  25.705  1.00  0.00    -0.052 C 
ATOM      2  H   UNL A   1      31.978  30.679  24.891  1.00  0.00     0.027 H 
ATOM      3  H   UNL A   1      30.306  30.275  25.400  1.00  0.00     0.027 H 
ENDROOT
BRANCH   1   4
ATOM      4  C   UNL A   1      31.201  31.807  26.505  1.00  0.00    -0.036 C 
ATOM      5  H   UNL A   1      30.654  32.512  25.914  1.00  0.00     0.028 H 
ATOM      6  H   UNL A   1      30.725  31.537  27.424  1.00  0.00     0.028 H 
BRANCH   4   7
ATOM      7  C   UNL A   1      32.517  32.460  26.907  1.00  0.00     0.018 C 
ATOM      8  H   UNL A   1      32.978  31.856  27.662  1.00  0.00     0.049 H 
ATOM      9  H   UNL A   1      33.117  32.531  26.024  1.00  0.00     0.049 H 
BRANCH   7  10
ATOM     10  N   UNL A   1      32.359  33.806  27.427  1.00  0.00    -0.352 N 
ATOM     11  O   UNL A   1      32.686  35.583  28.766  1.00  0.00    -0.269 OA
ATOM     12  C   UNL A   1      33.058  34.464  28.409  1.00  0.00     0.251 C 
ATOM     13  H   UNL A   1      31.637  34.330  27.010  1.00  0.00     0.163 HD
BRANCH  12  14
ATOM     14  C   UNL A   1      34.237  33.851  29.067  1.00  0.00     0.039 A 
ATOM     15  C   UNL A   1      34.122  32.775  29.949  1.00  0.00    -0.049 A 
ATOM     16  C   UNL A   1      35.511  34.336  28.738  1.00  0.00    -0.049 A 
ATOM     17  C   UNL A   1      35.255  32.263  30.582  1.00  0.00    -0.053 A 
ATOM     18  H   UNL A   1      33.197  32.357  30.134  1.00  0.00     0.063 H 
ATOM     19  C   UNL A   1      36.654  33.782  29.325  1.00  0.00    -0.053 A 
ATOM     20  H   UNL A   1      35.605  35.106  28.058  1.00  0.00     0.063 H 
ATOM     21  C   UNL A   1      36.532  32.756  30.273  1.00  0.00    -0.014 A 
ATOM     22  H   UNL A   1      35.153  31.514  31.285  1.00  0.00     0.063 H 
ATOM     23  H   UNL A   1      37.588  34.130  29.060  1.00  0.00     0.063 H 
BRANCH  21  24
ATOM     24  C   UNL A   1      37.727  32.153  30.915  1.00  0.00     0.031 A 
ATOM     25  C   UNL A   1      38.120  32.515  32.320  1.00  0.00     0.074 A 
ATOM     26  C   UNL A   1      38.444  31.240  30.233  1.00  0.00     0.049 A 
ATOM     27  N   UNL A   1      39.106  32.047  33.045  1.00  0.00    -0.248 NA
ATOM     28  C   UNL A   1      37.308  33.536  32.997  1.00  0.00    -0.034 C 
ATOM     29  C   UNL A   1      38.180  30.819  28.857  1.00  0.00    -0.036 A 
ATOM     30  N   UNL A   1      39.525  30.485  30.613  1.00  0.00    -0.354 N 
ATOM     31  C   UNL A   1      39.046  32.729  34.253  1.00  0.00     0.074 A 
ATOM     32  C   UNL A   1      37.932  33.651  34.161  1.00  0.00    -0.034 C 
ATOM     33  H   UNL A   1      36.470  34.033  32.655  1.00  0.00     0.065 H 
ATOM     34  C   UNL A   1      39.041  29.844  28.525  1.00  0.00    -0.036 A 
ATOM     35  H   UNL A   1      37.449  31.210  28.241  1.00  0.00     0.065 H 
ATOM     36  C   UNL A   1      39.934  29.594  29.652  1.00  0.00     0.049 A 
ATOM     37  H   UNL A   1      39.965  30.573  31.489  1.00  0.00     0.167 HD
ATOM     38  C   UNL A   1      39.844  32.595  35.338  1.00  0.00     0.037 A 
ATOM     39  H   UNL A   1      37.660  34.311  34.907  1.00  0.00     0.065 H 
ATOM     40  H   UNL A   1      39.066  29.351  27.618  1.00  0.00     0.065 H 
ATOM     41  C   UNL A   1      40.912  28.671  29.678  1.00  0.00     0.037 A 
ATOM     42  C   UNL A   1      40.936  31.664  35.447  1.00  0.00     0.049 A 
ATOM     43  C   UNL A   1      41.753  28.515  30.909  1.00  0.00     0.074 A 
ATOM     44  C   UNL A   1      41.790  31.453  36.518  1.00  0.00    -0.036 A 
ATOM     45  N   UNL A   1      41.319  30.780  34.451  1.00  0.00    -0.354 N 
ATOM     46  N   UNL A   1      41.681  29.163  32.044  1.00  0.00    -0.248 NA
ATOM     47  C   UNL A   1      42.818  27.502  30.859  1.00  0.00    -0.034 C 
ATOM     48  C   UNL A   1      42.698  30.449  36.163  1.00  0.00    -0.036 A 
ATOM     49  H   UNL A   1      41.762  31.952  37.421  1.00  0.00     0.065 H 
ATOM     50  C   UNL A   1      42.398  30.024  34.879  1.00  0.00     0.049 A 
ATOM     51  H   UNL A   1      40.889  30.703  33.568  1.00  0.00     0.167 HD
ATOM     52  C   UNL A   1      42.688  28.644  32.842  1.00  0.00     0.074 A 
ATOM     53  C   UNL A   1      43.345  27.609  32.071  1.00  0.00    -0.034 C 
ATOM     54  H   UNL A   1      43.084  26.874  30.085  1.00  0.00     0.065 H 
ATOM     55  H   UNL A   1      43.462  30.087  36.757  1.00  0.00     0.065 H 
ATOM     56  C   UNL A   1      43.042  29.003  34.099  1.00  0.00     0.037 A 
ATOM     57  H   UNL A   1      44.125  27.028  32.420  1.00  0.00     0.065 H 
BRANCH  38  58
ATOM     58  C   UNL A   1      39.567  33.486  36.509  1.00  0.00     0.064 A 
ATOM     59  C   UNL A   1      38.757  33.061  37.571  1.00  0.00     0.173 A 
ATOM     60  C   UNL A   1      40.159  34.755  36.593  1.00  0.00     0.173 A 
ATOM     61  F   UNL A   1      38.164  31.858  37.529  1.00  0.00    -0.203 F 
ATOM     62  C   UNL A   1      38.542  33.881  38.675  1.00  0.00     0.198 A 
ATOM     63  C   UNL A   1      39.951  35.567  37.705  1.00  0.00     0.198 A 
ATOM     64  F   UNL A   1      40.943  35.201  35.602  1.00  0.00    -0.203 F 
ATOM     65  F   UNL A   1      37.749  33.465  39.673  1.00  0.00    -0.200 F 
ATOM     66  C   UNL A   1      39.142  35.130  38.743  1.00  0.00     0.200 A 
ATOM     67  F   UNL A   1      40.535  36.772  37.772  1.00  0.00    -0.200 F 
ATOM     68  F   UNL A   1      38.938  35.916  39.810  1.00  0.00    -0.200 F 
ENDBRANCH  38  58
BRANCH  41  69
ATOM     69  C   UNL A   1      41.121  27.800  28.498  1.00  0.00     0.064 A 
ATOM     70  C   UNL A   1      40.371  26.629  28.335  1.00  0.00     0.173 A 
ATOM     71  C   UNL A   1      42.046  28.138  27.501  1.00  0.00     0.173 A 
ATOM     72  F   UNL A   1      39.488  26.263  29.275  1.00  0.00    -0.203 F 
ATOM     73  C   UNL A   1      40.541  25.822  27.212  1.00  0.00     0.198 A 
ATOM     74  C   UNL A   1      42.205  27.337  26.373  1.00  0.00     0.198 A 
ATOM     75  F   UNL A   1      42.784  29.251  27.619  1.00  0.00    -0.203 F 
ATOM     76  F   UNL A   1      39.826  24.696  27.086  1.00  0.00    -0.200 F 
ATOM     77  C   UNL A   1      41.454  26.179  26.230  1.00  0.00     0.200 A 
ATOM     78  F   UNL A   1      43.082  27.687  25.423  1.00  0.00    -0.200 F 
ATOM     79  F   UNL A   1      41.611  25.405  25.148  1.00  0.00    -0.200 F 
ENDBRANCH  41  69
BRANCH  56  80
ATOM     80  C   UNL A   1      44.196  28.273  34.712  1.00  0.00     0.064 A 
ATOM     81  C   UNL A   1      45.503  28.764  34.595  1.00  0.00     0.173 A 
ATOM     82  C   UNL A   1      43.992  27.093  35.439  1.00  0.00     0.173 A 
ATOM     83  F   UNL A   1      45.745  29.882  33.894  1.00  0.00    -0.203 F 
ATOM     84  C   UNL A   1      46.572  28.088  35.176  1.00  0.00     0.198 A 
ATOM     85  C   UNL A   1      45.061  26.426  36.028  1.00  0.00     0.198 A 
ATOM     86  F   UNL A   1      42.756  26.586  35.573  1.00  0.00    -0.203 F 
ATOM     87  F   UNL A   1      47.819  28.558  35.030  1.00  0.00    -0.200 F 
ATOM     88  C   UNL A   1      46.351  26.922  35.894  1.00  0.00     0.200 A 
ATOM     89  F   UNL A   1      44.848  25.300  36.722  1.00  0.00    -0.200 F 
ATOM     90  F   UNL A   1      47.382  26.271  36.450  1.00  0.00    -0.200 F 
ENDBRANCH  56  80
ENDBRANCH  21  24
ENDBRANCH  12  14
ENDBRANCH   7  10
ENDBRANCH   4   7
ENDBRANCH   1   4
BRANCH   1  91
ATOM     91  C   UNL A   1      31.801  29.286  26.478  1.00  0.00    -0.052 C 
ATOM     92  H   UNL A   1      31.009  28.567  26.491  1.00  0.00     0.027 H 
ATOM     93  H   UNL A   1      32.080  29.655  27.443  1.00  0.00     0.027 H 
BRANCH  91  94
ATOM     94  C   UNL A   1      33.055  28.592  25.930  1.00  0.00    -0.036 C 
ATOM     95  H   UNL A   1      32.779  27.598  25.644  1.00  0.00     0.028 H 
ATOM     96  H   UNL A   1      33.777  28.640  26.719  1.00  0.00     0.028 H 
BRANCH  94  97
ATOM     97  C   UNL A   1      33.725  29.253  24.724  1.00  0.00     0.018 C 
ATOM     98  H   UNL A   1      34.645  29.695  25.043  1.00  0.00     0.049 H 
ATOM     99  H   UNL A   1      33.045  29.984  24.339  1.00  0.00     0.049 H 
BRANCH  97 100
ATOM    100  N   UNL A   1      34.009  28.317  23.651  1.00  0.00    -0.352 N 
ATOM    101  C   UNL A   1      33.160  27.808  22.706  1.00  0.00     0.253 C 
ATOM    102  H   UNL A   1      34.942  28.005  23.597  1.00  0.00     0.163 HD
ATOM    103  O   UNL A   1      33.592  27.075  21.818  1.00  0.00    -0.269 OA
BRANCH 101 104
ATOM    104  C   UNL A   1      31.719  28.095  22.745  1.00  0.00     0.065 A 
ATOM    105  C   UNL A   1      31.291  29.286  22.137  1.00  0.00    -0.047 A 
ATOM    106  C   UNL A   1      30.802  27.272  23.405  1.00  0.00     0.076 A 
ATOM    107  C   UNL A   1      29.941  29.645  22.159  1.00  0.00    -0.061 A 
ATOM    108  H   UNL A   1      31.977  29.900  21.672  1.00  0.00     0.063 H 
ATOM    109  C   UNL A   1      29.451  27.659  23.426  1.00  0.00    -0.036 A 
ATOM    110  C   UNL A   1      29.020  28.834  22.813  1.00  0.00    -0.060 A 
ATOM    111  H   UNL A   1      29.629  30.511  21.692  1.00  0.00     0.062 H 
ATOM    112  H   UNL A   1      28.763  27.060  23.908  1.00  0.00     0.065 H 
ATOM    113  H   UNL A   1      28.023  29.099  22.841  1.00  0.00     0.062 H 
BRANCH 106 114
ATOM    114  N   UNL A   1      31.050  26.000  23.910  1.00  0.00    -0.255 NA
ATOM    115  C   UNL A   1      30.581  25.555  25.030  1.00  0.00     0.042 C 
ATOM    116  H   UNL A   1      30.087  26.159  25.707  1.00  0.00     0.085 H 
BRANCH 115 117
ATOM    117  C   UNL A   1      30.810  24.110  25.266  1.00  0.00     0.076 A 
ATOM    118  C   UNL A   1      30.916  23.456  24.094  1.00  0.00     0.104 A 
ATOM    119  C   UNL A   1      31.832  23.721  26.272  1.00  0.00     0.201 A 
ATOM    120  O   UNL A   1      31.975  22.608  23.784  1.00  0.00    -0.463 OA
ATOM    121  H   UNL A   1      30.174  23.590  23.388  1.00  0.00     0.105 H 
ATOM    122  C   UNL A   1      33.156  23.507  25.677  1.00  0.00     0.065 A 
ATOM    123  O   UNL A   1      31.620  23.689  27.474  1.00  0.00    -0.288 OA
ATOM    124  C   UNL A   1      33.164  22.976  24.386  1.00  0.00     0.137 A 
ATOM    125  C   UNL A   1      34.313  24.003  26.273  1.00  0.00    -0.047 A 
ATOM    126  C   UNL A   1      34.351  22.923  23.670  1.00  0.00    -0.019 A 
ATOM    127  C   UNL A   1      35.496  23.987  25.539  1.00  0.00    -0.061 A 
ATOM    128  H   UNL A   1      34.293  24.374  27.237  1.00  0.00     0.063 H 
ATOM    129  C   UNL A   1      35.515  23.450  24.244  1.00  0.00    -0.059 A 
ATOM    130  H   UNL A   1      34.377  22.503  22.727  1.00  0.00     0.066 H 
ATOM    131  H   UNL A   1      36.362  24.371  25.949  1.00  0.00     0.062 H 
ATOM    132  H   UNL A   1      36.398  23.443  23.708  1.00  0.00     0.062 H 
ENDBRANCH 115 117
ENDBRANCH 106 114
ENDBRANCH 101 104
ENDBRANCH  97 100
ENDBRANCH  94  97
ENDBRANCH  91  94
ENDBRANCH   1  91
TORSDOF 15
ENDMDL
MODEL 2
REMARK VINA RESULT:     -12.6      0.407      1.943
REMARK SMILES O=C(NCCCCCCNC(=O)c1ccccc1/N=C/c1coc2ccccc2c1=O)c1ccc(-c2c3nc(c(-c4c(F)c(F)c(F)c(F)c4F)c4ccc([nH]4)c(-c4c(F)c(F)c(F)c(F)c4F)c4nc(c(-c5c(F)c(F)c(F)c(F)c5F)c5ccc2[nH]5)C=C4)C=C3)cc1
REMARK SMILES IDX 6 1 5 4 4 7 3 10 1 11 2 12 32 14 33 15 94 16 34 17 93 19
REMARK SMILES IDX 35 21 36 24 37 25 87 26 38 27 92 28 86 29 88 30 39 31 91 32
REMARK SMILES IDX 85 34 84 36 40 38 72 41 52 42 71 43 53 44 56 45 70 46 89 47
REMARK SMILES IDX 54 48 55 50 69 52 90 53 57 56 41 58 42 59 50 60 43 61 44 62
REMARK SMILES IDX 48 63 51 64 45 65 46 66 49 67 47 68 73 69 74 70 82 71 75 72
REMARK SMILES IDX 76 73 80 74 83 75 77 76 78 77 81 78 79 79 58 80 59 81 67 82
REMARK SMILES IDX 60 83 61 84 65 85 68 86 62 87 63 88 66 89 64 90 7 91 8 94
REMARK SMILES IDX 9 97 10 100 11 101 12 103 13 104 14 105 18 106 15 107 17 109
REMARK SMILES IDX 16 110 19 114 20 115 21 117 22 118 30 119 23 120 29 122
REMARK SMILES IDX 31 123 24 124 28 125 25 126 27 127 26 129
REMARK H PARENT 6 2 6 3 5 5 5 6 4 8 4 9 3 13 33 18 94 20 34 22 93 23 92 33
REMARK H PARENT 86 35 88 37 91 39 85 40 53 49 56 51 89 54 54 55 90 57 7 92
REMARK H PARENT 7 93 8 95 8 96 9 98 9 99 10 102 14 108 15 111 17 112 16 113
REMARK H PARENT 20 116 22 121 28 128 25 130 27 131 26 132
REMARK Flexibility Score: inf
ROOT
ATOM      1  C   UNL A   1      31.090  30.763  25.548  1.00  0.00    -0.052 C 
ATOM      2  H   UNL A   1      31.568  31.084  24.645  1.00  0.00     0.027 H 
ATOM      3  H   UNL A   1      30.076  30.450  25.416  1.00  0.00     0.027 H 
ENDROOT
BRANCH   1   4
ATOM      4  C   UNL A   1      31.036  31.959  26.498  1.00  0.00    -0.036 C 
ATOM      5  H   UNL A   1      30.444  32.719  26.033  1.00  0.00     0.028 H 
ATOM      6  H   UNL A   1      30.628  31.578  27.411  1.00  0.00     0.028 H 
BRANCH   4   7
ATOM      7  C   UNL A   1      32.373  32.581  26.880  1.00  0.00     0.018 C 
ATOM      8  H   UNL A   1      32.835  31.962  27.621  1.00  0.00     0.049 H 
ATOM      9  H   UNL A   1      32.957  32.646  25.985  1.00  0.00     0.049 H 
BRANCH   7  10
ATOM     10  N   UNL A   1      32.253  33.925  27.413  1.00  0.00    -0.352 N 
ATOM     11  O   UNL A   1      32.639  35.682  28.763  1.00  0.00    -0.269 OA
ATOM     12  C   UNL A   1      32.980  34.559  28.391  1.00  0.00     0.251 C 
ATOM     13  H   UNL A   1      31.539  34.470  27.009  1.00  0.00     0.163 HD
BRANCH  12  14
ATOM     14  C   UNL A   1      34.153  33.912  29.029  1.00  0.00     0.039 A 
ATOM     15  C   UNL A   1      34.028  32.793  29.855  1.00  0.00    -0.049 A 
ATOM     16  C   UNL A   1      35.430  34.411  28.737  1.00  0.00    -0.049 A 
ATOM     17  C   UNL A   1      35.155  32.248  30.472  1.00  0.00    -0.053 A 
ATOM     18  H   UNL A   1      33.101  32.367  30.009  1.00  0.00     0.063 H 
ATOM     19  C   UNL A   1      36.567  33.828  29.307  1.00  0.00    -0.053 A 
ATOM     20  H   UNL A   1      35.531  35.215  28.098  1.00  0.00     0.063 H 
ATOM     21  C   UNL A   1      36.435  32.756  30.200  1.00  0.00    -0.014 A 
ATOM     22  H   UNL A   1      35.046  31.465  31.135  1.00  0.00     0.063 H 
ATOM     23  H   UNL A   1      37.504  34.187  29.069  1.00  0.00     0.063 H 
BRANCH  21  24
ATOM     24  C   UNL A   1      37.623  32.119  30.823  1.00  0.00     0.031 A 
ATOM     25  C   UNL A   1      38.034  32.450  32.230  1.00  0.00     0.074 A 
ATOM     26  C   UNL A   1      38.318  31.205  30.120  1.00  0.00     0.049 A 
ATOM     27  N   UNL A   1      39.017  31.953  32.940  1.00  0.00    -0.248 NA
ATOM     28  C   UNL A   1      37.247  33.475  32.930  1.00  0.00    -0.034 C 
ATOM     29  C   UNL A   1      38.035  30.811  28.740  1.00  0.00    -0.036 A 
ATOM     30  N   UNL A   1      39.387  30.423  30.478  1.00  0.00    -0.354 N 
ATOM     31  C   UNL A   1      38.979  32.616  34.158  1.00  0.00     0.074 A 
ATOM     32  C   UNL A   1      37.882  33.559  34.091  1.00  0.00    -0.034 C 
ATOM     33  H   UNL A   1      36.416  33.994  32.603  1.00  0.00     0.065 H 
ATOM     34  C   UNL A   1      38.874  29.827  28.384  1.00  0.00    -0.036 A 
ATOM     35  H   UNL A   1      37.307  31.226  28.136  1.00  0.00     0.065 H 
ATOM     36  C   UNL A   1      39.772  29.541  29.500  1.00  0.00     0.049 A 
ATOM     37  H   UNL A   1      39.835  30.488  31.352  1.00  0.00     0.167 HD
ATOM     38  C   UNL A   1      39.783  32.449  35.235  1.00  0.00     0.037 A 
ATOM     39  H   UNL A   1      37.628  34.213  34.850  1.00  0.00     0.065 H 
ATOM     40  H   UNL A   1      38.883  29.348  27.469  1.00  0.00     0.065 H 
ATOM     41  C   UNL A   1      40.732  28.599  29.503  1.00  0.00     0.037 A 
ATOM     42  C   UNL A   1      40.858  31.496  35.320  1.00  0.00     0.049 A 
ATOM     43  C   UNL A   1      41.580  28.408  30.724  1.00  0.00     0.074 A 
ATOM     44  C   UNL A   1      41.716  31.251  36.380  1.00  0.00    -0.036 A 
ATOM     45  N   UNL A   1      41.216  30.622  34.306  1.00  0.00    -0.354 N 
ATOM     46  N   UNL A   1      41.529  29.038  31.871  1.00  0.00    -0.248 NA
ATOM     47  C   UNL A   1      42.625  27.375  30.649  1.00  0.00    -0.034 C 
ATOM     48  C   UNL A   1      42.602  30.236  36.002  1.00  0.00    -0.036 A 
ATOM     49  H   UNL A   1      41.704  31.736  37.292  1.00  0.00     0.065 H 
ATOM     50  C   UNL A   1      42.284  29.838  34.714  1.00  0.00     0.049 A 
ATOM     51  H   UNL A   1      40.779  30.567  33.426  1.00  0.00     0.167 HD
ATOM     52  C   UNL A   1      42.532  28.487  32.651  1.00  0.00     0.074 A 
ATOM     53  C   UNL A   1      43.164  27.453  31.859  1.00  0.00    -0.034 C 
ATOM     54  H   UNL A   1      42.874  26.756  29.863  1.00  0.00     0.065 H 
ATOM     55  H   UNL A   1      43.363  29.850  36.583  1.00  0.00     0.065 H 
ATOM     56  C   UNL A   1      42.903  28.818  33.911  1.00  0.00     0.037 A 
ATOM     57  H   UNL A   1      43.935  26.852  32.192  1.00  0.00     0.065 H 
BRANCH  38  58
ATOM     58  C   UNL A   1      39.532  33.326  36.423  1.00  0.00     0.064 A 
ATOM     59  C   UNL A   1      40.124  34.592  36.530  1.00  0.00     0.173 A 
ATOM     60  C   UNL A   1      38.653  32.917  37.436  1.00  0.00     0.173 A 
ATOM     61  F   UNL A   1      40.979  35.019  35.588  1.00  0.00    -0.203 F 
ATOM     62  C   UNL A   1      39.850  35.417  37.617  1.00  0.00     0.198 A 
ATOM     63  C   UNL A   1      38.372  33.750  38.516  1.00  0.00     0.198 A 
ATOM     64  F   UNL A   1      38.062  31.715  37.373  1.00  0.00    -0.203 F 
ATOM     65  F   UNL A   1      40.441  36.616  37.711  1.00  0.00    -0.200 F 
ATOM     66  C   UNL A   1      38.971  34.998  38.605  1.00  0.00     0.200 A 
ATOM     67  F   UNL A   1      37.518  33.347  39.467  1.00  0.00    -0.200 F 
ATOM     68  F   UNL A   1      38.704  35.796  39.648  1.00  0.00    -0.200 F 
ENDBRANCH  38  58
BRANCH  41  69
ATOM     69  C   UNL A   1      40.916  27.744  28.307  1.00  0.00     0.064 A 
ATOM     70  C   UNL A   1      41.779  28.137  27.277  1.00  0.00     0.173 A 
ATOM     71  C   UNL A   1      40.259  26.512  28.188  1.00  0.00     0.173 A 
ATOM     72  F   UNL A   1      42.412  29.316  27.346  1.00  0.00    -0.203 F 
ATOM     73  C   UNL A   1      41.979  27.323  26.164  1.00  0.00     0.198 A 
ATOM     74  C   UNL A   1      40.472  25.694  27.081  1.00  0.00     0.198 A 
ATOM     75  F   UNL A   1      39.425  26.099  29.153  1.00  0.00    -0.203 F 
ATOM     76  F   UNL A   1      42.796  27.727  25.181  1.00  0.00    -0.200 F 
ATOM     77  C   UNL A   1      41.330  26.101  26.069  1.00  0.00     0.200 A 
ATOM     78  F   UNL A   1      39.849  24.511  26.995  1.00  0.00    -0.200 F 
ATOM     79  F   UNL A   1      41.529  25.317  25.001  1.00  0.00    -0.200 F 
ENDBRANCH  41  69
BRANCH  56  80
ATOM     80  C   UNL A   1      44.048  28.057  34.503  1.00  0.00     0.064 A 
ATOM     81  C   UNL A   1      43.835  26.854  35.190  1.00  0.00     0.173 A 
ATOM     82  C   UNL A   1      45.363  28.518  34.360  1.00  0.00     0.173 A 
ATOM     83  F   UNL A   1      42.590  26.386  35.363  1.00  0.00    -0.203 F 
ATOM     84  C   UNL A   1      44.904  26.144  35.729  1.00  0.00     0.198 A 
ATOM     85  C   UNL A   1      46.431  27.799  34.891  1.00  0.00     0.198 A 
ATOM     86  F   UNL A   1      45.611  29.666  33.712  1.00  0.00    -0.203 F 
ATOM     87  F   UNL A   1      44.679  25.011  36.407  1.00  0.00    -0.200 F 
ATOM     88  C   UNL A   1      46.200  26.615  35.577  1.00  0.00     0.200 A 
ATOM     89  F   UNL A   1      47.682  28.253  34.743  1.00  0.00    -0.200 F 
ATOM     90  F   UNL A   1      47.228  25.931  36.099  1.00  0.00    -0.200 F 
ENDBRANCH  56  80
ENDBRANCH  21  24
ENDBRANCH  12  14
ENDBRANCH   7  10
ENDBRANCH   4   7
ENDBRANCH   1   4
BRANCH   1  91
ATOM     91  C   UNL A   1      31.840  29.534  26.065  1.00  0.00    -0.052 C 
ATOM     92  H   UNL A   1      31.230  28.677  25.873  1.00  0.00     0.027 H 
ATOM     93  H   UNL A   1      32.020  29.727  27.103  1.00  0.00     0.027 H 
BRANCH  91  94
ATOM     94  C   UNL A   1      33.224  29.270  25.455  1.00  0.00    -0.036 C 
ATOM     95  H   UNL A   1      33.952  29.743  26.081  1.00  0.00     0.028 H 
ATOM     96  H   UNL A   1      33.177  29.660  24.460  1.00  0.00     0.028 H 
BRANCH  94  97
ATOM     97  C   UNL A   1      33.628  27.803  25.299  1.00  0.00     0.018 C 
ATOM     98  H   UNL A   1      32.809  27.188  25.610  1.00  0.00     0.049 H 
ATOM     99  H   UNL A   1      34.497  27.643  25.902  1.00  0.00     0.049 H 
BRANCH  97 100
ATOM    100  N   UNL A   1      33.975  27.453  23.934  1.00  0.00    -0.352 N 
ATOM    101  C   UNL A   1      33.171  27.409  22.827  1.00  0.00     0.253 C 
ATOM    102  H   UNL A   1      34.918  27.215  23.783  1.00  0.00     0.163 HD
ATOM    103  O   UNL A   1      33.653  27.160  21.723  1.00  0.00    -0.269 OA
BRANCH 101 104
ATOM    104  C   UNL A   1      31.721  27.622  22.931  1.00  0.00     0.065 A 
ATOM    105  C   UNL A   1      31.210  28.806  22.374  1.00  0.00    -0.047 A 
ATOM    106  C   UNL A   1      30.872  26.738  23.603  1.00  0.00     0.076 A 
ATOM    107  C   UNL A   1      29.847  29.097  22.459  1.00  0.00    -0.061 A 
ATOM    108  H   UNL A   1      31.846  29.465  21.899  1.00  0.00     0.063 H 
ATOM    109  C   UNL A   1      29.506  27.058  23.689  1.00  0.00    -0.036 A 
ATOM    110  C   UNL A   1      28.994  28.225  23.126  1.00  0.00    -0.060 A 
ATOM    111  H   UNL A   1      29.474  29.958  22.029  1.00  0.00     0.062 H 
ATOM    112  H   UNL A   1      28.868  26.413  24.182  1.00  0.00     0.065 H 
ATOM    113  H   UNL A   1      27.987  28.439  23.202  1.00  0.00     0.062 H 
BRANCH 106 114
ATOM    114  N   UNL A   1      31.202  25.468  24.063  1.00  0.00    -0.255 NA
ATOM    115  C   UNL A   1      30.871  25.002  25.223  1.00  0.00     0.042 C 
ATOM    116  H   UNL A   1      30.442  25.588  25.957  1.00  0.00     0.085 H 
BRANCH 115 117
ATOM    117  C   UNL A   1      31.155  23.560  25.415  1.00  0.00     0.076 A 
ATOM    118  C   UNL A   1      31.315  22.953  24.224  1.00  0.00     0.104 A 
ATOM    119  C   UNL A   1      32.170  23.179  26.432  1.00  0.00     0.201 A 
ATOM    120  O   UNL A   1      32.416  22.160  23.911  1.00  0.00    -0.463 OA
ATOM    121  H   UNL A   1      30.584  23.081  23.506  1.00  0.00     0.105 H 
ATOM    122  C   UNL A   1      33.515  23.041  25.861  1.00  0.00     0.065 A 
ATOM    123  O   UNL A   1      31.933  23.097  27.626  1.00  0.00    -0.288 OA
ATOM    124  C   UNL A   1      33.574  22.556  24.553  1.00  0.00     0.137 A 
ATOM    125  C   UNL A   1      34.636  23.564  26.501  1.00  0.00    -0.047 A 
ATOM    126  C   UNL A   1      34.778  22.578  23.864  1.00  0.00    -0.019 A 
ATOM    127  C   UNL A   1      35.835  23.622  25.795  1.00  0.00    -0.061 A 
ATOM    128  H   UNL A   1      34.579  23.900  27.476  1.00  0.00     0.063 H 
ATOM    129  C   UNL A   1      35.906  23.132  24.483  1.00  0.00    -0.059 A 
ATOM    130  H   UNL A   1      34.842  22.192  22.908  1.00  0.00     0.066 H 
ATOM    131  H   UNL A   1      36.675  24.027  26.238  1.00  0.00     0.062 H 
ATOM    132  H   UNL A   1      36.799  23.180  23.968  1.00  0.00     0.062 H 
ENDBRANCH 115 117
ENDBRANCH 106 114
ENDBRANCH 101 104
ENDBRANCH  97 100
ENDBRANCH  94  97
ENDBRANCH  91  94
ENDBRANCH   1  91
TORSDOF 15
ENDMDL
MODEL 3
REMARK VINA RESULT:     -12.6      0.307      1.653
REMARK SMILES O=C(NCCCCCCNC(=O)c1ccccc1/N=C/c1coc2ccccc2c1=O)c1ccc(-c2c3nc(c(-c4c(F)c(F)c(F)c(F)c4F)c4ccc([nH]4)c(-c4c(F)c(F)c(F)c(F)c4F)c4nc(c(-c5c(F)c(F)c(F)c(F)c5F)c5ccc2[nH]5)C=C4)C=C3)cc1
REMARK SMILES IDX 6 1 5 4 4 7 3 10 1 11 2 12 32 14 33 15 94 16 34 17 93 19
REMARK SMILES IDX 35 21 36 24 37 25 87 26 38 27 92 28 86 29 88 30 39 31 91 32
REMARK SMILES IDX 85 34 84 36 40 38 72 41 52 42 71 43 53 44 56 45 70 46 89 47
REMARK SMILES IDX 54 48 55 50 69 52 90 53 57 56 41 58 42 59 50 60 43 61 44 62
REMARK SMILES IDX 48 63 51 64 45 65 46 66 49 67 47 68 73 69 74 70 82 71 75 72
REMARK SMILES IDX 76 73 80 74 83 75 77 76 78 77 81 78 79 79 58 80 59 81 67 82
REMARK SMILES IDX 60 83 61 84 65 85 68 86 62 87 63 88 66 89 64 90 7 91 8 94
REMARK SMILES IDX 9 97 10 100 11 101 12 103 13 104 14 105 18 106 15 107 17 109
REMARK SMILES IDX 16 110 19 114 20 115 21 117 22 118 30 119 23 120 29 122
REMARK SMILES IDX 31 123 24 124 28 125 25 126 27 127 26 129
REMARK H PARENT 6 2 6 3 5 5 5 6 4 8 4 9 3 13 33 18 94 20 34 22 93 23 92 33
REMARK H PARENT 86 35 88 37 91 39 85 40 53 49 56 51 89 54 54 55 90 57 7 92
REMARK H PARENT 7 93 8 95 8 96 9 98 9 99 10 102 14 108 15 111 17 112 16 113
REMARK H PARENT 20 116 22 121 28 128 25 130 27 131 26 132
REMARK Flexibility Score: inf
ROOT
ATOM      1  C   UNL A   1      31.282  30.480  25.742  1.00  0.00    -0.052 C 
ATOM      2  H   UNL A   1      31.949  30.617  24.917  1.00  0.00     0.027 H 
ATOM      3  H   UNL A   1      30.279  30.242  25.456  1.00  0.00     0.027 H 
ENDROOT
BRANCH   1   4
ATOM      4  C   UNL A   1      31.195  31.805  26.499  1.00  0.00    -0.036 C 
ATOM      5  H   UNL A   1      30.655  32.496  25.885  1.00  0.00     0.028 H 
ATOM      6  H   UNL A   1      30.717  31.572  27.427  1.00  0.00     0.028 H 
BRANCH   4   7
ATOM      7  C   UNL A   1      32.519  32.456  26.876  1.00  0.00     0.018 C 
ATOM      8  H   UNL A   1      33.002  31.842  27.608  1.00  0.00     0.049 H 
ATOM      9  H   UNL A   1      33.094  32.544  25.979  1.00  0.00     0.049 H 
BRANCH   7  10
ATOM     10  N   UNL A   1      32.370  33.793  27.423  1.00  0.00    -0.352 N 
ATOM     11  O   UNL A   1      32.728  35.549  28.782  1.00  0.00    -0.269 OA
ATOM     12  C   UNL A   1      33.093  34.438  28.395  1.00  0.00     0.251 C 
ATOM     13  H   UNL A   1      31.635  34.320  27.035  1.00  0.00     0.163 HD
BRANCH  12  14
ATOM     14  C   UNL A   1      34.294  33.819  29.010  1.00  0.00     0.039 A 
ATOM     15  C   UNL A   1      35.585  34.285  28.754  1.00  0.00    -0.049 A 
ATOM     16  C   UNL A   1      34.110  32.772  29.924  1.00  0.00    -0.049 A 
ATOM     17  C   UNL A   1      36.687  33.640  29.316  1.00  0.00    -0.053 A 
ATOM     18  H   UNL A   1      35.726  35.108  28.147  1.00  0.00     0.063 H 
ATOM     19  C   UNL A   1      35.211  32.164  30.537  1.00  0.00    -0.053 A 
ATOM     20  H   UNL A   1      33.156  32.449  30.146  1.00  0.00     0.063 H 
ATOM     21  C   UNL A   1      36.512  32.578  30.217  1.00  0.00    -0.014 A 
ATOM     22  H   UNL A   1      37.641  33.947  29.067  1.00  0.00     0.063 H 
ATOM     23  H   UNL A   1      35.065  31.411  31.225  1.00  0.00     0.063 H 
BRANCH  21  24
ATOM     24  C   UNL A   1      37.699  31.949  30.848  1.00  0.00     0.031 A 
ATOM     25  C   UNL A   1      38.086  32.267  32.264  1.00  0.00     0.074 A 
ATOM     26  C   UNL A   1      38.415  31.052  30.144  1.00  0.00     0.049 A 
ATOM     27  N   UNL A   1      39.066  31.773  32.982  1.00  0.00    -0.248 NA
ATOM     28  C   UNL A   1      37.277  33.273  32.966  1.00  0.00    -0.034 C 
ATOM     29  C   UNL A   1      38.156  30.672  28.755  1.00  0.00    -0.036 A 
ATOM     30  N   UNL A   1      39.489  30.279  30.507  1.00  0.00    -0.354 N 
ATOM     31  C   UNL A   1      39.003  32.421  34.208  1.00  0.00     0.074 A 
ATOM     32  C   UNL A   1      37.895  33.351  34.137  1.00  0.00    -0.034 C 
ATOM     33  H   UNL A   1      36.444  33.786  32.635  1.00  0.00     0.065 H 
ATOM     34  C   UNL A   1      39.012  29.702  28.399  1.00  0.00    -0.036 A 
ATOM     35  H   UNL A   1      37.431  31.085  28.147  1.00  0.00     0.065 H 
ATOM     36  C   UNL A   1      39.898  29.414  29.523  1.00  0.00     0.049 A 
ATOM     37  H   UNL A   1      39.924  30.339  31.388  1.00  0.00     0.167 HD
ATOM     38  C   UNL A   1      39.794  32.250  35.294  1.00  0.00     0.037 A 
ATOM     39  H   UNL A   1      37.623  33.992  34.900  1.00  0.00     0.065 H 
ATOM     40  H   UNL A   1      39.040  29.235  27.479  1.00  0.00     0.065 H 
ATOM     41  C   UNL A   1      40.870  28.484  29.529  1.00  0.00     0.037 A 
ATOM     42  C   UNL A   1      40.879  31.310  35.382  1.00  0.00     0.049 A 
ATOM     43  C   UNL A   1      41.704  28.288  30.759  1.00  0.00     0.074 A 
ATOM     44  C   UNL A   1      41.726  31.062  36.450  1.00  0.00    -0.036 A 
ATOM     45  N   UNL A   1      41.263  30.453  34.363  1.00  0.00    -0.354 N 
ATOM     46  N   UNL A   1      41.628  28.903  31.912  1.00  0.00    -0.248 NA
ATOM     47  C   UNL A   1      42.762  27.270  30.686  1.00  0.00    -0.034 C 
ATOM     48  C   UNL A   1      42.630  30.063  36.072  1.00  0.00    -0.036 A 
ATOM     49  H   UNL A   1      41.696  31.535  37.368  1.00  0.00     0.065 H 
ATOM     50  C   UNL A   1      42.335  29.677  34.775  1.00  0.00     0.049 A 
ATOM     51  H   UNL A   1      40.838  30.403  33.476  1.00  0.00     0.167 HD
ATOM     52  C   UNL A   1      42.628  28.355  32.700  1.00  0.00     0.074 A 
ATOM     53  C   UNL A   1      43.283  27.339  31.903  1.00  0.00    -0.034 C 
ATOM     54  H   UNL A   1      43.029  26.663  29.895  1.00  0.00     0.065 H 
ATOM     55  H   UNL A   1      43.388  29.680  36.659  1.00  0.00     0.065 H 
ATOM     56  C   UNL A   1      42.977  28.675  33.969  1.00  0.00     0.037 A 
ATOM     57  H   UNL A   1      44.057  26.743  32.240  1.00  0.00     0.065 H 
BRANCH  38  58
ATOM     58  C   UNL A   1      39.516  33.109  36.488  1.00  0.00     0.064 A 
ATOM     59  C   UNL A   1      40.140  34.353  36.650  1.00  0.00     0.173 A 
ATOM     60  C   UNL A   1      38.580  32.706  37.452  1.00  0.00     0.173 A 
ATOM     61  F   UNL A   1      41.049  34.774  35.758  1.00  0.00    -0.203 F 
ATOM     62  C   UNL A   1      39.842  35.163  37.742  1.00  0.00     0.198 A 
ATOM     63  C   UNL A   1      38.275  33.525  38.536  1.00  0.00     0.198 A 
ATOM     64  F   UNL A   1      37.956  31.525  37.336  1.00  0.00    -0.203 F 
ATOM     65  F   UNL A   1      40.463  36.342  37.890  1.00  0.00    -0.200 F 
ATOM     66  C   UNL A   1      38.907  34.751  38.681  1.00  0.00     0.200 A 
ATOM     67  F   UNL A   1      37.367  33.129  39.439  1.00  0.00    -0.200 F 
ATOM     68  F   UNL A   1      38.617  35.535  39.728  1.00  0.00    -0.200 F 
ENDBRANCH  38  58
BRANCH  41  69
ATOM     69  C   UNL A   1      41.081  27.646  28.325  1.00  0.00     0.064 A 
ATOM     70  C   UNL A   1      41.957  28.060  27.314  1.00  0.00     0.173 A 
ATOM     71  C   UNL A   1      40.438  26.410  28.179  1.00  0.00     0.173 A 
ATOM     72  F   UNL A   1      42.577  29.245  27.408  1.00  0.00    -0.203 F 
ATOM     73  C   UNL A   1      42.182  27.263  26.194  1.00  0.00     0.198 A 
ATOM     74  C   UNL A   1      40.676  25.608  27.065  1.00  0.00     0.198 A 
ATOM     75  F   UNL A   1      39.592  25.977  29.125  1.00  0.00    -0.203 F 
ATOM     76  F   UNL A   1      43.010  27.687  25.229  1.00  0.00    -0.200 F 
ATOM     77  C   UNL A   1      41.546  26.036  26.073  1.00  0.00     0.200 A 
ATOM     78  F   UNL A   1      40.065  24.421  26.955  1.00  0.00    -0.200 F 
ATOM     79  F   UNL A   1      41.769  25.268  24.998  1.00  0.00    -0.200 F 
ENDBRANCH  41  69
BRANCH  56  80
ATOM     80  C   UNL A   1      44.123  27.921  34.567  1.00  0.00     0.064 A 
ATOM     81  C   UNL A   1      45.434  28.408  34.473  1.00  0.00     0.173 A 
ATOM     82  C   UNL A   1      43.908  26.721  35.257  1.00  0.00     0.173 A 
ATOM     83  F   UNL A   1      45.686  29.545  33.807  1.00  0.00    -0.203 F 
ATOM     84  C   UNL A   1      46.496  27.709  35.040  1.00  0.00     0.198 A 
ATOM     85  C   UNL A   1      44.970  26.030  35.833  1.00  0.00     0.198 A 
ATOM     86  F   UNL A   1      42.669  26.217  35.368  1.00  0.00    -0.203 F 
ATOM     87  F   UNL A   1      47.745  28.176  34.916  1.00  0.00    -0.200 F 
ATOM     88  C   UNL A   1      46.263  26.523  35.721  1.00  0.00     0.200 A 
ATOM     89  F   UNL A   1      44.746  24.886  36.491  1.00  0.00    -0.200 F 
ATOM     90  F   UNL A   1      47.287  25.850  36.264  1.00  0.00    -0.200 F 
ENDBRANCH  56  80
ENDBRANCH  21  24
ENDBRANCH  12  14
ENDBRANCH   7  10
ENDBRANCH   4   7
ENDBRANCH   1   4
BRANCH   1  91
ATOM     91  C   UNL A   1      31.778  29.281  26.553  1.00  0.00    -0.052 C 
ATOM     92  H   UNL A   1      30.969  28.584  26.630  1.00  0.00     0.027 H 
ATOM     93  H   UNL A   1      32.104  29.687  27.488  1.00  0.00     0.027 H 
BRANCH  91  94
ATOM     94  C   UNL A   1      32.991  28.529  25.990  1.00  0.00    -0.036 C 
ATOM     95  H   UNL A   1      32.665  27.550  25.706  1.00  0.00     0.028 H 
ATOM     96  H   UNL A   1      33.722  28.540  26.772  1.00  0.00     0.028 H 
BRANCH  94  97
ATOM     97  C   UNL A   1      33.680  29.160  24.779  1.00  0.00     0.018 C 
ATOM     98  H   UNL A   1      34.606  29.589  25.098  1.00  0.00     0.049 H 
ATOM     99  H   UNL A   1      33.015  29.898  24.380  1.00  0.00     0.049 H 
BRANCH  97 100
ATOM    100  N   UNL A   1      33.953  28.204  23.722  1.00  0.00    -0.352 N 
ATOM    101  C   UNL A   1      33.093  27.671  22.800  1.00  0.00     0.253 C 
ATOM    102  H   UNL A   1      34.886  27.895  23.660  1.00  0.00     0.163 HD
ATOM    103  O   UNL A   1      33.516  26.922  21.921  1.00  0.00    -0.269 OA
BRANCH 101 104
ATOM    104  C   UNL A   1      31.651  27.952  22.854  1.00  0.00     0.065 A 
ATOM    105  C   UNL A   1      31.215  29.156  22.277  1.00  0.00    -0.047 A 
ATOM    106  C   UNL A   1      30.741  27.110  23.499  1.00  0.00     0.076 A 
ATOM    107  C   UNL A   1      29.865  29.510  22.316  1.00  0.00    -0.061 A 
ATOM    108  H   UNL A   1      31.897  29.783  21.823  1.00  0.00     0.063 H 
ATOM    109  C   UNL A   1      29.389  27.492  23.538  1.00  0.00    -0.036 A 
ATOM    110  C   UNL A   1      28.951  28.680  22.955  1.00  0.00    -0.060 A 
ATOM    111  H   UNL A   1      29.547  30.385  21.871  1.00  0.00     0.062 H 
ATOM    112  H   UNL A   1      28.705  26.880  24.009  1.00  0.00     0.065 H 
ATOM    113  H   UNL A   1      27.953  28.940  22.996  1.00  0.00     0.062 H 
BRANCH 106 114
ATOM    114  N   UNL A   1      30.996  25.827  23.972  1.00  0.00    -0.255 NA
ATOM    115  C   UNL A   1      30.783  25.442  25.188  1.00  0.00     0.042 C 
ATOM    116  H   UNL A   1      30.526  26.097  25.944  1.00  0.00     0.085 H 
BRANCH 115 117
ATOM    117  C   UNL A   1      30.939  23.985  25.411  1.00  0.00     0.076 A 
ATOM    118  C   UNL A   1      31.030  23.339  24.234  1.00  0.00     0.104 A 
ATOM    119  C   UNL A   1      31.925  23.536  26.428  1.00  0.00     0.201 A 
ATOM    120  O   UNL A   1      32.052  22.444  23.929  1.00  0.00    -0.463 OA
ATOM    121  H   UNL A   1      30.306  23.517  23.519  1.00  0.00     0.105 H 
ATOM    122  C   UNL A   1      33.246  23.265  25.850  1.00  0.00     0.065 A 
ATOM    123  O   UNL A   1      31.694  23.503  27.626  1.00  0.00    -0.288 OA
ATOM    124  C   UNL A   1      33.247  22.747  24.553  1.00  0.00     0.137 A 
ATOM    125  C   UNL A   1      34.416  23.698  26.468  1.00  0.00    -0.047 A 
ATOM    126  C   UNL A   1      34.441  22.645  23.853  1.00  0.00    -0.019 A 
ATOM    127  C   UNL A   1      35.608  23.632  25.751  1.00  0.00    -0.061 A 
ATOM    128  H   UNL A   1      34.399  24.059  27.435  1.00  0.00     0.063 H 
ATOM    129  C   UNL A   1      35.621  23.108  24.450  1.00  0.00    -0.059 A 
ATOM    130  H   UNL A   1      34.461  22.233  22.907  1.00  0.00     0.066 H 
ATOM    131  H   UNL A   1      36.486  23.969  26.178  1.00  0.00     0.062 H 
ATOM    132  H   UNL A   1      36.510  23.063  23.927  1.00  0.00     0.062 H 
ENDBRANCH 115 117
ENDBRANCH 106 114
ENDBRANCH 101 104
ENDBRANCH  97 100
ENDBRANCH  94  97
ENDBRANCH  91  94
ENDBRANCH   1  91
TORSDOF 15
ENDMDL
MODEL 4
REMARK VINA RESULT:     -12.4      0.423      7.184
REMARK SMILES O=C(NCCCCCCNC(=O)c1ccccc1/N=C/c1coc2ccccc2c1=O)c1ccc(-c2c3nc(c(-c4c(F)c(F)c(F)c(F)c4F)c4ccc([nH]4)c(-c4c(F)c(F)c(F)c(F)c4F)c4nc(c(-c5c(F)c(F)c(F)c(F)c5F)c5ccc2[nH]5)C=C4)C=C3)cc1
REMARK SMILES IDX 6 1 5 4 4 7 3 10 1 11 2 12 32 14 33 15 94 16 34 17 93 19
REMARK SMILES IDX 35 21 36 24 37 25 87 26 38 27 92 28 86 29 88 30 39 31 91 32
REMARK SMILES IDX 85 34 84 36 40 38 72 41 52 42 71 43 53 44 56 45 70 46 89 47
REMARK SMILES IDX 54 48 55 50 69 52 90 53 57 56 41 58 42 59 50 60 43 61 44 62
REMARK SMILES IDX 48 63 51 64 45 65 46 66 49 67 47 68 73 69 74 70 82 71 75 72
REMARK SMILES IDX 76 73 80 74 83 75 77 76 78 77 81 78 79 79 58 80 59 81 67 82
REMARK SMILES IDX 60 83 61 84 65 85 68 86 62 87 63 88 66 89 64 90 7 91 8 94
REMARK SMILES IDX 9 97 10 100 11 101 12 103 13 104 14 105 18 106 15 107 17 109
REMARK SMILES IDX 16 110 19 114 20 115 21 117 22 118 30 119 23 120 29 122
REMARK SMILES IDX 31 123 24 124 28 125 25 126 27 127 26 129
REMARK H PARENT 6 2 6 3 5 5 5 6 4 8 4 9 3 13 33 18 94 20 34 22 93 23 92 33
REMARK H PARENT 86 35 88 37 91 39 85 40 53 49 56 51 89 54 54 55 90 57 7 92
REMARK H PARENT 7 93 8 95 8 96 9 98 9 99 10 102 14 108 15 111 17 112 16 113
REMARK H PARENT 20 116 22 121 28 128 25 130 27 131 26 132
REMARK Flexibility Score: inf
ROOT
ATOM      1  C   UNL A   1      31.138  30.951  25.651  1.00  0.00    -0.052 C 
ATOM      2  H   UNL A   1      31.579  31.220  24.714  1.00  0.00     0.027 H 
ATOM      3  H   UNL A   1      30.128  30.607  25.572  1.00  0.00     0.027 H 
ENDROOT
BRANCH   1   4
ATOM      4  C   UNL A   1      31.081  32.208  26.519  1.00  0.00    -0.036 C 
ATOM      5  H   UNL A   1      30.604  32.978  25.948  1.00  0.00     0.028 H 
ATOM      6  H   UNL A   1      30.551  31.919  27.402  1.00  0.00     0.028 H 
BRANCH   4   7
ATOM      7  C   UNL A   1      32.417  32.753  27.007  1.00  0.00     0.018 C 
ATOM      8  H   UNL A   1      32.772  32.123  27.796  1.00  0.00     0.049 H 
ATOM      9  H   UNL A   1      33.080  32.762  26.166  1.00  0.00     0.049 H 
BRANCH   7  10
ATOM     10  N   UNL A   1      32.338  34.114  27.505  1.00  0.00    -0.352 N 
ATOM     11  O   UNL A   1      32.754  35.884  28.828  1.00  0.00    -0.269 OA
ATOM     12  C   UNL A   1      33.057  34.738  28.494  1.00  0.00     0.251 C 
ATOM     13  H   UNL A   1      31.663  34.679  27.064  1.00  0.00     0.163 HD
BRANCH  12  14
ATOM     14  C   UNL A   1      34.177  34.057  29.188  1.00  0.00     0.039 A 
ATOM     15  C   UNL A   1      33.969  33.011  30.089  1.00  0.00    -0.049 A 
ATOM     16  C   UNL A   1      35.489  34.443  28.875  1.00  0.00    -0.049 A 
ATOM     17  C   UNL A   1      35.050  32.433  30.755  1.00  0.00    -0.053 A 
ATOM     18  H   UNL A   1      33.013  32.663  30.264  1.00  0.00     0.063 H 
ATOM     19  C   UNL A   1      36.578  33.822  29.496  1.00  0.00    -0.053 A 
ATOM     20  H   UNL A   1      35.650  35.190  28.182  1.00  0.00     0.063 H 
ATOM     21  C   UNL A   1      36.365  32.828  30.462  1.00  0.00    -0.014 A 
ATOM     22  H   UNL A   1      34.882  31.708  31.471  1.00  0.00     0.063 H 
ATOM     23  H   UNL A   1      37.539  34.096  29.244  1.00  0.00     0.063 H 
BRANCH  21  24
ATOM     24  C   UNL A   1      37.501  32.155  31.140  1.00  0.00     0.031 A 
ATOM     25  C   UNL A   1      38.318  31.110  30.435  1.00  0.00     0.074 A 
ATOM     26  C   UNL A   1      37.820  32.518  32.397  1.00  0.00     0.049 A 
ATOM     27  N   UNL A   1      39.370  30.457  30.866  1.00  0.00    -0.248 NA
ATOM     28  C   UNL A   1      37.899  30.743  29.075  1.00  0.00    -0.034 C 
ATOM     29  C   UNL A   1      37.093  33.504  33.198  1.00  0.00    -0.036 A 
ATOM     30  N   UNL A   1      38.851  32.120  33.210  1.00  0.00    -0.354 N 
ATOM     31  C   UNL A   1      39.726  29.591  29.841  1.00  0.00     0.074 A 
ATOM     32  C   UNL A   1      38.773  29.793  28.769  1.00  0.00    -0.034 C 
ATOM     33  H   UNL A   1      37.128  31.125  28.506  1.00  0.00     0.065 H 
ATOM     34  C   UNL A   1      37.729  33.672  34.368  1.00  0.00    -0.036 A 
ATOM     35  H   UNL A   1      36.229  33.990  32.910  1.00  0.00     0.065 H 
ATOM     36  C   UNL A   1      38.889  32.787  34.409  1.00  0.00     0.049 A 
ATOM     37  H   UNL A   1      39.500  31.425  32.959  1.00  0.00     0.167 HD
ATOM     38  C   UNL A   1      40.756  28.713  29.798  1.00  0.00     0.037 A 
ATOM     39  H   UNL A   1      38.774  29.265  27.881  1.00  0.00     0.065 H 
ATOM     40  H   UNL A   1      37.445  34.324  35.116  1.00  0.00     0.065 H 
ATOM     41  C   UNL A   1      39.767  32.703  35.426  1.00  0.00     0.037 A 
ATOM     42  C   UNL A   1      41.722  28.525  30.847  1.00  0.00     0.049 A 
ATOM     43  C   UNL A   1      40.921  31.752  35.334  1.00  0.00     0.074 A 
ATOM     44  C   UNL A   1      42.806  27.664  30.881  1.00  0.00    -0.036 A 
ATOM     45  N   UNL A   1      41.725  29.218  32.047  1.00  0.00    -0.354 N 
ATOM     46  N   UNL A   1      41.248  30.944  34.356  1.00  0.00    -0.248 NA
ATOM     47  C   UNL A   1      41.828  31.697  36.490  1.00  0.00    -0.034 C 
ATOM     48  C   UNL A   1      43.459  27.828  32.108  1.00  0.00    -0.036 A 
ATOM     49  H   UNL A   1      43.085  27.012  30.130  1.00  0.00     0.065 H 
ATOM     50  C   UNL A   1      42.790  28.803  32.830  1.00  0.00     0.049 A 
ATOM     51  H   UNL A   1      41.067  29.903  32.306  1.00  0.00     0.167 HD
ATOM     52  C   UNL A   1      42.390  30.282  34.778  1.00  0.00     0.074 A 
ATOM     53  C   UNL A   1      42.717  30.798  36.090  1.00  0.00    -0.034 C 
ATOM     54  H   UNL A   1      41.783  32.219  37.379  1.00  0.00     0.065 H 
ATOM     55  H   UNL A   1      44.295  27.310  32.422  1.00  0.00     0.065 H 
ATOM     56  C   UNL A   1      43.098  29.323  34.135  1.00  0.00     0.037 A 
ATOM     57  H   UNL A   1      43.537  30.504  36.645  1.00  0.00     0.065 H 
BRANCH  38  58
ATOM     58  C   UNL A   1      40.893  27.875  28.564  1.00  0.00     0.064 A 
ATOM     59  C   UNL A   1      40.216  26.654  28.436  1.00  0.00     0.173 A 
ATOM     60  C   UNL A   1      41.666  28.321  27.483  1.00  0.00     0.173 A 
ATOM     61  F   UNL A   1      39.472  26.184  29.449  1.00  0.00    -0.203 F 
ATOM     62  C   UNL A   1      40.316  25.903  27.268  1.00  0.00     0.198 A 
ATOM     63  C   UNL A   1      41.753  27.573  26.312  1.00  0.00     0.198 A 
ATOM     64  F   UNL A   1      42.328  29.484  27.561  1.00  0.00    -0.203 F 
ATOM     65  F   UNL A   1      39.677  24.729  27.171  1.00  0.00    -0.200 F 
ATOM     66  C   UNL A   1      41.080  26.366  26.206  1.00  0.00     0.200 A 
ATOM     67  F   UNL A   1      42.487  28.023  25.284  1.00  0.00    -0.200 F 
ATOM     68  F   UNL A   1      41.170  25.644  25.080  1.00  0.00    -0.200 F 
ENDBRANCH  38  58
BRANCH  41  69
ATOM     69  C   UNL A   1      39.593  33.577  36.610  1.00  0.00     0.064 A 
ATOM     70  C   UNL A   1      40.166  34.854  36.642  1.00  0.00     0.173 A 
ATOM     71  C   UNL A   1      38.829  33.167  37.709  1.00  0.00     0.173 A 
ATOM     72  F   UNL A   1      40.919  35.277  35.616  1.00  0.00    -0.203 F 
ATOM     73  C   UNL A   1      39.982  35.693  37.739  1.00  0.00     0.198 A 
ATOM     74  C   UNL A   1      38.633  34.012  38.799  1.00  0.00     0.198 A 
ATOM     75  F   UNL A   1      38.262  31.952  37.717  1.00  0.00    -0.203 F 
ATOM     76  F   UNL A   1      40.555  36.904  37.757  1.00  0.00    -0.200 F 
ATOM     77  C   UNL A   1      39.211  35.273  38.814  1.00  0.00     0.200 A 
ATOM     78  F   UNL A   1      37.884  33.607  39.833  1.00  0.00    -0.200 F 
ATOM     79  F   UNL A   1      39.029  36.083  39.865  1.00  0.00    -0.200 F 
ENDBRANCH  41  69
BRANCH  56  80
ATOM     80  C   UNL A   1      44.290  28.768  34.849  1.00  0.00     0.064 A 
ATOM     81  C   UNL A   1      44.175  27.646  35.680  1.00  0.00     0.173 A 
ATOM     82  C   UNL A   1      45.556  29.344  34.683  1.00  0.00     0.173 A 
ATOM     83  F   UNL A   1      42.978  27.073  35.879  1.00  0.00    -0.203 F 
ATOM     84  C   UNL A   1      45.288  27.126  36.334  1.00  0.00     0.198 A 
ATOM     85  C   UNL A   1      46.670  28.815  35.329  1.00  0.00     0.198 A 
ATOM     86  F   UNL A   1      45.712  30.421  33.898  1.00  0.00    -0.203 F 
ATOM     87  F   UNL A   1      45.153  26.069  37.147  1.00  0.00    -0.200 F 
ATOM     88  C   UNL A   1      46.534  27.708  36.156  1.00  0.00     0.200 A 
ATOM     89  F   UNL A   1      47.873  29.377  35.157  1.00  0.00    -0.200 F 
ATOM     90  F   UNL A   1      47.605  27.209  36.788  1.00  0.00    -0.200 F 
ENDBRANCH  56  80
ENDBRANCH  21  24
ENDBRANCH  12  14
ENDBRANCH   7  10
ENDBRANCH   4   7
ENDBRANCH   1   4
BRANCH   1  91
ATOM     91  C   UNL A   1      31.934  29.779  26.226  1.00  0.00    -0.052 C 
ATOM     92  H   UNL A   1      31.323  28.903  26.151  1.00  0.00     0.027 H 
ATOM     93  H   UNL A   1      32.176  30.065  27.229  1.00  0.00     0.027 H 
BRANCH  91  94
ATOM     94  C   UNL A   1      33.279  29.469  25.555  1.00  0.00    -0.036 C 
ATOM     95  H   UNL A   1      34.049  29.915  26.149  1.00  0.00     0.028 H 
ATOM     96  H   UNL A   1      33.201  29.864  24.564  1.00  0.00     0.028 H 
BRANCH  94  97
ATOM     97  C   UNL A   1      33.625  27.990  25.379  1.00  0.00     0.018 C 
ATOM     98  H   UNL A   1      32.769  27.405  25.641  1.00  0.00     0.049 H 
ATOM     99  H   UNL A   1      34.461  27.778  26.012  1.00  0.00     0.049 H 
BRANCH  97 100
ATOM    100  N   UNL A   1      34.013  27.658  24.020  1.00  0.00    -0.352 N 
ATOM    101  C   UNL A   1      33.244  27.635  22.888  1.00  0.00     0.253 C 
ATOM    102  H   UNL A   1      34.959  27.414  23.896  1.00  0.00     0.163 HD
ATOM    103  O   UNL A   1      33.759  27.398  21.796  1.00  0.00    -0.269 OA
BRANCH 101 104
ATOM    104  C   UNL A   1      31.793  27.858  22.949  1.00  0.00     0.065 A 
ATOM    105  C   UNL A   1      31.307  29.045  22.377  1.00  0.00    -0.047 A 
ATOM    106  C   UNL A   1      30.919  26.980  23.597  1.00  0.00     0.076 A 
ATOM    107  C   UNL A   1      29.943  29.344  22.422  1.00  0.00    -0.061 A 
ATOM    108  H   UNL A   1      31.960  29.699  21.920  1.00  0.00     0.063 H 
ATOM    109  C   UNL A   1      29.554  27.308  23.643  1.00  0.00    -0.036 A 
ATOM    110  C   UNL A   1      29.066  28.478  23.064  1.00  0.00    -0.060 A 
ATOM    111  H   UNL A   1      29.589  30.208  21.980  1.00  0.00     0.062 H 
ATOM    112  H   UNL A   1      28.897  26.668  24.116  1.00  0.00     0.065 H 
ATOM    113  H   UNL A   1      28.059  28.699  23.110  1.00  0.00     0.062 H 
BRANCH 106 114
ATOM    114  N   UNL A   1      31.227  25.707  24.067  1.00  0.00    -0.255 NA
ATOM    115  C   UNL A   1      30.649  25.142  25.076  1.00  0.00     0.042 C 
ATOM    116  H   UNL A   1      29.997  25.645  25.698  1.00  0.00     0.085 H 
BRANCH 115 117
ATOM    117  C   UNL A   1      30.997  23.714  25.267  1.00  0.00     0.076 A 
ATOM    118  C   UNL A   1      31.151  23.106  24.076  1.00  0.00     0.104 A 
ATOM    119  C   UNL A   1      32.053  23.381  26.259  1.00  0.00     0.201 A 
ATOM    120  O   UNL A   1      32.274  22.357  23.738  1.00  0.00    -0.463 OA
ATOM    121  H   UNL A   1      30.396  23.199  23.377  1.00  0.00     0.105 H 
ATOM    122  C   UNL A   1      33.387  23.295  25.654  1.00  0.00     0.065 A 
ATOM    123  O   UNL A   1      31.851  23.297  27.460  1.00  0.00    -0.288 OA
ATOM    124  C   UNL A   1      33.432  22.804  24.348  1.00  0.00     0.137 A 
ATOM    125  C   UNL A   1      34.502  23.867  26.262  1.00  0.00    -0.047 A 
ATOM    126  C   UNL A   1      34.616  22.871  23.627  1.00  0.00    -0.019 A 
ATOM    127  C   UNL A   1      35.679  23.970  25.524  1.00  0.00    -0.061 A 
ATOM    128  H   UNL A   1      34.456  24.206  27.236  1.00  0.00     0.063 H 
ATOM    129  C   UNL A   1      35.735  23.475  24.213  1.00  0.00    -0.059 A 
ATOM    130  H   UNL A   1      34.671  22.482  22.672  1.00  0.00     0.066 H 
ATOM    131  H   UNL A   1      36.512  24.412  25.943  1.00  0.00     0.062 H 
ATOM    132  H   UNL A   1      36.613  23.556  23.675  1.00  0.00     0.062 H 
ENDBRANCH 115 117
ENDBRANCH 106 114
ENDBRANCH 101 104
ENDBRANCH  97 100
ENDBRANCH  94  97
ENDBRANCH  91  94
ENDBRANCH   1  91
TORSDOF 15
ENDMDL
MODEL 5
REMARK VINA RESULT:     -12.4      2.822      5.270
REMARK SMILES O=C(NCCCCCCNC(=O)c1ccccc1/N=C/c1coc2ccccc2c1=O)c1ccc(-c2c3nc(c(-c4c(F)c(F)c(F)c(F)c4F)c4ccc([nH]4)c(-c4c(F)c(F)c(F)c(F)c4F)c4nc(c(-c5c(F)c(F)c(F)c(F)c5F)c5ccc2[nH]5)C=C4)C=C3)cc1
REMARK SMILES IDX 6 1 5 4 4 7 3 10 1 11 2 12 32 14 33 15 94 16 34 17 93 19
REMARK SMILES IDX 35 21 36 24 37 25 87 26 38 27 92 28 86 29 88 30 39 31 91 32
REMARK SMILES IDX 85 34 84 36 40 38 72 41 52 42 71 43 53 44 56 45 70 46 89 47
REMARK SMILES IDX 54 48 55 50 69 52 90 53 57 56 41 58 42 59 50 60 43 61 44 62
REMARK SMILES IDX 48 63 51 64 45 65 46 66 49 67 47 68 73 69 74 70 82 71 75 72
REMARK SMILES IDX 76 73 80 74 83 75 77 76 78 77 81 78 79 79 58 80 59 81 67 82
REMARK SMILES IDX 60 83 61 84 65 85 68 86 62 87 63 88 66 89 64 90 7 91 8 94
REMARK SMILES IDX 9 97 10 100 11 101 12 103 13 104 14 105 18 106 15 107 17 109
REMARK SMILES IDX 16 110 19 114 20 115 21 117 22 118 30 119 23 120 29 122
REMARK SMILES IDX 31 123 24 124 28 125 25 126 27 127 26 129
REMARK H PARENT 6 2 6 3 5 5 5 6 4 8 4 9 3 13 33 18 94 20 34 22 93 23 92 33
REMARK H PARENT 86 35 88 37 91 39 85 40 53 49 56 51 89 54 54 55 90 57 7 92
REMARK H PARENT 7 93 8 95 8 96 9 98 9 99 10 102 14 108 15 111 17 112 16 113
REMARK H PARENT 20 116 22 121 28 128 25 130 27 131 26 132
REMARK Flexibility Score: inf
ROOT
ATOM      1  C   UNL A   1      33.550  26.134  25.813  1.00  0.00    -0.052 C 
ATOM      2  H   UNL A   1      34.364  25.482  26.050  1.00  0.00     0.027 H 
ATOM      3  H   UNL A   1      33.282  26.136  24.777  1.00  0.00     0.027 H 
ENDROOT
BRANCH   1   4
ATOM      4  C   UNL A   1      33.985  27.563  26.132  1.00  0.00    -0.036 C 
ATOM      5  H   UNL A   1      35.049  27.562  26.247  1.00  0.00     0.028 H 
ATOM      6  H   UNL A   1      33.629  28.158  25.318  1.00  0.00     0.028 H 
BRANCH   4   7
ATOM      7  C   UNL A   1      33.384  28.189  27.384  1.00  0.00     0.018 C 
ATOM      8  H   UNL A   1      32.383  27.827  27.497  1.00  0.00     0.049 H 
ATOM      9  H   UNL A   1      34.009  27.911  28.207  1.00  0.00     0.049 H 
BRANCH   7  10
ATOM     10  N   UNL A   1      33.348  29.639  27.344  1.00  0.00    -0.352 N 
ATOM     11  O   UNL A   1      34.005  31.759  27.709  1.00  0.00    -0.269 OA
ATOM     12  C   UNL A   1      34.286  30.561  27.738  1.00  0.00     0.251 C 
ATOM     13  H   UNL A   1      32.519  30.024  26.976  1.00  0.00     0.163 HD
BRANCH  12  14
ATOM     14  C   UNL A   1      35.626  30.146  28.223  1.00  0.00     0.039 A 
ATOM     15  C   UNL A   1      35.834  29.669  29.519  1.00  0.00    -0.049 A 
ATOM     16  C   UNL A   1      36.700  30.180  27.323  1.00  0.00    -0.049 A 
ATOM     17  C   UNL A   1      37.121  29.337  29.945  1.00  0.00    -0.053 A 
ATOM     18  H   UNL A   1      35.035  29.562  30.164  1.00  0.00     0.063 H 
ATOM     19  C   UNL A   1      37.980  29.788  27.730  1.00  0.00    -0.053 A 
ATOM     20  H   UNL A   1      36.545  30.496  26.353  1.00  0.00     0.063 H 
ATOM     21  C   UNL A   1      38.205  29.388  29.055  1.00  0.00    -0.014 A 
ATOM     22  H   UNL A   1      37.277  29.052  30.925  1.00  0.00     0.063 H 
ATOM     23  H   UNL A   1      38.760  29.795  27.055  1.00  0.00     0.063 H 
BRANCH  21  24
ATOM     24  C   UNL A   1      39.553  28.971  29.517  1.00  0.00     0.031 A 
ATOM     25  C   UNL A   1      40.272  29.728  30.598  1.00  0.00     0.074 A 
ATOM     26  C   UNL A   1      40.118  27.874  28.978  1.00  0.00     0.049 A 
ATOM     27  N   UNL A   1      41.433  29.472  31.150  1.00  0.00    -0.248 NA
ATOM     28  C   UNL A   1      39.608  30.929  31.124  1.00  0.00    -0.034 C 
ATOM     29  C   UNL A   1      39.534  27.066  27.908  1.00  0.00    -0.036 A 
ATOM     30  N   UNL A   1      41.297  27.237  29.273  1.00  0.00    -0.354 N 
ATOM     31  C   UNL A   1      41.648  30.488  32.071  1.00  0.00     0.074 A 
ATOM     32  C   UNL A   1      40.502  31.372  31.999  1.00  0.00    -0.034 C 
ATOM     33  H   UNL A   1      38.687  31.325  30.878  1.00  0.00     0.065 H 
ATOM     34  C   UNL A   1      40.330  26.011  27.671  1.00  0.00    -0.036 A 
ATOM     35  H   UNL A   1      38.651  27.274  27.414  1.00  0.00     0.065 H 
ATOM     36  C   UNL A   1      41.492  26.087  28.551  1.00  0.00     0.049 A 
ATOM     37  H   UNL A   1      41.940  27.572  29.939  1.00  0.00     0.167 HD
ATOM     38  C   UNL A   1      42.702  30.664  32.903  1.00  0.00     0.037 A 
ATOM     39  H   UNL A   1      40.396  32.234  32.557  1.00  0.00     0.065 H 
ATOM     40  H   UNL A   1      40.148  25.267  26.979  1.00  0.00     0.065 H 
ATOM     41  C   UNL A   1      42.490  25.186  28.599  1.00  0.00     0.037 A 
ATOM     42  C   UNL A   1      43.831  29.778  32.999  1.00  0.00     0.049 A 
ATOM     43  C   UNL A   1      43.624  25.384  29.559  1.00  0.00     0.074 A 
ATOM     44  C   UNL A   1      44.939  29.874  33.825  1.00  0.00    -0.036 A 
ATOM     45  N   UNL A   1      43.992  28.624  32.249  1.00  0.00    -0.354 N 
ATOM     46  N   UNL A   1      43.810  26.346  30.427  1.00  0.00    -0.248 NA
ATOM     47  C   UNL A   1      44.691  24.372  29.541  1.00  0.00    -0.034 C 
ATOM     48  C   UNL A   1      45.777  28.783  33.565  1.00  0.00    -0.036 A 
ATOM     49  H   UNL A   1      45.117  30.623  34.513  1.00  0.00     0.065 H 
ATOM     50  C   UNL A   1      45.182  28.000  32.590  1.00  0.00     0.049 A 
ATOM     51  H   UNL A   1      43.356  28.296  31.572  1.00  0.00     0.167 HD
ATOM     52  C   UNL A   1      45.013  26.062  31.055  1.00  0.00     0.074 A 
ATOM     53  C   UNL A   1      45.503  24.824  30.487  1.00  0.00    -0.034 C 
ATOM     54  H   UNL A   1      44.783  23.532  28.949  1.00  0.00     0.065 H 
ATOM     55  H   UNL A   1      46.684  28.595  34.021  1.00  0.00     0.065 H 
ATOM     56  C   UNL A   1      45.657  26.772  32.012  1.00  0.00     0.037 A 
ATOM     57  H   UNL A   1      46.375  24.353  30.780  1.00  0.00     0.065 H 
BRANCH  38  58
ATOM     58  C   UNL A   1      42.688  31.875  33.783  1.00  0.00     0.064 A 
ATOM     59  C   UNL A   1      42.122  31.835  35.065  1.00  0.00     0.173 A 
ATOM     60  C   UNL A   1      43.290  33.069  33.361  1.00  0.00     0.173 A 
ATOM     61  F   UNL A   1      41.526  30.716  35.506  1.00  0.00    -0.203 F 
ATOM     62  C   UNL A   1      42.153  32.954  35.893  1.00  0.00     0.198 A 
ATOM     63  C   UNL A   1      43.330  34.182  34.197  1.00  0.00     0.198 A 
ATOM     64  F   UNL A   1      43.846  33.151  32.144  1.00  0.00    -0.203 F 
ATOM     65  F   UNL A   1      41.589  32.902  37.108  1.00  0.00    -0.200 F 
ATOM     66  C   UNL A   1      42.761  34.123  35.460  1.00  0.00     0.200 A 
ATOM     67  F   UNL A   1      43.922  35.310  33.781  1.00  0.00    -0.200 F 
ATOM     68  F   UNL A   1      42.795  35.198  36.261  1.00  0.00    -0.200 F 
ENDBRANCH  38  58
BRANCH  41  69
ATOM     69  C   UNL A   1      42.435  23.994  27.721  1.00  0.00     0.064 A 
ATOM     70  C   UNL A   1      42.853  24.072  26.386  1.00  0.00     0.173 A 
ATOM     71  C   UNL A   1      41.998  22.754  28.205  1.00  0.00     0.173 A 
ATOM     72  F   UNL A   1      43.263  25.245  25.881  1.00  0.00    -0.203 F 
ATOM     73  C   UNL A   1      42.833  22.948  25.564  1.00  0.00     0.198 A 
ATOM     74  C   UNL A   1      41.991  21.628  27.385  1.00  0.00     0.198 A 
ATOM     75  F   UNL A   1      41.590  22.636  29.477  1.00  0.00    -0.203 F 
ATOM     76  F   UNL A   1      43.219  23.051  24.285  1.00  0.00    -0.200 F 
ATOM     77  C   UNL A   1      42.407  21.727  26.066  1.00  0.00     0.200 A 
ATOM     78  F   UNL A   1      41.586  20.449  27.874  1.00  0.00    -0.200 F 
ATOM     79  F   UNL A   1      42.395  20.645  25.275  1.00  0.00    -0.200 F 
ENDBRANCH  41  69
BRANCH  56  80
ATOM     80  C   UNL A   1      46.964  26.228  32.495  1.00  0.00     0.064 A 
ATOM     81  C   UNL A   1      47.017  25.324  33.564  1.00  0.00     0.173 A 
ATOM     82  C   UNL A   1      48.165  26.591  31.871  1.00  0.00     0.173 A 
ATOM     83  F   UNL A   1      45.893  24.962  34.200  1.00  0.00    -0.203 F 
ATOM     84  C   UNL A   1      48.234  24.811  34.004  1.00  0.00     0.198 A 
ATOM     85  C   UNL A   1      49.379  26.068  32.305  1.00  0.00     0.198 A 
ATOM     86  F   UNL A   1      48.160  27.456  30.845  1.00  0.00    -0.203 F 
ATOM     87  F   UNL A   1      48.268  23.970  35.046  1.00  0.00    -0.200 F 
ATOM     88  C   UNL A   1      49.413  25.181  33.373  1.00  0.00     0.200 A 
ATOM     89  F   UNL A   1      50.518  26.424  31.696  1.00  0.00    -0.200 F 
ATOM     90  F   UNL A   1      50.585  24.689  33.799  1.00  0.00    -0.200 F 
ENDBRANCH  56  80
ENDBRANCH  21  24
ENDBRANCH  12  14
ENDBRANCH   7  10
ENDBRANCH   4   7
ENDBRANCH   1   4
BRANCH   1  91
ATOM     91  C   UNL A   1      32.313  25.631  26.560  1.00  0.00    -0.052 C 
ATOM     92  H   UNL A   1      31.476  26.210  26.230  1.00  0.00     0.027 H 
ATOM     93  H   UNL A   1      32.545  25.740  27.599  1.00  0.00     0.027 H 
BRANCH  91  94
ATOM     94  C   UNL A   1      31.957  24.149  26.375  1.00  0.00    -0.036 C 
ATOM     95  H   UNL A   1      31.779  23.984  25.333  1.00  0.00     0.028 H 
ATOM     96  H   UNL A   1      31.105  23.980  27.000  1.00  0.00     0.028 H 
BRANCH  94  97
ATOM     97  C   UNL A   1      33.007  23.137  26.834  1.00  0.00     0.018 C 
ATOM     98  H   UNL A   1      33.079  23.178  27.901  1.00  0.00     0.049 H 
ATOM     99  H   UNL A   1      33.932  23.396  26.363  1.00  0.00     0.049 H 
BRANCH  97 100
ATOM    100  N   UNL A   1      32.688  21.775  26.446  1.00  0.00    -0.352 N 
ATOM    101  C   UNL A   1      33.433  20.893  25.710  1.00  0.00     0.253 C 
ATOM    102  H   UNL A   1      31.814  21.440  26.753  1.00  0.00     0.163 HD
ATOM    103  O   UNL A   1      33.035  19.743  25.537  1.00  0.00    -0.269 OA
BRANCH 101 104
ATOM    104  C   UNL A   1      34.700  21.302  25.088  1.00  0.00     0.065 A 
ATOM    105  C   UNL A   1      35.865  20.654  25.531  1.00  0.00    -0.047 A 
ATOM    106  C   UNL A   1      34.782  22.330  24.145  1.00  0.00     0.076 A 
ATOM    107  C   UNL A   1      37.112  21.008  25.011  1.00  0.00    -0.061 A 
ATOM    108  H   UNL A   1      35.799  19.912  26.244  1.00  0.00     0.063 H 
ATOM    109  C   UNL A   1      36.048  22.679  23.645  1.00  0.00    -0.036 A 
ATOM    110  C   UNL A   1      37.205  22.029  24.072  1.00  0.00    -0.060 A 
ATOM    111  H   UNL A   1      37.962  20.513  25.324  1.00  0.00     0.062 H 
ATOM    112  H   UNL A   1      36.124  23.435  22.947  1.00  0.00     0.065 H 
ATOM    113  H   UNL A   1      38.125  22.302  23.692  1.00  0.00     0.062 H 
BRANCH 106 114
ATOM    114  N   UNL A   1      33.714  22.948  23.503  1.00  0.00    -0.255 NA
ATOM    115  C   UNL A   1      33.730  24.165  23.066  1.00  0.00     0.042 C 
ATOM    116  H   UNL A   1      34.499  24.822  23.274  1.00  0.00     0.085 H 
BRANCH 115 117
ATOM    117  C   UNL A   1      32.557  24.541  22.241  1.00  0.00     0.076 A 
ATOM    118  C   UNL A   1      31.416  24.267  22.900  1.00  0.00     0.104 A 
ATOM    119  C   UNL A   1      32.570  25.870  21.575  1.00  0.00     0.201 A 
ATOM    120  O   UNL A   1      30.395  25.196  23.083  1.00  0.00    -0.463 OA
ATOM    121  H   UNL A   1      31.289  23.319  23.290  1.00  0.00     0.105 H 
ATOM    122  C   UNL A   1      31.931  26.912  22.387  1.00  0.00     0.065 A 
ATOM    123  O   UNL A   1      33.143  26.093  20.522  1.00  0.00    -0.288 OA
ATOM    124  C   UNL A   1      30.852  26.498  23.170  1.00  0.00     0.137 A 
ATOM    125  C   UNL A   1      32.500  28.175  22.531  1.00  0.00    -0.047 A 
ATOM    126  C   UNL A   1      30.313  27.362  24.113  1.00  0.00    -0.019 A 
ATOM    127  C   UNL A   1      31.985  29.027  23.506  1.00  0.00    -0.061 A 
ATOM    128  H   UNL A   1      33.285  28.472  21.930  1.00  0.00     0.063 H 
ATOM    129  C   UNL A   1      30.897  28.622  24.292  1.00  0.00    -0.059 A 
ATOM    130  H   UNL A   1      29.494  27.080  24.675  1.00  0.00     0.066 H 
ATOM    131  H   UNL A   1      32.405  29.959  23.649  1.00  0.00     0.062 H 
ATOM    132  H   UNL A   1      30.522  29.261  25.012  1.00  0.00     0.062 H 
ENDBRANCH 115 117
ENDBRANCH 106 114
ENDBRANCH 101 104
ENDBRANCH  97 100
ENDBRANCH  94  97
ENDBRANCH  91  94
ENDBRANCH   1  91
TORSDOF 15
ENDMDL
MODEL 6
REMARK VINA RESULT:     -12.4      4.967     10.580
REMARK SMILES O=C(NCCCCCCNC(=O)c1ccccc1/N=C/c1coc2ccccc2c1=O)c1ccc(-c2c3nc(c(-c4c(F)c(F)c(F)c(F)c4F)c4ccc([nH]4)c(-c4c(F)c(F)c(F)c(F)c4F)c4nc(c(-c5c(F)c(F)c(F)c(F)c5F)c5ccc2[nH]5)C=C4)C=C3)cc1
REMARK SMILES IDX 6 1 5 4 4 7 3 10 1 11 2 12 32 14 33 15 94 16 34 17 93 19
REMARK SMILES IDX 35 21 36 24 37 25 87 26 38 27 92 28 86 29 88 30 39 31 91 32
REMARK SMILES IDX 85 34 84 36 40 38 72 41 52 42 71 43 53 44 56 45 70 46 89 47
REMARK SMILES IDX 54 48 55 50 69 52 90 53 57 56 41 58 42 59 50 60 43 61 44 62
REMARK SMILES IDX 48 63 51 64 45 65 46 66 49 67 47 68 73 69 74 70 82 71 75 72
REMARK SMILES IDX 76 73 80 74 83 75 77 76 78 77 81 78 79 79 58 80 59 81 67 82
REMARK SMILES IDX 60 83 61 84 65 85 68 86 62 87 63 88 66 89 64 90 7 91 8 94
REMARK SMILES IDX 9 97 10 100 11 101 12 103 13 104 14 105 18 106 15 107 17 109
REMARK SMILES IDX 16 110 19 114 20 115 21 117 22 118 30 119 23 120 29 122
REMARK SMILES IDX 31 123 24 124 28 125 25 126 27 127 26 129
REMARK H PARENT 6 2 6 3 5 5 5 6 4 8 4 9 3 13 33 18 94 20 34 22 93 23 92 33
REMARK H PARENT 86 35 88 37 91 39 85 40 53 49 56 51 89 54 54 55 90 57 7 92
REMARK H PARENT 7 93 8 95 8 96 9 98 9 99 10 102 14 108 15 111 17 112 16 113
REMARK H PARENT 20 116 22 121 28 128 25 130 27 131 26 132
REMARK Flexibility Score: inf
ROOT
ATOM      1  C   UNL A   1      36.537  20.319  24.961  1.00  0.00    -0.052 C 
ATOM      2  H   UNL A   1      36.130  20.245  25.948  1.00  0.00     0.027 H 
ATOM      3  H   UNL A   1      35.915  19.895  24.201  1.00  0.00     0.027 H 
ENDROOT
BRANCH   1   4
ATOM      4  C   UNL A   1      37.837  19.516  24.929  1.00  0.00    -0.036 C 
ATOM      5  H   UNL A   1      37.621  18.531  25.288  1.00  0.00     0.028 H 
ATOM      6  H   UNL A   1      38.169  19.553  23.912  1.00  0.00     0.028 H 
BRANCH   4   7
ATOM      7  C   UNL A   1      38.993  20.067  25.753  1.00  0.00     0.018 C 
ATOM      8  H   UNL A   1      39.296  21.002  25.329  1.00  0.00     0.049 H 
ATOM      9  H   UNL A   1      38.640  20.174  26.758  1.00  0.00     0.049 H 
BRANCH   7  10
ATOM     10  N   UNL A   1      40.144  19.185  25.796  1.00  0.00    -0.352 N 
ATOM     11  O   UNL A   1      42.303  18.568  25.935  1.00  0.00    -0.269 OA
ATOM     12  C   UNL A   1      41.465  19.463  26.051  1.00  0.00     0.251 C 
ATOM     13  H   UNL A   1      39.949  18.237  25.613  1.00  0.00     0.163 HD
BRANCH  12  14
ATOM     14  C   UNL A   1      41.911  20.823  26.441  1.00  0.00     0.039 A 
ATOM     15  C   UNL A   1      42.227  21.153  27.761  1.00  0.00    -0.049 A 
ATOM     16  C   UNL A   1      42.076  21.785  25.434  1.00  0.00    -0.049 A 
ATOM     17  C   UNL A   1      42.595  22.459  28.087  1.00  0.00    -0.053 A 
ATOM     18  H   UNL A   1      42.188  20.430  28.496  1.00  0.00     0.063 H 
ATOM     19  C   UNL A   1      42.504  23.078  25.752  1.00  0.00    -0.053 A 
ATOM     20  H   UNL A   1      41.880  21.536  24.452  1.00  0.00     0.063 H 
ATOM     21  C   UNL A   1      42.743  23.433  27.087  1.00  0.00    -0.014 A 
ATOM     22  H   UNL A   1      42.759  22.711  29.075  1.00  0.00     0.063 H 
ATOM     23  H   UNL A   1      42.645  23.772  25.002  1.00  0.00     0.063 H 
BRANCH  21  24
ATOM     24  C   UNL A   1      43.194  24.798  27.455  1.00  0.00     0.031 A 
ATOM     25  C   UNL A   1      44.591  25.262  27.152  1.00  0.00     0.074 A 
ATOM     26  C   UNL A   1      42.320  25.640  28.038  1.00  0.00     0.049 A 
ATOM     27  N   UNL A   1      45.132  26.437  27.364  1.00  0.00    -0.248 NA
ATOM     28  C   UNL A   1      45.499  24.284  26.538  1.00  0.00    -0.034 C 
ATOM     29  C   UNL A   1      40.944  25.305  28.403  1.00  0.00    -0.036 A 
ATOM     30  N   UNL A   1      42.451  26.957  28.401  1.00  0.00    -0.354 N 
ATOM     31  C   UNL A   1      46.447  26.333  26.930  1.00  0.00     0.074 A 
ATOM     32  C   UNL A   1      46.626  24.978  26.450  1.00  0.00    -0.034 C 
ATOM     33  H   UNL A   1      45.310  23.311  26.250  1.00  0.00     0.065 H 
ATOM     34  C   UNL A   1      40.341  26.400  28.891  1.00  0.00    -0.036 A 
ATOM     35  H   UNL A   1      40.508  24.374  28.304  1.00  0.00     0.065 H 
ATOM     36  C   UNL A   1      41.295  27.504  28.899  1.00  0.00     0.049 A 
ATOM     37  H   UNL A   1      43.292  27.461  28.312  1.00  0.00     0.167 HD
ATOM     38  C   UNL A   1      47.412  27.283  26.928  1.00  0.00     0.037 A 
ATOM     39  H   UNL A   1      47.517  24.602  26.087  1.00  0.00     0.065 H 
ATOM     40  H   UNL A   1      39.360  26.452  29.209  1.00  0.00     0.065 H 
ATOM     41  C   UNL A   1      41.030  28.758  29.308  1.00  0.00     0.037 A 
ATOM     42  C   UNL A   1      47.235  28.637  27.378  1.00  0.00     0.049 A 
ATOM     43  C   UNL A   1      42.106  29.800  29.256  1.00  0.00     0.074 A 
ATOM     44  C   UNL A   1      48.158  29.671  27.400  1.00  0.00    -0.036 A 
ATOM     45  N   UNL A   1      46.049  29.152  27.878  1.00  0.00    -0.354 N 
ATOM     46  N   UNL A   1      43.342  29.688  28.837  1.00  0.00    -0.248 NA
ATOM     47  C   UNL A   1      41.751  31.143  29.738  1.00  0.00    -0.034 C 
ATOM     48  C   UNL A   1      47.533  30.807  27.925  1.00  0.00    -0.036 A 
ATOM     49  H   UNL A   1      49.139  29.611  27.084  1.00  0.00     0.065 H 
ATOM     50  C   UNL A   1      46.217  30.486  28.214  1.00  0.00     0.049 A 
ATOM     51  H   UNL A   1      45.212  28.644  27.982  1.00  0.00     0.167 HD
ATOM     52  C   UNL A   1      43.914  30.938  29.009  1.00  0.00     0.074 A 
ATOM     53  C   UNL A   1      42.885  31.803  29.548  1.00  0.00    -0.034 C 
ATOM     54  H   UNL A   1      40.856  31.482  30.124  1.00  0.00     0.065 H 
ATOM     55  H   UNL A   1      47.977  31.728  28.072  1.00  0.00     0.065 H 
ATOM     56  C   UNL A   1      45.185  31.330  28.752  1.00  0.00     0.037 A 
ATOM     57  H   UNL A   1      43.018  32.806  29.757  1.00  0.00     0.065 H 
BRANCH  38  58
ATOM     58  C   UNL A   1      48.765  26.887  26.421  1.00  0.00     0.064 A 
ATOM     59  C   UNL A   1      49.718  26.307  27.270  1.00  0.00     0.173 A 
ATOM     60  C   UNL A   1      49.090  27.041  25.066  1.00  0.00     0.173 A 
ATOM     61  F   UNL A   1      49.453  26.149  28.575  1.00  0.00    -0.203 F 
ATOM     62  C   UNL A   1      50.956  25.903  26.779  1.00  0.00     0.198 A 
ATOM     63  C   UNL A   1      50.325  26.624  24.576  1.00  0.00     0.198 A 
ATOM     64  F   UNL A   1      48.207  27.588  24.218  1.00  0.00    -0.203 F 
ATOM     65  F   UNL A   1      51.862  25.368  27.609  1.00  0.00    -0.200 F 
ATOM     66  C   UNL A   1      51.256  26.057  25.433  1.00  0.00     0.200 A 
ATOM     67  F   UNL A   1      50.612  26.768  23.275  1.00  0.00    -0.200 F 
ATOM     68  F   UNL A   1      52.447  25.661  24.962  1.00  0.00    -0.200 F 
ENDBRANCH  38  58
BRANCH  41  69
ATOM     69  C   UNL A   1      39.665  29.096  29.775  1.00  0.00     0.064 A 
ATOM     70  C   UNL A   1      38.692  29.541  28.870  1.00  0.00     0.173 A 
ATOM     71  C   UNL A   1      39.301  28.951  31.120  1.00  0.00     0.173 A 
ATOM     72  F   UNL A   1      39.007  29.709  27.578  1.00  0.00    -0.203 F 
ATOM     73  C   UNL A   1      37.399  29.831  29.298  1.00  0.00     0.198 A 
ATOM     74  C   UNL A   1      38.003  29.229  31.543  1.00  0.00     0.198 A 
ATOM     75  F   UNL A   1      40.202  28.527  32.017  1.00  0.00    -0.203 F 
ATOM     76  F   UNL A   1      36.489  30.273  28.419  1.00  0.00    -0.200 F 
ATOM     77  C   UNL A   1      37.055  29.670  30.632  1.00  0.00     0.200 A 
ATOM     78  F   UNL A   1      37.671  29.066  32.830  1.00  0.00    -0.200 F 
ATOM     79  F   UNL A   1      35.808  29.943  31.040  1.00  0.00    -0.200 F 
ENDBRANCH  41  69
BRANCH  56  80
ATOM     80  C   UNL A   1      45.530  32.754  29.059  1.00  0.00     0.064 A 
ATOM     81  C   UNL A   1      46.048  33.117  30.309  1.00  0.00     0.173 A 
ATOM     82  C   UNL A   1      45.366  33.753  28.091  1.00  0.00     0.173 A 
ATOM     83  F   UNL A   1      46.206  32.193  31.269  1.00  0.00    -0.203 F 
ATOM     84  C   UNL A   1      46.379  34.440  30.586  1.00  0.00     0.198 A 
ATOM     85  C   UNL A   1      45.708  35.074  28.368  1.00  0.00     0.198 A 
ATOM     86  F   UNL A   1      44.871  33.450  26.882  1.00  0.00    -0.203 F 
ATOM     87  F   UNL A   1      46.846  34.773  31.797  1.00  0.00    -0.200 F 
ATOM     88  C   UNL A   1      46.211  35.417  29.615  1.00  0.00     0.200 A 
ATOM     89  F   UNL A   1      45.547  36.017  27.430  1.00  0.00    -0.200 F 
ATOM     90  F   UNL A   1      46.527  36.691  29.884  1.00  0.00    -0.200 F 
ENDBRANCH  56  80
ENDBRANCH  21  24
ENDBRANCH  12  14
ENDBRANCH   7  10
ENDBRANCH   4   7
ENDBRANCH   1   4
BRANCH   1  91
ATOM     91  C   UNL A   1      36.662  21.804  24.614  1.00  0.00    -0.052 C 
ATOM     92  H   UNL A   1      35.974  22.011  23.822  1.00  0.00     0.027 H 
ATOM     93  H   UNL A   1      37.691  21.950  24.358  1.00  0.00     0.027 H 
BRANCH  91  94
ATOM     94  C   UNL A   1      36.381  22.798  25.750  1.00  0.00    -0.036 C 
ATOM     95  H   UNL A   1      37.257  23.397  25.882  1.00  0.00     0.028 H 
ATOM     96  H   UNL A   1      36.124  22.198  26.598  1.00  0.00     0.028 H 
BRANCH  94  97
ATOM     97  C   UNL A   1      35.197  23.744  25.545  1.00  0.00     0.018 C 
ATOM     98  H   UNL A   1      34.728  23.508  24.613  1.00  0.00     0.049 H 
ATOM     99  H   UNL A   1      35.577  24.743  25.559  1.00  0.00     0.049 H 
BRANCH  97 100
ATOM    100  N   UNL A   1      34.204  23.642  26.600  1.00  0.00    -0.352 N 
ATOM    101  C   UNL A   1      33.208  22.717  26.758  1.00  0.00     0.253 C 
ATOM    102  H   UNL A   1      34.253  24.336  27.297  1.00  0.00     0.163 HD
ATOM    103  O   UNL A   1      32.496  22.741  27.760  1.00  0.00    -0.269 OA
BRANCH 101 104
ATOM    104  C   UNL A   1      32.944  21.701  25.729  1.00  0.00     0.065 A 
ATOM    105  C   UNL A   1      33.063  20.356  26.118  1.00  0.00    -0.047 A 
ATOM    106  C   UNL A   1      32.652  22.026  24.402  1.00  0.00     0.076 A 
ATOM    107  C   UNL A   1      32.859  19.332  25.191  1.00  0.00    -0.061 A 
ATOM    108  H   UNL A   1      33.301  20.124  27.095  1.00  0.00     0.063 H 
ATOM    109  C   UNL A   1      32.464  20.979  23.483  1.00  0.00    -0.036 A 
ATOM    110  C   UNL A   1      32.567  19.644  23.868  1.00  0.00    -0.060 A 
ATOM    111  H   UNL A   1      32.925  18.345  25.488  1.00  0.00     0.062 H 
ATOM    112  H   UNL A   1      32.246  21.205  22.500  1.00  0.00     0.065 H 
ATOM    113  H   UNL A   1      32.426  18.892  23.176  1.00  0.00     0.062 H 
BRANCH 106 114
ATOM    114  N   UNL A   1      32.352  23.292  23.910  1.00  0.00    -0.255 NA
ATOM    115  C   UNL A   1      32.740  23.738  22.759  1.00  0.00     0.042 C 
ATOM    116  H   UNL A   1      33.416  23.234  22.165  1.00  0.00     0.085 H 
BRANCH 115 117
ATOM    117  C   UNL A   1      32.135  25.033  22.363  1.00  0.00     0.076 A 
ATOM    118  C   UNL A   1      30.905  25.156  22.895  1.00  0.00     0.104 A 
ATOM    119  C   UNL A   1      32.971  26.256  22.477  1.00  0.00     0.201 A 
ATOM    120  O   UNL A   1      30.495  26.267  23.627  1.00  0.00    -0.463 OA
ATOM    121  H   UNL A   1      30.229  24.387  22.753  1.00  0.00     0.105 H 
ATOM    122  C   UNL A   1      32.802  26.937  23.766  1.00  0.00     0.065 A 
ATOM    123  O   UNL A   1      33.788  26.597  21.637  1.00  0.00    -0.288 OA
ATOM    124  C   UNL A   1      31.524  26.870  24.325  1.00  0.00     0.137 A 
ATOM    125  C   UNL A   1      33.892  27.424  24.482  1.00  0.00    -0.047 A 
ATOM    126  C   UNL A   1      31.317  27.310  25.625  1.00  0.00    -0.019 A 
ATOM    127  C   UNL A   1      33.692  27.828  25.800  1.00  0.00    -0.061 A 
ATOM    128  H   UNL A   1      34.826  27.484  24.046  1.00  0.00     0.063 H 
ATOM    129  C   UNL A   1      32.412  27.771  26.369  1.00  0.00    -0.059 A 
ATOM    130  H   UNL A   1      30.372  27.298  26.039  1.00  0.00     0.066 H 
ATOM    131  H   UNL A   1      34.488  28.170  26.361  1.00  0.00     0.062 H 
ATOM    132  H   UNL A   1      32.274  28.073  27.346  1.00  0.00     0.062 H 
ENDBRANCH 115 117
ENDBRANCH 106 114
ENDBRANCH 101 104
ENDBRANCH  97 100
ENDBRANCH  94  97
ENDBRANCH  91  94
ENDBRANCH   1  91
TORSDOF 15
ENDMDL
MODEL 7
REMARK VINA RESULT:     -12.4      3.859      8.416
REMARK SMILES O=C(NCCCCCCNC(=O)c1ccccc1/N=C/c1coc2ccccc2c1=O)c1ccc(-c2c3nc(c(-c4c(F)c(F)c(F)c(F)c4F)c4ccc([nH]4)c(-c4c(F)c(F)c(F)c(F)c4F)c4nc(c(-c5c(F)c(F)c(F)c(F)c5F)c5ccc2[nH]5)C=C4)C=C3)cc1
REMARK SMILES IDX 6 1 5 4 4 7 3 10 1 11 2 12 32 14 33 15 94 16 34 17 93 19
REMARK SMILES IDX 35 21 36 24 37 25 87 26 38 27 92 28 86 29 88 30 39 31 91 32
REMARK SMILES IDX 85 34 84 36 40 38 72 41 52 42 71 43 53 44 56 45 70 46 89 47
REMARK SMILES IDX 54 48 55 50 69 52 90 53 57 56 41 58 42 59 50 60 43 61 44 62
REMARK SMILES IDX 48 63 51 64 45 65 46 66 49 67 47 68 73 69 74 70 82 71 75 72
REMARK SMILES IDX 76 73 80 74 83 75 77 76 78 77 81 78 79 79 58 80 59 81 67 82
REMARK SMILES IDX 60 83 61 84 65 85 68 86 62 87 63 88 66 89 64 90 7 91 8 94
REMARK SMILES IDX 9 97 10 100 11 101 12 103 13 104 14 105 18 106 15 107 17 109
REMARK SMILES IDX 16 110 19 114 20 115 21 117 22 118 30 119 23 120 29 122
REMARK SMILES IDX 31 123 24 124 28 125 25 126 27 127 26 129
REMARK H PARENT 6 2 6 3 5 5 5 6 4 8 4 9 3 13 33 18 94 20 34 22 93 23 92 33
REMARK H PARENT 86 35 88 37 91 39 85 40 53 49 56 51 89 54 54 55 90 57 7 92
REMARK H PARENT 7 93 8 95 8 96 9 98 9 99 10 102 14 108 15 111 17 112 16 113
REMARK H PARENT 20 116 22 121 28 128 25 130 27 131 26 132
REMARK Flexibility Score: inf
ROOT
ATOM      1  C   UNL A   1      34.537  24.994  24.987  1.00  0.00    -0.052 C 
ATOM      2  H   UNL A   1      34.686  26.028  25.220  1.00  0.00     0.027 H 
ATOM      3  H   UNL A   1      33.624  24.589  25.370  1.00  0.00     0.027 H 
ENDROOT
BRANCH   1   4
ATOM      4  C   UNL A   1      35.658  24.198  25.654  1.00  0.00    -0.036 C 
ATOM      5  H   UNL A   1      35.978  24.745  26.516  1.00  0.00     0.028 H 
ATOM      6  H   UNL A   1      35.235  23.239  25.871  1.00  0.00     0.028 H 
BRANCH   4   7
ATOM      7  C   UNL A   1      36.887  23.915  24.801  1.00  0.00     0.018 C 
ATOM      8  H   UNL A   1      36.563  23.655  23.814  1.00  0.00     0.049 H 
ATOM      9  H   UNL A   1      37.487  24.801  24.809  1.00  0.00     0.049 H 
BRANCH   7  10
ATOM     10  N   UNL A   1      37.710  22.835  25.313  1.00  0.00    -0.352 N 
ATOM     11  O   UNL A   1      39.409  21.831  26.392  1.00  0.00    -0.269 OA
ATOM     12  C   UNL A   1      38.787  22.869  26.165  1.00  0.00     0.251 C 
ATOM     13  H   UNL A   1      37.456  21.936  25.003  1.00  0.00     0.163 HD
BRANCH  12  14
ATOM     14  C   UNL A   1      39.236  24.133  26.800  1.00  0.00     0.039 A 
ATOM     15  C   UNL A   1      38.965  24.431  28.137  1.00  0.00    -0.049 A 
ATOM     16  C   UNL A   1      40.010  25.022  26.041  1.00  0.00    -0.049 A 
ATOM     17  C   UNL A   1      39.364  25.654  28.677  1.00  0.00    -0.053 A 
ATOM     18  H   UNL A   1      38.467  23.746  28.727  1.00  0.00     0.063 H 
ATOM     19  C   UNL A   1      40.465  26.221  26.600  1.00  0.00    -0.053 A 
ATOM     20  H   UNL A   1      40.245  24.790  25.064  1.00  0.00     0.063 H 
ATOM     21  C   UNL A   1      40.123  26.558  27.917  1.00  0.00    -0.014 A 
ATOM     22  H   UNL A   1      39.099  25.896  29.645  1.00  0.00     0.063 H 
ATOM     23  H   UNL A   1      41.052  26.859  26.042  1.00  0.00     0.063 H 
BRANCH  21  24
ATOM     24  C   UNL A   1      40.587  27.826  28.535  1.00  0.00     0.031 A 
ATOM     25  C   UNL A   1      42.046  28.077  28.790  1.00  0.00     0.074 A 
ATOM     26  C   UNL A   1      39.681  28.775  28.838  1.00  0.00     0.049 A 
ATOM     27  N   UNL A   1      42.625  29.146  29.279  1.00  0.00    -0.248 NA
ATOM     28  C   UNL A   1      42.977  26.988  28.459  1.00  0.00    -0.034 C 
ATOM     29  C   UNL A   1      38.235  28.646  28.660  1.00  0.00    -0.036 A 
ATOM     30  N   UNL A   1      39.846  30.044  29.334  1.00  0.00    -0.354 N 
ATOM     31  C   UNL A   1      43.981  28.853  29.334  1.00  0.00     0.074 A 
ATOM     32  C   UNL A   1      44.140  27.502  28.837  1.00  0.00    -0.034 C 
ATOM     33  H   UNL A   1      42.778  26.066  28.041  1.00  0.00     0.065 H 
ATOM     34  C   UNL A   1      37.648  29.806  28.992  1.00  0.00    -0.036 A 
ATOM     35  H   UNL A   1      37.745  27.798  28.334  1.00  0.00     0.065 H 
ATOM     36  C   UNL A   1      38.672  30.748  29.433  1.00  0.00     0.049 A 
ATOM     37  H   UNL A   1      40.720  30.414  29.593  1.00  0.00     0.167 HD
ATOM     38  C   UNL A   1      44.998  29.641  29.756  1.00  0.00     0.037 A 
ATOM     39  H   UNL A   1      45.043  27.003  28.784  1.00  0.00     0.065 H 
ATOM     40  H   UNL A   1      36.635  30.000  28.943  1.00  0.00     0.065 H 
ATOM     41  C   UNL A   1      38.446  32.015  29.824  1.00  0.00     0.037 A 
ATOM     42  C   UNL A   1      44.852  30.992  30.227  1.00  0.00     0.049 A 
ATOM     43  C   UNL A   1      39.596  32.879  30.247  1.00  0.00     0.074 A 
ATOM     44  C   UNL A   1      45.832  31.868  30.663  1.00  0.00    -0.036 A 
ATOM     45  N   UNL A   1      43.645  31.669  30.314  1.00  0.00    -0.354 N 
ATOM     46  N   UNL A   1      40.872  32.589  30.288  1.00  0.00    -0.248 NA
ATOM     47  C   UNL A   1      39.272  34.245  30.684  1.00  0.00    -0.034 C 
ATOM     48  C   UNL A   1      45.217  33.072  31.025  1.00  0.00    -0.036 A 
ATOM     49  H   UNL A   1      46.844  31.667  30.713  1.00  0.00     0.065 H 
ATOM     50  C   UNL A   1      43.856  32.950  30.798  1.00  0.00     0.049 A 
ATOM     51  H   UNL A   1      42.768  31.295  30.069  1.00  0.00     0.167 HD
ATOM     52  C   UNL A   1      41.504  33.730  30.758  1.00  0.00     0.074 A 
ATOM     53  C   UNL A   1      40.475  34.727  30.966  1.00  0.00    -0.034 C 
ATOM     54  H   UNL A   1      38.352  34.707  30.753  1.00  0.00     0.065 H 
ATOM     55  H   UNL A   1      45.695  33.907  31.398  1.00  0.00     0.065 H 
ATOM     56  C   UNL A   1      42.821  33.927  31.004  1.00  0.00     0.037 A 
ATOM     57  H   UNL A   1      40.654  35.690  31.293  1.00  0.00     0.065 H 
BRANCH  38  58
ATOM     58  C   UNL A   1      46.376  29.055  29.732  1.00  0.00     0.064 A 
ATOM     59  C   UNL A   1      46.894  28.370  30.840  1.00  0.00     0.173 A 
ATOM     60  C   UNL A   1      47.164  29.137  28.575  1.00  0.00     0.173 A 
ATOM     61  F   UNL A   1      46.179  28.275  31.971  1.00  0.00    -0.203 F 
ATOM     62  C   UNL A   1      48.160  27.792  30.791  1.00  0.00     0.198 A 
ATOM     63  C   UNL A   1      48.424  28.547  28.527  1.00  0.00     0.198 A 
ATOM     64  F   UNL A   1      46.707  29.780  27.491  1.00  0.00    -0.203 F 
ATOM     65  F   UNL A   1      48.646  27.156  31.867  1.00  0.00    -0.200 F 
ATOM     66  C   UNL A   1      48.920  27.876  29.634  1.00  0.00     0.200 A 
ATOM     67  F   UNL A   1      49.156  28.624  27.407  1.00  0.00    -0.200 F 
ATOM     68  F   UNL A   1      50.136  27.314  29.588  1.00  0.00    -0.200 F 
ENDBRANCH  38  58
BRANCH  41  69
ATOM     69  C   UNL A   1      37.063  32.547  29.802  1.00  0.00     0.064 A 
ATOM     70  C   UNL A   1      36.215  32.373  30.903  1.00  0.00     0.173 A 
ATOM     71  C   UNL A   1      36.577  33.261  28.699  1.00  0.00     0.173 A 
ATOM     72  F   UNL A   1      36.637  31.680  31.971  1.00  0.00    -0.203 F 
ATOM     73  C   UNL A   1      34.924  32.896  30.900  1.00  0.00     0.198 A 
ATOM     74  C   UNL A   1      35.291  33.796  28.704  1.00  0.00     0.198 A 
ATOM     75  F   UNL A   1      37.358  33.450  27.625  1.00  0.00    -0.203 F 
ATOM     76  F   UNL A   1      34.123  32.702  31.957  1.00  0.00    -0.200 F 
ATOM     77  C   UNL A   1      34.465  33.611  29.803  1.00  0.00     0.200 A 
ATOM     78  F   UNL A   1      34.853  34.491  27.646  1.00  0.00    -0.200 F 
ATOM     79  F   UNL A   1      33.226  34.119  29.805  1.00  0.00    -0.200 F 
ENDBRANCH  41  69
BRANCH  56  80
ATOM     80  C   UNL A   1      43.218  35.270  31.532  1.00  0.00     0.064 A 
ATOM     81  C   UNL A   1      43.153  35.553  32.903  1.00  0.00     0.173 A 
ATOM     82  C   UNL A   1      43.687  36.268  30.669  1.00  0.00     0.173 A 
ATOM     83  F   UNL A   1      42.694  34.631  33.762  1.00  0.00    -0.203 F 
ATOM     84  C   UNL A   1      43.533  36.799  33.392  1.00  0.00     0.198 A 
ATOM     85  C   UNL A   1      44.078  37.510  31.162  1.00  0.00     0.198 A 
ATOM     86  F   UNL A   1      43.763  36.041  29.348  1.00  0.00    -0.203 F 
ATOM     87  F   UNL A   1      43.438  37.061  34.702  1.00  0.00    -0.200 F 
ATOM     88  C   UNL A   1      43.998  37.775  32.522  1.00  0.00     0.200 A 
ATOM     89  F   UNL A   1      44.526  38.452  30.322  1.00  0.00    -0.200 F 
ATOM     90  F   UNL A   1      44.361  38.976  32.993  1.00  0.00    -0.200 F 
ENDBRANCH  56  80
ENDBRANCH  21  24
ENDBRANCH  12  14
ENDBRANCH   7  10
ENDBRANCH   4   7
ENDBRANCH   1   4
BRANCH   1  91
ATOM     91  C   UNL A   1      34.443  24.865  23.465  1.00  0.00    -0.052 C 
ATOM     92  H   UNL A   1      34.306  23.828  23.235  1.00  0.00     0.027 H 
ATOM     93  H   UNL A   1      35.351  25.287  23.087  1.00  0.00     0.027 H 
BRANCH  91  94
ATOM     94  C   UNL A   1      33.314  25.648  22.780  1.00  0.00    -0.036 C 
ATOM     95  H   UNL A   1      32.388  25.324  23.206  1.00  0.00     0.028 H 
ATOM     96  H   UNL A   1      33.416  25.441  21.735  1.00  0.00     0.028 H 
BRANCH  94  97
ATOM     97  C   UNL A   1      33.374  27.171  22.902  1.00  0.00     0.018 C 
ATOM     98  H   UNL A   1      34.183  27.530  22.301  1.00  0.00     0.049 H 
ATOM     99  H   UNL A   1      33.512  27.406  23.936  1.00  0.00     0.049 H 
BRANCH  97 100
ATOM    100  N   UNL A   1      32.151  27.822  22.468  1.00  0.00    -0.352 N 
ATOM    101  C   UNL A   1      31.305  28.626  23.182  1.00  0.00     0.253 C 
ATOM    102  H   UNL A   1      31.896  27.662  21.530  1.00  0.00     0.163 HD
ATOM    103  O   UNL A   1      30.344  29.157  22.628  1.00  0.00    -0.269 OA
BRANCH 101 104
ATOM    104  C   UNL A   1      31.501  28.849  24.621  1.00  0.00     0.065 A 
ATOM    105  C   UNL A   1      31.792  30.161  25.028  1.00  0.00    -0.047 A 
ATOM    106  C   UNL A   1      31.470  27.813  25.558  1.00  0.00     0.076 A 
ATOM    107  C   UNL A   1      32.023  30.449  26.375  1.00  0.00    -0.061 A 
ATOM    108  H   UNL A   1      31.836  30.917  24.328  1.00  0.00     0.063 H 
ATOM    109  C   UNL A   1      31.718  28.122  26.906  1.00  0.00    -0.036 A 
ATOM    110  C   UNL A   1      31.994  29.425  27.315  1.00  0.00    -0.060 A 
ATOM    111  H   UNL A   1      32.215  31.419  26.671  1.00  0.00     0.062 H 
ATOM    112  H   UNL A   1      31.696  27.367  27.609  1.00  0.00     0.065 H 
ATOM    113  H   UNL A   1      32.174  29.630  28.311  1.00  0.00     0.062 H 
BRANCH 106 114
ATOM    114  N   UNL A   1      31.046  26.508  25.330  1.00  0.00    -0.255 NA
ATOM    115  C   UNL A   1      31.373  25.495  26.065  1.00  0.00     0.042 C 
ATOM    116  H   UNL A   1      32.085  25.554  26.810  1.00  0.00     0.085 H 
BRANCH 115 117
ATOM    117  C   UNL A   1      30.644  24.243  25.752  1.00  0.00     0.076 A 
ATOM    118  C   UNL A   1      30.652  24.017  24.425  1.00  0.00     0.104 A 
ATOM    119  C   UNL A   1      30.938  23.040  26.574  1.00  0.00     0.201 A 
ATOM    120  O   UNL A   1      31.053  22.811  23.855  1.00  0.00    -0.463 OA
ATOM    121  H   UNL A   1      30.345  24.777  23.796  1.00  0.00     0.105 H 
ATOM    122  C   UNL A   1      31.988  22.199  25.986  1.00  0.00     0.065 A 
ATOM    123  O   UNL A   1      30.442  22.831  27.669  1.00  0.00    -0.288 OA
ATOM    124  C   UNL A   1      32.023  22.157  24.591  1.00  0.00     0.137 A 
ATOM    125  C   UNL A   1      33.010  21.659  26.762  1.00  0.00    -0.047 A 
ATOM    126  C   UNL A   1      33.093  21.552  23.947  1.00  0.00    -0.019 A 
ATOM    127  C   UNL A   1      34.103  21.088  26.115  1.00  0.00    -0.061 A 
ATOM    128  H   UNL A   1      32.958  21.682  27.793  1.00  0.00     0.063 H 
ATOM    129  C   UNL A   1      34.144  21.035  24.714  1.00  0.00    -0.059 A 
ATOM    130  H   UNL A   1      33.115  21.484  22.917  1.00  0.00     0.066 H 
ATOM    131  H   UNL A   1      34.885  20.702  26.667  1.00  0.00     0.062 H 
ATOM    132  H   UNL A   1      34.959  20.609  24.244  1.00  0.00     0.062 H 
ENDBRANCH 115 117
ENDBRANCH 106 114
ENDBRANCH 101 104
ENDBRANCH  97 100
ENDBRANCH  94  97
ENDBRANCH  91  94
ENDBRANCH   1  91
TORSDOF 15
ENDMDL
MODEL 8
REMARK VINA RESULT:     -12.4      0.557      1.669
REMARK SMILES O=C(NCCCCCCNC(=O)c1ccccc1/N=C/c1coc2ccccc2c1=O)c1ccc(-c2c3nc(c(-c4c(F)c(F)c(F)c(F)c4F)c4ccc([nH]4)c(-c4c(F)c(F)c(F)c(F)c4F)c4nc(c(-c5c(F)c(F)c(F)c(F)c5F)c5ccc2[nH]5)C=C4)C=C3)cc1
REMARK SMILES IDX 6 1 5 4 4 7 3 10 1 11 2 12 32 14 33 15 94 16 34 17 93 19
REMARK SMILES IDX 35 21 36 24 37 25 87 26 38 27 92 28 86 29 88 30 39 31 91 32
REMARK SMILES IDX 85 34 84 36 40 38 72 41 52 42 71 43 53 44 56 45 70 46 89 47
REMARK SMILES IDX 54 48 55 50 69 52 90 53 57 56 41 58 42 59 50 60 43 61 44 62
REMARK SMILES IDX 48 63 51 64 45 65 46 66 49 67 47 68 73 69 74 70 82 71 75 72
REMARK SMILES IDX 76 73 80 74 83 75 77 76 78 77 81 78 79 79 58 80 59 81 67 82
REMARK SMILES IDX 60 83 61 84 65 85 68 86 62 87 63 88 66 89 64 90 7 91 8 94
REMARK SMILES IDX 9 97 10 100 11 101 12 103 13 104 14 105 18 106 15 107 17 109
REMARK SMILES IDX 16 110 19 114 20 115 21 117 22 118 30 119 23 120 29 122
REMARK SMILES IDX 31 123 24 124 28 125 25 126 27 127 26 129
REMARK H PARENT 6 2 6 3 5 5 5 6 4 8 4 9 3 13 33 18 94 20 34 22 93 23 92 33
REMARK H PARENT 86 35 88 37 91 39 85 40 53 49 56 51 89 54 54 55 90 57 7 92
REMARK H PARENT 7 93 8 95 8 96 9 98 9 99 10 102 14 108 15 111 17 112 16 113
REMARK H PARENT 20 116 22 121 28 128 25 130 27 131 26 132
REMARK Flexibility Score: inf
ROOT
ATOM      1  C   UNL A   1      31.808  30.460  26.879  1.00  0.00    -0.052 C 
ATOM      2  H   UNL A   1      31.039  29.953  27.424  1.00  0.00     0.027 H 
ATOM      3  H   UNL A   1      32.783  30.361  27.309  1.00  0.00     0.027 H 
ENDROOT
BRANCH   1   4
ATOM      4  C   UNL A   1      31.492  31.955  26.906  1.00  0.00    -0.036 C 
ATOM      5  H   UNL A   1      30.891  32.177  26.048  1.00  0.00     0.028 H 
ATOM      6  H   UNL A   1      31.006  32.126  27.843  1.00  0.00     0.028 H 
BRANCH   4   7
ATOM      7  C   UNL A   1      32.687  32.899  26.891  1.00  0.00     0.018 C 
ATOM      8  H   UNL A   1      33.513  32.408  27.364  1.00  0.00     0.049 H 
ATOM      9  H   UNL A   1      32.890  33.135  25.867  1.00  0.00     0.049 H 
BRANCH   7  10
ATOM     10  N   UNL A   1      32.442  34.153  27.580  1.00  0.00    -0.352 N 
ATOM     11  O   UNL A   1      32.624  35.741  29.162  1.00  0.00    -0.269 OA
ATOM     12  C   UNL A   1      33.065  34.699  28.675  1.00  0.00     0.251 C 
ATOM     13  H   UNL A   1      31.714  34.698  27.202  1.00  0.00     0.163 HD
BRANCH  12  14
ATOM     14  C   UNL A   1      34.243  34.051  29.302  1.00  0.00     0.039 A 
ATOM     15  C   UNL A   1      34.118  32.991  30.202  1.00  0.00    -0.049 A 
ATOM     16  C   UNL A   1      35.522  34.485  28.925  1.00  0.00    -0.049 A 
ATOM     17  C   UNL A   1      35.253  32.445  30.804  1.00  0.00    -0.053 A 
ATOM     18  H   UNL A   1      33.185  32.609  30.423  1.00  0.00     0.063 H 
ATOM     19  C   UNL A   1      36.663  33.897  29.481  1.00  0.00    -0.053 A 
ATOM     20  H   UNL A   1      35.621  35.243  28.232  1.00  0.00     0.063 H 
ATOM     21  C   UNL A   1      36.536  32.888  30.446  1.00  0.00    -0.014 A 
ATOM     22  H   UNL A   1      35.147  31.709  31.520  1.00  0.00     0.063 H 
ATOM     23  H   UNL A   1      37.600  34.207  29.181  1.00  0.00     0.063 H 
BRANCH  21  24
ATOM     24  C   UNL A   1      37.729  32.249  31.057  1.00  0.00     0.031 A 
ATOM     25  C   UNL A   1      38.157  32.583  32.458  1.00  0.00     0.074 A 
ATOM     26  C   UNL A   1      38.412  31.330  30.348  1.00  0.00     0.049 A 
ATOM     27  N   UNL A   1      39.146  32.084  33.157  1.00  0.00    -0.248 NA
ATOM     28  C   UNL A   1      37.382  33.612  33.164  1.00  0.00    -0.034 C 
ATOM     29  C   UNL A   1      38.111  30.934  28.972  1.00  0.00    -0.036 A 
ATOM     30  N   UNL A   1      39.483  30.546  30.696  1.00  0.00    -0.354 N 
ATOM     31  C   UNL A   1      39.125  32.750  34.375  1.00  0.00     0.074 A 
ATOM     32  C   UNL A   1      38.031  33.697  34.317  1.00  0.00    -0.034 C 
ATOM     33  H   UNL A   1      36.549  34.133  32.846  1.00  0.00     0.065 H 
ATOM     34  C   UNL A   1      38.943  29.945  28.610  1.00  0.00    -0.036 A 
ATOM     35  H   UNL A   1      37.378  31.350  28.376  1.00  0.00     0.065 H 
ATOM     36  C   UNL A   1      39.852  29.660  29.715  1.00  0.00     0.049 A 
ATOM     37  H   UNL A   1      39.941  30.612  31.565  1.00  0.00     0.167 HD
ATOM     38  C   UNL A   1      39.941  32.583  35.443  1.00  0.00     0.037 A 
ATOM     39  H   UNL A   1      37.789  34.353  35.077  1.00  0.00     0.065 H 
ATOM     40  H   UNL A   1      38.940  29.464  27.696  1.00  0.00     0.065 H 
ATOM     41  C   UNL A   1      40.810  28.715  29.711  1.00  0.00     0.037 A 
ATOM     42  C   UNL A   1      41.013  31.627  35.517  1.00  0.00     0.049 A 
ATOM     43  C   UNL A   1      41.671  28.523  30.922  1.00  0.00     0.074 A 
ATOM     44  C   UNL A   1      41.883  31.382  36.568  1.00  0.00    -0.036 A 
ATOM     45  N   UNL A   1      41.357  30.748  34.502  1.00  0.00    -0.354 N 
ATOM     46  N   UNL A   1      41.635  29.157  32.067  1.00  0.00    -0.248 NA
ATOM     47  C   UNL A   1      42.711  27.487  30.837  1.00  0.00    -0.034 C 
ATOM     48  C   UNL A   1      42.761  30.363  36.182  1.00  0.00    -0.036 A 
ATOM     49  H   UNL A   1      41.884  31.869  37.478  1.00  0.00     0.065 H 
ATOM     50  C   UNL A   1      42.427  29.962  34.899  1.00  0.00     0.049 A 
ATOM     51  H   UNL A   1      40.909  30.693  33.627  1.00  0.00     0.167 HD
ATOM     52  C   UNL A   1      42.646  28.604  32.838  1.00  0.00     0.074 A 
ATOM     53  C   UNL A   1      43.264  27.566  32.040  1.00  0.00    -0.034 C 
ATOM     54  H   UNL A   1      42.949  26.864  30.050  1.00  0.00     0.065 H 
ATOM     55  H   UNL A   1      43.528  29.976  36.756  1.00  0.00     0.065 H 
ATOM     56  C   UNL A   1      43.032  28.938  34.092  1.00  0.00     0.037 A 
ATOM     57  H   UNL A   1      44.037  26.963  32.366  1.00  0.00     0.065 H 
BRANCH  38  58
ATOM     58  C   UNL A   1      39.707  33.464  36.631  1.00  0.00     0.064 A 
ATOM     59  C   UNL A   1      40.326  34.717  36.739  1.00  0.00     0.173 A 
ATOM     60  C   UNL A   1      38.818  33.073  37.642  1.00  0.00     0.173 A 
ATOM     61  F   UNL A   1      41.191  35.128  35.799  1.00  0.00    -0.203 F 
ATOM     62  C   UNL A   1      40.068  35.547  37.827  1.00  0.00     0.198 A 
ATOM     63  C   UNL A   1      38.554  33.912  38.722  1.00  0.00     0.198 A 
ATOM     64  F   UNL A   1      38.202  31.884  37.578  1.00  0.00    -0.203 F 
ATOM     65  F   UNL A   1      40.683  36.734  37.923  1.00  0.00    -0.200 F 
ATOM     66  C   UNL A   1      39.179  35.146  38.814  1.00  0.00     0.200 A 
ATOM     67  F   UNL A   1      37.691  33.526  39.673  1.00  0.00    -0.200 F 
ATOM     68  F   UNL A   1      38.928  35.949  39.857  1.00  0.00    -0.200 F 
ENDBRANCH  38  58
BRANCH  41  69
ATOM     69  C   UNL A   1      40.976  27.856  28.514  1.00  0.00     0.064 A 
ATOM     70  C   UNL A   1      40.278  26.647  28.403  1.00  0.00     0.173 A 
ATOM     71  C   UNL A   1      41.806  28.241  27.454  1.00  0.00     0.173 A 
ATOM     72  F   UNL A   1      39.488  26.235  29.405  1.00  0.00    -0.203 F 
ATOM     73  C   UNL A   1      40.407  25.849  27.268  1.00  0.00     0.198 A 
ATOM     74  C   UNL A   1      41.922  27.450  26.313  1.00  0.00     0.198 A 
ATOM     75  F   UNL A   1      42.491  29.392  27.521  1.00  0.00    -0.203 F 
ATOM     76  F   UNL A   1      39.744  24.687  27.191  1.00  0.00    -0.200 F 
ATOM     77  C   UNL A   1      41.225  26.254  26.223  1.00  0.00     0.200 A 
ATOM     78  F   UNL A   1      42.707  27.846  25.303  1.00  0.00    -0.200 F 
ATOM     79  F   UNL A   1      41.342  25.489  25.129  1.00  0.00    -0.200 F 
ENDBRANCH  41  69
BRANCH  56  80
ATOM     80  C   UNL A   1      44.181  28.174  34.672  1.00  0.00     0.064 A 
ATOM     81  C   UNL A   1      43.972  26.977  35.370  1.00  0.00     0.173 A 
ATOM     82  C   UNL A   1      45.497  28.627  34.509  1.00  0.00     0.173 A 
ATOM     83  F   UNL A   1      42.727  26.517  35.563  1.00  0.00    -0.203 F 
ATOM     84  C   UNL A   1      45.044  26.264  35.899  1.00  0.00     0.198 A 
ATOM     85  C   UNL A   1      46.568  27.906  35.028  1.00  0.00     0.198 A 
ATOM     86  F   UNL A   1      45.742  29.769  33.849  1.00  0.00    -0.203 F 
ATOM     87  F   UNL A   1      44.823  25.136  36.587  1.00  0.00    -0.200 F 
ATOM     88  C   UNL A   1      46.341  26.727  35.725  1.00  0.00     0.200 A 
ATOM     89  F   UNL A   1      47.820  28.352  34.861  1.00  0.00    -0.200 F 
ATOM     90  F   UNL A   1      47.372  26.041  36.237  1.00  0.00    -0.200 F 
ENDBRANCH  56  80
ENDBRANCH  21  24
ENDBRANCH  12  14
ENDBRANCH   7  10
ENDBRANCH   4   7
ENDBRANCH   1   4
BRANCH   1  91
ATOM     91  C   UNL A   1      31.900  29.823  25.492  1.00  0.00    -0.052 C 
ATOM     92  H   UNL A   1      31.545  30.540  24.781  1.00  0.00     0.027 H 
ATOM     93  H   UNL A   1      31.313  28.929  25.551  1.00  0.00     0.027 H 
BRANCH  91  94
ATOM     94  C   UNL A   1      33.293  29.366  25.039  1.00  0.00    -0.036 C 
ATOM     95  H   UNL A   1      34.011  29.809  25.697  1.00  0.00     0.028 H 
ATOM     96  H   UNL A   1      33.378  29.677  24.018  1.00  0.00     0.028 H 
BRANCH  94  97
ATOM     97  C   UNL A   1      33.542  27.857  25.027  1.00  0.00     0.018 C 
ATOM     98  H   UNL A   1      32.686  27.366  25.439  1.00  0.00     0.049 H 
ATOM     99  H   UNL A   1      34.423  27.672  25.604  1.00  0.00     0.049 H 
BRANCH  97 100
ATOM    100  N   UNL A   1      33.778  27.332  23.694  1.00  0.00    -0.352 N 
ATOM    101  C   UNL A   1      32.873  27.064  22.703  1.00  0.00     0.253 C 
ATOM    102  H   UNL A   1      34.718  27.143  23.472  1.00  0.00     0.163 HD
ATOM    103  O   UNL A   1      33.260  26.689  21.598  1.00  0.00    -0.269 OA
BRANCH 101 104
ATOM    104  C   UNL A   1      31.427  27.186  22.940  1.00  0.00     0.065 A 
ATOM    105  C   UNL A   1      30.791  28.326  22.422  1.00  0.00    -0.047 A 
ATOM    106  C   UNL A   1      30.704  26.260  23.696  1.00  0.00     0.076 A 
ATOM    107  C   UNL A   1      29.426  28.530  22.632  1.00  0.00    -0.061 A 
ATOM    108  H   UNL A   1      31.336  29.017  21.883  1.00  0.00     0.063 H 
ATOM    109  C   UNL A   1      29.334  26.492  23.907  1.00  0.00    -0.036 A 
ATOM    110  C   UNL A   1      28.697  27.615  23.383  1.00  0.00    -0.060 A 
ATOM    111  H   UNL A   1      28.959  29.359  22.230  1.00  0.00     0.062 H 
ATOM    112  H   UNL A   1      28.788  25.815  24.462  1.00  0.00     0.065 H 
ATOM    113  H   UNL A   1      27.690  27.766  23.550  1.00  0.00     0.062 H 
BRANCH 106 114
ATOM    114  N   UNL A   1      31.157  25.020  24.135  1.00  0.00    -0.255 NA
ATOM    115  C   UNL A   1      31.182  24.648  25.374  1.00  0.00     0.042 C 
ATOM    116  H   UNL A   1      30.986  25.295  26.154  1.00  0.00     0.085 H 
BRANCH 115 117
ATOM    117  C   UNL A   1      31.514  23.218  25.583  1.00  0.00     0.076 A 
ATOM    118  C   UNL A   1      31.702  22.604  24.400  1.00  0.00     0.104 A 
ATOM    119  C   UNL A   1      32.534  22.883  26.610  1.00  0.00     0.201 A 
ATOM    120  O   UNL A   1      32.831  21.846  24.102  1.00  0.00    -0.463 OA
ATOM    121  H   UNL A   1      30.971  22.699  23.676  1.00  0.00     0.105 H 
ATOM    122  C   UNL A   1      33.886  22.785  26.049  1.00  0.00     0.065 A 
ATOM    123  O   UNL A   1      32.292  22.806  27.804  1.00  0.00    -0.288 OA
ATOM    124  C   UNL A   1      33.970  22.288  24.747  1.00  0.00     0.137 A 
ATOM    125  C   UNL A   1      34.985  23.352  26.690  1.00  0.00    -0.047 A 
ATOM    126  C   UNL A   1      35.178  22.343  24.065  1.00  0.00    -0.019 A 
ATOM    127  C   UNL A   1      36.186  23.444  25.991  1.00  0.00    -0.061 A 
ATOM    128  H   UNL A   1      34.910  23.696  27.661  1.00  0.00     0.063 H 
ATOM    129  C   UNL A   1      36.282  22.942  24.685  1.00  0.00    -0.059 A 
ATOM    130  H   UNL A   1      35.261  21.949  23.114  1.00  0.00     0.066 H 
ATOM    131  H   UNL A   1      37.009  23.882  26.434  1.00  0.00     0.062 H 
ATOM    132  H   UNL A   1      37.177  23.015  24.175  1.00  0.00     0.062 H 
ENDBRANCH 115 117
ENDBRANCH 106 114
ENDBRANCH 101 104
ENDBRANCH  97 100
ENDBRANCH  94  97
ENDBRANCH  91  94
ENDBRANCH   1  91
TORSDOF 15
ENDMDL
MODEL 9
REMARK VINA RESULT:     -12.3      4.961     10.535
REMARK SMILES O=C(NCCCCCCNC(=O)c1ccccc1/N=C/c1coc2ccccc2c1=O)c1ccc(-c2c3nc(c(-c4c(F)c(F)c(F)c(F)c4F)c4ccc([nH]4)c(-c4c(F)c(F)c(F)c(F)c4F)c4nc(c(-c5c(F)c(F)c(F)c(F)c5F)c5ccc2[nH]5)C=C4)C=C3)cc1
REMARK SMILES IDX 6 1 5 4 4 7 3 10 1 11 2 12 32 14 33 15 94 16 34 17 93 19
REMARK SMILES IDX 35 21 36 24 37 25 87 26 38 27 92 28 86 29 88 30 39 31 91 32
REMARK SMILES IDX 85 34 84 36 40 38 72 41 52 42 71 43 53 44 56 45 70 46 89 47
REMARK SMILES IDX 54 48 55 50 69 52 90 53 57 56 41 58 42 59 50 60 43 61 44 62
REMARK SMILES IDX 48 63 51 64 45 65 46 66 49 67 47 68 73 69 74 70 82 71 75 72
REMARK SMILES IDX 76 73 80 74 83 75 77 76 78 77 81 78 79 79 58 80 59 81 67 82
REMARK SMILES IDX 60 83 61 84 65 85 68 86 62 87 63 88 66 89 64 90 7 91 8 94
REMARK SMILES IDX 9 97 10 100 11 101 12 103 13 104 14 105 18 106 15 107 17 109
REMARK SMILES IDX 16 110 19 114 20 115 21 117 22 118 30 119 23 120 29 122
REMARK SMILES IDX 31 123 24 124 28 125 25 126 27 127 26 129
REMARK H PARENT 6 2 6 3 5 5 5 6 4 8 4 9 3 13 33 18 94 20 34 22 93 23 92 33
REMARK H PARENT 86 35 88 37 91 39 85 40 53 49 56 51 89 54 54 55 90 57 7 92
REMARK H PARENT 7 93 8 95 8 96 9 98 9 99 10 102 14 108 15 111 17 112 16 113
REMARK H PARENT 20 116 22 121 28 128 25 130 27 131 26 132
REMARK Flexibility Score: inf
ROOT
ATOM      1  C   UNL A   1      36.588  20.244  24.990  1.00  0.00    -0.052 C 
ATOM      2  H   UNL A   1      36.161  20.179  25.969  1.00  0.00     0.027 H 
ATOM      3  H   UNL A   1      35.981  19.813  24.222  1.00  0.00     0.027 H 
ENDROOT
BRANCH   1   4
ATOM      4  C   UNL A   1      37.888  19.441  24.992  1.00  0.00    -0.036 C 
ATOM      5  H   UNL A   1      37.675  18.476  25.404  1.00  0.00     0.028 H 
ATOM      6  H   UNL A   1      38.213  19.423  23.973  1.00  0.00     0.028 H 
BRANCH   4   7
ATOM      7  C   UNL A   1      39.049  20.035  25.777  1.00  0.00     0.018 C 
ATOM      8  H   UNL A   1      39.336  20.956  25.313  1.00  0.00     0.049 H 
ATOM      9  H   UNL A   1      38.710  20.178  26.782  1.00  0.00     0.049 H 
BRANCH   7  10
ATOM     10  N   UNL A   1      40.211  19.168  25.837  1.00  0.00    -0.352 N 
ATOM     11  O   UNL A   1      42.377  18.579  25.975  1.00  0.00    -0.269 OA
ATOM     12  C   UNL A   1      41.530  19.468  26.070  1.00  0.00     0.251 C 
ATOM     13  H   UNL A   1      40.024  18.213  25.687  1.00  0.00     0.163 HD
BRANCH  12  14
ATOM     14  C   UNL A   1      41.965  20.845  26.412  1.00  0.00     0.039 A 
ATOM     15  C   UNL A   1      42.084  21.848  25.448  1.00  0.00    -0.049 A 
ATOM     16  C   UNL A   1      42.202  21.154  27.759  1.00  0.00    -0.049 A 
ATOM     17  C   UNL A   1      42.544  23.116  25.809  1.00  0.00    -0.053 A 
ATOM     18  H   UNL A   1      41.832  21.653  24.466  1.00  0.00     0.063 H 
ATOM     19  C   UNL A   1      42.603  22.442  28.131  1.00  0.00    -0.053 A 
ATOM     20  H   UNL A   1      42.079  20.427  28.480  1.00  0.00     0.063 H 
ATOM     21  C   UNL A   1      42.802  23.427  27.153  1.00  0.00    -0.014 A 
ATOM     22  H   UNL A   1      42.695  23.831  25.080  1.00  0.00     0.063 H 
ATOM     23  H   UNL A   1      42.753  22.667  29.126  1.00  0.00     0.063 H 
BRANCH  21  24
ATOM     24  C   UNL A   1      43.232  24.801  27.518  1.00  0.00     0.031 A 
ATOM     25  C   UNL A   1      44.622  25.285  27.220  1.00  0.00     0.074 A 
ATOM     26  C   UNL A   1      42.342  25.632  28.094  1.00  0.00     0.049 A 
ATOM     27  N   UNL A   1      45.145  26.468  27.430  1.00  0.00    -0.248 NA
ATOM     28  C   UNL A   1      45.548  24.318  26.613  1.00  0.00    -0.034 C 
ATOM     29  C   UNL A   1      40.970  25.277  28.455  1.00  0.00    -0.036 A 
ATOM     30  N   UNL A   1      42.452  26.952  28.453  1.00  0.00    -0.354 N 
ATOM     31  C   UNL A   1      46.463  26.382  27.002  1.00  0.00     0.074 A 
ATOM     32  C   UNL A   1      46.665  25.028  26.528  1.00  0.00    -0.034 C 
ATOM     33  H   UNL A   1      45.375  23.341  26.328  1.00  0.00     0.065 H 
ATOM     34  C   UNL A   1      40.348  26.365  28.936  1.00  0.00    -0.036 A 
ATOM     35  H   UNL A   1      40.548  24.340  28.356  1.00  0.00     0.065 H 
ATOM     36  C   UNL A   1      41.286  27.483  28.944  1.00  0.00     0.049 A 
ATOM     37  H   UNL A   1      43.286  27.467  28.366  1.00  0.00     0.167 HD
ATOM     38  C   UNL A   1      47.414  27.346  27.001  1.00  0.00     0.037 A 
ATOM     39  H   UNL A   1      47.563  24.664  26.170  1.00  0.00     0.065 H 
ATOM     40  H   UNL A   1      39.365  26.404  29.249  1.00  0.00     0.065 H 
ATOM     41  C   UNL A   1      41.000  28.734  29.347  1.00  0.00     0.037 A 
ATOM     42  C   UNL A   1      47.215  28.699  27.446  1.00  0.00     0.049 A 
ATOM     43  C   UNL A   1      42.061  29.792  29.296  1.00  0.00     0.074 A 
ATOM     44  C   UNL A   1      48.123  29.746  27.468  1.00  0.00    -0.036 A 
ATOM     45  N   UNL A   1      46.020  29.198  27.938  1.00  0.00    -0.354 N 
ATOM     46  N   UNL A   1      43.300  29.697  28.884  1.00  0.00    -0.248 NA
ATOM     47  C   UNL A   1      41.684  31.131  29.772  1.00  0.00    -0.034 C 
ATOM     48  C   UNL A   1      47.478  30.875  27.986  1.00  0.00    -0.036 A 
ATOM     49  H   UNL A   1      49.106  29.700  27.156  1.00  0.00     0.065 H 
ATOM     50  C   UNL A   1      46.166  30.536  28.270  1.00  0.00     0.049 A 
ATOM     51  H   UNL A   1      45.190  28.678  28.040  1.00  0.00     0.167 HD
ATOM     52  C   UNL A   1      43.853  30.956  29.054  1.00  0.00     0.074 A 
ATOM     53  C   UNL A   1      42.809  31.808  29.585  1.00  0.00    -0.034 C 
ATOM     54  H   UNL A   1      40.782  31.458  30.153  1.00  0.00     0.065 H 
ATOM     55  H   UNL A   1      47.908  31.803  28.132  1.00  0.00     0.065 H 
ATOM     56  C   UNL A   1      45.119  31.366  28.801  1.00  0.00     0.037 A 
ATOM     57  H   UNL A   1      42.925  32.813  29.791  1.00  0.00     0.065 H 
BRANCH  38  58
ATOM     58  C   UNL A   1      48.775  26.968  26.502  1.00  0.00     0.064 A 
ATOM     59  C   UNL A   1      49.743  26.435  27.364  1.00  0.00     0.173 A 
ATOM     60  C   UNL A   1      49.093  27.093  25.142  1.00  0.00     0.173 A 
ATOM     61  F   UNL A   1      49.484  26.306  28.674  1.00  0.00    -0.203 F 
ATOM     62  C   UNL A   1      50.990  26.047  26.881  1.00  0.00     0.198 A 
ATOM     63  C   UNL A   1      50.337  26.692  24.661  1.00  0.00     0.198 A 
ATOM     64  F   UNL A   1      48.197  27.596  24.281  1.00  0.00    -0.203 F 
ATOM     65  F   UNL A   1      51.910  25.556  27.723  1.00  0.00    -0.200 F 
ATOM     66  C   UNL A   1      51.283  26.171  25.530  1.00  0.00     0.200 A 
ATOM     67  F   UNL A   1      50.618  26.807  23.355  1.00  0.00    -0.200 F 
ATOM     68  F   UNL A   1      52.482  25.791  25.067  1.00  0.00    -0.200 F 
ENDBRANCH  38  58
BRANCH  41  69
ATOM     69  C   UNL A   1      39.628  29.054  29.807  1.00  0.00     0.064 A 
ATOM     70  C   UNL A   1      39.274  28.901  31.153  1.00  0.00     0.173 A 
ATOM     71  C   UNL A   1      38.661  29.545  28.920  1.00  0.00     0.173 A 
ATOM     72  F   UNL A   1      40.167  28.418  32.029  1.00  0.00    -0.203 F 
ATOM     73  C   UNL A   1      37.995  29.229  31.597  1.00  0.00     0.198 A 
ATOM     74  C   UNL A   1      37.387  29.885  29.368  1.00  0.00     0.198 A 
ATOM     75  F   UNL A   1      38.960  29.706  27.622  1.00  0.00    -0.203 F 
ATOM     76  F   UNL A   1      37.673  29.057  32.886  1.00  0.00    -0.200 F 
ATOM     77  C   UNL A   1      37.055  29.724  30.706  1.00  0.00     0.200 A 
ATOM     78  F   UNL A   1      36.483  30.370  28.507  1.00  0.00    -0.200 F 
ATOM     79  F   UNL A   1      35.827  30.045  31.136  1.00  0.00    -0.200 F 
ENDBRANCH  41  69
BRANCH  56  80
ATOM     80  C   UNL A   1      45.442  32.796  29.104  1.00  0.00     0.064 A 
ATOM     81  C   UNL A   1      45.239  33.798  28.146  1.00  0.00     0.173 A 
ATOM     82  C   UNL A   1      45.931  33.167  30.363  1.00  0.00     0.173 A 
ATOM     83  F   UNL A   1      44.787  33.483  26.924  1.00  0.00    -0.203 F 
ATOM     84  C   UNL A   1      45.530  35.128  28.436  1.00  0.00     0.198 A 
ATOM     85  C   UNL A   1      46.210  34.500  30.653  1.00  0.00     0.198 A 
ATOM     86  F   UNL A   1      46.143  32.239  31.308  1.00  0.00    -0.203 F 
ATOM     87  F   UNL A   1      45.356  36.070  27.498  1.00  0.00    -0.200 F 
ATOM     88  C   UNL A   1      46.012  35.479  29.689  1.00  0.00     0.200 A 
ATOM     89  F   UNL A   1      46.676  34.838  31.862  1.00  0.00    -0.200 F 
ATOM     90  F   UNL A   1      46.294  36.759  29.965  1.00  0.00    -0.200 F 
ENDBRANCH  56  80
ENDBRANCH  21  24
ENDBRANCH  12  14
ENDBRANCH   7  10
ENDBRANCH   4   7
ENDBRANCH   1   4
BRANCH   1  91
ATOM     91  C   UNL A   1      36.721  21.726  24.633  1.00  0.00    -0.052 C 
ATOM     92  H   UNL A   1      36.037  21.930  23.836  1.00  0.00     0.027 H 
ATOM     93  H   UNL A   1      37.751  21.866  24.381  1.00  0.00     0.027 H 
BRANCH  91  94
ATOM     94  C   UNL A   1      36.438  22.729  25.760  1.00  0.00    -0.036 C 
ATOM     95  H   UNL A   1      37.307  23.343  25.875  1.00  0.00     0.028 H 
ATOM     96  H   UNL A   1      36.200  22.136  26.618  1.00  0.00     0.028 H 
BRANCH  94  97
ATOM     97  C   UNL A   1      35.238  23.655  25.559  1.00  0.00     0.018 C 
ATOM     98  H   UNL A   1      34.763  23.404  24.634  1.00  0.00     0.049 H 
ATOM     99  H   UNL A   1      35.604  24.661  25.559  1.00  0.00     0.049 H 
BRANCH  97 100
ATOM    100  N   UNL A   1      34.257  23.550  26.624  1.00  0.00    -0.352 N 
ATOM    101  C   UNL A   1      33.260  22.627  26.787  1.00  0.00     0.253 C 
ATOM    102  H   UNL A   1      34.318  24.238  27.327  1.00  0.00     0.163 HD
ATOM    103  O   UNL A   1      32.560  22.645  27.797  1.00  0.00    -0.269 OA
BRANCH 101 104
ATOM    104  C   UNL A   1      32.980  21.620  25.753  1.00  0.00     0.065 A 
ATOM    105  C   UNL A   1      33.092  20.272  26.132  1.00  0.00    -0.047 A 
ATOM    106  C   UNL A   1      32.677  21.956  24.431  1.00  0.00     0.076 A 
ATOM    107  C   UNL A   1      32.873  19.256  25.200  1.00  0.00    -0.061 A 
ATOM    108  H   UNL A   1      33.338  20.031  27.104  1.00  0.00     0.063 H 
ATOM    109  C   UNL A   1      32.475  20.918  23.506  1.00  0.00    -0.036 A 
ATOM    110  C   UNL A   1      32.572  19.579  23.882  1.00  0.00    -0.060 A 
ATOM    111  H   UNL A   1      32.936  18.267  25.489  1.00  0.00     0.062 H 
ATOM    112  H   UNL A   1      32.249  21.152  22.527  1.00  0.00     0.065 H 
ATOM    113  H   UNL A   1      32.419  18.833  23.185  1.00  0.00     0.062 H 
BRANCH 106 114
ATOM    114  N   UNL A   1      32.382  23.228  23.951  1.00  0.00    -0.255 NA
ATOM    115  C   UNL A   1      32.706  23.657  22.774  1.00  0.00     0.042 C 
ATOM    116  H   UNL A   1      33.327  23.130  22.140  1.00  0.00     0.085 H 
BRANCH 115 117
ATOM    117  C   UNL A   1      32.113  24.966  22.410  1.00  0.00     0.076 A 
ATOM    118  C   UNL A   1      30.885  25.089  22.946  1.00  0.00     0.104 A 
ATOM    119  C   UNL A   1      32.961  26.179  22.550  1.00  0.00     0.201 A 
ATOM    120  O   UNL A   1      30.487  26.187  23.704  1.00  0.00    -0.463 OA
ATOM    121  H   UNL A   1      30.202  24.331  22.788  1.00  0.00     0.105 H 
ATOM    122  C   UNL A   1      32.801  26.830  23.855  1.00  0.00     0.065 A 
ATOM    123  O   UNL A   1      33.781  26.531  21.717  1.00  0.00    -0.288 OA
ATOM    124  C   UNL A   1      31.524  26.763  24.415  1.00  0.00     0.137 A 
ATOM    125  C   UNL A   1      33.896  27.290  24.580  1.00  0.00    -0.047 A 
ATOM    126  C   UNL A   1      31.323  27.175  25.725  1.00  0.00    -0.019 A 
ATOM    127  C   UNL A   1      33.703  27.665  25.908  1.00  0.00    -0.061 A 
ATOM    128  H   UNL A   1      34.831  27.352  24.144  1.00  0.00     0.063 H 
ATOM    129  C   UNL A   1      32.423  27.607  26.477  1.00  0.00    -0.059 A 
ATOM    130  H   UNL A   1      30.378  27.162  26.140  1.00  0.00     0.066 H 
ATOM    131  H   UNL A   1      34.503  27.987  26.475  1.00  0.00     0.062 H 
ATOM    132  H   UNL A   1      32.289  27.888  27.462  1.00  0.00     0.062 H 
ENDBRANCH 115 117
ENDBRANCH 106 114
ENDBRANCH 101 104
ENDBRANCH  97 100
ENDBRANCH  94  97
ENDBRANCH  91  94
ENDBRANCH   1  91
TORSDOF 15
ENDMDL
MODEL 10
REMARK VINA RESULT:     -12.3      3.831      8.434
REMARK SMILES O=C(NCCCCCCNC(=O)c1ccccc1/N=C/c1coc2ccccc2c1=O)c1ccc(-c2c3nc(c(-c4c(F)c(F)c(F)c(F)c4F)c4ccc([nH]4)c(-c4c(F)c(F)c(F)c(F)c4F)c4nc(c(-c5c(F)c(F)c(F)c(F)c5F)c5ccc2[nH]5)C=C4)C=C3)cc1
REMARK SMILES IDX 6 1 5 4 4 7 3 10 1 11 2 12 32 14 33 15 94 16 34 17 93 19
REMARK SMILES IDX 35 21 36 24 37 25 87 26 38 27 92 28 86 29 88 30 39 31 91 32
REMARK SMILES IDX 85 34 84 36 40 38 72 41 52 42 71 43 53 44 56 45 70 46 89 47
REMARK SMILES IDX 54 48 55 50 69 52 90 53 57 56 41 58 42 59 50 60 43 61 44 62
REMARK SMILES IDX 48 63 51 64 45 65 46 66 49 67 47 68 73 69 74 70 82 71 75 72
REMARK SMILES IDX 76 73 80 74 83 75 77 76 78 77 81 78 79 79 58 80 59 81 67 82
REMARK SMILES IDX 60 83 61 84 65 85 68 86 62 87 63 88 66 89 64 90 7 91 8 94
REMARK SMILES IDX 9 97 10 100 11 101 12 103 13 104 14 105 18 106 15 107 17 109
REMARK SMILES IDX 16 110 19 114 20 115 21 117 22 118 30 119 23 120 29 122
REMARK SMILES IDX 31 123 24 124 28 125 25 126 27 127 26 129
REMARK H PARENT 6 2 6 3 5 5 5 6 4 8 4 9 3 13 33 18 94 20 34 22 93 23 92 33
REMARK H PARENT 86 35 88 37 91 39 85 40 53 49 56 51 89 54 54 55 90 57 7 92
REMARK H PARENT 7 93 8 95 8 96 9 98 9 99 10 102 14 108 15 111 17 112 16 113
REMARK H PARENT 20 116 22 121 28 128 25 130 27 131 26 132
REMARK Flexibility Score: inf
ROOT
ATOM      1  C   UNL A   1      34.613  24.322  24.045  1.00  0.00    -0.052 C 
ATOM      2  H   UNL A   1      34.748  25.377  23.922  1.00  0.00     0.027 H 
ATOM      3  H   UNL A   1      34.133  24.049  24.961  1.00  0.00     0.027 H 
ENDROOT
BRANCH   1   4
ATOM      4  C   UNL A   1      35.997  23.675  24.092  1.00  0.00    -0.036 C 
ATOM      5  H   UNL A   1      35.873  22.626  23.921  1.00  0.00     0.028 H 
ATOM      6  H   UNL A   1      36.573  24.180  23.345  1.00  0.00     0.028 H 
BRANCH   4   7
ATOM      7  C   UNL A   1      36.778  23.844  25.389  1.00  0.00     0.018 C 
ATOM      8  H   UNL A   1      37.228  24.816  25.389  1.00  0.00     0.049 H 
ATOM      9  H   UNL A   1      36.083  23.720  26.194  1.00  0.00     0.049 H 
BRANCH   7  10
ATOM     10  N   UNL A   1      37.823  22.853  25.567  1.00  0.00    -0.352 N 
ATOM     11  O   UNL A   1      39.844  22.015  26.086  1.00  0.00    -0.269 OA
ATOM     12  C   UNL A   1      39.070  22.971  26.129  1.00  0.00     0.251 C 
ATOM     13  H   UNL A   1      37.603  21.953  25.232  1.00  0.00     0.163 HD
BRANCH  12  14
ATOM     14  C   UNL A   1      39.517  24.233  26.768  1.00  0.00     0.039 A 
ATOM     15  C   UNL A   1      40.187  25.231  26.057  1.00  0.00    -0.049 A 
ATOM     16  C   UNL A   1      39.197  24.448  28.116  1.00  0.00    -0.049 A 
ATOM     17  C   UNL A   1      40.632  26.380  26.712  1.00  0.00    -0.053 A 
ATOM     18  H   UNL A   1      40.355  25.119  25.045  1.00  0.00     0.063 H 
ATOM     19  C   UNL A   1      39.588  25.627  28.759  1.00  0.00    -0.053 A 
ATOM     20  H   UNL A   1      38.669  23.730  28.637  1.00  0.00     0.063 H 
ATOM     21  C   UNL A   1      40.333  26.593  28.067  1.00  0.00    -0.014 A 
ATOM     22  H   UNL A   1      41.187  27.080  26.195  1.00  0.00     0.063 H 
ATOM     23  H   UNL A   1      39.329  25.787  29.745  1.00  0.00     0.063 H 
BRANCH  21  24
ATOM     24  C   UNL A   1      40.766  27.852  28.724  1.00  0.00     0.031 A 
ATOM     25  C   UNL A   1      42.211  28.104  29.044  1.00  0.00     0.074 A 
ATOM     26  C   UNL A   1      39.844  28.793  29.003  1.00  0.00     0.049 A 
ATOM     27  N   UNL A   1      42.765  29.167  29.575  1.00  0.00    -0.248 NA
ATOM     28  C   UNL A   1      43.160  27.024  28.736  1.00  0.00    -0.034 C 
ATOM     29  C   UNL A   1      38.407  28.662  28.762  1.00  0.00    -0.036 A 
ATOM     30  N   UNL A   1      39.982  30.054  29.526  1.00  0.00    -0.354 N 
ATOM     31  C   UNL A   1      44.118  28.878  29.683  1.00  0.00     0.074 A 
ATOM     32  C   UNL A   1      44.304  27.535  29.172  1.00  0.00    -0.034 C 
ATOM     33  H   UNL A   1      42.982  26.108  28.296  1.00  0.00     0.065 H 
ATOM     34  C   UNL A   1      37.801  29.814  29.087  1.00  0.00    -0.036 A 
ATOM     35  H   UNL A   1      37.935  27.817  28.402  1.00  0.00     0.065 H 
ATOM     36  C   UNL A   1      38.802  30.753  29.586  1.00  0.00     0.049 A 
ATOM     37  H   UNL A   1      40.843  30.423  29.828  1.00  0.00     0.167 HD
ATOM     38  C   UNL A   1      45.113  29.663  30.160  1.00  0.00     0.037 A 
ATOM     39  H   UNL A   1      45.210  27.041  29.149  1.00  0.00     0.065 H 
ATOM     40  H   UNL A   1      36.790  30.006  28.998  1.00  0.00     0.065 H 
ATOM     41  C   UNL A   1      38.554  32.013  29.987  1.00  0.00     0.037 A 
ATOM     42  C   UNL A   1      44.941  31.006  30.645  1.00  0.00     0.049 A 
ATOM     43  C   UNL A   1      39.681  32.873  30.472  1.00  0.00     0.074 A 
ATOM     44  C   UNL A   1      45.899  31.879  31.136  1.00  0.00    -0.036 A 
ATOM     45  N   UNL A   1      43.729  31.677  30.691  1.00  0.00    -0.354 N 
ATOM     46  N   UNL A   1      40.956  32.588  30.563  1.00  0.00    -0.248 NA
ATOM     47  C   UNL A   1      39.333  34.231  30.916  1.00  0.00    -0.034 C 
ATOM     48  C   UNL A   1      45.263  33.074  31.491  1.00  0.00    -0.036 A 
ATOM     49  H   UNL A   1      46.908  31.680  31.226  1.00  0.00     0.065 H 
ATOM     50  C   UNL A   1      43.914  32.951  31.205  1.00  0.00     0.049 A 
ATOM     51  H   UNL A   1      42.865  31.303  30.404  1.00  0.00     0.167 HD
ATOM     52  C   UNL A   1      41.562  33.723  31.077  1.00  0.00     0.074 A 
ATOM     53  C   UNL A   1      40.521  34.713  31.257  1.00  0.00    -0.034 C 
ATOM     54  H   UNL A   1      38.409  34.688  30.953  1.00  0.00     0.065 H 
ATOM     55  H   UNL A   1      45.722  33.905  31.897  1.00  0.00     0.065 H 
ATOM     56  C   UNL A   1      42.867  33.921  31.382  1.00  0.00     0.037 A 
ATOM     57  H   UNL A   1      40.682  35.671  31.606  1.00  0.00     0.065 H 
BRANCH  38  58
ATOM     58  C   UNL A   1      46.493  29.083  30.185  1.00  0.00     0.064 A 
ATOM     59  C   UNL A   1      47.364  29.231  29.097  1.00  0.00     0.173 A 
ATOM     60  C   UNL A   1      46.965  28.418  31.327  1.00  0.00     0.173 A 
ATOM     61  F   UNL A   1      46.952  29.851  27.981  1.00  0.00    -0.203 F 
ATOM     62  C   UNL A   1      48.661  28.725  29.148  1.00  0.00     0.198 A 
ATOM     63  C   UNL A   1      48.266  27.925  31.379  1.00  0.00     0.198 A 
ATOM     64  F   UNL A   1      46.167  28.256  32.392  1.00  0.00    -0.203 F 
ATOM     65  F   UNL A   1      49.473  28.860  28.091  1.00  0.00    -0.200 F 
ATOM     66  C   UNL A   1      49.111  28.078  30.290  1.00  0.00     0.200 A 
ATOM     67  F   UNL A   1      48.703  27.304  32.483  1.00  0.00    -0.200 F 
ATOM     68  F   UNL A   1      50.362  27.598  30.339  1.00  0.00    -0.200 F 
ENDBRANCH  38  58
BRANCH  41  69
ATOM     69  C   UNL A   1      37.171  32.539  29.915  1.00  0.00     0.064 A 
ATOM     70  C   UNL A   1      36.735  33.241  28.784  1.00  0.00     0.173 A 
ATOM     71  C   UNL A   1      36.256  32.324  30.954  1.00  0.00     0.173 A 
ATOM     72  F   UNL A   1      37.585  33.483  27.776  1.00  0.00    -0.203 F 
ATOM     73  C   UNL A   1      35.426  33.713  28.697  1.00  0.00     0.198 A 
ATOM     74  C   UNL A   1      34.945  32.784  30.858  1.00  0.00     0.198 A 
ATOM     75  F   UNL A   1      36.634  31.655  32.053  1.00  0.00    -0.203 F 
ATOM     76  F   UNL A   1      35.036  34.399  27.614  1.00  0.00    -0.200 F 
ATOM     77  C   UNL A   1      34.532  33.479  29.731  1.00  0.00     0.200 A 
ATOM     78  F   UNL A   1      34.081  32.551  31.855  1.00  0.00    -0.200 F 
ATOM     79  F   UNL A   1      33.273  33.928  29.642  1.00  0.00    -0.200 F 
ENDBRANCH  41  69
BRANCH  56  80
ATOM     80  C   UNL A   1      43.235  35.256  31.948  1.00  0.00     0.064 A 
ATOM     81  C   UNL A   1      43.696  36.288  31.119  1.00  0.00     0.173 A 
ATOM     82  C   UNL A   1      43.103  35.514  33.318  1.00  0.00     0.173 A 
ATOM     83  F   UNL A   1      43.853  36.078  29.803  1.00  0.00    -0.203 F 
ATOM     84  C   UNL A   1      44.027  37.532  31.647  1.00  0.00     0.198 A 
ATOM     85  C   UNL A   1      43.424  36.763  33.842  1.00  0.00     0.198 A 
ATOM     86  F   UNL A   1      42.668  34.553  34.148  1.00  0.00    -0.203 F 
ATOM     87  F   UNL A   1      44.493  38.498  30.844  1.00  0.00    -0.200 F 
ATOM     88  C   UNL A   1      43.888  37.770  33.007  1.00  0.00     0.200 A 
ATOM     89  F   UNL A   1      43.289  36.992  35.155  1.00  0.00    -0.200 F 
ATOM     90  F   UNL A   1      44.210  38.967  33.515  1.00  0.00    -0.200 F 
ENDBRANCH  56  80
ENDBRANCH  21  24
ENDBRANCH  12  14
ENDBRANCH   7  10
ENDBRANCH   4   7
ENDBRANCH   1   4
BRANCH   1  91
ATOM     91  C   UNL A   1      33.687  23.834  22.929  1.00  0.00    -0.052 C 
ATOM     92  H   UNL A   1      32.925  23.233  23.379  1.00  0.00     0.027 H 
ATOM     93  H   UNL A   1      34.320  23.308  22.245  1.00  0.00     0.027 H 
BRANCH  91  94
ATOM     94  C   UNL A   1      32.994  24.917  22.091  1.00  0.00    -0.036 C 
ATOM     95  H   UNL A   1      32.112  24.486  21.666  1.00  0.00     0.028 H 
ATOM     96  H   UNL A   1      33.722  25.232  21.372  1.00  0.00     0.028 H 
BRANCH  94  97
ATOM     97  C   UNL A   1      32.579  26.188  22.834  1.00  0.00     0.018 C 
ATOM     98  H   UNL A   1      33.032  27.029  22.353  1.00  0.00     0.049 H 
ATOM     99  H   UNL A   1      32.903  26.087  23.849  1.00  0.00     0.049 H 
BRANCH  97 100
ATOM    100  N   UNL A   1      31.141  26.387  22.854  1.00  0.00    -0.352 N 
ATOM    101  C   UNL A   1      30.389  27.140  23.714  1.00  0.00     0.253 C 
ATOM    102  H   UNL A   1      30.637  25.914  22.152  1.00  0.00     0.163 HD
ATOM    103  O   UNL A   1      29.178  27.255  23.538  1.00  0.00    -0.269 OA
BRANCH 101 104
ATOM    104  C   UNL A   1      30.997  27.799  24.879  1.00  0.00     0.065 A 
ATOM    105  C   UNL A   1      31.206  29.185  24.788  1.00  0.00    -0.047 A 
ATOM    106  C   UNL A   1      31.418  27.097  26.011  1.00  0.00     0.076 A 
ATOM    107  C   UNL A   1      31.807  29.879  25.840  1.00  0.00    -0.061 A 
ATOM    108  H   UNL A   1      30.913  29.694  23.940  1.00  0.00     0.063 H 
ATOM    109  C   UNL A   1      32.034  27.813  27.052  1.00  0.00    -0.036 A 
ATOM    110  C   UNL A   1      32.230  29.190  26.972  1.00  0.00    -0.060 A 
ATOM    111  H   UNL A   1      31.938  30.902  25.777  1.00  0.00     0.062 H 
ATOM    112  H   UNL A   1      32.348  27.307  27.895  1.00  0.00     0.065 H 
ATOM    113  H   UNL A   1      32.684  29.696  27.748  1.00  0.00     0.062 H 
BRANCH 106 114
ATOM    114  N   UNL A   1      31.141  25.766  26.306  1.00  0.00    -0.255 NA
ATOM    115  C   UNL A   1      32.036  24.837  26.396  1.00  0.00     0.042 C 
ATOM    116  H   UNL A   1      33.022  24.984  26.127  1.00  0.00     0.085 H 
BRANCH 115 117
ATOM    117  C   UNL A   1      31.533  23.543  26.917  1.00  0.00     0.076 A 
ATOM    118  C   UNL A   1      30.620  23.024  26.075  1.00  0.00     0.104 A 
ATOM    119  C   UNL A   1      32.528  22.558  27.415  1.00  0.00     0.201 A 
ATOM    120  O   UNL A   1      30.683  21.723  25.585  1.00  0.00    -0.463 OA
ATOM    121  H   UNL A   1      29.831  23.621  25.779  1.00  0.00     0.105 H 
ATOM    122  C   UNL A   1      32.952  21.611  26.378  1.00  0.00     0.065 A 
ATOM    123  O   UNL A   1      33.021  22.599  28.531  1.00  0.00    -0.288 OA
ATOM    124  C   UNL A   1      31.976  21.255  25.444  1.00  0.00     0.137 A 
ATOM    125  C   UNL A   1      34.290  21.264  26.208  1.00  0.00    -0.047 A 
ATOM    126  C   UNL A   1      32.333  20.525  24.319  1.00  0.00    -0.019 A 
ATOM    127  C   UNL A   1      34.654  20.566  25.059  1.00  0.00    -0.061 A 
ATOM    128  H   UNL A   1      34.995  21.518  26.919  1.00  0.00     0.063 H 
ATOM    129  C   UNL A   1      33.680  20.199  24.119  1.00  0.00    -0.059 A 
ATOM    130  H   UNL A   1      31.616  20.227  23.638  1.00  0.00     0.066 H 
ATOM    131  H   UNL A   1      35.643  20.319  24.898  1.00  0.00     0.062 H 
ATOM    132  H   UNL A   1      33.960  19.682  23.271  1.00  0.00     0.062 H 
ENDBRANCH 115 117
ENDBRANCH 106 114
ENDBRANCH 101 104
ENDBRANCH  97 100
ENDBRANCH  94  97
ENDBRANCH  91  94
ENDBRANCH   1  91
TORSDOF 15
ENDMDL
