MODEL 1
REMARK VINA RESULT:     -11.3      0.000      0.000
REMARK SMILES CCCC[C@@H](Sc1nc(OCCC2CCCCC2)cc(OCCC2CCCCC2)n1)C(=O)NCCCCCCNC(=O)c1ccc(-c2c3nc(c(-c4c(F)c(F)c(F)c(F)c4F)c4ccc([nH]4)c(-c4c(F)c(F)c(F)c(F)c4F)c4nc(c(-c5c(F)c(F)c(F)c(F)c5F)c5ccc2[nH]5)C=C4)C=C3)cc1
REMARK SMILES IDX 34 1 33 4 31 5 32 6 5 8 4 10 3 13 2 16 1 19 6 23 7 24 8 25
REMARK SMILES IDX 30 26 9 27 20 28 19 29 10 31 11 32 12 35 13 38 14 39 18 40
REMARK SMILES IDX 15 42 17 45 16 48 21 55 22 56 23 59 24 62 25 63 29 64 26 66
REMARK SMILES IDX 28 69 27 72 35 79 36 82 37 85 38 88 39 91 40 94 41 95 42 97
REMARK SMILES IDX 43 98 44 99 105 100 45 101 104 103 46 105 47 108 48 109
REMARK SMILES IDX 98 110 49 111 103 112 97 113 99 114 50 115 102 116 96 118
REMARK SMILES IDX 95 120 51 122 83 125 63 126 82 127 64 128 67 129 81 130
REMARK SMILES IDX 100 131 65 132 66 134 80 136 101 137 68 140 52 142 53 143
REMARK SMILES IDX 61 144 54 145 55 146 59 147 62 148 56 149 57 150 60 151
REMARK SMILES IDX 58 152 84 153 85 154 93 155 86 156 87 157 91 158 94 159
REMARK SMILES IDX 88 160 89 161 92 162 90 163 69 164 70 165 78 166 71 167
REMARK SMILES IDX 72 168 76 169 79 170 73 171 74 172 77 173 75 174
REMARK H PARENT 34 2 34 3 33 7 5 9 4 11 4 12 3 14 3 15 2 17 2 18 1 20 1 21
REMARK H PARENT 1 22 19 30 11 33 11 34 12 36 12 37 13 41 14 43 14 44 18 46
REMARK H PARENT 18 47 15 49 15 50 17 51 17 52 16 53 16 54 22 57 22 58 23 60
REMARK H PARENT 23 61 24 65 25 67 25 68 29 70 29 71 26 73 26 74 28 75 28 76
REMARK H PARENT 27 77 27 78 35 80 35 81 36 83 36 84 37 86 37 87 38 89 38 90
REMARK H PARENT 39 92 39 93 40 96 44 102 105 104 45 106 104 107 103 117 97 119
REMARK H PARENT 99 121 102 123 96 124 64 133 67 135 100 138 65 139 101 141
REMARK Flexibility Score: inf
ROOT
ATOM      1  C   UNL A   1      34.165  30.849  27.652  1.00  0.00     0.017 C 
ATOM      2  H   UNL A   1      34.796  30.708  26.799  1.00  0.00     0.049 H 
ATOM      3  H   UNL A   1      33.946  29.910  28.118  1.00  0.00     0.049 H 
ENDROOT
BRANCH   1   4
ATOM      4  N   UNL A   1      32.914  31.452  27.223  1.00  0.00    -0.355 N 
ATOM      5  C   UNL A   1      31.907  30.936  26.452  1.00  0.00     0.233 C 
ATOM      6  O   UNL A   1      30.926  31.652  26.234  1.00  0.00    -0.274 OA
ATOM      7  H   UNL A   1      32.768  32.374  27.535  1.00  0.00     0.163 HD
BRANCH   5   8
ATOM      8  C   UNL A   1      32.012  29.525  25.848  1.00  0.00     0.091 C 
ATOM      9  H   UNL A   1      31.218  29.178  25.219  1.00  0.00     0.052 H 
BRANCH   8  10
ATOM     10  C   UNL A   1      33.179  29.508  24.831  1.00  0.00    -0.032 C 
ATOM     11  H   UNL A   1      32.825  29.982  23.940  1.00  0.00     0.028 H 
ATOM     12  H   UNL A   1      33.978  29.997  25.347  1.00  0.00     0.028 H 
BRANCH  10  13
ATOM     13  C   UNL A   1      33.779  28.158  24.415  1.00  0.00    -0.052 C 
ATOM     14  H   UNL A   1      34.833  28.206  24.594  1.00  0.00     0.027 H 
ATOM     15  H   UNL A   1      33.250  27.432  24.997  1.00  0.00     0.027 H 
BRANCH  13  16
ATOM     16  C   UNL A   1      33.580  27.718  22.967  1.00  0.00    -0.056 C 
ATOM     17  H   UNL A   1      32.798  28.309  22.539  1.00  0.00     0.026 H 
ATOM     18  H   UNL A   1      34.514  27.857  22.464  1.00  0.00     0.026 H 
BRANCH  16  19
ATOM     19  C   UNL A   1      33.209  26.253  22.827  1.00  0.00    -0.065 C 
ATOM     20  H   UNL A   1      33.399  25.931  21.825  1.00  0.00     0.023 H 
ATOM     21  H   UNL A   1      32.171  26.124  23.052  1.00  0.00     0.023 H 
ATOM     22  H   UNL A   1      33.795  25.670  23.507  1.00  0.00     0.023 H 
ENDBRANCH  16  19
ENDBRANCH  13  16
ENDBRANCH  10  13
ENDBRANCH   8  10
BRANCH   8  23
ATOM     23  S   UNL A   1      31.958  28.377  27.303  1.00  0.00    -0.073 SA
BRANCH  23  24
ATOM     24  C   UNL A   1      31.414  26.897  26.548  1.00  0.00     0.195 A 
ATOM     25  N   UNL A   1      30.691  27.005  25.427  1.00  0.00    -0.187 NA
ATOM     26  N   UNL A   1      31.764  25.757  27.142  1.00  0.00    -0.187 NA
ATOM     27  C   UNL A   1      30.195  25.868  24.928  1.00  0.00     0.221 A 
ATOM     28  C   UNL A   1      31.293  24.637  26.594  1.00  0.00     0.221 A 
ATOM     29  C   UNL A   1      30.422  24.653  25.533  1.00  0.00     0.063 A 
ATOM     30  H   UNL A   1      29.958  23.792  25.204  1.00  0.00     0.074 H 
BRANCH  27  31
ATOM     31  O   UNL A   1      29.521  26.056  23.753  1.00  0.00    -0.477 OA
BRANCH  31  32
ATOM     32  C   UNL A   1      28.810  27.269  23.537  1.00  0.00     0.090 C 
ATOM     33  H   UNL A   1      28.531  27.658  24.494  1.00  0.00     0.071 H 
ATOM     34  H   UNL A   1      27.983  27.011  22.911  1.00  0.00     0.071 H 
BRANCH  32  35
ATOM     35  C   UNL A   1      29.579  28.377  22.781  1.00  0.00    -0.016 C 
ATOM     36  H   UNL A   1      29.843  27.990  21.819  1.00  0.00     0.030 H 
ATOM     37  H   UNL A   1      30.411  28.621  23.408  1.00  0.00     0.030 H 
BRANCH  35  38
ATOM     38  C   UNL A   1      28.837  29.703  22.561  1.00  0.00    -0.038 C 
ATOM     39  C   UNL A   1      29.109  30.752  23.648  1.00  0.00    -0.050 C 
ATOM     40  C   UNL A   1      29.128  30.331  21.191  1.00  0.00    -0.050 C 
ATOM     41  H   UNL A   1      27.805  29.425  22.611  1.00  0.00     0.030 H 
ATOM     42  C   UNL A   1      28.179  31.956  23.445  1.00  0.00    -0.053 C 
ATOM     43  H   UNL A   1      30.128  31.075  23.585  1.00  0.00     0.027 H 
ATOM     44  H   UNL A   1      28.930  30.322  24.611  1.00  0.00     0.027 H 
ATOM     45  C   UNL A   1      28.162  31.483  20.940  1.00  0.00    -0.053 C 
ATOM     46  H   UNL A   1      29.006  29.590  20.428  1.00  0.00     0.027 H 
ATOM     47  H   UNL A   1      30.133  30.698  21.176  1.00  0.00     0.027 H 
ATOM     48  C   UNL A   1      28.266  32.542  22.035  1.00  0.00    -0.053 C 
ATOM     49  H   UNL A   1      28.445  32.717  24.149  1.00  0.00     0.027 H 
ATOM     50  H   UNL A   1      27.175  31.614  23.590  1.00  0.00     0.027 H 
ATOM     51  H   UNL A   1      28.394  31.932  19.997  1.00  0.00     0.027 H 
ATOM     52  H   UNL A   1      27.165  31.094  20.939  1.00  0.00     0.027 H 
ATOM     53  H   UNL A   1      29.203  33.046  21.932  1.00  0.00     0.027 H 
ATOM     54  H   UNL A   1      27.438  33.208  21.913  1.00  0.00     0.027 H 
ENDBRANCH  35  38
ENDBRANCH  32  35
ENDBRANCH  31  32
ENDBRANCH  27  31
BRANCH  28  55
ATOM     55  O   UNL A   1      31.694  23.520  27.258  1.00  0.00    -0.477 OA
BRANCH  55  56
ATOM     56  C   UNL A   1      32.634  22.644  26.645  1.00  0.00     0.090 C 
ATOM     57  H   UNL A   1      32.439  22.588  25.595  1.00  0.00     0.071 H 
ATOM     58  H   UNL A   1      32.547  21.667  27.074  1.00  0.00     0.071 H 
BRANCH  56  59
ATOM     59  C   UNL A   1      34.052  23.182  26.876  1.00  0.00    -0.016 C 
ATOM     60  H   UNL A   1      34.633  22.389  27.299  1.00  0.00     0.030 H 
ATOM     61  H   UNL A   1      33.928  24.034  27.510  1.00  0.00     0.030 H 
BRANCH  59  62
ATOM     62  C   UNL A   1      34.812  23.708  25.632  1.00  0.00    -0.038 C 
ATOM     63  C   UNL A   1      36.338  23.834  25.823  1.00  0.00    -0.050 C 
ATOM     64  C   UNL A   1      34.343  23.008  24.351  1.00  0.00    -0.050 C 
ATOM     65  H   UNL A   1      34.534  24.733  25.502  1.00  0.00     0.030 H 
ATOM     66  C   UNL A   1      37.275  23.266  24.754  1.00  0.00    -0.053 C 
ATOM     67  H   UNL A   1      36.579  23.343  26.744  1.00  0.00     0.027 H 
ATOM     68  H   UNL A   1      36.514  24.889  25.781  1.00  0.00     0.027 H 
ATOM     69  C   UNL A   1      35.299  23.233  23.191  1.00  0.00    -0.053 C 
ATOM     70  H   UNL A   1      33.380  23.389  24.082  1.00  0.00     0.027 H 
ATOM     71  H   UNL A   1      34.307  21.956  24.547  1.00  0.00     0.027 H 
ATOM     72  C   UNL A   1      36.633  22.614  23.543  1.00  0.00    -0.053 C 
ATOM     73  H   UNL A   1      37.893  22.529  25.226  1.00  0.00     0.027 H 
ATOM     74  H   UNL A   1      37.799  24.115  24.366  1.00  0.00     0.027 H 
ATOM     75  H   UNL A   1      34.909  22.771  22.308  1.00  0.00     0.027 H 
ATOM     76  H   UNL A   1      35.416  24.281  23.009  1.00  0.00     0.027 H 
ATOM     77  H   UNL A   1      36.484  21.575  23.750  1.00  0.00     0.027 H 
ATOM     78  H   UNL A   1      37.288  22.762  22.711  1.00  0.00     0.027 H 
ENDBRANCH  59  62
ENDBRANCH  56  59
ENDBRANCH  55  56
ENDBRANCH  28  55
ENDBRANCH  23  24
ENDBRANCH   8  23
ENDBRANCH   5   8
ENDBRANCH   1   4
BRANCH   1  79
ATOM     79  C   UNL A   1      34.885  31.733  28.662  1.00  0.00    -0.036 C 
ATOM     80  H   UNL A   1      35.658  31.157  29.127  1.00  0.00     0.028 H 
ATOM     81  H   UNL A   1      34.152  32.069  29.367  1.00  0.00     0.028 H 
BRANCH  79  82
ATOM     82  C   UNL A   1      35.516  32.980  28.038  1.00  0.00    -0.052 C 
ATOM     83  H   UNL A   1      35.148  33.073  27.037  1.00  0.00     0.027 H 
ATOM     84  H   UNL A   1      36.575  32.838  28.085  1.00  0.00     0.027 H 
BRANCH  82  85
ATOM     85  C   UNL A   1      35.220  34.286  28.781  1.00  0.00    -0.052 C 
ATOM     86  H   UNL A   1      35.677  35.087  28.237  1.00  0.00     0.027 H 
ATOM     87  H   UNL A   1      35.614  34.162  29.768  1.00  0.00     0.027 H 
BRANCH  85  88
ATOM     88  C   UNL A   1      33.734  34.618  28.953  1.00  0.00    -0.036 C 
ATOM     89  H   UNL A   1      33.325  33.946  29.679  1.00  0.00     0.028 H 
ATOM     90  H   UNL A   1      33.288  34.517  27.986  1.00  0.00     0.028 H 
BRANCH  88  91
ATOM     91  C   UNL A   1      33.445  36.044  29.413  1.00  0.00     0.018 C 
ATOM     92  H   UNL A   1      32.984  36.579  28.609  1.00  0.00     0.049 H 
ATOM     93  H   UNL A   1      34.374  36.494  29.697  1.00  0.00     0.049 H 
BRANCH  91  94
ATOM     94  N   UNL A   1      32.560  36.078  30.567  1.00  0.00    -0.352 N 
ATOM     95  C   UNL A   1      32.689  35.470  31.782  1.00  0.00     0.251 C 
ATOM     96  H   UNL A   1      31.746  36.619  30.454  1.00  0.00     0.163 HD
ATOM     97  O   UNL A   1      31.741  35.472  32.575  1.00  0.00    -0.269 OA
BRANCH  95  98
ATOM     98  C   UNL A   1      33.947  34.798  32.157  1.00  0.00     0.039 A 
ATOM     99  C   UNL A   1      33.916  33.428  32.433  1.00  0.00    -0.049 A 
ATOM    100  C   UNL A   1      35.143  35.513  32.282  1.00  0.00    -0.049 A 
ATOM    101  C   UNL A   1      35.090  32.768  32.796  1.00  0.00    -0.053 A 
ATOM    102  H   UNL A   1      33.028  32.907  32.369  1.00  0.00     0.063 H 
ATOM    103  C   UNL A   1      36.325  34.843  32.587  1.00  0.00    -0.053 A 
ATOM    104  H   UNL A   1      35.149  36.537  32.147  1.00  0.00     0.063 H 
ATOM    105  C   UNL A   1      36.306  33.467  32.857  1.00  0.00    -0.014 A 
ATOM    106  H   UNL A   1      35.064  31.760  33.020  1.00  0.00     0.063 H 
ATOM    107  H   UNL A   1      37.217  35.360  32.616  1.00  0.00     0.063 H 
BRANCH 105 108
ATOM    108  C   UNL A   1      37.563  32.759  33.205  1.00  0.00     0.031 A 
ATOM    109  C   UNL A   1      38.272  33.059  34.495  1.00  0.00     0.074 A 
ATOM    110  C   UNL A   1      38.082  31.872  32.337  1.00  0.00     0.049 A 
ATOM    111  N   UNL A   1      39.378  32.545  34.969  1.00  0.00    -0.248 NA
ATOM    112  C   UNL A   1      37.672  34.090  35.356  1.00  0.00    -0.034 C 
ATOM    113  C   UNL A   1      37.516  31.542  31.028  1.00  0.00    -0.036 A 
ATOM    114  N   UNL A   1      39.204  31.088  32.423  1.00  0.00    -0.354 N 
ATOM    115  C   UNL A   1      39.613  33.195  36.173  1.00  0.00     0.074 A 
ATOM    116  C   UNL A   1      38.560  34.175  36.337  1.00  0.00    -0.034 C 
ATOM    117  H   UNL A   1      36.791  34.612  35.230  1.00  0.00     0.065 H 
ATOM    118  C   UNL A   1      38.281  30.606  30.443  1.00  0.00    -0.036 A 
ATOM    119  H   UNL A   1      36.665  31.961  30.621  1.00  0.00     0.065 H 
ATOM    120  C   UNL A   1      39.400  30.288  31.324  1.00  0.00     0.049 A 
ATOM    121  H   UNL A   1      39.811  31.098  33.198  1.00  0.00     0.167 HD
ATOM    122  C   UNL A   1      40.604  32.979  37.071  1.00  0.00     0.037 A 
ATOM    123  H   UNL A   1      38.507  34.850  37.116  1.00  0.00     0.065 H 
ATOM    124  H   UNL A   1      38.107  30.181  29.519  1.00  0.00     0.065 H 
ATOM    125  C   UNL A   1      40.372  29.394  31.062  1.00  0.00     0.037 A 
ATOM    126  C   UNL A   1      41.632  31.983  36.919  1.00  0.00     0.049 A 
ATOM    127  C   UNL A   1      41.440  29.148  32.092  1.00  0.00     0.074 A 
ATOM    128  C   UNL A   1      42.640  31.640  37.802  1.00  0.00    -0.036 A 
ATOM    129  N   UNL A   1      41.781  31.169  35.806  1.00  0.00    -0.354 N 
ATOM    130  N   UNL A   1      41.607  29.715  33.262  1.00  0.00    -0.248 NA
ATOM    131  C   UNL A   1      42.446  28.128  31.768  1.00  0.00    -0.034 C 
ATOM    132  C   UNL A   1      43.422  30.642  37.209  1.00  0.00    -0.036 A 
ATOM    133  H   UNL A   1      42.790  32.049  38.737  1.00  0.00     0.065 H 
ATOM    134  C   UNL A   1      42.875  30.334  35.973  1.00  0.00     0.049 A 
ATOM    135  H   UNL A   1      41.196  31.180  35.014  1.00  0.00     0.167 HD
ATOM    136  C   UNL A   1      42.722  29.108  33.822  1.00  0.00     0.074 A 
ATOM    137  C   UNL A   1      43.179  28.115  32.872  1.00  0.00    -0.034 C 
ATOM    138  H   UNL A   1      42.555  27.569  30.908  1.00  0.00     0.065 H 
ATOM    139  H   UNL A   1      44.261  30.207  37.622  1.00  0.00     0.065 H 
ATOM    140  C   UNL A   1      43.316  29.353  35.017  1.00  0.00     0.037 A 
ATOM    141  H   UNL A   1      43.974  27.478  33.035  1.00  0.00     0.065 H 
BRANCH 122 142
ATOM    142  C   UNL A   1      40.621  33.832  38.304  1.00  0.00     0.064 A 
ATOM    143  C   UNL A   1      41.433  34.974  38.396  1.00  0.00     0.173 A 
ATOM    144  C   UNL A   1      39.789  33.529  39.392  1.00  0.00     0.173 A 
ATOM    145  F   UNL A   1      42.255  35.299  37.389  1.00  0.00    -0.203 F 
ATOM    146  C   UNL A   1      41.426  35.766  39.540  1.00  0.00     0.198 A 
ATOM    147  C   UNL A   1      39.765  34.339  40.524  1.00  0.00     0.198 A 
ATOM    148  F   UNL A   1      38.990  32.452  39.354  1.00  0.00    -0.203 F 
ATOM    149  F   UNL A   1      42.241  36.828  39.623  1.00  0.00    -0.200 F 
ATOM    150  C   UNL A   1      40.589  35.453  40.600  1.00  0.00     0.200 A 
ATOM    151  F   UNL A   1      38.948  34.041  41.543  1.00  0.00    -0.200 F 
ATOM    152  F   UNL A   1      40.579  36.221  41.699  1.00  0.00    -0.200 F 
ENDBRANCH 122 142
BRANCH 125 153
ATOM    153  C   UNL A   1      40.355  28.639  29.785  1.00  0.00     0.064 A 
ATOM    154  C   UNL A   1      39.643  27.436  29.671  1.00  0.00     0.173 A 
ATOM    155  C   UNL A   1      41.045  29.100  28.655  1.00  0.00     0.173 A 
ATOM    156  F   UNL A   1      38.984  26.945  30.731  1.00  0.00    -0.203 F 
ATOM    157  C   UNL A   1      39.638  26.714  28.479  1.00  0.00     0.198 A 
ATOM    158  C   UNL A   1      41.018  28.390  27.457  1.00  0.00     0.198 A 
ATOM    159  F   UNL A   1      41.735  30.248  28.714  1.00  0.00    -0.203 F 
ATOM    160  F   UNL A   1      38.985  25.546  28.410  1.00  0.00    -0.200 F 
ATOM    161  C   UNL A   1      40.321  27.194  27.372  1.00  0.00     0.200 A 
ATOM    162  F   UNL A   1      41.670  28.862  26.386  1.00  0.00    -0.200 F 
ATOM    163  F   UNL A   1      40.315  26.500  26.226  1.00  0.00    -0.200 F 
ENDBRANCH 125 153
BRANCH 140 164
ATOM    164  C   UNL A   1      44.512  28.519  35.365  1.00  0.00     0.064 A 
ATOM    165  C   UNL A   1      44.382  27.296  36.039  1.00  0.00     0.173 A 
ATOM    166  C   UNL A   1      45.801  28.937  35.002  1.00  0.00     0.173 A 
ATOM    167  F   UNL A   1      43.170  26.862  36.421  1.00  0.00    -0.203 F 
ATOM    168  C   UNL A   1      45.501  26.535  36.363  1.00  0.00     0.198 A 
ATOM    169  C   UNL A   1      46.916  28.160  35.304  1.00  0.00     0.198 A 
ATOM    170  F   UNL A   1      45.977  30.097  34.352  1.00  0.00    -0.203 F 
ATOM    171  F   UNL A   1      45.357  25.393  37.050  1.00  0.00    -0.200 F 
ATOM    172  C   UNL A   1      46.766  26.965  35.990  1.00  0.00     0.200 A 
ATOM    173  F   UNL A   1      48.137  28.572  34.934  1.00  0.00    -0.200 F 
ATOM    174  F   UNL A   1      47.842  26.231  36.301  1.00  0.00    -0.200 F 
ENDBRANCH 140 164
ENDBRANCH 105 108
ENDBRANCH  95  98
ENDBRANCH  91  94
ENDBRANCH  88  91
ENDBRANCH  85  88
ENDBRANCH  82  85
ENDBRANCH  79  82
ENDBRANCH   1  79
TORSDOF 27
ENDMDL
MODEL 2
REMARK VINA RESULT:     -11.0      0.662      6.908
REMARK SMILES CCCC[C@@H](Sc1nc(OCCC2CCCCC2)cc(OCCC2CCCCC2)n1)C(=O)NCCCCCCNC(=O)c1ccc(-c2c3nc(c(-c4c(F)c(F)c(F)c(F)c4F)c4ccc([nH]4)c(-c4c(F)c(F)c(F)c(F)c4F)c4nc(c(-c5c(F)c(F)c(F)c(F)c5F)c5ccc2[nH]5)C=C4)C=C3)cc1
REMARK SMILES IDX 34 1 33 4 31 5 32 6 5 8 4 10 3 13 2 16 1 19 6 23 7 24 8 25
REMARK SMILES IDX 30 26 9 27 20 28 19 29 10 31 11 32 12 35 13 38 14 39 18 40
REMARK SMILES IDX 15 42 17 45 16 48 21 55 22 56 23 59 24 62 25 63 29 64 26 66
REMARK SMILES IDX 28 69 27 72 35 79 36 82 37 85 38 88 39 91 40 94 41 95 42 97
REMARK SMILES IDX 43 98 44 99 105 100 45 101 104 103 46 105 47 108 48 109
REMARK SMILES IDX 98 110 49 111 103 112 97 113 99 114 50 115 102 116 96 118
REMARK SMILES IDX 95 120 51 122 83 125 63 126 82 127 64 128 67 129 81 130
REMARK SMILES IDX 100 131 65 132 66 134 80 136 101 137 68 140 52 142 53 143
REMARK SMILES IDX 61 144 54 145 55 146 59 147 62 148 56 149 57 150 60 151
REMARK SMILES IDX 58 152 84 153 85 154 93 155 86 156 87 157 91 158 94 159
REMARK SMILES IDX 88 160 89 161 92 162 90 163 69 164 70 165 78 166 71 167
REMARK SMILES IDX 72 168 76 169 79 170 73 171 74 172 77 173 75 174
REMARK H PARENT 34 2 34 3 33 7 5 9 4 11 4 12 3 14 3 15 2 17 2 18 1 20 1 21
REMARK H PARENT 1 22 19 30 11 33 11 34 12 36 12 37 13 41 14 43 14 44 18 46
REMARK H PARENT 18 47 15 49 15 50 17 51 17 52 16 53 16 54 22 57 22 58 23 60
REMARK H PARENT 23 61 24 65 25 67 25 68 29 70 29 71 26 73 26 74 28 75 28 76
REMARK H PARENT 27 77 27 78 35 80 35 81 36 83 36 84 37 86 37 87 38 89 38 90
REMARK H PARENT 39 92 39 93 40 96 44 102 105 104 45 106 104 107 103 117 97 119
REMARK H PARENT 99 121 102 123 96 124 64 133 67 135 100 138 65 139 101 141
REMARK Flexibility Score: inf
ROOT
ATOM      1  C   UNL A   1      34.183  30.740  27.558  1.00  0.00     0.017 C 
ATOM      2  H   UNL A   1      34.788  30.605  26.686  1.00  0.00     0.049 H 
ATOM      3  H   UNL A   1      33.922  29.794  27.985  1.00  0.00     0.049 H 
ENDROOT
BRANCH   1   4
ATOM      4  N   UNL A   1      32.958  31.429  27.184  1.00  0.00    -0.355 N 
ATOM      5  C   UNL A   1      31.887  30.985  26.455  1.00  0.00     0.233 C 
ATOM      6  O   UNL A   1      30.949  31.767  26.281  1.00  0.00    -0.274 OA
ATOM      7  H   UNL A   1      32.889  32.357  27.503  1.00  0.00     0.163 HD
BRANCH   5   8
ATOM      8  C   UNL A   1      31.870  29.573  25.845  1.00  0.00     0.091 C 
ATOM      9  H   UNL A   1      30.997  29.258  25.313  1.00  0.00     0.052 H 
BRANCH   8  10
ATOM     10  C   UNL A   1      32.911  29.517  24.701  1.00  0.00    -0.032 C 
ATOM     11  H   UNL A   1      32.371  29.600  23.781  1.00  0.00     0.028 H 
ATOM     12  H   UNL A   1      33.589  30.311  24.930  1.00  0.00     0.028 H 
BRANCH  10  13
ATOM     13  C   UNL A   1      33.814  28.281  24.581  1.00  0.00    -0.052 C 
ATOM     14  H   UNL A   1      34.772  28.544  24.979  1.00  0.00     0.027 H 
ATOM     15  H   UNL A   1      33.296  27.510  25.113  1.00  0.00     0.027 H 
BRANCH  13  16
ATOM     16  C   UNL A   1      34.038  27.710  23.184  1.00  0.00    -0.056 C 
ATOM     17  H   UNL A   1      34.161  28.524  22.501  1.00  0.00     0.026 H 
ATOM     18  H   UNL A   1      34.907  27.088  23.233  1.00  0.00     0.026 H 
BRANCH  16  19
ATOM     19  C   UNL A   1      32.893  26.842  22.697  1.00  0.00    -0.065 C 
ATOM     20  H   UNL A   1      33.277  26.062  22.073  1.00  0.00     0.023 H 
ATOM     21  H   UNL A   1      32.204  27.439  22.137  1.00  0.00     0.023 H 
ATOM     22  H   UNL A   1      32.389  26.410  23.536  1.00  0.00     0.023 H 
ENDBRANCH  16  19
ENDBRANCH  13  16
ENDBRANCH  10  13
ENDBRANCH   8  10
BRANCH   8  23
ATOM     23  S   UNL A   1      31.942  28.423  27.298  1.00  0.00    -0.073 SA
BRANCH  23  24
ATOM     24  C   UNL A   1      31.364  26.936  26.584  1.00  0.00     0.195 A 
ATOM     25  N   UNL A   1      30.632  27.031  25.467  1.00  0.00    -0.187 NA
ATOM     26  N   UNL A   1      31.699  25.804  27.202  1.00  0.00    -0.187 NA
ATOM     27  C   UNL A   1      30.111  25.892  24.999  1.00  0.00     0.221 A 
ATOM     28  C   UNL A   1      31.203  24.681  26.685  1.00  0.00     0.221 A 
ATOM     29  C   UNL A   1      30.322  24.687  25.631  1.00  0.00     0.063 A 
ATOM     30  H   UNL A   1      29.839  23.828  25.327  1.00  0.00     0.074 H 
BRANCH  27  31
ATOM     31  O   UNL A   1      29.429  26.064  23.827  1.00  0.00    -0.477 OA
BRANCH  31  32
ATOM     32  C   UNL A   1      28.728  27.279  23.595  1.00  0.00     0.090 C 
ATOM     33  H   UNL A   1      28.468  27.694  24.547  1.00  0.00     0.071 H 
ATOM     34  H   UNL A   1      27.887  27.016  22.988  1.00  0.00     0.071 H 
BRANCH  32  35
ATOM     35  C   UNL A   1      29.494  28.362  22.800  1.00  0.00    -0.016 C 
ATOM     36  H   UNL A   1      29.748  27.946  21.847  1.00  0.00     0.030 H 
ATOM     37  H   UNL A   1      30.333  28.619  23.412  1.00  0.00     0.030 H 
BRANCH  35  38
ATOM     38  C   UNL A   1      28.757  29.684  22.549  1.00  0.00    -0.038 C 
ATOM     39  C   UNL A   1      28.986  30.738  23.642  1.00  0.00    -0.050 C 
ATOM     40  C   UNL A   1      29.097  30.310  21.189  1.00  0.00    -0.050 C 
ATOM     41  H   UNL A   1      27.725  29.404  22.561  1.00  0.00     0.030 H 
ATOM     42  C   UNL A   1      28.060  31.938  23.401  1.00  0.00    -0.053 C 
ATOM     43  H   UNL A   1      30.005  31.064  23.616  1.00  0.00     0.027 H 
ATOM     44  H   UNL A   1      28.773  30.310  24.599  1.00  0.00     0.027 H 
ATOM     45  C   UNL A   1      28.137  31.458  20.899  1.00  0.00    -0.053 C 
ATOM     46  H   UNL A   1      29.004  29.566  20.423  1.00  0.00     0.027 H 
ATOM     47  H   UNL A   1      30.100  30.680  21.210  1.00  0.00     0.027 H 
ATOM     48  C   UNL A   1      28.197  32.521  21.994  1.00  0.00    -0.053 C 
ATOM     49  H   UNL A   1      28.298  32.702  24.112  1.00  0.00     0.027 H 
ATOM     50  H   UNL A   1      27.053  31.594  23.511  1.00  0.00     0.027 H 
ATOM     51  H   UNL A   1      28.402  31.906  19.964  1.00  0.00     0.027 H 
ATOM     52  H   UNL A   1      27.142  31.067  20.863  1.00  0.00     0.027 H 
ATOM     53  H   UNL A   1      29.136  33.028  21.924  1.00  0.00     0.027 H 
ATOM     54  H   UNL A   1      27.372  33.184  21.840  1.00  0.00     0.027 H 
ENDBRANCH  35  38
ENDBRANCH  32  35
ENDBRANCH  31  32
ENDBRANCH  27  31
BRANCH  28  55
ATOM     55  O   UNL A   1      31.590  23.573  27.371  1.00  0.00    -0.477 OA
BRANCH  55  56
ATOM     56  C   UNL A   1      32.396  22.596  26.721  1.00  0.00     0.090 C 
ATOM     57  H   UNL A   1      32.168  22.581  25.676  1.00  0.00     0.071 H 
ATOM     58  H   UNL A   1      32.199  21.631  27.140  1.00  0.00     0.071 H 
BRANCH  56  59
ATOM     59  C   UNL A   1      33.876  22.950  26.919  1.00  0.00    -0.016 C 
ATOM     60  H   UNL A   1      34.405  22.036  27.098  1.00  0.00     0.030 H 
ATOM     61  H   UNL A   1      33.891  23.644  27.732  1.00  0.00     0.030 H 
BRANCH  59  62
ATOM     62  C   UNL A   1      34.583  23.679  25.749  1.00  0.00    -0.038 C 
ATOM     63  C   UNL A   1      36.120  23.737  25.870  1.00  0.00    -0.050 C 
ATOM     64  C   UNL A   1      34.025  23.235  24.392  1.00  0.00    -0.050 C 
ATOM     65  H   UNL A   1      34.330  24.716  25.823  1.00  0.00     0.030 H 
ATOM     66  C   UNL A   1      36.981  23.354  24.662  1.00  0.00    -0.053 C 
ATOM     67  H   UNL A   1      36.396  23.081  26.670  1.00  0.00     0.027 H 
ATOM     68  H   UNL A   1      36.326  24.778  26.008  1.00  0.00     0.027 H 
ATOM     69  C   UNL A   1      34.923  23.648  23.238  1.00  0.00    -0.053 C 
ATOM     70  H   UNL A   1      33.061  23.677  24.253  1.00  0.00     0.027 H 
ATOM     71  H   UNL A   1      33.967  22.165  24.396  1.00  0.00     0.027 H 
ATOM     72  C   UNL A   1      36.254  22.949  23.392  1.00  0.00    -0.053 C 
ATOM     73  H   UNL A   1      37.600  22.532  24.955  1.00  0.00     0.027 H 
ATOM     74  H   UNL A   1      37.509  24.250  24.405  1.00  0.00     0.027 H 
ATOM     75  H   UNL A   1      34.472  23.363  22.309  1.00  0.00     0.027 H 
ATOM     76  H   UNL A   1      35.062  24.709  23.242  1.00  0.00     0.027 H 
ATOM     77  H   UNL A   1      36.086  21.892  23.416  1.00  0.00     0.027 H 
ATOM     78  H   UNL A   1      36.868  23.233  22.564  1.00  0.00     0.027 H 
ENDBRANCH  59  62
ENDBRANCH  56  59
ENDBRANCH  55  56
ENDBRANCH  28  55
ENDBRANCH  23  24
ENDBRANCH   8  23
ENDBRANCH   5   8
ENDBRANCH   1   4
BRANCH   1  79
ATOM     79  C   UNL A   1      34.969  31.537  28.591  1.00  0.00    -0.036 C 
ATOM     80  H   UNL A   1      35.810  30.952  28.902  1.00  0.00     0.028 H 
ATOM     81  H   UNL A   1      34.302  31.747  29.402  1.00  0.00     0.028 H 
BRANCH  79  82
ATOM     82  C   UNL A   1      35.479  32.879  28.063  1.00  0.00    -0.052 C 
ATOM     83  H   UNL A   1      35.027  33.055  27.110  1.00  0.00     0.027 H 
ATOM     84  H   UNL A   1      36.545  32.801  28.016  1.00  0.00     0.027 H 
BRANCH  82  85
ATOM     85  C   UNL A   1      35.173  34.079  28.966  1.00  0.00    -0.052 C 
ATOM     86  H   UNL A   1      35.731  34.917  28.604  1.00  0.00     0.027 H 
ATOM     87  H   UNL A   1      35.445  33.781  29.958  1.00  0.00     0.027 H 
BRANCH  85  88
ATOM     88  C   UNL A   1      33.697  34.485  29.034  1.00  0.00    -0.036 C 
ATOM     89  H   UNL A   1      33.206  33.845  29.737  1.00  0.00     0.028 H 
ATOM     90  H   UNL A   1      33.313  34.394  28.040  1.00  0.00     0.028 H 
BRANCH  88  91
ATOM     91  C   UNL A   1      33.450  35.930  29.458  1.00  0.00     0.018 C 
ATOM     92  H   UNL A   1      33.042  36.469  28.628  1.00  0.00     0.049 H 
ATOM     93  H   UNL A   1      34.384  36.347  29.771  1.00  0.00     0.049 H 
BRANCH  91  94
ATOM     94  N   UNL A   1      32.522  36.021  30.575  1.00  0.00    -0.352 N 
ATOM     95  C   UNL A   1      32.615  35.491  31.830  1.00  0.00     0.251 C 
ATOM     96  H   UNL A   1      31.705  36.542  30.400  1.00  0.00     0.163 HD
ATOM     97  O   UNL A   1      31.638  35.527  32.586  1.00  0.00    -0.269 OA
BRANCH  95  98
ATOM     98  C   UNL A   1      33.867  34.863  32.291  1.00  0.00     0.039 A 
ATOM     99  C   UNL A   1      33.835  33.524  32.690  1.00  0.00    -0.049 A 
ATOM    100  C   UNL A   1      35.058  35.593  32.374  1.00  0.00    -0.049 A 
ATOM    101  C   UNL A   1      35.004  32.906  33.135  1.00  0.00    -0.053 A 
ATOM    102  H   UNL A   1      32.951  32.994  32.655  1.00  0.00     0.063 H 
ATOM    103  C   UNL A   1      36.235  34.960  32.764  1.00  0.00    -0.053 A 
ATOM    104  H   UNL A   1      35.062  36.601  32.147  1.00  0.00     0.063 H 
ATOM    105  C   UNL A   1      36.216  33.614  33.157  1.00  0.00    -0.014 A 
ATOM    106  H   UNL A   1      34.977  31.923  33.450  1.00  0.00     0.063 H 
ATOM    107  H   UNL A   1      37.125  35.483  32.764  1.00  0.00     0.063 H 
BRANCH 105 108
ATOM    108  C   UNL A   1      37.467  32.949  33.595  1.00  0.00     0.031 A 
ATOM    109  C   UNL A   1      38.160  31.964  32.696  1.00  0.00     0.074 A 
ATOM    110  C   UNL A   1      37.957  33.207  34.822  1.00  0.00     0.049 A 
ATOM    111  N   UNL A   1      39.258  31.284  32.906  1.00  0.00    -0.248 NA
ATOM    112  C   UNL A   1      37.522  31.690  31.399  1.00  0.00    -0.034 C 
ATOM    113  C   UNL A   1      37.340  34.097  35.806  1.00  0.00    -0.036 A 
ATOM    114  N   UNL A   1      39.083  32.742  35.451  1.00  0.00    -0.354 N 
ATOM    115  C   UNL A   1      39.436  30.495  31.778  1.00  0.00     0.074 A 
ATOM    116  C   UNL A   1      38.310  30.745  30.904  1.00  0.00    -0.034 C 
ATOM    117  H   UNL A   1      36.681  32.119  30.983  1.00  0.00     0.065 H 
ATOM    118  C   UNL A   1      38.108  34.133  36.907  1.00  0.00    -0.036 A 
ATOM    119  H   UNL A   1      36.457  34.615  35.674  1.00  0.00     0.065 H 
ATOM    120  C   UNL A   1      39.256  33.252  36.714  1.00  0.00     0.049 A 
ATOM    121  H   UNL A   1      39.708  32.103  35.037  1.00  0.00     0.167 HD
ATOM    122  C   UNL A   1      40.459  29.656  31.487  1.00  0.00     0.037 A 
ATOM    123  H   UNL A   1      38.141  30.252  30.012  1.00  0.00     0.065 H 
ATOM    124  H   UNL A   1      37.916  34.692  37.753  1.00  0.00     0.065 H 
ATOM    125  C   UNL A   1      40.235  33.037  37.612  1.00  0.00     0.037 A 
ATOM    126  C   UNL A   1      41.594  29.433  32.344  1.00  0.00     0.049 A 
ATOM    127  C   UNL A   1      41.377  32.129  37.249  1.00  0.00     0.074 A 
ATOM    128  C   UNL A   1      42.714  28.655  32.111  1.00  0.00    -0.036 A 
ATOM    129  N   UNL A   1      41.750  29.992  33.604  1.00  0.00    -0.354 N 
ATOM    130  N   UNL A   1      41.574  31.448  36.147  1.00  0.00    -0.248 NA
ATOM    131  C   UNL A   1      42.439  31.970  38.252  1.00  0.00    -0.034 C 
ATOM    132  C   UNL A   1      43.533  28.715  33.244  1.00  0.00    -0.036 A 
ATOM    133  H   UNL A   1      42.912  28.123  31.250  1.00  0.00     0.065 H 
ATOM    134  C   UNL A   1      42.942  29.563  34.167  1.00  0.00     0.049 A 
ATOM    135  H   UNL A   1      41.111  30.604  34.035  1.00  0.00     0.167 HD
ATOM    136  C   UNL A   1      42.788  30.797  36.313  1.00  0.00     0.074 A 
ATOM    137  C   UNL A   1      43.292  31.181  37.616  1.00  0.00    -0.034 C 
ATOM    138  H   UNL A   1      42.503  32.367  39.202  1.00  0.00     0.065 H 
ATOM    139  H   UNL A   1      44.426  28.214  33.370  1.00  0.00     0.065 H 
ATOM    140  C   UNL A   1      43.427  29.955  35.464  1.00  0.00     0.037 A 
ATOM    141  H   UNL A   1      44.201  30.879  37.999  1.00  0.00     0.065 H 
BRANCH 122 142
ATOM    142  C   UNL A   1      40.402  28.918  30.181  1.00  0.00     0.064 A 
ATOM    143  C   UNL A   1      39.716  27.701  30.055  1.00  0.00     0.173 A 
ATOM    144  C   UNL A   1      41.007  29.454  29.034  1.00  0.00     0.173 A 
ATOM    145  F   UNL A   1      39.133  27.142  31.125  1.00  0.00    -0.203 F 
ATOM    146  C   UNL A   1      39.657  27.036  28.834  1.00  0.00     0.198 A 
ATOM    147  C   UNL A   1      40.923  28.799  27.808  1.00  0.00     0.198 A 
ATOM    148  F   UNL A   1      41.672  30.617  29.099  1.00  0.00    -0.203 F 
ATOM    149  F   UNL A   1      39.032  25.853  28.746  1.00  0.00    -0.200 F 
ATOM    150  C   UNL A   1      40.254  27.588  27.710  1.00  0.00     0.200 A 
ATOM    151  F   UNL A   1      41.491  29.339  26.721  1.00  0.00    -0.200 F 
ATOM    152  F   UNL A   1      40.190  26.950  26.534  1.00  0.00    -0.200 F 
ENDBRANCH 122 142
BRANCH 125 153
ATOM    153  C   UNL A   1      40.197  33.727  38.925  1.00  0.00     0.064 A 
ATOM    154  C   UNL A   1      40.927  34.904  39.141  1.00  0.00     0.173 A 
ATOM    155  C   UNL A   1      39.432  33.228  39.989  1.00  0.00     0.173 A 
ATOM    156  F   UNL A   1      41.688  35.409  38.159  1.00  0.00    -0.203 F 
ATOM    157  C   UNL A   1      40.907  35.546  40.377  1.00  0.00     0.198 A 
ATOM    158  C   UNL A   1      39.394  33.884  41.217  1.00  0.00     0.198 A 
ATOM    159  F   UNL A   1      38.713  32.107  39.830  1.00  0.00    -0.203 F 
ATOM    160  F   UNL A   1      41.648  36.646  40.570  1.00  0.00    -0.200 F 
ATOM    161  C   UNL A   1      40.137  35.038  41.413  1.00  0.00     0.200 A 
ATOM    162  F   UNL A   1      38.640  33.397  42.212  1.00  0.00    -0.200 F 
ATOM    163  F   UNL A   1      40.118  35.657  42.602  1.00  0.00    -0.200 F 
ENDBRANCH 125 153
BRANCH 140 164
ATOM    164  C   UNL A   1      44.749  29.409  35.915  1.00  0.00     0.064 A 
ATOM    165  C   UNL A   1      45.950  30.084  35.649  1.00  0.00     0.173 A 
ATOM    166  C   UNL A   1      44.814  28.210  36.639  1.00  0.00     0.173 A 
ATOM    167  F   UNL A   1      45.939  31.228  34.945  1.00  0.00    -0.203 F 
ATOM    168  C   UNL A   1      47.171  29.564  36.066  1.00  0.00     0.198 A 
ATOM    169  C   UNL A   1      46.035  27.705  37.078  1.00  0.00     0.198 A 
ATOM    170  F   UNL A   1      43.694  27.530  36.923  1.00  0.00    -0.203 F 
ATOM    171  F   UNL A   1      48.309  30.200  35.759  1.00  0.00    -0.200 F 
ATOM    172  C   UNL A   1      47.212  28.378  36.786  1.00  0.00     0.200 A 
ATOM    173  F   UNL A   1      46.073  26.565  37.782  1.00  0.00    -0.200 F 
ATOM    174  F   UNL A   1      48.388  27.878  37.188  1.00  0.00    -0.200 F 
ENDBRANCH 140 164
ENDBRANCH 105 108
ENDBRANCH  95  98
ENDBRANCH  91  94
ENDBRANCH  88  91
ENDBRANCH  85  88
ENDBRANCH  82  85
ENDBRANCH  79  82
ENDBRANCH   1  79
TORSDOF 27
ENDMDL
MODEL 3
REMARK VINA RESULT:     -10.7      5.994     10.986
REMARK SMILES CCCC[C@@H](Sc1nc(OCCC2CCCCC2)cc(OCCC2CCCCC2)n1)C(=O)NCCCCCCNC(=O)c1ccc(-c2c3nc(c(-c4c(F)c(F)c(F)c(F)c4F)c4ccc([nH]4)c(-c4c(F)c(F)c(F)c(F)c4F)c4nc(c(-c5c(F)c(F)c(F)c(F)c5F)c5ccc2[nH]5)C=C4)C=C3)cc1
REMARK SMILES IDX 34 1 33 4 31 5 32 6 5 8 4 10 3 13 2 16 1 19 6 23 7 24 8 25
REMARK SMILES IDX 30 26 9 27 20 28 19 29 10 31 11 32 12 35 13 38 14 39 18 40
REMARK SMILES IDX 15 42 17 45 16 48 21 55 22 56 23 59 24 62 25 63 29 64 26 66
REMARK SMILES IDX 28 69 27 72 35 79 36 82 37 85 38 88 39 91 40 94 41 95 42 97
REMARK SMILES IDX 43 98 44 99 105 100 45 101 104 103 46 105 47 108 48 109
REMARK SMILES IDX 98 110 49 111 103 112 97 113 99 114 50 115 102 116 96 118
REMARK SMILES IDX 95 120 51 122 83 125 63 126 82 127 64 128 67 129 81 130
REMARK SMILES IDX 100 131 65 132 66 134 80 136 101 137 68 140 52 142 53 143
REMARK SMILES IDX 61 144 54 145 55 146 59 147 62 148 56 149 57 150 60 151
REMARK SMILES IDX 58 152 84 153 85 154 93 155 86 156 87 157 91 158 94 159
REMARK SMILES IDX 88 160 89 161 92 162 90 163 69 164 70 165 78 166 71 167
REMARK SMILES IDX 72 168 76 169 79 170 73 171 74 172 77 173 75 174
REMARK H PARENT 34 2 34 3 33 7 5 9 4 11 4 12 3 14 3 15 2 17 2 18 1 20 1 21
REMARK H PARENT 1 22 19 30 11 33 11 34 12 36 12 37 13 41 14 43 14 44 18 46
REMARK H PARENT 18 47 15 49 15 50 17 51 17 52 16 53 16 54 22 57 22 58 23 60
REMARK H PARENT 23 61 24 65 25 67 25 68 29 70 29 71 26 73 26 74 28 75 28 76
REMARK H PARENT 27 77 27 78 35 80 35 81 36 83 36 84 37 86 37 87 38 89 38 90
REMARK H PARENT 39 92 39 93 40 96 44 102 105 104 45 106 104 107 103 117 97 119
REMARK H PARENT 99 121 102 123 96 124 64 133 67 135 100 138 65 139 101 141
REMARK Flexibility Score: inf
ROOT
ATOM      1  C   UNL A   1      35.353  21.057  25.274  1.00  0.00     0.017 C 
ATOM      2  H   UNL A   1      34.663  21.618  24.679  1.00  0.00     0.049 H 
ATOM      3  H   UNL A   1      35.151  20.009  25.198  1.00  0.00     0.049 H 
ENDROOT
BRANCH   1   4
ATOM      4  N   UNL A   1      35.212  21.453  26.666  1.00  0.00    -0.355 N 
ATOM      5  C   UNL A   1      34.340  22.335  27.245  1.00  0.00     0.233 C 
ATOM      6  O   UNL A   1      34.411  22.494  28.466  1.00  0.00    -0.274 OA
ATOM      7  H   UNL A   1      35.841  21.021  27.287  1.00  0.00     0.163 HD
BRANCH   5   8
ATOM      8  C   UNL A   1      33.330  23.127  26.397  1.00  0.00     0.091 C 
ATOM      9  H   UNL A   1      32.931  22.668  25.517  1.00  0.00     0.052 H 
BRANCH   8  10
ATOM     10  C   UNL A   1      32.028  23.303  27.216  1.00  0.00    -0.032 C 
ATOM     11  H   UNL A   1      31.906  22.418  27.804  1.00  0.00     0.028 H 
ATOM     12  H   UNL A   1      32.182  24.215  27.753  1.00  0.00     0.028 H 
BRANCH  10  13
ATOM     13  C   UNL A   1      30.708  23.533  26.468  1.00  0.00    -0.052 C 
ATOM     14  H   UNL A   1      30.804  23.085  25.502  1.00  0.00     0.027 H 
ATOM     15  H   UNL A   1      29.957  23.102  27.098  1.00  0.00     0.027 H 
BRANCH  13  16
ATOM     16  C   UNL A   1      30.261  24.977  26.262  1.00  0.00    -0.056 C 
ATOM     17  H   UNL A   1      29.227  25.053  26.523  1.00  0.00     0.026 H 
ATOM     18  H   UNL A   1      30.881  25.591  26.881  1.00  0.00     0.026 H 
BRANCH  16  19
ATOM     19  C   UNL A   1      30.434  25.464  24.834  1.00  0.00    -0.065 C 
ATOM     20  H   UNL A   1      29.473  25.622  24.392  1.00  0.00     0.023 H 
ATOM     21  H   UNL A   1      30.971  24.731  24.269  1.00  0.00     0.023 H 
ATOM     22  H   UNL A   1      30.982  26.383  24.834  1.00  0.00     0.023 H 
ENDBRANCH  16  19
ENDBRANCH  13  16
ENDBRANCH  10  13
ENDBRANCH   8  10
BRANCH   8  23
ATOM     23  S   UNL A   1      34.285  24.577  25.745  1.00  0.00    -0.073 SA
BRANCH  23  24
ATOM     24  C   UNL A   1      33.733  24.630  24.087  1.00  0.00     0.195 A 
ATOM     25  N   UNL A   1      33.315  23.483  23.538  1.00  0.00    -0.187 NA
ATOM     26  N   UNL A   1      33.762  25.817  23.483  1.00  0.00    -0.187 NA
ATOM     27  C   UNL A   1      33.001  23.525  22.240  1.00  0.00     0.221 A 
ATOM     28  C   UNL A   1      33.398  25.836  22.202  1.00  0.00     0.221 A 
ATOM     29  C   UNL A   1      33.097  24.688  21.510  1.00  0.00     0.063 A 
ATOM     30  H   UNL A   1      32.950  24.698  20.489  1.00  0.00     0.074 H 
BRANCH  27  31
ATOM     31  O   UNL A   1      32.528  22.331  21.771  1.00  0.00    -0.477 OA
BRANCH  31  32
ATOM     32  C   UNL A   1      32.005  21.376  22.685  1.00  0.00     0.090 C 
ATOM     33  H   UNL A   1      30.961  21.577  22.807  1.00  0.00     0.071 H 
ATOM     34  H   UNL A   1      32.580  21.487  23.579  1.00  0.00     0.071 H 
BRANCH  32  35
ATOM     35  C   UNL A   1      32.155  19.892  22.273  1.00  0.00    -0.016 C 
ATOM     36  H   UNL A   1      32.717  19.864  21.363  1.00  0.00     0.030 H 
ATOM     37  H   UNL A   1      31.155  19.520  22.192  1.00  0.00     0.030 H 
BRANCH  35  38
ATOM     38  C   UNL A   1      32.850  18.965  23.279  1.00  0.00    -0.038 C 
ATOM     39  C   UNL A   1      32.156  18.902  24.646  1.00  0.00    -0.050 C 
ATOM     40  C   UNL A   1      33.023  17.534  22.751  1.00  0.00    -0.050 C 
ATOM     41  H   UNL A   1      33.813  19.412  23.410  1.00  0.00     0.030 H 
ATOM     42  C   UNL A   1      33.028  18.111  25.630  1.00  0.00    -0.053 C 
ATOM     43  H   UNL A   1      31.207  18.417  24.542  1.00  0.00     0.027 H 
ATOM     44  H   UNL A   1      32.010  19.895  25.017  1.00  0.00     0.027 H 
ATOM     45  C   UNL A   1      33.949  16.755  23.679  1.00  0.00    -0.053 C 
ATOM     46  H   UNL A   1      33.448  17.566  21.769  1.00  0.00     0.027 H 
ATOM     47  H   UNL A   1      32.069  17.052  22.714  1.00  0.00     0.027 H 
ATOM     48  C   UNL A   1      33.408  16.726  25.106  1.00  0.00    -0.053 C 
ATOM     49  H   UNL A   1      32.489  17.994  26.547  1.00  0.00     0.027 H 
ATOM     50  H   UNL A   1      33.935  18.663  25.770  1.00  0.00     0.027 H 
ATOM     51  H   UNL A   1      34.038  15.751  23.319  1.00  0.00     0.027 H 
ATOM     52  H   UNL A   1      34.903  17.239  23.689  1.00  0.00     0.027 H 
ATOM     53  H   UNL A   1      32.540  16.103  25.128  1.00  0.00     0.027 H 
ATOM     54  H   UNL A   1      34.188  16.348  25.735  1.00  0.00     0.027 H 
ENDBRANCH  35  38
ENDBRANCH  32  35
ENDBRANCH  31  32
ENDBRANCH  27  31
BRANCH  28  55
ATOM     55  O   UNL A   1      33.455  27.082  21.659  1.00  0.00    -0.477 OA
BRANCH  55  56
ATOM     56  C   UNL A   1      33.904  28.171  22.458  1.00  0.00     0.090 C 
ATOM     57  H   UNL A   1      34.488  28.837  21.859  1.00  0.00     0.071 H 
ATOM     58  H   UNL A   1      34.503  27.802  23.265  1.00  0.00     0.071 H 
BRANCH  56  59
ATOM     59  C   UNL A   1      32.689  28.920  23.021  1.00  0.00    -0.016 C 
ATOM     60  H   UNL A   1      31.819  28.540  22.527  1.00  0.00     0.030 H 
ATOM     61  H   UNL A   1      32.891  29.954  22.842  1.00  0.00     0.030 H 
BRANCH  59  62
ATOM     62  C   UNL A   1      32.446  28.812  24.548  1.00  0.00    -0.038 C 
ATOM     63  C   UNL A   1      33.672  28.338  25.356  1.00  0.00    -0.050 C 
ATOM     64  C   UNL A   1      31.711  30.045  25.087  1.00  0.00    -0.050 C 
ATOM     65  H   UNL A   1      31.768  27.999  24.704  1.00  0.00     0.030 H 
ATOM     66  C   UNL A   1      34.079  29.107  26.617  1.00  0.00    -0.053 C 
ATOM     67  H   UNL A   1      34.511  28.360  24.693  1.00  0.00     0.027 H 
ATOM     68  H   UNL A   1      33.377  27.379  25.728  1.00  0.00     0.027 H 
ATOM     69  C   UNL A   1      31.779  30.137  26.602  1.00  0.00    -0.053 C 
ATOM     70  H   UNL A   1      30.685  29.992  24.791  1.00  0.00     0.027 H 
ATOM     71  H   UNL A   1      32.190  30.914  24.684  1.00  0.00     0.027 H 
ATOM     72  C   UNL A   1      33.226  30.300  27.008  1.00  0.00    -0.053 C 
ATOM     73  H   UNL A   1      35.078  29.460  26.470  1.00  0.00     0.027 H 
ATOM     74  H   UNL A   1      33.958  28.407  27.418  1.00  0.00     0.027 H 
ATOM     75  H   UNL A   1      31.212  30.981  26.938  1.00  0.00     0.027 H 
ATOM     76  H   UNL A   1      31.371  29.251  27.042  1.00  0.00     0.027 H 
ATOM     77  H   UNL A   1      33.619  31.174  26.531  1.00  0.00     0.027 H 
ATOM     78  H   UNL A   1      33.256  30.384  28.074  1.00  0.00     0.027 H 
ENDBRANCH  59  62
ENDBRANCH  56  59
ENDBRANCH  55  56
ENDBRANCH  28  55
ENDBRANCH  23  24
ENDBRANCH   8  23
ENDBRANCH   5   8
ENDBRANCH   1   4
BRANCH   1  79
ATOM     79  C   UNL A   1      36.768  21.314  24.770  1.00  0.00    -0.036 C 
ATOM     80  H   UNL A   1      36.712  21.626  23.747  1.00  0.00     0.028 H 
ATOM     81  H   UNL A   1      37.314  20.400  24.883  1.00  0.00     0.028 H 
BRANCH  79  82
ATOM     82  C   UNL A   1      37.511  22.389  25.565  1.00  0.00    -0.052 C 
ATOM     83  H   UNL A   1      36.920  22.637  26.422  1.00  0.00     0.027 H 
ATOM     84  H   UNL A   1      37.654  23.214  24.899  1.00  0.00     0.027 H 
BRANCH  82  85
ATOM     85  C   UNL A   1      38.905  21.976  26.049  1.00  0.00    -0.052 C 
ATOM     86  H   UNL A   1      38.870  21.880  27.115  1.00  0.00     0.027 H 
ATOM     87  H   UNL A   1      39.575  22.739  25.712  1.00  0.00     0.027 H 
BRANCH  85  88
ATOM     88  C   UNL A   1      39.434  20.659  25.471  1.00  0.00    -0.036 C 
ATOM     89  H   UNL A   1      40.313  20.875  24.901  1.00  0.00     0.028 H 
ATOM     90  H   UNL A   1      38.640  20.248  24.884  1.00  0.00     0.028 H 
BRANCH  88  91
ATOM     91  C   UNL A   1      39.792  19.601  26.511  1.00  0.00     0.018 C 
ATOM     92  H   UNL A   1      38.960  18.939  26.630  1.00  0.00     0.049 H 
ATOM     93  H   UNL A   1      40.023  20.104  27.427  1.00  0.00     0.049 H 
BRANCH  91  94
ATOM     94  N   UNL A   1      40.958  18.823  26.121  1.00  0.00    -0.352 N 
ATOM     95  C   UNL A   1      42.235  19.234  25.870  1.00  0.00     0.251 C 
ATOM     96  H   UNL A   1      40.801  17.857  26.022  1.00  0.00     0.163 HD
ATOM     97  O   UNL A   1      43.048  18.447  25.375  1.00  0.00    -0.269 OA
BRANCH  95  98
ATOM     98  C   UNL A   1      42.655  20.615  26.174  1.00  0.00     0.039 A 
ATOM     99  C   UNL A   1      43.063  21.436  25.120  1.00  0.00    -0.049 A 
ATOM    100  C   UNL A   1      42.691  21.090  27.490  1.00  0.00    -0.049 A 
ATOM    101  C   UNL A   1      43.471  22.745  25.378  1.00  0.00    -0.053 A 
ATOM    102  H   UNL A   1      43.064  21.076  24.153  1.00  0.00     0.063 H 
ATOM    103  C   UNL A   1      43.042  22.414  27.741  1.00  0.00    -0.053 A 
ATOM    104  H   UNL A   1      42.456  20.459  28.273  1.00  0.00     0.063 H 
ATOM    105  C   UNL A   1      43.444  23.249  26.688  1.00  0.00    -0.014 A 
ATOM    106  H   UNL A   1      43.792  23.345  24.603  1.00  0.00     0.063 H 
ATOM    107  H   UNL A   1      43.006  22.782  28.704  1.00  0.00     0.063 H 
BRANCH 105 108
ATOM    108  C   UNL A   1      43.841  24.653  26.961  1.00  0.00     0.031 A 
ATOM    109  C   UNL A   1      42.826  25.650  27.442  1.00  0.00     0.074 A 
ATOM    110  C   UNL A   1      45.112  25.033  26.739  1.00  0.00     0.049 A 
ATOM    111  N   UNL A   1      42.984  26.917  27.731  1.00  0.00    -0.248 NA
ATOM    112  C   UNL A   1      41.444  25.168  27.596  1.00  0.00    -0.034 C 
ATOM    113  C   UNL A   1      46.172  24.169  26.216  1.00  0.00    -0.036 A 
ATOM    114  N   UNL A   1      45.728  26.245  26.920  1.00  0.00    -0.354 N 
ATOM    115  C   UNL A   1      41.727  27.384  28.088  1.00  0.00     0.074 A 
ATOM    116  C   UNL A   1      40.805  26.279  27.935  1.00  0.00    -0.034 C 
ATOM    117  H   UNL A   1      41.070  24.214  27.471  1.00  0.00     0.065 H 
ATOM    118  C   UNL A   1      47.314  24.873  26.141  1.00  0.00    -0.036 A 
ATOM    119  H   UNL A   1      46.060  23.179  25.949  1.00  0.00     0.065 H 
ATOM    120  C   UNL A   1      47.060  26.239  26.588  1.00  0.00     0.049 A 
ATOM    121  H   UNL A   1      45.260  27.043  27.256  1.00  0.00     0.167 HD
ATOM    122  C   UNL A   1      41.377  28.618  28.524  1.00  0.00     0.037 A 
ATOM    123  H   UNL A   1      39.784  26.346  28.074  1.00  0.00     0.065 H 
ATOM    124  H   UNL A   1      48.223  24.507  25.818  1.00  0.00     0.065 H 
ATOM    125  C   UNL A   1      47.975  27.225  26.644  1.00  0.00     0.037 A 
ATOM    126  C   UNL A   1      42.301  29.707  28.704  1.00  0.00     0.049 A 
ATOM    127  C   UNL A   1      47.567  28.574  27.167  1.00  0.00     0.074 A 
ATOM    128  C   UNL A   1      42.058  30.973  29.205  1.00  0.00    -0.036 A 
ATOM    129  N   UNL A   1      43.651  29.654  28.387  1.00  0.00    -0.354 N 
ATOM    130  N   UNL A   1      46.390  28.983  27.576  1.00  0.00    -0.248 NA
ATOM    131  C   UNL A   1      48.620  29.596  27.249  1.00  0.00    -0.034 C 
ATOM    132  C   UNL A   1      43.253  31.700  29.159  1.00  0.00    -0.036 A 
ATOM    133  H   UNL A   1      41.152  31.322  29.553  1.00  0.00     0.065 H 
ATOM    134  C   UNL A   1      44.250  30.872  28.667  1.00  0.00     0.049 A 
ATOM    135  H   UNL A   1      44.115  28.868  28.019  1.00  0.00     0.167 HD
ATOM    136  C   UNL A   1      46.564  30.299  27.981  1.00  0.00     0.074 A 
ATOM    137  C   UNL A   1      47.964  30.614  27.788  1.00  0.00    -0.034 C 
ATOM    138  H   UNL A   1      49.609  29.538  26.962  1.00  0.00     0.065 H 
ATOM    139  H   UNL A   1      43.373  32.684  29.444  1.00  0.00     0.065 H 
ATOM    140  C   UNL A   1      45.645  31.169  28.468  1.00  0.00     0.037 A 
ATOM    141  H   UNL A   1      48.396  31.516  28.039  1.00  0.00     0.065 H 
BRANCH 122 142
ATOM    142  C   UNL A   1      39.931  28.856  28.847  1.00  0.00     0.064 A 
ATOM    143  C   UNL A   1      39.419  28.629  30.133  1.00  0.00     0.173 A 
ATOM    144  C   UNL A   1      39.056  29.354  27.870  1.00  0.00     0.173 A 
ATOM    145  F   UNL A   1      40.212  28.140  31.098  1.00  0.00    -0.203 F 
ATOM    146  C   UNL A   1      38.079  28.870  30.423  1.00  0.00     0.198 A 
ATOM    147  C   UNL A   1      37.723  29.620  28.171  1.00  0.00     0.198 A 
ATOM    148  F   UNL A   1      39.496  29.593  26.625  1.00  0.00    -0.203 F 
ATOM    149  F   UNL A   1      37.602  28.606  31.648  1.00  0.00    -0.200 F 
ATOM    150  C   UNL A   1      37.234  29.371  29.445  1.00  0.00     0.200 A 
ATOM    151  F   UNL A   1      36.910  30.115  27.227  1.00  0.00    -0.200 F 
ATOM    152  F   UNL A   1      35.946  29.610  29.728  1.00  0.00    -0.200 F 
ENDBRANCH 122 142
BRANCH 125 153
ATOM    153  C   UNL A   1      49.374  26.958  26.230  1.00  0.00     0.064 A 
ATOM    154  C   UNL A   1      49.769  27.101  24.893  1.00  0.00     0.173 A 
ATOM    155  C   UNL A   1      50.345  26.557  27.159  1.00  0.00     0.173 A 
ATOM    156  F   UNL A   1      48.870  27.464  23.965  1.00  0.00    -0.203 F 
ATOM    157  C   UNL A   1      51.077  26.834  24.496  1.00  0.00     0.198 A 
ATOM    158  C   UNL A   1      51.659  26.315  26.766  1.00  0.00     0.198 A 
ATOM    159  F   UNL A   1      50.018  26.411  28.451  1.00  0.00    -0.203 F 
ATOM    160  F   UNL A   1      51.417  26.938  23.204  1.00  0.00    -0.200 F 
ATOM    161  C   UNL A   1      52.023  26.446  25.434  1.00  0.00     0.200 A 
ATOM    162  F   UNL A   1      52.573  25.951  27.675  1.00  0.00    -0.200 F 
ATOM    163  F   UNL A   1      53.282  26.191  25.052  1.00  0.00    -0.200 F 
ENDBRANCH 125 153
BRANCH 140 164
ATOM    164  C   UNL A   1      46.133  32.536  28.840  1.00  0.00     0.064 A 
ATOM    165  C   UNL A   1      46.609  32.818  30.129  1.00  0.00     0.173 A 
ATOM    166  C   UNL A   1      46.146  33.570  27.892  1.00  0.00     0.173 A 
ATOM    167  F   UNL A   1      46.601  31.866  31.075  1.00  0.00    -0.203 F 
ATOM    168  C   UNL A   1      47.053  34.094  30.464  1.00  0.00     0.198 A 
ATOM    169  C   UNL A   1      46.616  34.838  28.223  1.00  0.00     0.198 A 
ATOM    170  F   UNL A   1      45.706  33.348  26.645  1.00  0.00    -0.203 F 
ATOM    171  F   UNL A   1      47.458  34.354  31.714  1.00  0.00    -0.200 F 
ATOM    172  C   UNL A   1      47.062  35.101  29.509  1.00  0.00     0.200 A 
ATOM    173  F   UNL A   1      46.633  35.807  27.297  1.00  0.00    -0.200 F 
ATOM    174  F   UNL A   1      47.490  36.328  29.833  1.00  0.00    -0.200 F 
ENDBRANCH 140 164
ENDBRANCH 105 108
ENDBRANCH  95  98
ENDBRANCH  91  94
ENDBRANCH  88  91
ENDBRANCH  85  88
ENDBRANCH  82  85
ENDBRANCH  79  82
ENDBRANCH   1  79
TORSDOF 27
ENDMDL
MODEL 4
REMARK VINA RESULT:     -10.7      2.490      8.168
REMARK SMILES CCCC[C@@H](Sc1nc(OCCC2CCCCC2)cc(OCCC2CCCCC2)n1)C(=O)NCCCCCCNC(=O)c1ccc(-c2c3nc(c(-c4c(F)c(F)c(F)c(F)c4F)c4ccc([nH]4)c(-c4c(F)c(F)c(F)c(F)c4F)c4nc(c(-c5c(F)c(F)c(F)c(F)c5F)c5ccc2[nH]5)C=C4)C=C3)cc1
REMARK SMILES IDX 34 1 33 4 31 5 32 6 5 8 4 10 3 13 2 16 1 19 6 23 7 24 8 25
REMARK SMILES IDX 30 26 9 27 20 28 19 29 10 31 11 32 12 35 13 38 14 39 18 40
REMARK SMILES IDX 15 42 17 45 16 48 21 55 22 56 23 59 24 62 25 63 29 64 26 66
REMARK SMILES IDX 28 69 27 72 35 79 36 82 37 85 38 88 39 91 40 94 41 95 42 97
REMARK SMILES IDX 43 98 44 99 105 100 45 101 104 103 46 105 47 108 48 109
REMARK SMILES IDX 98 110 49 111 103 112 97 113 99 114 50 115 102 116 96 118
REMARK SMILES IDX 95 120 51 122 83 125 63 126 82 127 64 128 67 129 81 130
REMARK SMILES IDX 100 131 65 132 66 134 80 136 101 137 68 140 52 142 53 143
REMARK SMILES IDX 61 144 54 145 55 146 59 147 62 148 56 149 57 150 60 151
REMARK SMILES IDX 58 152 84 153 85 154 93 155 86 156 87 157 91 158 94 159
REMARK SMILES IDX 88 160 89 161 92 162 90 163 69 164 70 165 78 166 71 167
REMARK SMILES IDX 72 168 76 169 79 170 73 171 74 172 77 173 75 174
REMARK H PARENT 34 2 34 3 33 7 5 9 4 11 4 12 3 14 3 15 2 17 2 18 1 20 1 21
REMARK H PARENT 1 22 19 30 11 33 11 34 12 36 12 37 13 41 14 43 14 44 18 46
REMARK H PARENT 18 47 15 49 15 50 17 51 17 52 16 53 16 54 22 57 22 58 23 60
REMARK H PARENT 23 61 24 65 25 67 25 68 29 70 29 71 26 73 26 74 28 75 28 76
REMARK H PARENT 27 77 27 78 35 80 35 81 36 83 36 84 37 86 37 87 38 89 38 90
REMARK H PARENT 39 92 39 93 40 96 44 102 105 104 45 106 104 107 103 117 97 119
REMARK H PARENT 99 121 102 123 96 124 64 133 67 135 100 138 65 139 101 141
REMARK Flexibility Score: inf
ROOT
ATOM      1  C   UNL A   1      33.836  28.218  26.560  1.00  0.00     0.017 C 
ATOM      2  H   UNL A   1      34.696  28.429  27.160  1.00  0.00     0.049 H 
ATOM      3  H   UNL A   1      33.627  27.168  26.558  1.00  0.00     0.049 H 
ENDROOT
BRANCH   1   4
ATOM      4  N   UNL A   1      34.096  28.638  25.192  1.00  0.00    -0.355 N 
ATOM      5  C   UNL A   1      33.703  28.073  24.009  1.00  0.00     0.233 C 
ATOM      6  O   UNL A   1      34.044  28.632  22.964  1.00  0.00    -0.274 OA
ATOM      7  H   UNL A   1      34.638  29.455  25.103  1.00  0.00     0.163 HD
BRANCH   5   8
ATOM      8  C   UNL A   1      32.893  26.765  23.983  1.00  0.00     0.091 C 
ATOM      9  H   UNL A   1      32.902  26.141  24.853  1.00  0.00     0.052 H 
BRANCH   8  10
ATOM     10  C   UNL A   1      31.387  27.117  23.927  1.00  0.00    -0.032 C 
ATOM     11  H   UNL A   1      30.851  26.260  24.275  1.00  0.00     0.028 H 
ATOM     12  H   UNL A   1      31.308  28.004  24.520  1.00  0.00     0.028 H 
BRANCH  10  13
ATOM     13  C   UNL A   1      30.769  27.518  22.580  1.00  0.00    -0.052 C 
ATOM     14  H   UNL A   1      31.551  27.930  21.978  1.00  0.00     0.027 H 
ATOM     15  H   UNL A   1      30.329  26.618  22.202  1.00  0.00     0.027 H 
BRANCH  13  16
ATOM     16  C   UNL A   1      29.627  28.530  22.606  1.00  0.00    -0.056 C 
ATOM     17  H   UNL A   1      28.796  28.115  22.077  1.00  0.00     0.026 H 
ATOM     18  H   UNL A   1      29.399  28.722  23.633  1.00  0.00     0.026 H 
BRANCH  16  19
ATOM     19  C   UNL A   1      29.987  29.861  21.970  1.00  0.00    -0.065 C 
ATOM     20  H   UNL A   1      29.602  30.658  22.571  1.00  0.00     0.023 H 
ATOM     21  H   UNL A   1      29.561  29.915  20.990  1.00  0.00     0.023 H 
ATOM     22  H   UNL A   1      31.051  29.948  21.901  1.00  0.00     0.023 H 
ENDBRANCH  16  19
ENDBRANCH  13  16
ENDBRANCH  10  13
ENDBRANCH   8  10
BRANCH   8  23
ATOM     23  S   UNL A   1      33.709  25.723  22.684  1.00  0.00    -0.073 SA
BRANCH  23  24
ATOM     24  C   UNL A   1      34.145  24.305  23.609  1.00  0.00     0.195 A 
ATOM     25  N   UNL A   1      33.230  23.814  24.454  1.00  0.00    -0.187 NA
ATOM     26  N   UNL A   1      35.363  23.807  23.403  1.00  0.00    -0.187 NA
ATOM     27  C   UNL A   1      33.623  22.797  25.228  1.00  0.00     0.221 A 
ATOM     28  C   UNL A   1      35.709  22.764  24.157  1.00  0.00     0.221 A 
ATOM     29  C   UNL A   1      34.897  22.282  25.155  1.00  0.00     0.063 A 
ATOM     30  H   UNL A   1      35.229  21.566  25.820  1.00  0.00     0.074 H 
BRANCH  27  31
ATOM     31  O   UNL A   1      32.617  22.315  26.018  1.00  0.00    -0.477 OA
BRANCH  31  32
ATOM     32  C   UNL A   1      32.050  21.042  25.734  1.00  0.00     0.090 C 
ATOM     33  H   UNL A   1      30.989  21.122  25.854  1.00  0.00     0.071 H 
ATOM     34  H   UNL A   1      32.517  20.360  26.412  1.00  0.00     0.071 H 
BRANCH  32  35
ATOM     35  C   UNL A   1      32.324  20.480  24.319  1.00  0.00    -0.016 C 
ATOM     36  H   UNL A   1      32.942  21.186  23.804  1.00  0.00     0.030 H 
ATOM     37  H   UNL A   1      31.358  20.331  23.884  1.00  0.00     0.030 H 
BRANCH  35  38
ATOM     38  C   UNL A   1      33.017  19.113  24.244  1.00  0.00    -0.038 C 
ATOM     39  C   UNL A   1      32.750  18.215  25.459  1.00  0.00    -0.050 C 
ATOM     40  C   UNL A   1      32.660  18.331  22.971  1.00  0.00    -0.050 C 
ATOM     41  H   UNL A   1      34.058  19.358  24.227  1.00  0.00     0.030 H 
ATOM     42  C   UNL A   1      33.636  16.964  25.379  1.00  0.00    -0.053 C 
ATOM     43  H   UNL A   1      31.721  17.922  25.468  1.00  0.00     0.027 H 
ATOM     44  H   UNL A   1      32.975  18.754  26.356  1.00  0.00     0.027 H 
ATOM     45  C   UNL A   1      33.582  17.124  22.836  1.00  0.00    -0.053 C 
ATOM     46  H   UNL A   1      32.779  18.968  22.118  1.00  0.00     0.027 H 
ATOM     47  H   UNL A   1      31.645  18.000  23.032  1.00  0.00     0.027 H 
ATOM     48  C   UNL A   1      33.483  16.212  24.056  1.00  0.00    -0.053 C 
ATOM     49  H   UNL A   1      33.371  16.305  26.180  1.00  0.00     0.027 H 
ATOM     50  H   UNL A   1      34.654  17.286  25.451  1.00  0.00     0.027 H 
ATOM     51  H   UNL A   1      33.304  16.570  21.964  1.00  0.00     0.027 H 
ATOM     52  H   UNL A   1      34.589  17.475  22.757  1.00  0.00     0.027 H 
ATOM     53  H   UNL A   1      32.527  15.732  24.046  1.00  0.00     0.027 H 
ATOM     54  H   UNL A   1      34.286  15.507  23.993  1.00  0.00     0.027 H 
ENDBRANCH  35  38
ENDBRANCH  32  35
ENDBRANCH  31  32
ENDBRANCH  27  31
BRANCH  28  55
ATOM     55  O   UNL A   1      36.964  22.315  23.887  1.00  0.00    -0.477 OA
BRANCH  55  56
ATOM     56  C   UNL A   1      37.632  21.495  24.840  1.00  0.00     0.090 C 
ATOM     57  H   UNL A   1      38.208  20.752  24.330  1.00  0.00     0.071 H 
ATOM     58  H   UNL A   1      36.912  21.016  25.469  1.00  0.00     0.071 H 
BRANCH  56  59
ATOM     59  C   UNL A   1      38.562  22.368  25.693  1.00  0.00    -0.016 C 
ATOM     60  H   UNL A   1      37.947  22.938  26.359  1.00  0.00     0.030 H 
ATOM     61  H   UNL A   1      39.122  22.948  24.992  1.00  0.00     0.030 H 
BRANCH  59  62
ATOM     62  C   UNL A   1      39.622  21.631  26.549  1.00  0.00    -0.038 C 
ATOM     63  C   UNL A   1      39.828  20.149  26.172  1.00  0.00    -0.050 C 
ATOM     64  C   UNL A   1      40.893  22.472  26.714  1.00  0.00    -0.050 C 
ATOM     65  H   UNL A   1      39.224  21.540  27.538  1.00  0.00     0.030 H 
ATOM     66  C   UNL A   1      41.251  19.614  25.985  1.00  0.00    -0.053 C 
ATOM     67  H   UNL A   1      39.309  19.986  25.250  1.00  0.00     0.027 H 
ATOM     68  H   UNL A   1      39.468  19.616  27.028  1.00  0.00     0.027 H 
ATOM     69  C   UNL A   1      42.064  21.651  27.227  1.00  0.00    -0.053 C 
ATOM     70  H   UNL A   1      40.697  23.262  27.408  1.00  0.00     0.027 H 
ATOM     71  H   UNL A   1      41.159  22.856  25.750  1.00  0.00     0.027 H 
ATOM     72  C   UNL A   1      42.393  20.592  26.200  1.00  0.00    -0.053 C 
ATOM     73  H   UNL A   1      41.327  19.246  24.983  1.00  0.00     0.027 H 
ATOM     74  H   UNL A   1      41.372  18.876  26.750  1.00  0.00     0.027 H 
ATOM     75  H   UNL A   1      42.913  22.286  27.375  1.00  0.00     0.027 H 
ATOM     76  H   UNL A   1      41.810  21.192  28.160  1.00  0.00     0.027 H 
ATOM     77  H   UNL A   1      42.613  21.073  25.270  1.00  0.00     0.027 H 
ATOM     78  H   UNL A   1      43.230  20.035  26.565  1.00  0.00     0.027 H 
ENDBRANCH  59  62
ENDBRANCH  56  59
ENDBRANCH  55  56
ENDBRANCH  28  55
ENDBRANCH  23  24
ENDBRANCH   8  23
ENDBRANCH   5   8
ENDBRANCH   1   4
BRANCH   1  79
ATOM     79  C   UNL A   1      32.633  28.949  27.141  1.00  0.00    -0.036 C 
ATOM     80  H   UNL A   1      32.593  28.753  28.192  1.00  0.00     0.028 H 
ATOM     81  H   UNL A   1      31.765  28.586  26.629  1.00  0.00     0.028 H 
BRANCH  79  82
ATOM     82  C   UNL A   1      32.682  30.464  26.931  1.00  0.00    -0.052 C 
ATOM     83  H   UNL A   1      31.779  30.883  27.321  1.00  0.00     0.027 H 
ATOM     84  H   UNL A   1      32.798  30.619  25.878  1.00  0.00     0.027 H 
BRANCH  82  85
ATOM     85  C   UNL A   1      33.866  31.165  27.605  1.00  0.00    -0.052 C 
ATOM     86  H   UNL A   1      34.761  30.856  27.107  1.00  0.00     0.027 H 
ATOM     87  H   UNL A   1      33.832  30.879  28.636  1.00  0.00     0.027 H 
BRANCH  85  88
ATOM     88  C   UNL A   1      33.815  32.696  27.586  1.00  0.00    -0.036 C 
ATOM     89  H   UNL A   1      34.319  33.035  26.705  1.00  0.00     0.028 H 
ATOM     90  H   UNL A   1      34.280  33.024  28.491  1.00  0.00     0.028 H 
BRANCH  88  91
ATOM     91  C   UNL A   1      32.410  33.290  27.585  1.00  0.00     0.018 C 
ATOM     92  H   UNL A   1      31.810  32.759  28.294  1.00  0.00     0.049 H 
ATOM     93  H   UNL A   1      32.013  33.199  26.595  1.00  0.00     0.049 H 
BRANCH  91  94
ATOM     94  N   UNL A   1      32.413  34.702  27.939  1.00  0.00    -0.352 N 
ATOM     95  C   UNL A   1      33.161  35.365  28.868  1.00  0.00     0.251 C 
ATOM     96  H   UNL A   1      31.781  35.261  27.433  1.00  0.00     0.163 HD
ATOM     97  O   UNL A   1      32.893  36.538  29.149  1.00  0.00    -0.269 OA
BRANCH  95  98
ATOM     98  C   UNL A   1      34.281  34.693  29.552  1.00  0.00     0.039 A 
ATOM     99  C   UNL A   1      34.024  34.013  30.746  1.00  0.00    -0.049 A 
ATOM    100  C   UNL A   1      35.586  34.765  29.051  1.00  0.00    -0.049 A 
ATOM    101  C   UNL A   1      35.066  33.373  31.417  1.00  0.00    -0.053 A 
ATOM    102  H   UNL A   1      33.067  33.985  31.129  1.00  0.00     0.063 H 
ATOM    103  C   UNL A   1      36.614  34.078  29.691  1.00  0.00    -0.053 A 
ATOM    104  H   UNL A   1      35.785  35.328  28.208  1.00  0.00     0.063 H 
ATOM    105  C   UNL A   1      36.365  33.384  30.884  1.00  0.00    -0.014 A 
ATOM    106  H   UNL A   1      34.881  32.888  32.309  1.00  0.00     0.063 H 
ATOM    107  H   UNL A   1      37.563  34.079  29.285  1.00  0.00     0.063 H 
BRANCH 105 108
ATOM    108  C   UNL A   1      37.467  32.672  31.575  1.00  0.00     0.031 A 
ATOM    109  C   UNL A   1      38.153  31.509  30.917  1.00  0.00     0.074 A 
ATOM    110  C   UNL A   1      37.823  33.055  32.816  1.00  0.00     0.049 A 
ATOM    111  N   UNL A   1      39.132  30.765  31.365  1.00  0.00    -0.248 NA
ATOM    112  C   UNL A   1      37.658  31.114  29.589  1.00  0.00    -0.034 C 
ATOM    113  C   UNL A   1      37.190  34.131  33.580  1.00  0.00    -0.036 A 
ATOM    114  N   UNL A   1      38.800  32.581  33.652  1.00  0.00    -0.354 N 
ATOM    115  C   UNL A   1      39.361  29.810  30.385  1.00  0.00     0.074 A 
ATOM    116  C   UNL A   1      38.390  30.038  29.336  1.00  0.00    -0.034 C 
ATOM    117  H   UNL A   1      36.931  31.558  29.007  1.00  0.00     0.065 H 
ATOM    118  C   UNL A   1      37.811  34.251  34.765  1.00  0.00    -0.036 A 
ATOM    119  H   UNL A   1      36.395  34.706  33.260  1.00  0.00     0.065 H 
ATOM    120  C   UNL A   1      38.868  33.247  34.851  1.00  0.00     0.049 A 
ATOM    121  H   UNL A   1      39.397  31.833  33.416  1.00  0.00     0.167 HD
ATOM    122  C   UNL A   1      40.311  28.845  30.351  1.00  0.00     0.037 A 
ATOM    123  H   UNL A   1      38.282  29.442  28.500  1.00  0.00     0.065 H 
ATOM    124  H   UNL A   1      37.578  34.940  35.497  1.00  0.00     0.065 H 
ATOM    125  C   UNL A   1      39.694  33.070  35.899  1.00  0.00     0.037 A 
ATOM    126  C   UNL A   1      41.295  28.640  31.382  1.00  0.00     0.049 A 
ATOM    127  C   UNL A   1      40.763  32.016  35.820  1.00  0.00     0.074 A 
ATOM    128  C   UNL A   1      42.341  27.734  31.411  1.00  0.00    -0.036 A 
ATOM    129  N   UNL A   1      41.353  29.355  32.569  1.00  0.00    -0.354 N 
ATOM    130  N   UNL A   1      41.020  31.169  34.853  1.00  0.00    -0.248 NA
ATOM    131  C   UNL A   1      41.664  31.901  36.975  1.00  0.00    -0.034 C 
ATOM    132  C   UNL A   1      43.011  27.877  32.631  1.00  0.00    -0.036 A 
ATOM    133  H   UNL A   1      42.585  27.068  30.662  1.00  0.00     0.065 H 
ATOM    134  C   UNL A   1      42.407  28.901  33.345  1.00  0.00     0.049 A 
ATOM    135  H   UNL A   1      40.737  30.080  32.823  1.00  0.00     0.167 HD
ATOM    136  C   UNL A   1      42.122  30.436  35.272  1.00  0.00     0.074 A 
ATOM    137  C   UNL A   1      42.497  30.952  36.572  1.00  0.00    -0.034 C 
ATOM    138  H   UNL A   1      41.652  32.422  37.865  1.00  0.00     0.065 H 
ATOM    139  H   UNL A   1      43.819  27.318  32.946  1.00  0.00     0.065 H 
ATOM    140  C   UNL A   1      42.765  29.425  34.637  1.00  0.00     0.037 A 
ATOM    141  H   UNL A   1      43.310  30.624  37.115  1.00  0.00     0.065 H 
BRANCH 122 142
ATOM    142  C   UNL A   1      40.338  27.938  29.157  1.00  0.00     0.064 A 
ATOM    143  C   UNL A   1      39.582  26.757  29.115  1.00  0.00     0.173 A 
ATOM    144  C   UNL A   1      41.097  28.272  28.025  1.00  0.00     0.173 A 
ATOM    145  F   UNL A   1      38.850  26.387  30.176  1.00  0.00    -0.203 F 
ATOM    146  C   UNL A   1      39.603  25.933  27.993  1.00  0.00     0.198 A 
ATOM    147  C   UNL A   1      41.094  27.460  26.894  1.00  0.00     0.198 A 
ATOM    148  F   UNL A   1      41.834  29.393  28.011  1.00  0.00    -0.203 F 
ATOM    149  F   UNL A   1      38.905  24.788  27.991  1.00  0.00    -0.200 F 
ATOM    150  C   UNL A   1      40.352  26.287  26.882  1.00  0.00     0.200 A 
ATOM    151  F   UNL A   1      41.811  27.809  25.818  1.00  0.00    -0.200 F 
ATOM    152  F   UNL A   1      40.366  25.497  25.800  1.00  0.00    -0.200 F 
ENDBRANCH 122 142
BRANCH 125 153
ATOM    153  C   UNL A   1      39.568  33.941  37.093  1.00  0.00     0.064 A 
ATOM    154  C   UNL A   1      38.816  33.532  38.205  1.00  0.00     0.173 A 
ATOM    155  C   UNL A   1      40.192  35.194  37.152  1.00  0.00     0.173 A 
ATOM    156  F   UNL A   1      38.184  32.349  38.186  1.00  0.00    -0.203 F 
ATOM    157  C   UNL A   1      38.680  34.353  39.321  1.00  0.00     0.198 A 
ATOM    158  C   UNL A   1      40.076  36.004  38.279  1.00  0.00     0.198 A 
ATOM    159  F   UNL A   1      40.926  35.627  36.116  1.00  0.00    -0.203 F 
ATOM    160  F   UNL A   1      37.922  33.957  40.353  1.00  0.00    -0.200 F 
ATOM    161  C   UNL A   1      39.314  35.586  39.360  1.00  0.00     0.200 A 
ATOM    162  F   UNL A   1      40.698  37.190  38.318  1.00  0.00    -0.200 F 
ATOM    163  F   UNL A   1      39.183  36.375  40.436  1.00  0.00    -0.200 F 
ENDBRANCH 125 153
BRANCH 140 164
ATOM    164  C   UNL A   1      43.949  28.827  35.335  1.00  0.00     0.064 A 
ATOM    165  C   UNL A   1      43.809  27.746  36.218  1.00  0.00     0.173 A 
ATOM    166  C   UNL A   1      45.239  29.326  35.102  1.00  0.00     0.173 A 
ATOM    167  F   UNL A   1      42.593  27.245  36.485  1.00  0.00    -0.203 F 
ATOM    168  C   UNL A   1      44.916  27.204  36.866  1.00  0.00     0.198 A 
ATOM    169  C   UNL A   1      46.347  28.764  35.731  1.00  0.00     0.198 A 
ATOM    170  F   UNL A   1      45.425  30.354  34.263  1.00  0.00    -0.203 F 
ATOM    171  F   UNL A   1      44.754  26.204  37.742  1.00  0.00    -0.200 F 
ATOM    172  C   UNL A   1      46.184  27.709  36.617  1.00  0.00     0.200 A 
ATOM    173  F   UNL A   1      47.572  29.246  35.483  1.00  0.00    -0.200 F 
ATOM    174  F   UNL A   1      47.248  27.186  37.240  1.00  0.00    -0.200 F 
ENDBRANCH 140 164
ENDBRANCH 105 108
ENDBRANCH  95  98
ENDBRANCH  91  94
ENDBRANCH  88  91
ENDBRANCH  85  88
ENDBRANCH  82  85
ENDBRANCH  79  82
ENDBRANCH   1  79
TORSDOF 27
ENDMDL
MODEL 5
REMARK VINA RESULT:     -10.7      5.581     11.075
REMARK SMILES CCCC[C@@H](Sc1nc(OCCC2CCCCC2)cc(OCCC2CCCCC2)n1)C(=O)NCCCCCCNC(=O)c1ccc(-c2c3nc(c(-c4c(F)c(F)c(F)c(F)c4F)c4ccc([nH]4)c(-c4c(F)c(F)c(F)c(F)c4F)c4nc(c(-c5c(F)c(F)c(F)c(F)c5F)c5ccc2[nH]5)C=C4)C=C3)cc1
REMARK SMILES IDX 34 1 33 4 31 5 32 6 5 8 4 10 3 13 2 16 1 19 6 23 7 24 8 25
REMARK SMILES IDX 30 26 9 27 20 28 19 29 10 31 11 32 12 35 13 38 14 39 18 40
REMARK SMILES IDX 15 42 17 45 16 48 21 55 22 56 23 59 24 62 25 63 29 64 26 66
REMARK SMILES IDX 28 69 27 72 35 79 36 82 37 85 38 88 39 91 40 94 41 95 42 97
REMARK SMILES IDX 43 98 44 99 105 100 45 101 104 103 46 105 47 108 48 109
REMARK SMILES IDX 98 110 49 111 103 112 97 113 99 114 50 115 102 116 96 118
REMARK SMILES IDX 95 120 51 122 83 125 63 126 82 127 64 128 67 129 81 130
REMARK SMILES IDX 100 131 65 132 66 134 80 136 101 137 68 140 52 142 53 143
REMARK SMILES IDX 61 144 54 145 55 146 59 147 62 148 56 149 57 150 60 151
REMARK SMILES IDX 58 152 84 153 85 154 93 155 86 156 87 157 91 158 94 159
REMARK SMILES IDX 88 160 89 161 92 162 90 163 69 164 70 165 78 166 71 167
REMARK SMILES IDX 72 168 76 169 79 170 73 171 74 172 77 173 75 174
REMARK H PARENT 34 2 34 3 33 7 5 9 4 11 4 12 3 14 3 15 2 17 2 18 1 20 1 21
REMARK H PARENT 1 22 19 30 11 33 11 34 12 36 12 37 13 41 14 43 14 44 18 46
REMARK H PARENT 18 47 15 49 15 50 17 51 17 52 16 53 16 54 22 57 22 58 23 60
REMARK H PARENT 23 61 24 65 25 67 25 68 29 70 29 71 26 73 26 74 28 75 28 76
REMARK H PARENT 27 77 27 78 35 80 35 81 36 83 36 84 37 86 37 87 38 89 38 90
REMARK H PARENT 39 92 39 93 40 96 44 102 105 104 45 106 104 107 103 117 97 119
REMARK H PARENT 99 121 102 123 96 124 64 133 67 135 100 138 65 139 101 141
REMARK Flexibility Score: inf
ROOT
ATOM      1  C   UNL A   1      35.526  21.015  25.199  1.00  0.00     0.017 C 
ATOM      2  H   UNL A   1      34.850  21.587  24.598  1.00  0.00     0.049 H 
ATOM      3  H   UNL A   1      35.339  19.968  25.084  1.00  0.00     0.049 H 
ENDROOT
BRANCH   1   4
ATOM      4  N   UNL A   1      35.332  21.367  26.596  1.00  0.00    -0.355 N 
ATOM      5  C   UNL A   1      34.444  22.236  27.169  1.00  0.00     0.233 C 
ATOM      6  O   UNL A   1      34.467  22.355  28.397  1.00  0.00    -0.274 OA
ATOM      7  H   UNL A   1      35.933  20.910  27.228  1.00  0.00     0.163 HD
BRANCH   5   8
ATOM      8  C   UNL A   1      33.473  23.063  26.309  1.00  0.00     0.091 C 
ATOM      9  H   UNL A   1      33.069  22.618  25.423  1.00  0.00     0.052 H 
BRANCH   8  10
ATOM     10  C   UNL A   1      32.167  23.284  27.111  1.00  0.00    -0.032 C 
ATOM     11  H   UNL A   1      32.125  22.519  27.857  1.00  0.00     0.028 H 
ATOM     12  H   UNL A   1      32.248  24.290  27.463  1.00  0.00     0.028 H 
BRANCH  10  13
ATOM     13  C   UNL A   1      30.826  23.259  26.365  1.00  0.00    -0.052 C 
ATOM     14  H   UNL A   1      31.024  22.956  25.359  1.00  0.00     0.027 H 
ATOM     15  H   UNL A   1      30.210  22.591  26.930  1.00  0.00     0.027 H 
BRANCH  13  16
ATOM     16  C   UNL A   1      30.034  24.562  26.303  1.00  0.00    -0.056 C 
ATOM     17  H   UNL A   1      29.289  24.470  25.542  1.00  0.00     0.026 H 
ATOM     18  H   UNL A   1      29.607  24.718  27.272  1.00  0.00     0.026 H 
BRANCH  16  19
ATOM     19  C   UNL A   1      30.892  25.775  25.992  1.00  0.00    -0.065 C 
ATOM     20  H   UNL A   1      31.013  25.865  24.933  1.00  0.00     0.023 H 
ATOM     21  H   UNL A   1      31.852  25.662  26.451  1.00  0.00     0.023 H 
ATOM     22  H   UNL A   1      30.418  26.656  26.373  1.00  0.00     0.023 H 
ENDBRANCH  16  19
ENDBRANCH  13  16
ENDBRANCH  10  13
ENDBRANCH   8  10
BRANCH   8  23
ATOM     23  S   UNL A   1      34.486  24.479  25.670  1.00  0.00    -0.073 SA
BRANCH  23  24
ATOM     24  C   UNL A   1      33.882  24.620  24.036  1.00  0.00     0.195 A 
ATOM     25  N   UNL A   1      33.458  23.501  23.436  1.00  0.00    -0.187 NA
ATOM     26  N   UNL A   1      33.880  25.840  23.501  1.00  0.00    -0.187 NA
ATOM     27  C   UNL A   1      33.102  23.614  22.152  1.00  0.00     0.221 A 
ATOM     28  C   UNL A   1      33.475  25.927  22.234  1.00  0.00     0.221 A 
ATOM     29  C   UNL A   1      33.164  24.817  21.487  1.00  0.00     0.063 A 
ATOM     30  H   UNL A   1      32.984  24.883  20.474  1.00  0.00     0.074 H 
BRANCH  27  31
ATOM     31  O   UNL A   1      32.626  22.443  21.630  1.00  0.00    -0.477 OA
BRANCH  31  32
ATOM     32  C   UNL A   1      31.957  21.518  22.478  1.00  0.00     0.090 C 
ATOM     33  H   UNL A   1      30.913  21.753  22.459  1.00  0.00     0.071 H 
ATOM     34  H   UNL A   1      32.412  21.625  23.439  1.00  0.00     0.071 H 
BRANCH  32  35
ATOM     35  C   UNL A   1      32.112  20.025  22.106  1.00  0.00    -0.016 C 
ATOM     36  H   UNL A   1      32.704  19.973  21.216  1.00  0.00     0.030 H 
ATOM     37  H   UNL A   1      31.114  19.656  22.000  1.00  0.00     0.030 H 
BRANCH  35  38
ATOM     38  C   UNL A   1      32.769  19.118  23.155  1.00  0.00    -0.038 C 
ATOM     39  C   UNL A   1      32.189  19.283  24.567  1.00  0.00    -0.050 C 
ATOM     40  C   UNL A   1      32.717  17.631  22.777  1.00  0.00    -0.050 C 
ATOM     41  H   UNL A   1      33.788  19.444  23.168  1.00  0.00     0.030 H 
ATOM     42  C   UNL A   1      33.037  18.486  25.568  1.00  0.00    -0.053 C 
ATOM     43  H   UNL A   1      31.182  18.921  24.584  1.00  0.00     0.027 H 
ATOM     44  H   UNL A   1      32.200  20.319  24.837  1.00  0.00     0.027 H 
ATOM     45  C   UNL A   1      33.613  16.832  23.716  1.00  0.00    -0.053 C 
ATOM     46  H   UNL A   1      33.058  17.509  21.769  1.00  0.00     0.027 H 
ATOM     47  H   UNL A   1      31.710  17.279  22.860  1.00  0.00     0.027 H 
ATOM     48  C   UNL A   1      33.195  17.017  25.172  1.00  0.00    -0.053 C 
ATOM     49  H   UNL A   1      32.566  18.533  26.528  1.00  0.00     0.027 H 
ATOM     50  H   UNL A   1      34.013  18.923  25.582  1.00  0.00     0.027 H 
ATOM     51  H   UNL A   1      33.545  15.794  23.463  1.00  0.00     0.027 H 
ATOM     52  H   UNL A   1      34.618  17.183  23.605  1.00  0.00     0.027 H 
ATOM     53  H   UNL A   1      32.260  16.520  25.324  1.00  0.00     0.027 H 
ATOM     54  H   UNL A   1      33.971  16.603  25.782  1.00  0.00     0.027 H 
ENDBRANCH  35  38
ENDBRANCH  32  35
ENDBRANCH  31  32
ENDBRANCH  27  31
BRANCH  28  55
ATOM     55  O   UNL A   1      33.503  27.203  21.762  1.00  0.00    -0.477 OA
BRANCH  55  56
ATOM     56  C   UNL A   1      33.985  28.247  22.601  1.00  0.00     0.090 C 
ATOM     57  H   UNL A   1      34.602  28.908  22.030  1.00  0.00     0.071 H 
ATOM     58  H   UNL A   1      34.561  27.828  23.401  1.00  0.00     0.071 H 
BRANCH  56  59
ATOM     59  C   UNL A   1      32.794  29.023  23.177  1.00  0.00    -0.016 C 
ATOM     60  H   UNL A   1      31.925  28.739  22.621  1.00  0.00     0.030 H 
ATOM     61  H   UNL A   1      33.065  30.054  23.090  1.00  0.00     0.030 H 
BRANCH  59  62
ATOM     62  C   UNL A   1      32.480  28.811  24.679  1.00  0.00    -0.038 C 
ATOM     63  C   UNL A   1      33.652  28.233  25.500  1.00  0.00    -0.050 C 
ATOM     64  C   UNL A   1      31.765  30.027  25.280  1.00  0.00    -0.050 C 
ATOM     65  H   UNL A   1      31.768  28.014  24.745  1.00  0.00     0.030 H 
ATOM     66  C   UNL A   1      34.029  28.889  26.831  1.00  0.00    -0.053 C 
ATOM     67  H   UNL A   1      34.521  28.272  24.875  1.00  0.00     0.027 H 
ATOM     68  H   UNL A   1      33.308  27.260  25.785  1.00  0.00     0.027 H 
ATOM     69  C   UNL A   1      31.768  30.003  26.799  1.00  0.00    -0.053 C 
ATOM     70  H   UNL A   1      30.751  30.035  24.938  1.00  0.00     0.027 H 
ATOM     71  H   UNL A   1      32.290  30.905  24.964  1.00  0.00     0.027 H 
ATOM     72  C   UNL A   1      33.200  30.081  27.276  1.00  0.00    -0.053 C 
ATOM     73  H   UNL A   1      35.045  29.215  26.753  1.00  0.00     0.027 H 
ATOM     74  H   UNL A   1      33.849  28.136  27.571  1.00  0.00     0.027 H 
ATOM     75  H   UNL A   1      31.217  30.840  27.175  1.00  0.00     0.027 H 
ATOM     76  H   UNL A   1      31.311  29.103  27.153  1.00  0.00     0.027 H 
ATOM     77  H   UNL A   1      33.644  30.973  26.884  1.00  0.00     0.027 H 
ATOM     78  H   UNL A   1      33.187  30.084  28.346  1.00  0.00     0.027 H 
ENDBRANCH  59  62
ENDBRANCH  56  59
ENDBRANCH  55  56
ENDBRANCH  28  55
ENDBRANCH  23  24
ENDBRANCH   8  23
ENDBRANCH   5   8
ENDBRANCH   1   4
BRANCH   1  79
ATOM     79  C   UNL A   1      36.954  21.303  24.752  1.00  0.00    -0.036 C 
ATOM     80  H   UNL A   1      36.930  21.638  23.735  1.00  0.00     0.028 H 
ATOM     81  H   UNL A   1      37.509  20.394  24.864  1.00  0.00     0.028 H 
BRANCH  79  82
ATOM     82  C   UNL A   1      37.653  22.369  25.598  1.00  0.00    -0.052 C 
ATOM     83  H   UNL A   1      37.001  22.632  26.405  1.00  0.00     0.027 H 
ATOM     84  H   UNL A   1      37.862  23.187  24.941  1.00  0.00     0.027 H 
BRANCH  82  85
ATOM     85  C   UNL A   1      38.997  21.934  26.191  1.00  0.00    -0.052 C 
ATOM     86  H   UNL A   1      38.841  21.688  27.221  1.00  0.00     0.027 H 
ATOM     87  H   UNL A   1      39.666  22.756  26.046  1.00  0.00     0.027 H 
BRANCH  85  88
ATOM     88  C   UNL A   1      39.651  20.727  25.510  1.00  0.00    -0.036 C 
ATOM     89  H   UNL A   1      40.514  21.072  24.979  1.00  0.00     0.028 H 
ATOM     90  H   UNL A   1      38.906  20.300  24.872  1.00  0.00     0.028 H 
BRANCH  88  91
ATOM     91  C   UNL A   1      40.092  19.617  26.459  1.00  0.00     0.018 C 
ATOM     92  H   UNL A   1      39.327  18.870  26.497  1.00  0.00     0.049 H 
ATOM     93  H   UNL A   1      40.258  20.053  27.422  1.00  0.00     0.049 H 
BRANCH  91  94
ATOM     94  N   UNL A   1      41.335  18.992  26.030  1.00  0.00    -0.352 N 
ATOM     95  C   UNL A   1      42.569  19.546  25.842  1.00  0.00     0.251 C 
ATOM     96  H   UNL A   1      41.276  18.027  25.848  1.00  0.00     0.163 HD
ATOM     97  O   UNL A   1      43.462  18.886  25.300  1.00  0.00    -0.269 OA
BRANCH  95  98
ATOM     98  C   UNL A   1      42.845  20.930  26.268  1.00  0.00     0.039 A 
ATOM     99  C   UNL A   1      42.732  21.246  27.625  1.00  0.00    -0.049 A 
ATOM    100  C   UNL A   1      43.169  21.925  25.339  1.00  0.00    -0.049 A 
ATOM    101  C   UNL A   1      42.982  22.549  28.056  1.00  0.00    -0.053 A 
ATOM    102  H   UNL A   1      42.464  20.519  28.305  1.00  0.00     0.063 H 
ATOM    103  C   UNL A   1      43.475  23.211  25.777  1.00  0.00    -0.053 A 
ATOM    104  H   UNL A   1      43.183  21.705  24.330  1.00  0.00     0.063 H 
ATOM    105  C   UNL A   1      43.374  23.536  27.138  1.00  0.00    -0.014 A 
ATOM    106  H   UNL A   1      42.879  22.788  29.055  1.00  0.00     0.063 H 
ATOM    107  H   UNL A   1      43.777  23.928  25.098  1.00  0.00     0.063 H 
BRANCH 105 108
ATOM    108  C   UNL A   1      43.677  24.913  27.599  1.00  0.00     0.031 A 
ATOM    109  C   UNL A   1      45.101  25.376  27.729  1.00  0.00     0.074 A 
ATOM    110  C   UNL A   1      42.665  25.734  27.935  1.00  0.00     0.049 A 
ATOM    111  N   UNL A   1      45.560  26.539  28.116  1.00  0.00    -0.248 NA
ATOM    112  C   UNL A   1      46.148  24.395  27.405  1.00  0.00    -0.034 C 
ATOM    113  C   UNL A   1      41.246  25.377  27.907  1.00  0.00    -0.036 A 
ATOM    114  N   UNL A   1      42.674  27.034  28.369  1.00  0.00    -0.354 N 
ATOM    115  C   UNL A   1      46.943  26.426  28.094  1.00  0.00     0.074 A 
ATOM    116  C   UNL A   1      47.251  25.068  27.700  1.00  0.00    -0.034 C 
ATOM    117  H   UNL A   1      46.050  23.433  27.043  1.00  0.00     0.065 H 
ATOM    118  C   UNL A   1      40.519  26.441  28.285  1.00  0.00    -0.036 A 
ATOM    119  H   UNL A   1      40.865  24.456  27.639  1.00  0.00     0.065 H 
ATOM    120  C   UNL A   1      41.421  27.544  28.601  1.00  0.00     0.049 A 
ATOM    121  H   UNL A   1      43.501  27.553  28.503  1.00  0.00     0.167 HD
ATOM    122  C   UNL A   1      47.872  27.377  28.356  1.00  0.00     0.037 A 
ATOM    123  H   UNL A   1      48.205  24.676  27.653  1.00  0.00     0.065 H 
ATOM    124  H   UNL A   1      39.489  26.473  28.342  1.00  0.00     0.065 H 
ATOM    125  C   UNL A   1      41.043  28.767  29.018  1.00  0.00     0.037 A 
ATOM    126  C   UNL A   1      47.562  28.735  28.718  1.00  0.00     0.049 A 
ATOM    127  C   UNL A   1      42.093  29.814  29.267  1.00  0.00     0.074 A 
ATOM    128  C   UNL A   1      48.430  29.790  28.938  1.00  0.00    -0.036 A 
ATOM    129  N   UNL A   1      46.279  29.225  28.913  1.00  0.00    -0.354 N 
ATOM    130  N   UNL A   1      43.397  29.718  29.167  1.00  0.00    -0.248 NA
ATOM    131  C   UNL A   1      41.617  31.143  29.675  1.00  0.00    -0.034 C 
ATOM    132  C   UNL A   1      47.674  30.911  29.300  1.00  0.00    -0.036 A 
ATOM    133  H   UNL A   1      49.457  29.758  28.849  1.00  0.00     0.065 H 
ATOM    134  C   UNL A   1      46.333  30.564  29.267  1.00  0.00     0.049 A 
ATOM    135  H   UNL A   1      45.452  28.700  28.814  1.00  0.00     0.167 HD
ATOM    136  C   UNL A   1      43.896  30.975  29.478  1.00  0.00     0.074 A 
ATOM    137  C   UNL A   1      42.753  31.822  29.751  1.00  0.00    -0.034 C 
ATOM    138  H   UNL A   1      40.653  31.463  29.855  1.00  0.00     0.065 H 
ATOM    139  H   UNL A   1      48.051  31.839  29.549  1.00  0.00     0.065 H 
ATOM    140  C   UNL A   1      45.185  31.391  29.535  1.00  0.00     0.037 A 
ATOM    141  H   UNL A   1      42.815  32.827  29.975  1.00  0.00     0.065 H 
BRANCH 122 142
ATOM    142  C   UNL A   1      49.316  26.983  28.254  1.00  0.00     0.064 A 
ATOM    143  C   UNL A   1      50.036  26.539  29.373  1.00  0.00     0.173 A 
ATOM    144  C   UNL A   1      49.977  27.012  27.017  1.00  0.00     0.173 A 
ATOM    145  F   UNL A   1      49.454  26.505  30.580  1.00  0.00    -0.203 F 
ATOM    146  C   UNL A   1      51.371  26.160  29.261  1.00  0.00     0.198 A 
ATOM    147  C   UNL A   1      51.304  26.607  26.904  1.00  0.00     0.198 A 
ATOM    148  F   UNL A   1      49.333  27.425  25.914  1.00  0.00    -0.203 F 
ATOM    149  F   UNL A   1      52.052  25.779  30.352  1.00  0.00    -0.200 F 
ATOM    150  C   UNL A   1      52.002  26.188  28.027  1.00  0.00     0.200 A 
ATOM    151  F   UNL A   1      51.909  26.624  25.708  1.00  0.00    -0.200 F 
ATOM    152  F   UNL A   1      53.285  25.817  27.919  1.00  0.00    -0.200 F 
ENDBRANCH 122 142
BRANCH 125 153
ATOM    153  C   UNL A   1      39.602  29.077  29.186  1.00  0.00     0.064 A 
ATOM    154  C   UNL A   1      38.979  28.948  30.435  1.00  0.00     0.173 A 
ATOM    155  C   UNL A   1      38.819  29.509  28.106  1.00  0.00     0.173 A 
ATOM    156  F   UNL A   1      39.684  28.519  31.493  1.00  0.00    -0.203 F 
ATOM    157  C   UNL A   1      37.622  29.221  30.594  1.00  0.00     0.198 A 
ATOM    158  C   UNL A   1      37.468  29.806  28.271  1.00  0.00     0.198 A 
ATOM    159  F   UNL A   1      39.370  29.652  26.892  1.00  0.00    -0.203 F 
ATOM    160  F   UNL A   1      37.042  29.049  31.789  1.00  0.00    -0.200 F 
ATOM    161  C   UNL A   1      36.869  29.655  29.513  1.00  0.00     0.200 A 
ATOM    162  F   UNL A   1      36.745  30.234  27.228  1.00  0.00    -0.200 F 
ATOM    163  F   UNL A   1      35.564  29.918  29.667  1.00  0.00    -0.200 F 
ENDBRANCH 125 153
BRANCH 140 164
ATOM    164  C   UNL A   1      45.422  32.828  29.889  1.00  0.00     0.064 A 
ATOM    165  C   UNL A   1      45.433  33.832  28.909  1.00  0.00     0.173 A 
ATOM    166  C   UNL A   1      45.617  33.209  31.225  1.00  0.00     0.173 A 
ATOM    167  F   UNL A   1      45.267  33.514  27.616  1.00  0.00    -0.203 F 
ATOM    168  C   UNL A   1      45.661  35.162  29.250  1.00  0.00     0.198 A 
ATOM    169  C   UNL A   1      45.817  34.544  31.565  1.00  0.00     0.198 A 
ATOM    170  F   UNL A   1      45.609  32.288  32.199  1.00  0.00    -0.203 F 
ATOM    171  F   UNL A   1      45.717  36.097  28.292  1.00  0.00    -0.200 F 
ATOM    172  C   UNL A   1      45.847  35.518  30.578  1.00  0.00     0.200 A 
ATOM    173  F   UNL A   1      45.987  34.888  32.850  1.00  0.00    -0.200 F 
ATOM    174  F   UNL A   1      46.065  36.798  30.905  1.00  0.00    -0.200 F 
ENDBRANCH 140 164
ENDBRANCH 105 108
ENDBRANCH  95  98
ENDBRANCH  91  94
ENDBRANCH  88  91
ENDBRANCH  85  88
ENDBRANCH  82  85
ENDBRANCH  79  82
ENDBRANCH   1  79
TORSDOF 27
ENDMDL
MODEL 6
REMARK VINA RESULT:     -10.6      2.588      8.338
REMARK SMILES CCCC[C@@H](Sc1nc(OCCC2CCCCC2)cc(OCCC2CCCCC2)n1)C(=O)NCCCCCCNC(=O)c1ccc(-c2c3nc(c(-c4c(F)c(F)c(F)c(F)c4F)c4ccc([nH]4)c(-c4c(F)c(F)c(F)c(F)c4F)c4nc(c(-c5c(F)c(F)c(F)c(F)c5F)c5ccc2[nH]5)C=C4)C=C3)cc1
REMARK SMILES IDX 34 1 33 4 31 5 32 6 5 8 4 10 3 13 2 16 1 19 6 23 7 24 8 25
REMARK SMILES IDX 30 26 9 27 20 28 19 29 10 31 11 32 12 35 13 38 14 39 18 40
REMARK SMILES IDX 15 42 17 45 16 48 21 55 22 56 23 59 24 62 25 63 29 64 26 66
REMARK SMILES IDX 28 69 27 72 35 79 36 82 37 85 38 88 39 91 40 94 41 95 42 97
REMARK SMILES IDX 43 98 44 99 105 100 45 101 104 103 46 105 47 108 48 109
REMARK SMILES IDX 98 110 49 111 103 112 97 113 99 114 50 115 102 116 96 118
REMARK SMILES IDX 95 120 51 122 83 125 63 126 82 127 64 128 67 129 81 130
REMARK SMILES IDX 100 131 65 132 66 134 80 136 101 137 68 140 52 142 53 143
REMARK SMILES IDX 61 144 54 145 55 146 59 147 62 148 56 149 57 150 60 151
REMARK SMILES IDX 58 152 84 153 85 154 93 155 86 156 87 157 91 158 94 159
REMARK SMILES IDX 88 160 89 161 92 162 90 163 69 164 70 165 78 166 71 167
REMARK SMILES IDX 72 168 76 169 79 170 73 171 74 172 77 173 75 174
REMARK H PARENT 34 2 34 3 33 7 5 9 4 11 4 12 3 14 3 15 2 17 2 18 1 20 1 21
REMARK H PARENT 1 22 19 30 11 33 11 34 12 36 12 37 13 41 14 43 14 44 18 46
REMARK H PARENT 18 47 15 49 15 50 17 51 17 52 16 53 16 54 22 57 22 58 23 60
REMARK H PARENT 23 61 24 65 25 67 25 68 29 70 29 71 26 73 26 74 28 75 28 76
REMARK H PARENT 27 77 27 78 35 80 35 81 36 83 36 84 37 86 37 87 38 89 38 90
REMARK H PARENT 39 92 39 93 40 96 44 102 105 104 45 106 104 107 103 117 97 119
REMARK H PARENT 99 121 102 123 96 124 64 133 67 135 100 138 65 139 101 141
REMARK Flexibility Score: inf
ROOT
ATOM      1  C   UNL A   1      34.107  28.321  26.175  1.00  0.00     0.017 C 
ATOM      2  H   UNL A   1      35.033  28.618  26.621  1.00  0.00     0.049 H 
ATOM      3  H   UNL A   1      34.027  27.254  26.149  1.00  0.00     0.049 H 
ENDROOT
BRANCH   1   4
ATOM      4  N   UNL A   1      34.057  28.819  24.810  1.00  0.00    -0.355 N 
ATOM      5  C   UNL A   1      33.477  28.273  23.696  1.00  0.00     0.233 C 
ATOM      6  O   UNL A   1      33.562  28.903  22.638  1.00  0.00    -0.274 OA
ATOM      7  H   UNL A   1      34.510  29.680  24.663  1.00  0.00     0.163 HD
BRANCH   5   8
ATOM      8  C   UNL A   1      32.775  26.906  23.753  1.00  0.00     0.091 C 
ATOM      9  H   UNL A   1      32.901  26.304  24.629  1.00  0.00     0.052 H 
BRANCH   8  10
ATOM     10  C   UNL A   1      31.246  27.138  23.811  1.00  0.00    -0.032 C 
ATOM     11  H   UNL A   1      31.082  28.001  24.421  1.00  0.00     0.028 H 
ATOM     12  H   UNL A   1      30.959  27.219  22.784  1.00  0.00     0.028 H 
BRANCH  10  13
ATOM     13  C   UNL A   1      30.347  26.022  24.360  1.00  0.00    -0.052 C 
ATOM     14  H   UNL A   1      29.365  26.176  23.964  1.00  0.00     0.027 H 
ATOM     15  H   UNL A   1      30.823  25.113  24.056  1.00  0.00     0.027 H 
BRANCH  13  16
ATOM     16  C   UNL A   1      30.218  25.907  25.876  1.00  0.00    -0.056 C 
ATOM     17  H   UNL A   1      29.963  26.869  26.267  1.00  0.00     0.026 H 
ATOM     18  H   UNL A   1      29.462  25.177  26.074  1.00  0.00     0.026 H 
BRANCH  16  19
ATOM     19  C   UNL A   1      31.489  25.432  26.555  1.00  0.00    -0.065 C 
ATOM     20  H   UNL A   1      32.296  26.086  26.300  1.00  0.00     0.023 H 
ATOM     21  H   UNL A   1      31.719  24.439  26.229  1.00  0.00     0.023 H 
ATOM     22  H   UNL A   1      31.350  25.435  27.616  1.00  0.00     0.023 H 
ENDBRANCH  16  19
ENDBRANCH  13  16
ENDBRANCH  10  13
ENDBRANCH   8  10
BRANCH   8  23
ATOM     23  S   UNL A   1      33.568  25.903  22.410  1.00  0.00    -0.073 SA
BRANCH  23  24
ATOM     24  C   UNL A   1      33.958  24.432  23.268  1.00  0.00     0.195 A 
ATOM     25  N   UNL A   1      32.938  23.696  23.728  1.00  0.00    -0.187 NA
ATOM     26  N   UNL A   1      35.251  24.140  23.401  1.00  0.00    -0.187 NA
ATOM     27  C   UNL A   1      33.261  22.634  24.474  1.00  0.00     0.221 A 
ATOM     28  C   UNL A   1      35.540  23.049  24.110  1.00  0.00     0.221 A 
ATOM     29  C   UNL A   1      34.571  22.314  24.747  1.00  0.00     0.063 A 
ATOM     30  H   UNL A   1      34.815  21.555  25.402  1.00  0.00     0.074 H 
BRANCH  27  31
ATOM     31  O   UNL A   1      32.169  21.904  24.854  1.00  0.00    -0.477 OA
BRANCH  31  32
ATOM     32  C   UNL A   1      32.314  20.516  25.127  1.00  0.00     0.090 C 
ATOM     33  H   UNL A   1      31.460  20.203  25.691  1.00  0.00     0.071 H 
ATOM     34  H   UNL A   1      33.242  20.420  25.649  1.00  0.00     0.071 H 
BRANCH  32  35
ATOM     35  C   UNL A   1      32.430  19.592  23.893  1.00  0.00    -0.016 C 
ATOM     36  H   UNL A   1      33.169  20.011  23.242  1.00  0.00     0.030 H 
ATOM     37  H   UNL A   1      31.444  19.550  23.479  1.00  0.00     0.030 H 
BRANCH  35  38
ATOM     38  C   UNL A   1      32.818  18.131  24.159  1.00  0.00    -0.038 C 
ATOM     39  C   UNL A   1      34.303  17.831  23.918  1.00  0.00    -0.050 C 
ATOM     40  C   UNL A   1      32.447  17.663  25.573  1.00  0.00    -0.050 C 
ATOM     41  H   UNL A   1      32.242  17.583  23.443  1.00  0.00     0.030 H 
ATOM     42  C   UNL A   1      34.546  16.319  24.020  1.00  0.00    -0.053 C 
ATOM     43  H   UNL A   1      34.894  18.337  24.654  1.00  0.00     0.027 H 
ATOM     44  H   UNL A   1      34.582  18.171  22.942  1.00  0.00     0.027 H 
ATOM     45  C   UNL A   1      32.612  16.150  25.671  1.00  0.00    -0.053 C 
ATOM     46  H   UNL A   1      31.430  17.925  25.779  1.00  0.00     0.027 H 
ATOM     47  H   UNL A   1      33.091  18.137  26.284  1.00  0.00     0.027 H 
ATOM     48  C   UNL A   1      34.038  15.724  25.335  1.00  0.00    -0.053 C 
ATOM     49  H   UNL A   1      35.598  16.136  23.945  1.00  0.00     0.027 H 
ATOM     50  H   UNL A   1      34.004  15.852  23.224  1.00  0.00     0.027 H 
ATOM     51  H   UNL A   1      32.381  15.839  26.668  1.00  0.00     0.027 H 
ATOM     52  H   UNL A   1      31.947  15.692  24.968  1.00  0.00     0.027 H 
ATOM     53  H   UNL A   1      34.684  16.043  26.125  1.00  0.00     0.027 H 
ATOM     54  H   UNL A   1      34.036  14.660  25.224  1.00  0.00     0.027 H 
ENDBRANCH  35  38
ENDBRANCH  32  35
ENDBRANCH  31  32
ENDBRANCH  27  31
BRANCH  28  55
ATOM     55  O   UNL A   1      36.878  22.821  24.198  1.00  0.00    -0.477 OA
BRANCH  55  56
ATOM     56  C   UNL A   1      37.376  21.988  25.239  1.00  0.00     0.090 C 
ATOM     57  H   UNL A   1      37.476  20.986  24.878  1.00  0.00     0.071 H 
ATOM     58  H   UNL A   1      36.698  22.001  26.066  1.00  0.00     0.071 H 
BRANCH  56  59
ATOM     59  C   UNL A   1      38.747  22.509  25.690  1.00  0.00    -0.016 C 
ATOM     60  H   UNL A   1      38.585  23.419  26.229  1.00  0.00     0.030 H 
ATOM     61  H   UNL A   1      39.316  22.614  24.791  1.00  0.00     0.030 H 
BRANCH  59  62
ATOM     62  C   UNL A   1      39.588  21.573  26.594  1.00  0.00    -0.038 C 
ATOM     63  C   UNL A   1      39.917  20.203  25.963  1.00  0.00    -0.050 C 
ATOM     64  C   UNL A   1      40.760  22.321  27.240  1.00  0.00    -0.050 C 
ATOM     65  H   UNL A   1      38.966  21.279  27.413  1.00  0.00     0.030 H 
ATOM     66  C   UNL A   1      41.356  19.682  26.012  1.00  0.00    -0.053 C 
ATOM     67  H   UNL A   1      39.640  20.260  24.931  1.00  0.00     0.027 H 
ATOM     68  H   UNL A   1      39.375  19.507  26.569  1.00  0.00     0.027 H 
ATOM     69  C   UNL A   1      41.793  21.374  27.828  1.00  0.00    -0.053 C 
ATOM     70  H   UNL A   1      40.382  22.946  28.022  1.00  0.00     0.027 H 
ATOM     71  H   UNL A   1      41.241  22.898  26.477  1.00  0.00     0.027 H 
ATOM     72  C   UNL A   1      42.387  20.556  26.705  1.00  0.00    -0.053 C 
ATOM     73  H   UNL A   1      41.682  19.540  25.002  1.00  0.00     0.027 H 
ATOM     74  H   UNL A   1      41.308  18.791  26.603  1.00  0.00     0.027 H 
ATOM     75  H   UNL A   1      42.565  21.938  28.311  1.00  0.00     0.027 H 
ATOM     76  H   UNL A   1      41.333  20.731  28.549  1.00  0.00     0.027 H 
ATOM     77  H   UNL A   1      42.812  21.222  25.983  1.00  0.00     0.027 H 
ATOM     78  H   UNL A   1      43.126  19.909  27.130  1.00  0.00     0.027 H 
ENDBRANCH  59  62
ENDBRANCH  56  59
ENDBRANCH  55  56
ENDBRANCH  28  55
ENDBRANCH  23  24
ENDBRANCH   8  23
ENDBRANCH   5   8
ENDBRANCH   1   4
BRANCH   1  79
ATOM     79  C   UNL A   1      32.955  28.873  27.004  1.00  0.00    -0.036 C 
ATOM     80  H   UNL A   1      33.123  28.618  28.030  1.00  0.00     0.028 H 
ATOM     81  H   UNL A   1      32.054  28.438  26.622  1.00  0.00     0.028 H 
BRANCH  79  82
ATOM     82  C   UNL A   1      32.803  30.392  26.899  1.00  0.00    -0.052 C 
ATOM     83  H   UNL A   1      31.819  30.652  27.227  1.00  0.00     0.027 H 
ATOM     84  H   UNL A   1      32.987  30.644  25.875  1.00  0.00     0.027 H 
BRANCH  82  85
ATOM     85  C   UNL A   1      33.811  31.193  27.730  1.00  0.00    -0.052 C 
ATOM     86  H   UNL A   1      34.793  30.840  27.491  1.00  0.00     0.027 H 
ATOM     87  H   UNL A   1      33.540  31.041  28.754  1.00  0.00     0.027 H 
BRANCH  85  88
ATOM     88  C   UNL A   1      33.785  32.709  27.504  1.00  0.00    -0.036 C 
ATOM     89  H   UNL A   1      34.148  32.905  26.517  1.00  0.00     0.028 H 
ATOM     90  H   UNL A   1      34.394  33.138  28.271  1.00  0.00     0.028 H 
BRANCH  88  91
ATOM     91  C   UNL A   1      32.408  33.352  27.638  1.00  0.00     0.018 C 
ATOM     92  H   UNL A   1      31.868  32.855  28.416  1.00  0.00     0.049 H 
ATOM     93  H   UNL A   1      31.907  33.259  26.696  1.00  0.00     0.049 H 
BRANCH  91  94
ATOM     94  N   UNL A   1      32.495  34.769  27.960  1.00  0.00    -0.352 N 
ATOM     95  C   UNL A   1      33.273  35.406  28.883  1.00  0.00     0.251 C 
ATOM     96  H   UNL A   1      31.904  35.354  27.434  1.00  0.00     0.163 HD
ATOM     97  O   UNL A   1      33.076  36.599  29.134  1.00  0.00    -0.269 OA
BRANCH  95  98
ATOM     98  C   UNL A   1      34.343  34.681  29.594  1.00  0.00     0.039 A 
ATOM     99  C   UNL A   1      35.638  34.721  29.072  1.00  0.00    -0.049 A 
ATOM    100  C   UNL A   1      34.071  33.929  30.742  1.00  0.00    -0.049 A 
ATOM    101  C   UNL A   1      36.668  34.040  29.720  1.00  0.00    -0.053 A 
ATOM    102  H   UNL A   1      35.832  35.252  28.209  1.00  0.00     0.063 H 
ATOM    103  C   UNL A   1      35.109  33.297  31.421  1.00  0.00    -0.053 A 
ATOM    104  H   UNL A   1      33.100  33.843  31.085  1.00  0.00     0.063 H 
ATOM    105  C   UNL A   1      36.415  33.340  30.911  1.00  0.00    -0.014 A 
ATOM    106  H   UNL A   1      37.621  34.052  29.324  1.00  0.00     0.063 H 
ATOM    107  H   UNL A   1      34.918  32.796  32.303  1.00  0.00     0.063 H 
BRANCH 105 108
ATOM    108  C   UNL A   1      37.516  32.646  31.623  1.00  0.00     0.031 A 
ATOM    109  C   UNL A   1      38.223  31.485  30.984  1.00  0.00     0.074 A 
ATOM    110  C   UNL A   1      37.851  33.043  32.864  1.00  0.00     0.049 A 
ATOM    111  N   UNL A   1      39.204  30.755  31.451  1.00  0.00    -0.248 NA
ATOM    112  C   UNL A   1      37.750  31.073  29.653  1.00  0.00    -0.034 C 
ATOM    113  C   UNL A   1      37.196  34.118  33.611  1.00  0.00    -0.036 A 
ATOM    114  N   UNL A   1      38.822  32.587  33.718  1.00  0.00    -0.354 N 
ATOM    115  C   UNL A   1      39.457  29.795  30.482  1.00  0.00     0.074 A 
ATOM    116  C   UNL A   1      38.497  30.003  29.418  1.00  0.00    -0.034 C 
ATOM    117  H   UNL A   1      37.026  31.504  29.057  1.00  0.00     0.065 H 
ATOM    118  C   UNL A   1      37.800  34.254  34.803  1.00  0.00    -0.036 A 
ATOM    119  H   UNL A   1      36.399  34.682  33.275  1.00  0.00     0.065 H 
ATOM    120  C   UNL A   1      38.866  33.263  34.911  1.00  0.00     0.049 A 
ATOM    121  H   UNL A   1      39.430  31.844  33.496  1.00  0.00     0.167 HD
ATOM    122  C   UNL A   1      40.418  28.840  30.469  1.00  0.00     0.037 A 
ATOM    123  H   UNL A   1      38.407  29.399  28.586  1.00  0.00     0.065 H 
ATOM    124  H   UNL A   1      37.550  34.947  35.526  1.00  0.00     0.065 H 
ATOM    125  C   UNL A   1      39.681  33.105  35.972  1.00  0.00     0.037 A 
ATOM    126  C   UNL A   1      41.390  28.655  31.514  1.00  0.00     0.049 A 
ATOM    127  C   UNL A   1      40.762  32.061  35.916  1.00  0.00     0.074 A 
ATOM    128  C   UNL A   1      42.445  27.761  31.565  1.00  0.00    -0.036 A 
ATOM    129  N   UNL A   1      41.424  29.381  32.696  1.00  0.00    -0.354 N 
ATOM    130  N   UNL A   1      41.041  31.209  34.960  1.00  0.00    -0.248 NA
ATOM    131  C   UNL A   1      41.649  31.967  37.084  1.00  0.00    -0.034 C 
ATOM    132  C   UNL A   1      43.098  27.922  32.792  1.00  0.00    -0.036 A 
ATOM    133  H   UNL A   1      42.707  27.092  30.825  1.00  0.00     0.065 H 
ATOM    134  C   UNL A   1      42.473  28.944  33.489  1.00  0.00     0.049 A 
ATOM    135  H   UNL A   1      40.797  30.101  32.935  1.00  0.00     0.167 HD
ATOM    136  C   UNL A   1      42.145  30.493  35.399  1.00  0.00     0.074 A 
ATOM    137  C   UNL A   1      42.497  31.024  36.700  1.00  0.00    -0.034 C 
ATOM    138  H   UNL A   1      41.619  32.495  37.969  1.00  0.00     0.065 H 
ATOM    139  H   UNL A   1      43.907  27.374  33.122  1.00  0.00     0.065 H 
ATOM    140  C   UNL A   1      42.808  29.484  34.781  1.00  0.00     0.037 A 
ATOM    141  H   UNL A   1      43.306  30.708  37.257  1.00  0.00     0.065 H 
BRANCH 122 142
ATOM    142  C   UNL A   1      40.470  27.923  29.283  1.00  0.00     0.064 A 
ATOM    143  C   UNL A   1      41.369  28.140  28.228  1.00  0.00     0.173 A 
ATOM    144  C   UNL A   1      39.641  26.794  29.217  1.00  0.00     0.173 A 
ATOM    145  F   UNL A   1      42.174  29.212  28.237  1.00  0.00    -0.203 F 
ATOM    146  C   UNL A   1      41.420  27.272  27.141  1.00  0.00     0.198 A 
ATOM    147  C   UNL A   1      39.713  25.913  28.141  1.00  0.00     0.198 A 
ATOM    148  F   UNL A   1      38.766  26.538  30.202  1.00  0.00    -0.203 F 
ATOM    149  F   UNL A   1      42.258  27.521  26.124  1.00  0.00    -0.200 F 
ATOM    150  C   UNL A   1      40.597  26.156  27.101  1.00  0.00     0.200 A 
ATOM    151  F   UNL A   1      38.925  24.830  28.110  1.00  0.00    -0.200 F 
ATOM    152  F   UNL A   1      40.652  25.318  26.057  1.00  0.00    -0.200 F 
ENDBRANCH 122 142
BRANCH 125 153
ATOM    153  C   UNL A   1      39.528  33.984  37.157  1.00  0.00     0.064 A 
ATOM    154  C   UNL A   1      40.150  35.239  37.207  1.00  0.00     0.173 A 
ATOM    155  C   UNL A   1      38.761  33.590  38.262  1.00  0.00     0.173 A 
ATOM    156  F   UNL A   1      40.910  35.650  36.180  1.00  0.00    -0.203 F 
ATOM    157  C   UNL A   1      40.024  36.060  38.325  1.00  0.00     0.198 A 
ATOM    158  C   UNL A   1      38.615  34.422  39.370  1.00  0.00     0.198 A 
ATOM    159  F   UNL A   1      38.143  32.400  38.260  1.00  0.00    -0.203 F 
ATOM    160  F   UNL A   1      40.663  37.238  38.363  1.00  0.00    -0.200 F 
ATOM    161  C   UNL A   1      39.253  35.654  39.403  1.00  0.00     0.200 A 
ATOM    162  F   UNL A   1      37.861  34.032  40.406  1.00  0.00    -0.200 F 
ATOM    163  F   UNL A   1      39.131  36.445  40.478  1.00  0.00    -0.200 F 
ENDBRANCH 125 153
BRANCH 140 164
ATOM    164  C   UNL A   1      43.989  28.904  35.501  1.00  0.00     0.064 A 
ATOM    165  C   UNL A   1      45.283  29.408  35.309  1.00  0.00     0.173 A 
ATOM    166  C   UNL A   1      43.821  27.848  36.409  1.00  0.00     0.173 A 
ATOM    167  F   UNL A   1      45.496  30.408  34.438  1.00  0.00    -0.203 F 
ATOM    168  C   UNL A   1      46.372  28.857  35.977  1.00  0.00     0.198 A 
ATOM    169  C   UNL A   1      44.908  27.317  37.096  1.00  0.00     0.198 A 
ATOM    170  F   UNL A   1      42.602  27.336  36.631  1.00  0.00    -0.203 F 
ATOM    171  F   UNL A   1      47.607  29.322  35.742  1.00  0.00    -0.200 F 
ATOM    172  C   UNL A   1      46.183  27.816  36.875  1.00  0.00     0.200 A 
ATOM    173  F   UNL A   1      44.723  26.318  37.970  1.00  0.00    -0.200 F 
ATOM    174  F   UNL A   1      47.232  27.287  37.518  1.00  0.00    -0.200 F 
ENDBRANCH 140 164
ENDBRANCH 105 108
ENDBRANCH  95  98
ENDBRANCH  91  94
ENDBRANCH  88  91
ENDBRANCH  85  88
ENDBRANCH  82  85
ENDBRANCH  79  82
ENDBRANCH   1  79
TORSDOF 27
ENDMDL
MODEL 7
REMARK VINA RESULT:     -10.4      2.703      8.743
REMARK SMILES CCCC[C@@H](Sc1nc(OCCC2CCCCC2)cc(OCCC2CCCCC2)n1)C(=O)NCCCCCCNC(=O)c1ccc(-c2c3nc(c(-c4c(F)c(F)c(F)c(F)c4F)c4ccc([nH]4)c(-c4c(F)c(F)c(F)c(F)c4F)c4nc(c(-c5c(F)c(F)c(F)c(F)c5F)c5ccc2[nH]5)C=C4)C=C3)cc1
REMARK SMILES IDX 34 1 33 4 31 5 32 6 5 8 4 10 3 13 2 16 1 19 6 23 7 24 8 25
REMARK SMILES IDX 30 26 9 27 20 28 19 29 10 31 11 32 12 35 13 38 14 39 18 40
REMARK SMILES IDX 15 42 17 45 16 48 21 55 22 56 23 59 24 62 25 63 29 64 26 66
REMARK SMILES IDX 28 69 27 72 35 79 36 82 37 85 38 88 39 91 40 94 41 95 42 97
REMARK SMILES IDX 43 98 44 99 105 100 45 101 104 103 46 105 47 108 48 109
REMARK SMILES IDX 98 110 49 111 103 112 97 113 99 114 50 115 102 116 96 118
REMARK SMILES IDX 95 120 51 122 83 125 63 126 82 127 64 128 67 129 81 130
REMARK SMILES IDX 100 131 65 132 66 134 80 136 101 137 68 140 52 142 53 143
REMARK SMILES IDX 61 144 54 145 55 146 59 147 62 148 56 149 57 150 60 151
REMARK SMILES IDX 58 152 84 153 85 154 93 155 86 156 87 157 91 158 94 159
REMARK SMILES IDX 88 160 89 161 92 162 90 163 69 164 70 165 78 166 71 167
REMARK SMILES IDX 72 168 76 169 79 170 73 171 74 172 77 173 75 174
REMARK H PARENT 34 2 34 3 33 7 5 9 4 11 4 12 3 14 3 15 2 17 2 18 1 20 1 21
REMARK H PARENT 1 22 19 30 11 33 11 34 12 36 12 37 13 41 14 43 14 44 18 46
REMARK H PARENT 18 47 15 49 15 50 17 51 17 52 16 53 16 54 22 57 22 58 23 60
REMARK H PARENT 23 61 24 65 25 67 25 68 29 70 29 71 26 73 26 74 28 75 28 76
REMARK H PARENT 27 77 27 78 35 80 35 81 36 83 36 84 37 86 37 87 38 89 38 90
REMARK H PARENT 39 92 39 93 40 96 44 102 105 104 45 106 104 107 103 117 97 119
REMARK H PARENT 99 121 102 123 96 124 64 133 67 135 100 138 65 139 101 141
REMARK Flexibility Score: inf
ROOT
ATOM      1  C   UNL A   1      33.931  28.287  25.443  1.00  0.00     0.017 C 
ATOM      2  H   UNL A   1      34.746  28.933  25.192  1.00  0.00     0.049 H 
ATOM      3  H   UNL A   1      34.272  27.280  25.566  1.00  0.00     0.049 H 
ENDROOT
BRANCH   1   4
ATOM      4  N   UNL A   1      32.955  28.313  24.366  1.00  0.00    -0.355 N 
ATOM      5  C   UNL A   1      32.265  27.286  23.779  1.00  0.00     0.233 C 
ATOM      6  O   UNL A   1      31.471  27.569  22.878  1.00  0.00    -0.274 OA
ATOM      7  H   UNL A   1      32.760  29.207  24.002  1.00  0.00     0.163 HD
BRANCH   5   8
ATOM      8  C   UNL A   1      32.497  25.827  24.205  1.00  0.00     0.091 C 
ATOM      9  H   UNL A   1      32.894  25.636  25.180  1.00  0.00     0.052 H 
BRANCH   8  10
ATOM     10  C   UNL A   1      31.124  25.126  24.337  1.00  0.00    -0.032 C 
ATOM     11  H   UNL A   1      30.433  25.672  23.730  1.00  0.00     0.028 H 
ATOM     12  H   UNL A   1      31.321  24.116  24.046  1.00  0.00     0.028 H 
BRANCH  10  13
ATOM     13  C   UNL A   1      30.491  24.993  25.730  1.00  0.00    -0.052 C 
ATOM     14  H   UNL A   1      31.009  25.663  26.383  1.00  0.00     0.027 H 
ATOM     15  H   UNL A   1      29.454  25.211  25.581  1.00  0.00     0.027 H 
BRANCH  13  16
ATOM     16  C   UNL A   1      30.510  23.612  26.379  1.00  0.00    -0.056 C 
ATOM     17  H   UNL A   1      29.627  23.505  26.973  1.00  0.00     0.026 H 
ATOM     18  H   UNL A   1      30.556  22.892  25.589  1.00  0.00     0.026 H 
BRANCH  16  19
ATOM     19  C   UNL A   1      31.719  23.380  27.267  1.00  0.00    -0.065 C 
ATOM     20  H   UNL A   1      31.738  24.116  28.044  1.00  0.00     0.023 H 
ATOM     21  H   UNL A   1      32.612  23.457  26.683  1.00  0.00     0.023 H 
ATOM     22  H   UNL A   1      31.661  22.404  27.702  1.00  0.00     0.023 H 
ENDBRANCH  16  19
ENDBRANCH  13  16
ENDBRANCH  10  13
ENDBRANCH   8  10
BRANCH   8  23
ATOM     23  S   UNL A   1      33.816  25.198  23.062  1.00  0.00    -0.073 SA
BRANCH  23  24
ATOM     24  C   UNL A   1      34.443  23.847  23.975  1.00  0.00     0.195 A 
ATOM     25  N   UNL A   1      35.757  23.831  24.231  1.00  0.00    -0.187 NA
ATOM     26  N   UNL A   1      33.563  22.923  24.360  1.00  0.00    -0.187 NA
ATOM     27  C   UNL A   1      36.231  22.737  24.836  1.00  0.00     0.221 A 
ATOM     28  C   UNL A   1      34.060  21.867  25.002  1.00  0.00     0.221 A 
ATOM     29  C   UNL A   1      35.410  21.688  25.180  1.00  0.00     0.063 A 
ATOM     30  H   UNL A   1      35.791  20.805  25.555  1.00  0.00     0.074 H 
BRANCH  27  31
ATOM     31  O   UNL A   1      37.567  22.824  25.115  1.00  0.00    -0.477 OA
BRANCH  31  32
ATOM     32  C   UNL A   1      38.255  21.686  25.619  1.00  0.00     0.090 C 
ATOM     33  H   UNL A   1      38.593  21.112  24.782  1.00  0.00     0.071 H 
ATOM     34  H   UNL A   1      37.551  21.177  26.243  1.00  0.00     0.071 H 
BRANCH  32  35
ATOM     35  C   UNL A   1      39.478  21.979  26.519  1.00  0.00    -0.016 C 
ATOM     36  H   UNL A   1      39.338  21.449  27.438  1.00  0.00     0.030 H 
ATOM     37  H   UNL A   1      39.506  23.044  26.617  1.00  0.00     0.030 H 
BRANCH  35  38
ATOM     38  C   UNL A   1      40.853  21.587  25.961  1.00  0.00    -0.038 C 
ATOM     39  C   UNL A   1      41.939  22.647  26.191  1.00  0.00    -0.050 C 
ATOM     40  C   UNL A   1      41.358  20.244  26.505  1.00  0.00    -0.050 C 
ATOM     41  H   UNL A   1      40.683  21.501  24.909  1.00  0.00     0.030 H 
ATOM     42  C   UNL A   1      43.213  22.251  25.433  1.00  0.00    -0.053 C 
ATOM     43  H   UNL A   1      42.155  22.717  27.238  1.00  0.00     0.027 H 
ATOM     44  H   UNL A   1      41.592  23.595  25.835  1.00  0.00     0.027 H 
ATOM     45  C   UNL A   1      42.582  19.798  25.712  1.00  0.00    -0.053 C 
ATOM     46  H   UNL A   1      40.585  19.509  26.411  1.00  0.00     0.027 H 
ATOM     47  H   UNL A   1      41.623  20.355  27.536  1.00  0.00     0.027 H 
ATOM     48  C   UNL A   1      43.694  20.841  25.777  1.00  0.00    -0.053 C 
ATOM     49  H   UNL A   1      43.988  22.947  25.679  1.00  0.00     0.027 H 
ATOM     50  H   UNL A   1      42.983  22.267  24.388  1.00  0.00     0.027 H 
ATOM     51  H   UNL A   1      42.943  18.877  26.120  1.00  0.00     0.027 H 
ATOM     52  H   UNL A   1      42.295  19.672  24.690  1.00  0.00     0.027 H 
ATOM     53  H   UNL A   1      44.096  20.850  26.768  1.00  0.00     0.027 H 
ATOM     54  H   UNL A   1      44.430  20.567  25.050  1.00  0.00     0.027 H 
ENDBRANCH  35  38
ENDBRANCH  32  35
ENDBRANCH  31  32
ENDBRANCH  27  31
BRANCH  28  55
ATOM     55  O   UNL A   1      33.100  20.972  25.360  1.00  0.00    -0.477 OA
BRANCH  55  56
ATOM     56  C   UNL A   1      32.256  20.416  24.358  1.00  0.00     0.090 C 
ATOM     57  H   UNL A   1      32.114  21.130  23.574  1.00  0.00     0.071 H 
ATOM     58  H   UNL A   1      31.307  20.166  24.785  1.00  0.00     0.071 H 
BRANCH  56  59
ATOM     59  C   UNL A   1      32.912  19.152  23.788  1.00  0.00    -0.016 C 
ATOM     60  H   UNL A   1      33.701  19.464  23.135  1.00  0.00     0.030 H 
ATOM     61  H   UNL A   1      32.120  18.616  23.311  1.00  0.00     0.030 H 
BRANCH  59  62
ATOM     62  C   UNL A   1      33.517  18.157  24.811  1.00  0.00    -0.038 C 
ATOM     63  C   UNL A   1      32.474  17.420  25.676  1.00  0.00    -0.050 C 
ATOM     64  C   UNL A   1      34.604  17.286  24.170  1.00  0.00    -0.050 C 
ATOM     65  H   UNL A   1      34.029  18.735  25.551  1.00  0.00     0.030 H 
ATOM     66  C   UNL A   1      32.576  15.900  25.841  1.00  0.00    -0.053 C 
ATOM     67  H   UNL A   1      31.513  17.623  25.250  1.00  0.00     0.027 H 
ATOM     68  H   UNL A   1      32.651  17.794  26.663  1.00  0.00     0.027 H 
ATOM     69  C   UNL A   1      34.954  16.081  25.026  1.00  0.00    -0.053 C 
ATOM     70  H   UNL A   1      35.485  17.878  24.033  1.00  0.00     0.027 H 
ATOM     71  H   UNL A   1      34.227  16.926  23.234  1.00  0.00     0.027 H 
ATOM     72  C   UNL A   1      33.729  15.203  25.141  1.00  0.00    -0.053 C 
ATOM     73  H   UNL A   1      31.668  15.474  25.468  1.00  0.00     0.027 H 
ATOM     74  H   UNL A   1      32.754  15.747  26.885  1.00  0.00     0.027 H 
ATOM     75  H   UNL A   1      35.750  15.531  24.567  1.00  0.00     0.027 H 
ATOM     76  H   UNL A   1      35.271  16.399  25.997  1.00  0.00     0.027 H 
ATOM     77  H   UNL A   1      33.414  14.923  24.157  1.00  0.00     0.027 H 
ATOM     78  H   UNL A   1      33.995  14.350  25.728  1.00  0.00     0.027 H 
ENDBRANCH  59  62
ENDBRANCH  56  59
ENDBRANCH  55  56
ENDBRANCH  28  55
ENDBRANCH  23  24
ENDBRANCH   8  23
ENDBRANCH   5   8
ENDBRANCH   1   4
BRANCH   1  79
ATOM     79  C   UNL A   1      33.314  28.752  26.756  1.00  0.00    -0.036 C 
ATOM     80  H   UNL A   1      34.031  28.609  27.537  1.00  0.00     0.028 H 
ATOM     81  H   UNL A   1      32.427  28.172  26.911  1.00  0.00     0.028 H 
BRANCH  79  82
ATOM     82  C   UNL A   1      32.896  30.224  26.743  1.00  0.00    -0.052 C 
ATOM     83  H   UNL A   1      31.878  30.284  27.067  1.00  0.00     0.027 H 
ATOM     84  H   UNL A   1      33.040  30.571  25.741  1.00  0.00     0.027 H 
BRANCH  82  85
ATOM     85  C   UNL A   1      33.738  31.135  27.642  1.00  0.00    -0.052 C 
ATOM     86  H   UNL A   1      34.762  30.839  27.547  1.00  0.00     0.027 H 
ATOM     87  H   UNL A   1      33.350  31.017  28.632  1.00  0.00     0.027 H 
BRANCH  85  88
ATOM     88  C   UNL A   1      33.645  32.631  27.324  1.00  0.00    -0.036 C 
ATOM     89  H   UNL A   1      33.814  32.761  26.276  1.00  0.00     0.028 H 
ATOM     90  H   UNL A   1      34.379  33.115  27.933  1.00  0.00     0.028 H 
BRANCH  88  91
ATOM     91  C   UNL A   1      32.307  33.278  27.671  1.00  0.00     0.018 C 
ATOM     92  H   UNL A   1      31.908  32.802  28.542  1.00  0.00     0.049 H 
ATOM     93  H   UNL A   1      31.655  33.158  26.830  1.00  0.00     0.049 H 
BRANCH  91  94
ATOM     94  N   UNL A   1      32.440  34.702  27.935  1.00  0.00    -0.352 N 
ATOM     95  C   UNL A   1      33.265  35.353  28.807  1.00  0.00     0.251 C 
ATOM     96  H   UNL A   1      31.846  35.283  27.407  1.00  0.00     0.163 HD
ATOM     97  O   UNL A   1      33.105  36.560  29.020  1.00  0.00    -0.269 OA
BRANCH  95  98
ATOM     98  C   UNL A   1      34.339  34.628  29.510  1.00  0.00     0.039 A 
ATOM     99  C   UNL A   1      35.637  34.696  28.997  1.00  0.00    -0.049 A 
ATOM    100  C   UNL A   1      34.070  33.848  30.641  1.00  0.00    -0.049 A 
ATOM    101  C   UNL A   1      36.672  34.015  29.638  1.00  0.00    -0.053 A 
ATOM    102  H   UNL A   1      35.829  35.247  28.147  1.00  0.00     0.063 H 
ATOM    103  C   UNL A   1      35.113  33.217  31.313  1.00  0.00    -0.053 A 
ATOM    104  H   UNL A   1      33.099  33.743  30.976  1.00  0.00     0.063 H 
ATOM    105  C   UNL A   1      36.421  33.287  30.812  1.00  0.00    -0.014 A 
ATOM    106  H   UNL A   1      37.627  34.048  29.248  1.00  0.00     0.063 H 
ATOM    107  H   UNL A   1      34.923  32.695  32.183  1.00  0.00     0.063 H 
BRANCH 105 108
ATOM    108  C   UNL A   1      37.527  32.593  31.517  1.00  0.00     0.031 A 
ATOM    109  C   UNL A   1      38.228  31.431  30.873  1.00  0.00     0.074 A 
ATOM    110  C   UNL A   1      37.871  32.990  32.755  1.00  0.00     0.049 A 
ATOM    111  N   UNL A   1      39.213  30.702  31.334  1.00  0.00    -0.248 NA
ATOM    112  C   UNL A   1      37.746  31.019  29.545  1.00  0.00    -0.034 C 
ATOM    113  C   UNL A   1      37.222  34.066  33.507  1.00  0.00    -0.036 A 
ATOM    114  N   UNL A   1      38.848  32.534  33.602  1.00  0.00    -0.354 N 
ATOM    115  C   UNL A   1      39.458  29.741  30.363  1.00  0.00     0.074 A 
ATOM    116  C   UNL A   1      38.491  29.949  29.306  1.00  0.00    -0.034 C 
ATOM    117  H   UNL A   1      37.018  31.450  28.955  1.00  0.00     0.065 H 
ATOM    118  C   UNL A   1      37.834  34.203  34.694  1.00  0.00    -0.036 A 
ATOM    119  H   UNL A   1      36.423  34.630  33.176  1.00  0.00     0.065 H 
ATOM    120  C   UNL A   1      38.901  33.211  34.795  1.00  0.00     0.049 A 
ATOM    121  H   UNL A   1      39.454  31.791  33.377  1.00  0.00     0.167 HD
ATOM    122  C   UNL A   1      40.419  28.785  30.344  1.00  0.00     0.037 A 
ATOM    123  H   UNL A   1      38.395  29.344  28.475  1.00  0.00     0.065 H 
ATOM    124  H   UNL A   1      37.589  34.896  35.418  1.00  0.00     0.065 H 
ATOM    125  C   UNL A   1      39.723  33.053  35.849  1.00  0.00     0.037 A 
ATOM    126  C   UNL A   1      41.398  28.600  31.382  1.00  0.00     0.049 A 
ATOM    127  C   UNL A   1      40.803  32.009  35.787  1.00  0.00     0.074 A 
ATOM    128  C   UNL A   1      42.453  27.706  31.425  1.00  0.00    -0.036 A 
ATOM    129  N   UNL A   1      41.441  29.327  32.563  1.00  0.00    -0.354 N 
ATOM    130  N   UNL A   1      41.075  31.156  34.829  1.00  0.00    -0.248 NA
ATOM    131  C   UNL A   1      41.698  31.914  36.948  1.00  0.00    -0.034 C 
ATOM    132  C   UNL A   1      43.115  27.867  32.648  1.00  0.00    -0.036 A 
ATOM    133  H   UNL A   1      42.709  27.036  30.684  1.00  0.00     0.065 H 
ATOM    134  C   UNL A   1      42.496  28.890  33.349  1.00  0.00     0.049 A 
ATOM    135  H   UNL A   1      40.816  30.047  32.806  1.00  0.00     0.167 HD
ATOM    136  C   UNL A   1      42.182  30.440  35.261  1.00  0.00     0.074 A 
ATOM    137  C   UNL A   1      42.544  30.971  36.558  1.00  0.00    -0.034 C 
ATOM    138  H   UNL A   1      41.675  32.443  37.834  1.00  0.00     0.065 H 
ATOM    139  H   UNL A   1      43.926  27.319  32.973  1.00  0.00     0.065 H 
ATOM    140  C   UNL A   1      42.840  29.430  34.639  1.00  0.00     0.037 A 
ATOM    141  H   UNL A   1      43.357  30.656  37.110  1.00  0.00     0.065 H 
BRANCH 122 142
ATOM    142  C   UNL A   1      40.462  27.868  29.157  1.00  0.00     0.064 A 
ATOM    143  C   UNL A   1      39.653  26.724  29.083  1.00  0.00     0.173 A 
ATOM    144  C   UNL A   1      41.293  28.156  28.065  1.00  0.00     0.173 A 
ATOM    145  F   UNL A   1      38.851  26.399  30.108  1.00  0.00    -0.203 F 
ATOM    146  C   UNL A   1      39.691  25.891  27.969  1.00  0.00     0.198 A 
ATOM    147  C   UNL A   1      41.309  27.335  26.940  1.00  0.00     0.198 A 
ATOM    148  F   UNL A   1      42.084  29.240  28.082  1.00  0.00    -0.203 F 
ATOM    149  F   UNL A   1      38.940  24.781  27.938  1.00  0.00    -0.200 F 
ATOM    150  C   UNL A   1      40.513  26.200  26.896  1.00  0.00     0.200 A 
ATOM    151  F   UNL A   1      42.096  27.641  25.899  1.00  0.00    -0.200 F 
ATOM    152  F   UNL A   1      40.543  25.401  25.821  1.00  0.00    -0.200 F 
ENDBRANCH 122 142
BRANCH 125 153
ATOM    153  C   UNL A   1      39.579  33.932  37.036  1.00  0.00     0.064 A 
ATOM    154  C   UNL A   1      40.248  35.163  37.104  1.00  0.00     0.173 A 
ATOM    155  C   UNL A   1      38.773  33.565  38.122  1.00  0.00     0.173 A 
ATOM    156  F   UNL A   1      41.046  35.547  36.097  1.00  0.00    -0.203 F 
ATOM    157  C   UNL A   1      40.130  35.983  38.223  1.00  0.00     0.198 A 
ATOM    158  C   UNL A   1      38.637  34.398  39.230  1.00  0.00     0.198 A 
ATOM    159  F   UNL A   1      38.110  32.400  38.101  1.00  0.00    -0.203 F 
ATOM    160  F   UNL A   1      40.814  37.135  38.281  1.00  0.00    -0.200 F 
ATOM    161  C   UNL A   1      39.321  35.603  39.283  1.00  0.00     0.200 A 
ATOM    162  F   UNL A   1      37.845  34.033  40.248  1.00  0.00    -0.200 F 
ATOM    163  F   UNL A   1      39.207  36.395  40.359  1.00  0.00    -0.200 F 
ENDBRANCH 125 153
BRANCH 140 164
ATOM    164  C   UNL A   1      44.026  28.850  35.350  1.00  0.00     0.064 A 
ATOM    165  C   UNL A   1      43.891  27.782  36.249  1.00  0.00     0.173 A 
ATOM    166  C   UNL A   1      45.313  29.354  35.112  1.00  0.00     0.173 A 
ATOM    167  F   UNL A   1      42.677  27.278  36.520  1.00  0.00    -0.203 F 
ATOM    168  C   UNL A   1      44.999  27.258  36.908  1.00  0.00     0.198 A 
ATOM    169  C   UNL A   1      46.423  28.809  35.752  1.00  0.00     0.198 A 
ATOM    170  F   UNL A   1      45.494  30.370  34.257  1.00  0.00    -0.203 F 
ATOM    171  F   UNL A   1      44.841  26.271  37.800  1.00  0.00    -0.200 F 
ATOM    172  C   UNL A   1      46.265  27.768  36.654  1.00  0.00     0.200 A 
ATOM    173  F   UNL A   1      47.646  29.296  35.500  1.00  0.00    -0.200 F 
ATOM    174  F   UNL A   1      47.330  27.262  37.289  1.00  0.00    -0.200 F 
ENDBRANCH 140 164
ENDBRANCH 105 108
ENDBRANCH  95  98
ENDBRANCH  91  94
ENDBRANCH  88  91
ENDBRANCH  85  88
ENDBRANCH  82  85
ENDBRANCH  79  82
ENDBRANCH   1  79
TORSDOF 27
ENDMDL
MODEL 8
REMARK VINA RESULT:     -10.2      6.281     11.541
REMARK SMILES CCCC[C@@H](Sc1nc(OCCC2CCCCC2)cc(OCCC2CCCCC2)n1)C(=O)NCCCCCCNC(=O)c1ccc(-c2c3nc(c(-c4c(F)c(F)c(F)c(F)c4F)c4ccc([nH]4)c(-c4c(F)c(F)c(F)c(F)c4F)c4nc(c(-c5c(F)c(F)c(F)c(F)c5F)c5ccc2[nH]5)C=C4)C=C3)cc1
REMARK SMILES IDX 34 1 33 4 31 5 32 6 5 8 4 10 3 13 2 16 1 19 6 23 7 24 8 25
REMARK SMILES IDX 30 26 9 27 20 28 19 29 10 31 11 32 12 35 13 38 14 39 18 40
REMARK SMILES IDX 15 42 17 45 16 48 21 55 22 56 23 59 24 62 25 63 29 64 26 66
REMARK SMILES IDX 28 69 27 72 35 79 36 82 37 85 38 88 39 91 40 94 41 95 42 97
REMARK SMILES IDX 43 98 44 99 105 100 45 101 104 103 46 105 47 108 48 109
REMARK SMILES IDX 98 110 49 111 103 112 97 113 99 114 50 115 102 116 96 118
REMARK SMILES IDX 95 120 51 122 83 125 63 126 82 127 64 128 67 129 81 130
REMARK SMILES IDX 100 131 65 132 66 134 80 136 101 137 68 140 52 142 53 143
REMARK SMILES IDX 61 144 54 145 55 146 59 147 62 148 56 149 57 150 60 151
REMARK SMILES IDX 58 152 84 153 85 154 93 155 86 156 87 157 91 158 94 159
REMARK SMILES IDX 88 160 89 161 92 162 90 163 69 164 70 165 78 166 71 167
REMARK SMILES IDX 72 168 76 169 79 170 73 171 74 172 77 173 75 174
REMARK H PARENT 34 2 34 3 33 7 5 9 4 11 4 12 3 14 3 15 2 17 2 18 1 20 1 21
REMARK H PARENT 1 22 19 30 11 33 11 34 12 36 12 37 13 41 14 43 14 44 18 46
REMARK H PARENT 18 47 15 49 15 50 17 51 17 52 16 53 16 54 22 57 22 58 23 60
REMARK H PARENT 23 61 24 65 25 67 25 68 29 70 29 71 26 73 26 74 28 75 28 76
REMARK H PARENT 27 77 27 78 35 80 35 81 36 83 36 84 37 86 37 87 38 89 38 90
REMARK H PARENT 39 92 39 93 40 96 44 102 105 104 45 106 104 107 103 117 97 119
REMARK H PARENT 99 121 102 123 96 124 64 133 67 135 100 138 65 139 101 141
REMARK Flexibility Score: inf
ROOT
ATOM      1  C   UNL A   1      39.221  22.995  26.536  1.00  0.00     0.017 C 
ATOM      2  H   UNL A   1      38.838  22.685  27.486  1.00  0.00     0.049 H 
ATOM      3  H   UNL A   1      39.119  24.053  26.415  1.00  0.00     0.049 H 
ENDROOT
BRANCH   1   4
ATOM      4  N   UNL A   1      38.468  22.335  25.482  1.00  0.00    -0.355 N 
ATOM      5  C   UNL A   1      37.123  22.341  25.227  1.00  0.00     0.233 C 
ATOM      6  O   UNL A   1      36.721  21.705  24.250  1.00  0.00    -0.274 OA
ATOM      7  H   UNL A   1      39.008  21.802  24.855  1.00  0.00     0.163 HD
BRANCH   5   8
ATOM      8  C   UNL A   1      36.142  23.088  26.147  1.00  0.00     0.091 C 
ATOM      9  H   UNL A   1      36.529  23.573  27.020  1.00  0.00     0.052 H 
BRANCH   8  10
ATOM     10  C   UNL A   1      35.590  24.318  25.387  1.00  0.00    -0.032 C 
ATOM     11  H   UNL A   1      34.697  24.624  25.891  1.00  0.00     0.028 H 
ATOM     12  H   UNL A   1      36.404  25.012  25.393  1.00  0.00     0.028 H 
BRANCH  10  13
ATOM     13  C   UNL A   1      35.239  24.173  23.899  1.00  0.00    -0.052 C 
ATOM     14  H   UNL A   1      36.112  24.428  23.337  1.00  0.00     0.027 H 
ATOM     15  H   UNL A   1      34.907  23.161  23.793  1.00  0.00     0.027 H 
BRANCH  13  16
ATOM     16  C   UNL A   1      34.086  25.019  23.366  1.00  0.00    -0.056 C 
ATOM     17  H   UNL A   1      33.403  25.205  24.167  1.00  0.00     0.026 H 
ATOM     18  H   UNL A   1      34.510  25.921  22.977  1.00  0.00     0.026 H 
BRANCH  16  19
ATOM     19  C   UNL A   1      33.326  24.356  22.231  1.00  0.00    -0.065 C 
ATOM     20  H   UNL A   1      33.966  24.265  21.379  1.00  0.00     0.023 H 
ATOM     21  H   UNL A   1      32.475  24.952  21.975  1.00  0.00     0.023 H 
ATOM     22  H   UNL A   1      33.001  23.384  22.538  1.00  0.00     0.023 H 
ENDBRANCH  16  19
ENDBRANCH  13  16
ENDBRANCH  10  13
ENDBRANCH   8  10
BRANCH   8  23
ATOM     23  S   UNL A   1      35.029  21.772  26.829  1.00  0.00    -0.073 SA
BRANCH  23  24
ATOM     24  C   UNL A   1      33.586  22.017  25.874  1.00  0.00     0.195 A 
ATOM     25  N   UNL A   1      32.657  22.849  26.361  1.00  0.00    -0.187 NA
ATOM     26  N   UNL A   1      33.513  21.359  24.718  1.00  0.00    -0.187 NA
ATOM     27  C   UNL A   1      31.517  22.937  25.667  1.00  0.00     0.221 A 
ATOM     28  C   UNL A   1      32.384  21.504  24.026  1.00  0.00     0.221 A 
ATOM     29  C   UNL A   1      31.314  22.216  24.513  1.00  0.00     0.063 A 
ATOM     30  H   UNL A   1      30.400  22.209  24.035  1.00  0.00     0.074 H 
BRANCH  27  31
ATOM     31  O   UNL A   1      30.646  23.850  26.196  1.00  0.00    -0.477 OA
BRANCH  31  32
ATOM     32  C   UNL A   1      30.113  24.874  25.366  1.00  0.00     0.090 C 
ATOM     33  H   UNL A   1      29.373  25.401  25.931  1.00  0.00     0.071 H 
ATOM     34  H   UNL A   1      29.729  24.374  24.501  1.00  0.00     0.071 H 
BRANCH  32  35
ATOM     35  C   UNL A   1      31.129  25.911  24.833  1.00  0.00    -0.016 C 
ATOM     36  H   UNL A   1      30.913  26.074  23.797  1.00  0.00     0.030 H 
ATOM     37  H   UNL A   1      32.092  25.486  25.027  1.00  0.00     0.030 H 
BRANCH  35  38
ATOM     38  C   UNL A   1      31.144  27.279  25.526  1.00  0.00    -0.038 C 
ATOM     39  C   UNL A   1      31.862  27.279  26.883  1.00  0.00    -0.050 C 
ATOM     40  C   UNL A   1      31.753  28.386  24.653  1.00  0.00    -0.050 C 
ATOM     41  H   UNL A   1      30.109  27.489  25.692  1.00  0.00     0.030 H 
ATOM     42  C   UNL A   1      31.653  28.632  27.577  1.00  0.00    -0.053 C 
ATOM     43  H   UNL A   1      32.909  27.113  26.734  1.00  0.00     0.027 H 
ATOM     44  H   UNL A   1      31.462  26.498  27.497  1.00  0.00     0.027 H 
ATOM     45  C   UNL A   1      31.489  29.745  25.290  1.00  0.00    -0.053 C 
ATOM     46  H   UNL A   1      31.306  28.355  23.680  1.00  0.00     0.027 H 
ATOM     47  H   UNL A   1      32.808  28.230  24.568  1.00  0.00     0.027 H 
ATOM     48  C   UNL A   1      32.064  29.817  26.702  1.00  0.00    -0.053 C 
ATOM     49  H   UNL A   1      32.236  28.650  28.474  1.00  0.00     0.027 H 
ATOM     50  H   UNL A   1      30.607  28.730  27.781  1.00  0.00     0.027 H 
ATOM     51  H   UNL A   1      31.943  30.505  24.689  1.00  0.00     0.027 H 
ATOM     52  H   UNL A   1      30.430  29.891  25.348  1.00  0.00     0.027 H 
ATOM     53  H   UNL A   1      33.131  29.836  26.634  1.00  0.00     0.027 H 
ATOM     54  H   UNL A   1      31.676  30.703  27.160  1.00  0.00     0.027 H 
ENDBRANCH  35  38
ENDBRANCH  32  35
ENDBRANCH  31  32
ENDBRANCH  27  31
BRANCH  28  55
ATOM     55  O   UNL A   1      32.389  20.802  22.862  1.00  0.00    -0.477 OA
BRANCH  55  56
ATOM     56  C   UNL A   1      31.823  19.496  22.832  1.00  0.00     0.090 C 
ATOM     57  H   UNL A   1      31.131  19.424  22.020  1.00  0.00     0.071 H 
ATOM     58  H   UNL A   1      31.312  19.304  23.752  1.00  0.00     0.071 H 
BRANCH  56  59
ATOM     59  C   UNL A   1      32.944  18.465  22.642  1.00  0.00    -0.016 C 
ATOM     60  H   UNL A   1      33.733  18.942  22.099  1.00  0.00     0.030 H 
ATOM     61  H   UNL A   1      32.484  17.642  22.137  1.00  0.00     0.030 H 
BRANCH  59  62
ATOM     62  C   UNL A   1      33.560  17.858  23.928  1.00  0.00    -0.038 C 
ATOM     63  C   UNL A   1      32.575  17.727  25.107  1.00  0.00    -0.050 C 
ATOM     64  C   UNL A   1      34.409  16.620  23.612  1.00  0.00    -0.050 C 
ATOM     65  H   UNL A   1      34.254  18.574  24.315  1.00  0.00     0.030 H 
ATOM     66  C   UNL A   1      32.497  16.404  25.875  1.00  0.00    -0.053 C 
ATOM     67  H   UNL A   1      31.596  17.921  24.720  1.00  0.00     0.027 H 
ATOM     68  H   UNL A   1      32.951  18.419  25.832  1.00  0.00     0.027 H 
ATOM     69  C   UNL A   1      34.722  15.806  24.856  1.00  0.00    -0.053 C 
ATOM     70  H   UNL A   1      35.329  16.937  23.167  1.00  0.00     0.027 H 
ATOM     71  H   UNL A   1      33.847  15.999  22.945  1.00  0.00     0.027 H 
ATOM     72  C   UNL A   1      33.423  15.287  25.429  1.00  0.00    -0.053 C 
ATOM     73  H   UNL A   1      31.493  16.043  25.793  1.00  0.00     0.027 H 
ATOM     74  H   UNL A   1      32.812  16.644  26.870  1.00  0.00     0.027 H 
ATOM     75  H   UNL A   1      35.357  14.982  24.597  1.00  0.00     0.027 H 
ATOM     76  H   UNL A   1      35.225  16.415  25.577  1.00  0.00     0.027 H 
ATOM     77  H   UNL A   1      32.925  14.708  24.680  1.00  0.00     0.027 H 
ATOM     78  H   UNL A   1      33.660  14.700  26.291  1.00  0.00     0.027 H 
ENDBRANCH  59  62
ENDBRANCH  56  59
ENDBRANCH  55  56
ENDBRANCH  28  55
ENDBRANCH  23  24
ENDBRANCH   8  23
ENDBRANCH   5   8
ENDBRANCH   1   4
BRANCH   1  79
ATOM     79  C   UNL A   1      40.701  22.641  26.459  1.00  0.00    -0.036 C 
ATOM     80  H   UNL A   1      41.248  23.339  27.058  1.00  0.00     0.028 H 
ATOM     81  H   UNL A   1      40.983  22.686  25.427  1.00  0.00     0.028 H 
BRANCH  79  82
ATOM     82  C   UNL A   1      41.014  21.226  26.952  1.00  0.00    -0.052 C 
ATOM     83  H   UNL A   1      40.253  20.940  27.646  1.00  0.00     0.027 H 
ATOM     84  H   UNL A   1      41.990  21.268  27.390  1.00  0.00     0.027 H 
BRANCH  82  85
ATOM     85  C   UNL A   1      41.081  20.165  25.849  1.00  0.00    -0.052 C 
ATOM     86  H   UNL A   1      41.630  20.576  25.026  1.00  0.00     0.027 H 
ATOM     87  H   UNL A   1      40.067  19.924  25.607  1.00  0.00     0.027 H 
BRANCH  85  88
ATOM     88  C   UNL A   1      41.748  18.846  26.252  1.00  0.00    -0.036 C 
ATOM     89  H   UNL A   1      41.488  18.106  25.524  1.00  0.00     0.028 H 
ATOM     90  H   UNL A   1      41.392  18.615  27.234  1.00  0.00     0.028 H 
BRANCH  88  91
ATOM     91  C   UNL A   1      43.270  18.901  26.349  1.00  0.00     0.018 C 
ATOM     92  H   UNL A   1      43.605  18.097  26.970  1.00  0.00     0.049 H 
ATOM     93  H   UNL A   1      43.540  19.851  26.761  1.00  0.00     0.049 H 
BRANCH  91  94
ATOM     94  N   UNL A   1      43.905  18.781  25.045  1.00  0.00    -0.352 N 
ATOM     95  C   UNL A   1      44.435  19.750  24.242  1.00  0.00     0.251 C 
ATOM     96  H   UNL A   1      43.960  17.865  24.689  1.00  0.00     0.163 HD
ATOM     97  O   UNL A   1      44.772  19.473  23.086  1.00  0.00    -0.269 OA
BRANCH  95  98
ATOM     98  C   UNL A   1      44.601  21.129  24.737  1.00  0.00     0.039 A 
ATOM     99  C   UNL A   1      45.332  21.335  25.909  1.00  0.00    -0.049 A 
ATOM    100  C   UNL A   1      44.005  22.212  24.080  1.00  0.00    -0.049 A 
ATOM    101  C   UNL A   1      45.500  22.629  26.403  1.00  0.00    -0.053 A 
ATOM    102  H   UNL A   1      45.747  20.533  26.408  1.00  0.00     0.063 H 
ATOM    103  C   UNL A   1      44.221  23.508  24.541  1.00  0.00    -0.053 A 
ATOM    104  H   UNL A   1      43.406  22.049  23.255  1.00  0.00     0.063 H 
ATOM    105  C   UNL A   1      44.962  23.727  25.712  1.00  0.00    -0.014 A 
ATOM    106  H   UNL A   1      46.023  22.780  27.280  1.00  0.00     0.063 H 
ATOM    107  H   UNL A   1      43.835  24.311  24.020  1.00  0.00     0.063 H 
BRANCH 105 108
ATOM    108  C   UNL A   1      45.171  25.107  26.214  1.00  0.00     0.031 A 
ATOM    109  C   UNL A   1      46.528  25.746  26.138  1.00  0.00     0.074 A 
ATOM    110  C   UNL A   1      44.141  25.768  26.774  1.00  0.00     0.049 A 
ATOM    111  N   UNL A   1      46.902  26.939  26.526  1.00  0.00    -0.248 NA
ATOM    112  C   UNL A   1      47.614  24.931  25.573  1.00  0.00    -0.034 C 
ATOM    113  C   UNL A   1      42.792  25.227  26.957  1.00  0.00    -0.036 A 
ATOM    114  N   UNL A   1      44.067  27.034  27.294  1.00  0.00    -0.354 N 
ATOM    115  C   UNL A   1      48.263  27.013  26.265  1.00  0.00     0.074 A 
ATOM    116  C   UNL A   1      48.661  25.729  25.727  1.00  0.00    -0.034 C 
ATOM    117  H   UNL A   1      47.572  23.984  25.164  1.00  0.00     0.065 H 
ATOM    118  C   UNL A   1      42.019  26.165  27.528  1.00  0.00    -0.036 A 
ATOM    119  H   UNL A   1      42.486  24.278  26.691  1.00  0.00     0.065 H 
ATOM    120  C   UNL A   1      42.821  27.360  27.769  1.00  0.00     0.049 A 
ATOM    121  H   UNL A   1      44.834  27.650  27.324  1.00  0.00     0.167 HD
ATOM    122  C   UNL A   1      49.101  28.063  26.436  1.00  0.00     0.037 A 
ATOM    123  H   UNL A   1      49.633  25.469  25.493  1.00  0.00     0.065 H 
ATOM    124  H   UNL A   1      41.019  26.058  27.759  1.00  0.00     0.065 H 
ATOM    125  C   UNL A   1      42.376  28.500  28.330  1.00  0.00     0.037 A 
ATOM    126  C   UNL A   1      48.696  29.349  26.942  1.00  0.00     0.049 A 
ATOM    127  C   UNL A   1      43.318  29.663  28.475  1.00  0.00     0.074 A 
ATOM    128  C   UNL A   1      49.453  30.497  27.090  1.00  0.00    -0.036 A 
ATOM    129  N   UNL A   1      47.417  29.653  27.385  1.00  0.00    -0.354 N 
ATOM    130  N   UNL A   1      44.585  29.746  28.152  1.00  0.00    -0.248 NA
ATOM    131  C   UNL A   1      42.762  30.895  29.052  1.00  0.00    -0.034 C 
ATOM    132  C   UNL A   1      48.642  31.488  27.654  1.00  0.00    -0.036 A 
ATOM    133  H   UNL A   1      50.445  30.606  26.829  1.00  0.00     0.065 H 
ATOM    134  C   UNL A   1      47.368  30.968  27.820  1.00  0.00     0.049 A 
ATOM    135  H   UNL A   1      46.656  29.029  27.387  1.00  0.00     0.167 HD
ATOM    136  C   UNL A   1      44.974  31.041  28.466  1.00  0.00     0.074 A 
ATOM    137  C   UNL A   1      43.802  31.714  28.987  1.00  0.00    -0.034 C 
ATOM    138  H   UNL A   1      41.813  31.075  29.414  1.00  0.00     0.065 H 
ATOM    139  H   UNL A   1      48.940  32.444  27.903  1.00  0.00     0.065 H 
ATOM    140  C   UNL A   1      46.193  31.621  28.336  1.00  0.00     0.037 A 
ATOM    141  H   UNL A   1      43.779  32.706  29.270  1.00  0.00     0.065 H 
BRANCH 122 142
ATOM    142  C   UNL A   1      50.542  27.870  26.066  1.00  0.00     0.064 A 
ATOM    143  C   UNL A   1      51.516  27.582  27.033  1.00  0.00     0.173 A 
ATOM    144  C   UNL A   1      50.947  27.935  24.725  1.00  0.00     0.173 A 
ATOM    145  F   UNL A   1      51.181  27.522  28.330  1.00  0.00    -0.203 F 
ATOM    146  C   UNL A   1      52.847  27.388  26.674  1.00  0.00     0.198 A 
ATOM    147  C   UNL A   1      52.275  27.714  24.366  1.00  0.00     0.198 A 
ATOM    148  F   UNL A   1      50.055  28.204  23.759  1.00  0.00    -0.203 F 
ATOM    149  F   UNL A   1      53.768  27.155  27.620  1.00  0.00    -0.200 F 
ATOM    150  C   UNL A   1      53.224  27.448  25.341  1.00  0.00     0.200 A 
ATOM    151  F   UNL A   1      52.636  27.762  23.076  1.00  0.00    -0.200 F 
ATOM    152  F   UNL A   1      54.504  27.254  24.996  1.00  0.00    -0.200 F 
ENDBRANCH 122 142
BRANCH 125 153
ATOM    153  C   UNL A   1      40.959  28.607  28.759  1.00  0.00     0.064 A 
ATOM    154  C   UNL A   1      40.580  28.301  30.073  1.00  0.00     0.173 A 
ATOM    155  C   UNL A   1      39.957  29.018  27.868  1.00  0.00     0.173 A 
ATOM    156  F   UNL A   1      41.501  27.884  30.955  1.00  0.00    -0.203 F 
ATOM    157  C   UNL A   1      39.249  28.383  30.475  1.00  0.00     0.198 A 
ATOM    158  C   UNL A   1      38.630  29.124  28.278  1.00  0.00     0.198 A 
ATOM    159  F   UNL A   1      40.271  29.327  26.602  1.00  0.00    -0.203 F 
ATOM    160  F   UNL A   1      38.907  28.043  31.726  1.00  0.00    -0.200 F 
ATOM    161  C   UNL A   1      38.276  28.799  29.579  1.00  0.00     0.200 A 
ATOM    162  F   UNL A   1      37.694  29.537  27.413  1.00  0.00    -0.200 F 
ATOM    163  F   UNL A   1      36.995  28.880  29.967  1.00  0.00    -0.200 F 
ENDBRANCH 125 153
BRANCH 140 164
ATOM    164  C   UNL A   1      46.310  33.057  28.749  1.00  0.00     0.064 A 
ATOM    165  C   UNL A   1      46.663  33.417  30.058  1.00  0.00     0.173 A 
ATOM    166  C   UNL A   1      46.090  34.085  27.819  1.00  0.00     0.173 A 
ATOM    167  F   UNL A   1      46.869  32.470  30.986  1.00  0.00    -0.203 F 
ATOM    168  C   UNL A   1      46.763  34.755  30.429  1.00  0.00     0.198 A 
ATOM    169  C   UNL A   1      46.216  35.421  28.188  1.00  0.00     0.198 A 
ATOM    170  F   UNL A   1      45.755  33.791  26.554  1.00  0.00    -0.203 F 
ATOM    171  F   UNL A   1      47.053  35.076  31.697  1.00  0.00    -0.200 F 
ATOM    172  C   UNL A   1      46.545  35.755  29.493  1.00  0.00     0.200 A 
ATOM    173  F   UNL A   1      46.015  36.386  27.280  1.00  0.00    -0.200 F 
ATOM    174  F   UNL A   1      46.642  37.042  29.852  1.00  0.00    -0.200 F 
ENDBRANCH 140 164
ENDBRANCH 105 108
ENDBRANCH  95  98
ENDBRANCH  91  94
ENDBRANCH  88  91
ENDBRANCH  85  88
ENDBRANCH  82  85
ENDBRANCH  79  82
ENDBRANCH   1  79
TORSDOF 27
ENDMDL
MODEL 9
REMARK VINA RESULT:     -10.2      6.246     12.042
REMARK SMILES CCCC[C@@H](Sc1nc(OCCC2CCCCC2)cc(OCCC2CCCCC2)n1)C(=O)NCCCCCCNC(=O)c1ccc(-c2c3nc(c(-c4c(F)c(F)c(F)c(F)c4F)c4ccc([nH]4)c(-c4c(F)c(F)c(F)c(F)c4F)c4nc(c(-c5c(F)c(F)c(F)c(F)c5F)c5ccc2[nH]5)C=C4)C=C3)cc1
REMARK SMILES IDX 34 1 33 4 31 5 32 6 5 8 4 10 3 13 2 16 1 19 6 23 7 24 8 25
REMARK SMILES IDX 30 26 9 27 20 28 19 29 10 31 11 32 12 35 13 38 14 39 18 40
REMARK SMILES IDX 15 42 17 45 16 48 21 55 22 56 23 59 24 62 25 63 29 64 26 66
REMARK SMILES IDX 28 69 27 72 35 79 36 82 37 85 38 88 39 91 40 94 41 95 42 97
REMARK SMILES IDX 43 98 44 99 105 100 45 101 104 103 46 105 47 108 48 109
REMARK SMILES IDX 98 110 49 111 103 112 97 113 99 114 50 115 102 116 96 118
REMARK SMILES IDX 95 120 51 122 83 125 63 126 82 127 64 128 67 129 81 130
REMARK SMILES IDX 100 131 65 132 66 134 80 136 101 137 68 140 52 142 53 143
REMARK SMILES IDX 61 144 54 145 55 146 59 147 62 148 56 149 57 150 60 151
REMARK SMILES IDX 58 152 84 153 85 154 93 155 86 156 87 157 91 158 94 159
REMARK SMILES IDX 88 160 89 161 92 162 90 163 69 164 70 165 78 166 71 167
REMARK SMILES IDX 72 168 76 169 79 170 73 171 74 172 77 173 75 174
REMARK H PARENT 34 2 34 3 33 7 5 9 4 11 4 12 3 14 3 15 2 17 2 18 1 20 1 21
REMARK H PARENT 1 22 19 30 11 33 11 34 12 36 12 37 13 41 14 43 14 44 18 46
REMARK H PARENT 18 47 15 49 15 50 17 51 17 52 16 53 16 54 22 57 22 58 23 60
REMARK H PARENT 23 61 24 65 25 67 25 68 29 70 29 71 26 73 26 74 28 75 28 76
REMARK H PARENT 27 77 27 78 35 80 35 81 36 83 36 84 37 86 37 87 38 89 38 90
REMARK H PARENT 39 92 39 93 40 96 44 102 105 104 45 106 104 107 103 117 97 119
REMARK H PARENT 99 121 102 123 96 124 64 133 67 135 100 138 65 139 101 141
REMARK Flexibility Score: inf
ROOT
ATOM      1  C   UNL A   1      38.864  23.693  26.644  1.00  0.00     0.017 C 
ATOM      2  H   UNL A   1      38.288  23.504  27.525  1.00  0.00     0.049 H 
ATOM      3  H   UNL A   1      38.945  24.746  26.465  1.00  0.00     0.049 H 
ENDROOT
BRANCH   1   4
ATOM      4  N   UNL A   1      38.200  23.084  25.503  1.00  0.00    -0.355 N 
ATOM      5  C   UNL A   1      36.869  23.026  25.187  1.00  0.00     0.233 C 
ATOM      6  O   UNL A   1      36.551  22.455  24.141  1.00  0.00    -0.274 OA
ATOM      7  H   UNL A   1      38.800  22.645  24.857  1.00  0.00     0.163 HD
BRANCH   5   8
ATOM      8  C   UNL A   1      35.803  23.622  26.123  1.00  0.00     0.091 C 
ATOM      9  H   UNL A   1      36.128  24.163  26.987  1.00  0.00     0.052 H 
BRANCH   8  10
ATOM     10  C   UNL A   1      35.061  24.752  25.369  1.00  0.00    -0.032 C 
ATOM     11  H   UNL A   1      34.114  24.881  25.850  1.00  0.00     0.028 H 
ATOM     12  H   UNL A   1      35.737  25.580  25.416  1.00  0.00     0.028 H 
BRANCH  10  13
ATOM     13  C   UNL A   1      34.784  24.585  23.868  1.00  0.00    -0.052 C 
ATOM     14  H   UNL A   1      35.580  25.066  23.340  1.00  0.00     0.027 H 
ATOM     15  H   UNL A   1      34.711  23.528  23.720  1.00  0.00     0.027 H 
BRANCH  13  16
ATOM     16  C   UNL A   1      33.471  25.147  23.331  1.00  0.00    -0.056 C 
ATOM     17  H   UNL A   1      32.985  24.384  22.760  1.00  0.00     0.026 H 
ATOM     18  H   UNL A   1      32.890  25.453  24.175  1.00  0.00     0.026 H 
BRANCH  16  19
ATOM     19  C   UNL A   1      33.654  26.367  22.447  1.00  0.00    -0.065 C 
ATOM     20  H   UNL A   1      32.696  26.735  22.145  1.00  0.00     0.023 H 
ATOM     21  H   UNL A   1      34.222  26.099  21.581  1.00  0.00     0.023 H 
ATOM     22  H   UNL A   1      34.173  27.128  22.991  1.00  0.00     0.023 H 
ENDBRANCH  16  19
ENDBRANCH  13  16
ENDBRANCH  10  13
ENDBRANCH   8  10
BRANCH   8  23
ATOM     23  S   UNL A   1      34.910  22.157  26.827  1.00  0.00    -0.073 SA
BRANCH  23  24
ATOM     24  C   UNL A   1      33.344  22.316  26.068  1.00  0.00     0.195 A 
ATOM     25  N   UNL A   1      33.192  21.786  24.848  1.00  0.00    -0.187 NA
ATOM     26  N   UNL A   1      32.403  22.953  26.763  1.00  0.00    -0.187 NA
ATOM     27  C   UNL A   1      32.021  22.014  24.243  1.00  0.00     0.221 A 
ATOM     28  C   UNL A   1      31.231  23.123  26.152  1.00  0.00     0.221 A 
ATOM     29  C   UNL A   1      31.026  22.748  24.847  1.00  0.00     0.063 A 
ATOM     30  H   UNL A   1      30.164  23.006  24.341  1.00  0.00     0.074 H 
BRANCH  27  31
ATOM     31  O   UNL A   1      31.923  21.390  23.030  1.00  0.00    -0.477 OA
BRANCH  31  32
ATOM     32  C   UNL A   1      32.198  19.998  22.932  1.00  0.00     0.090 C 
ATOM     33  H   UNL A   1      33.180  19.887  22.523  1.00  0.00     0.071 H 
ATOM     34  H   UNL A   1      31.420  19.594  22.319  1.00  0.00     0.071 H 
BRANCH  32  35
ATOM     35  C   UNL A   1      32.143  19.203  24.257  1.00  0.00    -0.016 C 
ATOM     36  H   UNL A   1      31.129  18.897  24.410  1.00  0.00     0.030 H 
ATOM     37  H   UNL A   1      32.525  19.870  25.001  1.00  0.00     0.030 H 
BRANCH  35  38
ATOM     38  C   UNL A   1      33.025  17.950  24.345  1.00  0.00    -0.038 C 
ATOM     39  C   UNL A   1      34.504  18.252  24.627  1.00  0.00    -0.050 C 
ATOM     40  C   UNL A   1      32.526  16.939  25.387  1.00  0.00    -0.050 C 
ATOM     41  H   UNL A   1      32.949  17.519  23.369  1.00  0.00     0.030 H 
ATOM     42  C   UNL A   1      35.326  16.962  24.502  1.00  0.00    -0.053 C 
ATOM     43  H   UNL A   1      34.605  18.645  25.618  1.00  0.00     0.027 H 
ATOM     44  H   UNL A   1      34.861  18.972  23.920  1.00  0.00     0.027 H 
ATOM     45  C   UNL A   1      33.281  15.624  25.228  1.00  0.00    -0.053 C 
ATOM     46  H   UNL A   1      31.479  16.769  25.243  1.00  0.00     0.027 H 
ATOM     47  H   UNL A   1      32.693  17.330  26.369  1.00  0.00     0.027 H 
ATOM     48  C   UNL A   1      34.786  15.828  25.376  1.00  0.00    -0.053 C 
ATOM     49  H   UNL A   1      36.334  17.169  24.794  1.00  0.00     0.027 H 
ATOM     50  H   UNL A   1      35.265  16.641  23.483  1.00  0.00     0.027 H 
ATOM     51  H   UNL A   1      32.947  14.939  25.978  1.00  0.00     0.027 H 
ATOM     52  H   UNL A   1      33.086  15.239  24.249  1.00  0.00     0.027 H 
ATOM     53  H   UNL A   1      35.001  16.055  26.399  1.00  0.00     0.027 H 
ATOM     54  H   UNL A   1      35.263  14.925  25.058  1.00  0.00     0.027 H 
ENDBRANCH  35  38
ENDBRANCH  32  35
ENDBRANCH  31  32
ENDBRANCH  27  31
BRANCH  28  55
ATOM     55  O   UNL A   1      30.327  23.781  26.926  1.00  0.00    -0.477 OA
BRANCH  55  56
ATOM     56  C   UNL A   1      29.780  25.012  26.468  1.00  0.00     0.090 C 
ATOM     57  H   UNL A   1      29.620  25.665  27.300  1.00  0.00     0.071 H 
ATOM     58  H   UNL A   1      28.846  24.830  25.977  1.00  0.00     0.071 H 
BRANCH  56  59
ATOM     59  C   UNL A   1      30.759  25.665  25.484  1.00  0.00    -0.016 C 
ATOM     60  H   UNL A   1      30.284  25.693  24.526  1.00  0.00     0.030 H 
ATOM     61  H   UNL A   1      31.643  25.065  25.530  1.00  0.00     0.030 H 
BRANCH  59  62
ATOM     62  C   UNL A   1      31.230  27.104  25.817  1.00  0.00    -0.038 C 
ATOM     63  C   UNL A   1      32.599  27.180  26.525  1.00  0.00    -0.050 C 
ATOM     64  C   UNL A   1      31.028  28.049  24.626  1.00  0.00    -0.050 C 
ATOM     65  H   UNL A   1      30.581  27.482  26.579  1.00  0.00     0.030 H 
ATOM     66  C   UNL A   1      33.653  28.165  26.012  1.00  0.00    -0.053 C 
ATOM     67  H   UNL A   1      33.032  26.202  26.472  1.00  0.00     0.027 H 
ATOM     68  H   UNL A   1      32.361  27.548  27.501  1.00  0.00     0.027 H 
ATOM     69  C   UNL A   1      31.796  29.350  24.788  1.00  0.00    -0.053 C 
ATOM     70  H   UNL A   1      29.986  28.274  24.536  1.00  0.00     0.027 H 
ATOM     71  H   UNL A   1      31.398  27.556  23.750  1.00  0.00     0.027 H 
ATOM     72  C   UNL A   1      33.274  29.032  24.825  1.00  0.00    -0.053 C 
ATOM     73  H   UNL A   1      34.516  27.596  25.732  1.00  0.00     0.027 H 
ATOM     74  H   UNL A   1      33.805  28.851  26.819  1.00  0.00     0.027 H 
ATOM     75  H   UNL A   1      31.587  29.998  23.962  1.00  0.00     0.027 H 
ATOM     76  H   UNL A   1      31.502  29.839  25.693  1.00  0.00     0.027 H 
ATOM     77  H   UNL A   1      33.536  28.517  23.925  1.00  0.00     0.027 H 
ATOM     78  H   UNL A   1      33.802  29.958  24.919  1.00  0.00     0.027 H 
ENDBRANCH  59  62
ENDBRANCH  56  59
ENDBRANCH  55  56
ENDBRANCH  28  55
ENDBRANCH  23  24
ENDBRANCH   8  23
ENDBRANCH   5   8
ENDBRANCH   1   4
BRANCH   1  79
ATOM     79  C   UNL A   1      40.264  23.125  26.833  1.00  0.00    -0.036 C 
ATOM     80  H   UNL A   1      40.699  23.578  27.701  1.00  0.00     0.028 H 
ATOM     81  H   UNL A   1      40.817  23.345  25.943  1.00  0.00     0.028 H 
BRANCH  79  82
ATOM     82  C   UNL A   1      40.284  21.606  27.016  1.00  0.00    -0.052 C 
ATOM     83  H   UNL A   1      39.277  21.275  27.159  1.00  0.00     0.027 H 
ATOM     84  H   UNL A   1      40.915  21.411  27.858  1.00  0.00     0.027 H 
BRANCH  82  85
ATOM     85  C   UNL A   1      40.882  20.829  25.839  1.00  0.00    -0.052 C 
ATOM     86  H   UNL A   1      41.787  21.317  25.544  1.00  0.00     0.027 H 
ATOM     87  H   UNL A   1      40.132  20.824  25.075  1.00  0.00     0.027 H 
BRANCH  85  88
ATOM     88  C   UNL A   1      41.207  19.359  26.125  1.00  0.00    -0.036 C 
ATOM     89  H   UNL A   1      40.960  18.787  25.256  1.00  0.00     0.028 H 
ATOM     90  H   UNL A   1      40.636  19.086  26.987  1.00  0.00     0.028 H 
BRANCH  88  91
ATOM     91  C   UNL A   1      42.667  19.083  26.473  1.00  0.00     0.018 C 
ATOM     92  H   UNL A   1      42.714  18.227  27.114  1.00  0.00     0.049 H 
ATOM     93  H   UNL A   1      43.062  19.953  26.956  1.00  0.00     0.049 H 
BRANCH  91  94
ATOM     94  N   UNL A   1      43.472  18.825  25.288  1.00  0.00    -0.352 N 
ATOM     95  C   UNL A   1      44.192  19.692  24.518  1.00  0.00     0.251 C 
ATOM     96  H   UNL A   1      43.500  17.884  24.999  1.00  0.00     0.163 HD
ATOM     97  O   UNL A   1      44.667  19.311  23.443  1.00  0.00    -0.269 OA
BRANCH  95  98
ATOM     98  C   UNL A   1      44.401  21.087  24.950  1.00  0.00     0.039 A 
ATOM     99  C   UNL A   1      45.113  21.321  26.129  1.00  0.00    -0.049 A 
ATOM    100  C   UNL A   1      43.863  22.158  24.228  1.00  0.00    -0.049 A 
ATOM    101  C   UNL A   1      45.320  22.630  26.564  1.00  0.00    -0.053 A 
ATOM    102  H   UNL A   1      45.484  20.529  26.676  1.00  0.00     0.063 H 
ATOM    103  C   UNL A   1      44.119  23.466  24.632  1.00  0.00    -0.053 A 
ATOM    104  H   UNL A   1      43.277  21.978  23.397  1.00  0.00     0.063 H 
ATOM    105  C   UNL A   1      44.841  23.712  25.809  1.00  0.00    -0.014 A 
ATOM    106  H   UNL A   1      45.828  22.804  27.446  1.00  0.00     0.063 H 
ATOM    107  H   UNL A   1      43.776  24.256  24.064  1.00  0.00     0.063 H 
BRANCH 105 108
ATOM    108  C   UNL A   1      45.093  25.106  26.250  1.00  0.00     0.031 A 
ATOM    109  C   UNL A   1      46.467  25.702  26.140  1.00  0.00     0.074 A 
ATOM    110  C   UNL A   1      44.085  25.821  26.784  1.00  0.00     0.049 A 
ATOM    111  N   UNL A   1      46.878  26.900  26.474  1.00  0.00    -0.248 NA
ATOM    112  C   UNL A   1      47.526  24.832  25.607  1.00  0.00    -0.034 C 
ATOM    113  C   UNL A   1      42.723  25.329  26.996  1.00  0.00    -0.036 A 
ATOM    114  N   UNL A   1      44.050  27.110  27.248  1.00  0.00    -0.354 N 
ATOM    115  C   UNL A   1      48.239  26.922  26.205  1.00  0.00     0.074 A 
ATOM    116  C   UNL A   1      48.597  25.605  25.722  1.00  0.00    -0.034 C 
ATOM    117  H   UNL A   1      47.455  23.870  25.239  1.00  0.00     0.065 H 
ATOM    118  C   UNL A   1      41.979  26.313  27.528  1.00  0.00    -0.036 A 
ATOM    119  H   UNL A   1      42.387  24.379  26.772  1.00  0.00     0.065 H 
ATOM    120  C   UNL A   1      42.817  27.493  27.713  1.00  0.00     0.049 A 
ATOM    121  H   UNL A   1      44.836  27.705  27.249  1.00  0.00     0.167 HD
ATOM    122  C   UNL A   1      49.108  27.954  26.327  1.00  0.00     0.037 A 
ATOM    123  H   UNL A   1      49.559  25.307  25.496  1.00  0.00     0.065 H 
ATOM    124  H   UNL A   1      40.978  26.244  27.768  1.00  0.00     0.065 H 
ATOM    125  C   UNL A   1      42.408  28.669  28.227  1.00  0.00     0.037 A 
ATOM    126  C   UNL A   1      48.743  29.271  26.778  1.00  0.00     0.049 A 
ATOM    127  C   UNL A   1      43.384  29.809  28.317  1.00  0.00     0.074 A 
ATOM    128  C   UNL A   1      49.534  30.402  26.873  1.00  0.00    -0.036 A 
ATOM    129  N   UNL A   1      47.476  29.632  27.212  1.00  0.00    -0.354 N 
ATOM    130  N   UNL A   1      44.652  29.841  27.986  1.00  0.00    -0.248 NA
ATOM    131  C   UNL A   1      42.868  31.080  28.842  1.00  0.00    -0.034 C 
ATOM    132  C   UNL A   1      48.755  31.440  27.397  1.00  0.00    -0.036 A 
ATOM    133  H   UNL A   1      50.527  30.470  26.603  1.00  0.00     0.065 H 
ATOM    134  C   UNL A   1      47.467  30.965  27.590  1.00  0.00     0.049 A 
ATOM    135  H   UNL A   1      46.697  29.031  27.245  1.00  0.00     0.167 HD
ATOM    136  C   UNL A   1      45.079  31.137  28.241  1.00  0.00     0.074 A 
ATOM    137  C   UNL A   1      43.930  31.866  28.737  1.00  0.00    -0.034 C 
ATOM    138  H   UNL A   1      41.926  31.304  29.199  1.00  0.00     0.065 H 
ATOM    139  H   UNL A   1      49.082  32.397  27.602  1.00  0.00     0.065 H 
ATOM    140  C   UNL A   1      46.314  31.674  28.082  1.00  0.00     0.037 A 
ATOM    141  H   UNL A   1      43.938  32.869  28.977  1.00  0.00     0.065 H 
BRANCH 122 142
ATOM    142  C   UNL A   1      50.541  27.703  25.960  1.00  0.00     0.064 A 
ATOM    143  C   UNL A   1      51.493  27.339  26.924  1.00  0.00     0.173 A 
ATOM    144  C   UNL A   1      50.959  27.788  24.623  1.00  0.00     0.173 A 
ATOM    145  F   UNL A   1      51.145  27.257  28.216  1.00  0.00    -0.203 F 
ATOM    146  C   UNL A   1      52.815  27.093  26.567  1.00  0.00     0.198 A 
ATOM    147  C   UNL A   1      52.277  27.514  24.266  1.00  0.00     0.198 A 
ATOM    148  F   UNL A   1      50.088  28.128  23.661  1.00  0.00    -0.203 F 
ATOM    149  F   UNL A   1      53.717  26.787  27.511  1.00  0.00    -0.200 F 
ATOM    150  C   UNL A   1      53.205  27.174  25.239  1.00  0.00     0.200 A 
ATOM    151  F   UNL A   1      52.650  27.583  22.981  1.00  0.00    -0.200 F 
ATOM    152  F   UNL A   1      54.477  26.929  24.896  1.00  0.00    -0.200 F 
ENDBRANCH 122 142
BRANCH 125 153
ATOM    153  C   UNL A   1      40.998  28.836  28.656  1.00  0.00     0.064 A 
ATOM    154  C   UNL A   1      40.630  28.676  29.999  1.00  0.00     0.173 A 
ATOM    155  C   UNL A   1      39.990  29.160  27.737  1.00  0.00     0.173 A 
ATOM    156  F   UNL A   1      41.558  28.346  30.911  1.00  0.00    -0.203 F 
ATOM    157  C   UNL A   1      39.305  28.814  30.404  1.00  0.00     0.198 A 
ATOM    158  C   UNL A   1      38.669  29.323  28.146  1.00  0.00     0.198 A 
ATOM    159  F   UNL A   1      40.292  29.328  26.441  1.00  0.00    -0.203 F 
ATOM    160  F   UNL A   1      38.974  28.614  31.687  1.00  0.00    -0.200 F 
ATOM    161  C   UNL A   1      38.325  29.142  29.478  1.00  0.00     0.200 A 
ATOM    162  F   UNL A   1      37.727  29.650  27.252  1.00  0.00    -0.200 F 
ATOM    163  F   UNL A   1      37.050  29.277  29.869  1.00  0.00    -0.200 F 
ENDBRANCH 125 153
BRANCH 140 164
ATOM    164  C   UNL A   1      46.476  33.123  28.431  1.00  0.00     0.064 A 
ATOM    165  C   UNL A   1      46.259  34.134  27.483  1.00  0.00     0.173 A 
ATOM    166  C   UNL A   1      46.829  33.506  29.734  1.00  0.00     0.173 A 
ATOM    167  F   UNL A   1      45.936  33.816  26.220  1.00  0.00    -0.203 F 
ATOM    168  C   UNL A   1      46.419  35.475  27.818  1.00  0.00     0.198 A 
ATOM    169  C   UNL A   1      46.962  34.849  30.072  1.00  0.00     0.198 A 
ATOM    170  F   UNL A   1      47.041  32.577  30.677  1.00  0.00    -0.203 F 
ATOM    171  F   UNL A   1      46.256  36.422  26.884  1.00  0.00    -0.200 F 
ATOM    172  C   UNL A   1      46.765  35.832  29.114  1.00  0.00     0.200 A 
ATOM    173  F   UNL A   1      47.286  35.193  31.327  1.00  0.00    -0.200 F 
ATOM    174  F   UNL A   1      46.918  37.123  29.435  1.00  0.00    -0.200 F 
ENDBRANCH 140 164
ENDBRANCH 105 108
ENDBRANCH  95  98
ENDBRANCH  91  94
ENDBRANCH  88  91
ENDBRANCH  85  88
ENDBRANCH  82  85
ENDBRANCH  79  82
ENDBRANCH   1  79
TORSDOF 27
ENDMDL
MODEL 10
REMARK VINA RESULT:     -10.1      6.343     11.032
REMARK SMILES CCCC[C@@H](Sc1nc(OCCC2CCCCC2)cc(OCCC2CCCCC2)n1)C(=O)NCCCCCCNC(=O)c1ccc(-c2c3nc(c(-c4c(F)c(F)c(F)c(F)c4F)c4ccc([nH]4)c(-c4c(F)c(F)c(F)c(F)c4F)c4nc(c(-c5c(F)c(F)c(F)c(F)c5F)c5ccc2[nH]5)C=C4)C=C3)cc1
REMARK SMILES IDX 34 1 33 4 31 5 32 6 5 8 4 10 3 13 2 16 1 19 6 23 7 24 8 25
REMARK SMILES IDX 30 26 9 27 20 28 19 29 10 31 11 32 12 35 13 38 14 39 18 40
REMARK SMILES IDX 15 42 17 45 16 48 21 55 22 56 23 59 24 62 25 63 29 64 26 66
REMARK SMILES IDX 28 69 27 72 35 79 36 82 37 85 38 88 39 91 40 94 41 95 42 97
REMARK SMILES IDX 43 98 44 99 105 100 45 101 104 103 46 105 47 108 48 109
REMARK SMILES IDX 98 110 49 111 103 112 97 113 99 114 50 115 102 116 96 118
REMARK SMILES IDX 95 120 51 122 83 125 63 126 82 127 64 128 67 129 81 130
REMARK SMILES IDX 100 131 65 132 66 134 80 136 101 137 68 140 52 142 53 143
REMARK SMILES IDX 61 144 54 145 55 146 59 147 62 148 56 149 57 150 60 151
REMARK SMILES IDX 58 152 84 153 85 154 93 155 86 156 87 157 91 158 94 159
REMARK SMILES IDX 88 160 89 161 92 162 90 163 69 164 70 165 78 166 71 167
REMARK SMILES IDX 72 168 76 169 79 170 73 171 74 172 77 173 75 174
REMARK H PARENT 34 2 34 3 33 7 5 9 4 11 4 12 3 14 3 15 2 17 2 18 1 20 1 21
REMARK H PARENT 1 22 19 30 11 33 11 34 12 36 12 37 13 41 14 43 14 44 18 46
REMARK H PARENT 18 47 15 49 15 50 17 51 17 52 16 53 16 54 22 57 22 58 23 60
REMARK H PARENT 23 61 24 65 25 67 25 68 29 70 29 71 26 73 26 74 28 75 28 76
REMARK H PARENT 27 77 27 78 35 80 35 81 36 83 36 84 37 86 37 87 38 89 38 90
REMARK H PARENT 39 92 39 93 40 96 44 102 105 104 45 106 104 107 103 117 97 119
REMARK H PARENT 99 121 102 123 96 124 64 133 67 135 100 138 65 139 101 141
REMARK Flexibility Score: inf
ROOT
ATOM      1  C   UNL A   1      39.056  23.385  26.643  1.00  0.00     0.017 C 
ATOM      2  H   UNL A   1      38.602  22.876  27.467  1.00  0.00     0.049 H 
ATOM      3  H   UNL A   1      38.933  24.444  26.739  1.00  0.00     0.049 H 
ENDROOT
BRANCH   1   4
ATOM      4  N   UNL A   1      38.414  22.958  25.410  1.00  0.00    -0.355 N 
ATOM      5  C   UNL A   1      37.086  22.911  25.081  1.00  0.00     0.233 C 
ATOM      6  O   UNL A   1      36.789  22.517  23.950  1.00  0.00    -0.274 OA
ATOM      7  H   UNL A   1      39.029  22.657  24.703  1.00  0.00     0.163 HD
BRANCH   5   8
ATOM      8  C   UNL A   1      36.000  23.302  26.098  1.00  0.00     0.091 C 
ATOM      9  H   UNL A   1      36.306  23.672  27.054  1.00  0.00     0.052 H 
BRANCH   8  10
ATOM     10  C   UNL A   1      35.247  24.544  25.563  1.00  0.00    -0.032 C 
ATOM     11  H   UNL A   1      34.296  24.569  26.052  1.00  0.00     0.028 H 
ATOM     12  H   UNL A   1      35.911  25.356  25.770  1.00  0.00     0.028 H 
BRANCH  10  13
ATOM     13  C   UNL A   1      34.982  24.658  24.056  1.00  0.00    -0.052 C 
ATOM     14  H   UNL A   1      35.743  25.286  23.642  1.00  0.00     0.027 H 
ATOM     15  H   UNL A   1      34.981  23.648  23.701  1.00  0.00     0.027 H 
BRANCH  13  16
ATOM     16  C   UNL A   1      33.634  25.226  23.622  1.00  0.00    -0.056 C 
ATOM     17  H   UNL A   1      32.919  25.026  24.393  1.00  0.00     0.026 H 
ATOM     18  H   UNL A   1      33.770  26.274  23.459  1.00  0.00     0.026 H 
BRANCH  16  19
ATOM     19  C   UNL A   1      33.119  24.633  22.323  1.00  0.00    -0.065 C 
ATOM     20  H   UNL A   1      33.862  23.986  21.908  1.00  0.00     0.023 H 
ATOM     21  H   UNL A   1      32.906  25.421  21.631  1.00  0.00     0.023 H 
ATOM     22  H   UNL A   1      32.226  24.076  22.514  1.00  0.00     0.023 H 
ENDBRANCH  16  19
ENDBRANCH  13  16
ENDBRANCH  10  13
ENDBRANCH   8  10
BRANCH   8  23
ATOM     23  S   UNL A   1      35.125  21.717  26.497  1.00  0.00    -0.073 SA
BRANCH  23  24
ATOM     24  C   UNL A   1      33.645  21.906  25.585  1.00  0.00     0.195 A 
ATOM     25  N   UNL A   1      32.689  22.680  26.114  1.00  0.00    -0.187 NA
ATOM     26  N   UNL A   1      33.574  21.268  24.418  1.00  0.00    -0.187 NA
ATOM     27  C   UNL A   1      31.528  22.724  25.453  1.00  0.00     0.221 A 
ATOM     28  C   UNL A   1      32.420  21.368  23.760  1.00  0.00     0.221 A 
ATOM     29  C   UNL A   1      31.330  22.015  24.290  1.00  0.00     0.063 A 
ATOM     30  H   UNL A   1      30.404  21.971  23.837  1.00  0.00     0.074 H 
BRANCH  27  31
ATOM     31  O   UNL A   1      30.627  23.580  26.023  1.00  0.00    -0.477 OA
BRANCH  31  32
ATOM     32  C   UNL A   1      31.079  24.813  26.569  1.00  0.00     0.090 C 
ATOM     33  H   UNL A   1      32.148  24.813  26.536  1.00  0.00     0.071 H 
ATOM     34  H   UNL A   1      30.671  24.859  27.556  1.00  0.00     0.071 H 
BRANCH  32  35
ATOM     35  C   UNL A   1      30.583  26.091  25.853  1.00  0.00    -0.016 C 
ATOM     36  H   UNL A   1      29.661  26.383  26.312  1.00  0.00     0.030 H 
ATOM     37  H   UNL A   1      30.502  25.822  24.820  1.00  0.00     0.030 H 
BRANCH  35  38
ATOM     38  C   UNL A   1      31.522  27.305  25.881  1.00  0.00    -0.038 C 
ATOM     39  C   UNL A   1      31.337  28.259  24.693  1.00  0.00    -0.050 C 
ATOM     40  C   UNL A   1      31.413  28.116  27.180  1.00  0.00    -0.050 C 
ATOM     41  H   UNL A   1      32.497  26.870  25.816  1.00  0.00     0.030 H 
ATOM     42  C   UNL A   1      32.443  29.323  24.709  1.00  0.00    -0.053 C 
ATOM     43  H   UNL A   1      30.382  28.737  24.764  1.00  0.00     0.027 H 
ATOM     44  H   UNL A   1      31.390  27.704  23.779  1.00  0.00     0.027 H 
ATOM     45  C   UNL A   1      32.550  29.129  27.248  1.00  0.00    -0.053 C 
ATOM     46  H   UNL A   1      31.475  27.452  28.018  1.00  0.00     0.027 H 
ATOM     47  H   UNL A   1      30.475  28.630  27.198  1.00  0.00     0.027 H 
ATOM     48  C   UNL A   1      32.532  30.065  26.043  1.00  0.00    -0.053 C 
ATOM     49  H   UNL A   1      32.246  30.034  23.934  1.00  0.00     0.027 H 
ATOM     50  H   UNL A   1      33.375  28.819  24.558  1.00  0.00     0.027 H 
ATOM     51  H   UNL A   1      32.446  29.708  28.142  1.00  0.00     0.027 H 
ATOM     52  H   UNL A   1      33.478  28.596  27.249  1.00  0.00     0.027 H 
ATOM     53  H   UNL A   1      31.686  30.714  26.129  1.00  0.00     0.027 H 
ATOM     54  H   UNL A   1      33.454  30.608  26.047  1.00  0.00     0.027 H 
ENDBRANCH  35  38
ENDBRANCH  32  35
ENDBRANCH  31  32
ENDBRANCH  27  31
BRANCH  28  55
ATOM     55  O   UNL A   1      32.428  20.690  22.582  1.00  0.00    -0.477 OA
BRANCH  55  56
ATOM     56  C   UNL A   1      31.806  19.411  22.508  1.00  0.00     0.090 C 
ATOM     57  H   UNL A   1      31.168  19.373  21.650  1.00  0.00     0.071 H 
ATOM     58  H   UNL A   1      31.224  19.243  23.390  1.00  0.00     0.071 H 
BRANCH  56  59
ATOM     59  C   UNL A   1      32.888  18.330  22.391  1.00  0.00    -0.016 C 
ATOM     60  H   UNL A   1      33.680  18.729  21.792  1.00  0.00     0.030 H 
ATOM     61  H   UNL A   1      32.391  17.482  21.971  1.00  0.00     0.030 H 
BRANCH  59  62
ATOM     62  C   UNL A   1      33.513  17.819  23.714  1.00  0.00    -0.038 C 
ATOM     63  C   UNL A   1      32.528  17.754  24.900  1.00  0.00    -0.050 C 
ATOM     64  C   UNL A   1      34.380  16.576  23.481  1.00  0.00    -0.050 C 
ATOM     65  H   UNL A   1      34.196  18.570  24.052  1.00  0.00     0.030 H 
ATOM     66  C   UNL A   1      32.470  16.485  25.755  1.00  0.00    -0.053 C 
ATOM     67  H   UNL A   1      31.547  17.907  24.501  1.00  0.00     0.027 H 
ATOM     68  H   UNL A   1      32.894  18.499  25.576  1.00  0.00     0.027 H 
ATOM     69  C   UNL A   1      34.705  15.852  24.777  1.00  0.00    -0.053 C 
ATOM     70  H   UNL A   1      35.295  16.876  23.016  1.00  0.00     0.027 H 
ATOM     71  H   UNL A   1      33.827  15.903  22.858  1.00  0.00     0.027 H 
ATOM     72  C   UNL A   1      33.413  15.354  25.384  1.00  0.00    -0.053 C 
ATOM     73  H   UNL A   1      31.472  16.103  25.698  1.00  0.00     0.027 H 
ATOM     74  H   UNL A   1      32.781  16.795  26.731  1.00  0.00     0.027 H 
ATOM     75  H   UNL A   1      35.351  15.023  24.574  1.00  0.00     0.027 H 
ATOM     76  H   UNL A   1      35.198  16.516  25.455  1.00  0.00     0.027 H 
ATOM     77  H   UNL A   1      32.924  14.718  24.676  1.00  0.00     0.027 H 
ATOM     78  H   UNL A   1      33.658  14.830  26.283  1.00  0.00     0.027 H 
ENDBRANCH  59  62
ENDBRANCH  56  59
ENDBRANCH  55  56
ENDBRANCH  28  55
ENDBRANCH  23  24
ENDBRANCH   8  23
ENDBRANCH   5   8
ENDBRANCH   1   4
BRANCH   1  79
ATOM     79  C   UNL A   1      40.547  23.071  26.624  1.00  0.00    -0.036 C 
ATOM     80  H   UNL A   1      41.048  23.768  27.264  1.00  0.00     0.028 H 
ATOM     81  H   UNL A   1      40.873  23.150  25.607  1.00  0.00     0.028 H 
BRANCH  79  82
ATOM     82  C   UNL A   1      40.875  21.653  27.097  1.00  0.00    -0.052 C 
ATOM     83  H   UNL A   1      40.194  21.398  27.881  1.00  0.00     0.027 H 
ATOM     84  H   UNL A   1      41.897  21.670  27.415  1.00  0.00     0.027 H 
BRANCH  82  85
ATOM     85  C   UNL A   1      40.778  20.578  26.010  1.00  0.00    -0.052 C 
ATOM     86  H   UNL A   1      41.376  20.892  25.179  1.00  0.00     0.027 H 
ATOM     87  H   UNL A   1      39.738  20.486  25.776  1.00  0.00     0.027 H 
BRANCH  85  88
ATOM     88  C   UNL A   1      41.246  19.181  26.430  1.00  0.00    -0.036 C 
ATOM     89  H   UNL A   1      40.963  18.490  25.663  1.00  0.00     0.028 H 
ATOM     90  H   UNL A   1      40.783  18.978  27.372  1.00  0.00     0.028 H 
BRANCH  88  91
ATOM     91  C   UNL A   1      42.750  19.050  26.653  1.00  0.00     0.018 C 
ATOM     92  H   UNL A   1      42.928  18.249  27.340  1.00  0.00     0.049 H 
ATOM     93  H   UNL A   1      43.108  19.981  27.041  1.00  0.00     0.049 H 
BRANCH  91  94
ATOM     94  N   UNL A   1      43.464  18.774  25.416  1.00  0.00    -0.352 N 
ATOM     95  C   UNL A   1      44.136  19.627  24.589  1.00  0.00     0.251 C 
ATOM     96  H   UNL A   1      43.462  17.831  25.134  1.00  0.00     0.163 HD
ATOM     97  O   UNL A   1      44.529  19.233  23.486  1.00  0.00    -0.269 OA
BRANCH  95  98
ATOM     98  C   UNL A   1      44.388  21.023  24.993  1.00  0.00     0.039 A 
ATOM     99  C   UNL A   1      45.179  21.259  26.121  1.00  0.00    -0.049 A 
ATOM    100  C   UNL A   1      43.817  22.095  24.298  1.00  0.00    -0.049 A 
ATOM    101  C   UNL A   1      45.430  22.569  26.529  1.00  0.00    -0.053 A 
ATOM    102  H   UNL A   1      45.576  20.468  26.650  1.00  0.00     0.063 H 
ATOM    103  C   UNL A   1      44.115  23.403  24.671  1.00  0.00    -0.053 A 
ATOM    104  H   UNL A   1      43.176  21.915  23.508  1.00  0.00     0.063 H 
ATOM    105  C   UNL A   1      44.916  23.651  25.796  1.00  0.00    -0.014 A 
ATOM    106  H   UNL A   1      45.997  22.744  27.374  1.00  0.00     0.063 H 
ATOM    107  H   UNL A   1      43.745  24.192  24.119  1.00  0.00     0.063 H 
BRANCH 105 108
ATOM    108  C   UNL A   1      45.212  25.045  26.206  1.00  0.00     0.031 A 
ATOM    109  C   UNL A   1      44.143  25.898  26.827  1.00  0.00     0.074 A 
ATOM    110  C   UNL A   1      46.438  25.552  25.982  1.00  0.00     0.049 A 
ATOM    111  N   UNL A   1      44.214  27.136  27.247  1.00  0.00    -0.248 NA
ATOM    112  C   UNL A   1      42.812  25.289  26.976  1.00  0.00    -0.034 C 
ATOM    113  C   UNL A   1      47.539  24.839  25.331  1.00  0.00    -0.036 A 
ATOM    114  N   UNL A   1      46.964  26.785  26.272  1.00  0.00    -0.354 N 
ATOM    115  C   UNL A   1      42.940  27.457  27.696  1.00  0.00     0.074 A 
ATOM    116  C   UNL A   1      42.103  26.301  27.457  1.00  0.00    -0.034 C 
ATOM    117  H   UNL A   1      42.509  24.326  26.762  1.00  0.00     0.065 H 
ATOM    118  C   UNL A   1      48.617  25.639  25.293  1.00  0.00    -0.036 A 
ATOM    119  H   UNL A   1      47.494  23.876  24.962  1.00  0.00     0.065 H 
ATOM    120  C   UNL A   1      48.276  26.925  25.895  1.00  0.00     0.049 A 
ATOM    121  H   UNL A   1      46.449  27.501  26.709  1.00  0.00     0.167 HD
ATOM    122  C   UNL A   1      42.513  28.604  28.277  1.00  0.00     0.037 A 
ATOM    123  H   UNL A   1      41.087  26.268  27.638  1.00  0.00     0.065 H 
ATOM    124  H   UNL A   1      49.537  25.386  24.900  1.00  0.00     0.065 H 
ATOM    125  C   UNL A   1      49.112  27.972  26.026  1.00  0.00     0.037 A 
ATOM    126  C   UNL A   1      43.355  29.741  28.542  1.00  0.00     0.049 A 
ATOM    127  C   UNL A   1      48.622  29.220  26.707  1.00  0.00     0.074 A 
ATOM    128  C   UNL A   1      43.035  30.923  29.186  1.00  0.00    -0.036 A 
ATOM    129  N   UNL A   1      44.690  29.835  28.173  1.00  0.00    -0.354 N 
ATOM    130  N   UNL A   1      47.436  29.483  27.198  1.00  0.00    -0.248 NA
ATOM    131  C   UNL A   1      49.593  30.312  26.862  1.00  0.00    -0.034 C 
ATOM    132  C   UNL A   1      44.166  31.748  29.177  1.00  0.00    -0.036 A 
ATOM    133  H   UNL A   1      42.120  31.156  29.602  1.00  0.00     0.065 H 
ATOM    134  C   UNL A   1      45.202  31.062  28.563  1.00  0.00     0.049 A 
ATOM    135  H   UNL A   1      45.198  29.134  27.706  1.00  0.00     0.167 HD
ATOM    136  C   UNL A   1      47.522  30.759  27.738  1.00  0.00     0.074 A 
ATOM    137  C   UNL A   1      48.883  31.209  27.532  1.00  0.00    -0.034 C 
ATOM    138  H   UNL A   1      50.570  30.366  26.536  1.00  0.00     0.065 H 
ATOM    139  H   UNL A   1      44.220  32.703  29.563  1.00  0.00     0.065 H 
ATOM    140  C   UNL A   1      46.559  31.493  28.349  1.00  0.00     0.037 A 
ATOM    141  H   UNL A   1      49.253  32.112  27.864  1.00  0.00     0.065 H 
BRANCH 122 142
ATOM    142  C   UNL A   1      41.069  28.685  28.674  1.00  0.00     0.064 A 
ATOM    143  C   UNL A   1      40.073  29.038  27.751  1.00  0.00     0.173 A 
ATOM    144  C   UNL A   1      40.670  28.369  29.981  1.00  0.00     0.173 A 
ATOM    145  F   UNL A   1      40.404  29.362  26.493  1.00  0.00    -0.203 F 
ATOM    146  C   UNL A   1      38.734  29.094  28.128  1.00  0.00     0.198 A 
ATOM    147  C   UNL A   1      39.327  28.399  30.348  1.00  0.00     0.198 A 
ATOM    148  F   UNL A   1      41.582  28.021  30.902  1.00  0.00    -0.203 F 
ATOM    149  F   UNL A   1      37.804  29.474  27.240  1.00  0.00    -0.200 F 
ATOM    150  C   UNL A   1      38.361  28.768  29.423  1.00  0.00     0.200 A 
ATOM    151  F   UNL A   1      38.968  28.074  31.597  1.00  0.00    -0.200 F 
ATOM    152  F   UNL A   1      37.071  28.815  29.783  1.00  0.00    -0.200 F 
ENDBRANCH 122 142
BRANCH 125 153
ATOM    153  C   UNL A   1      50.509  27.868  25.536  1.00  0.00     0.064 A 
ATOM    154  C   UNL A   1      50.805  28.000  24.173  1.00  0.00     0.173 A 
ATOM    155  C   UNL A   1      51.574  27.635  26.417  1.00  0.00     0.173 A 
ATOM    156  F   UNL A   1      49.815  28.203  23.290  1.00  0.00    -0.203 F 
ATOM    157  C   UNL A   1      52.112  27.885  23.706  1.00  0.00     0.198 A 
ATOM    158  C   UNL A   1      52.884  27.546  25.953  1.00  0.00     0.198 A 
ATOM    159  F   UNL A   1      51.342  27.507  27.732  1.00  0.00    -0.203 F 
ATOM    160  F   UNL A   1      52.363  27.974  22.393  1.00  0.00    -0.200 F 
ATOM    161  C   UNL A   1      53.152  27.663  24.597  1.00  0.00     0.200 A 
ATOM    162  F   UNL A   1      53.887  27.342  26.817  1.00  0.00    -0.200 F 
ATOM    163  F   UNL A   1      54.410  27.554  24.148  1.00  0.00    -0.200 F 
ENDBRANCH 125 153
BRANCH 140 164
ATOM    164  C   UNL A   1      46.954  32.850  28.850  1.00  0.00     0.064 A 
ATOM    165  C   UNL A   1      46.814  33.995  28.053  1.00  0.00     0.173 A 
ATOM    166  C   UNL A   1      47.456  33.009  30.151  1.00  0.00     0.173 A 
ATOM    167  F   UNL A   1      46.354  33.891  26.797  1.00  0.00    -0.203 F 
ATOM    168  C   UNL A   1      47.191  35.248  28.529  1.00  0.00     0.198 A 
ATOM    169  C   UNL A   1      47.806  34.267  30.633  1.00  0.00     0.198 A 
ATOM    170  F   UNL A   1      47.603  31.944  30.953  1.00  0.00    -0.203 F 
ATOM    171  F   UNL A   1      47.095  36.321  27.733  1.00  0.00    -0.200 F 
ATOM    172  C   UNL A   1      47.681  35.383  29.820  1.00  0.00     0.200 A 
ATOM    173  F   UNL A   1      48.270  34.398  31.883  1.00  0.00    -0.200 F 
ATOM    174  F   UNL A   1      48.042  36.590  30.277  1.00  0.00    -0.200 F 
ENDBRANCH 140 164
ENDBRANCH 105 108
ENDBRANCH  95  98
ENDBRANCH  91  94
ENDBRANCH  88  91
ENDBRANCH  85  88
ENDBRANCH  82  85
ENDBRANCH  79  82
ENDBRANCH   1  79
TORSDOF 27
ENDMDL
