MODEL 1
REMARK VINA RESULT:      -9.2      0.000      0.000
REMARK SMILES CC/C=C/C/C=C/C/C=C/C/C=C/CC/C=C/COCC(=O)NCCCCCCNC(=O)c1ccc(-c2c3nc(c(-c4c(F)c(F)c(F)c(F)c4F)c4ccc([nH]4)c(-c4c(F)c(F)c(F)c(F)c4F)c4nc(c(-c5c(F)c(F)c(F)c(F)c5F)c5ccc2[nH]5)C=C4)C=C3)cc1
REMARK SMILES IDX 18 1 17 4 16 5 15 8 14 11 13 14 12 15 11 18 10 21 9 22 8 25
REMARK SMILES IDX 7 28 6 29 5 32 4 35 3 36 2 39 1 42 19 46 20 47 21 50 22 51
REMARK SMILES IDX 23 52 24 54 25 57 26 60 27 63 28 66 29 69 30 72 31 73 32 75
REMARK SMILES IDX 33 76 34 77 95 78 35 79 94 81 36 83 37 86 38 87 88 88 39 89
REMARK SMILES IDX 93 90 87 91 89 92 40 93 92 94 86 96 85 98 41 100 73 103
REMARK SMILES IDX 53 104 72 105 54 106 57 107 71 108 90 109 55 110 56 112
REMARK SMILES IDX 70 114 91 115 58 118 42 120 43 121 51 122 44 123 45 124
REMARK SMILES IDX 49 125 52 126 46 127 47 128 50 129 48 130 74 131 75 132
REMARK SMILES IDX 83 133 76 134 77 135 81 136 84 137 78 138 79 139 82 140
REMARK SMILES IDX 80 141 59 142 60 143 68 144 61 145 62 146 66 147 69 148
REMARK SMILES IDX 63 149 64 150 67 151 65 152
REMARK H PARENT 18 2 18 3 16 6 17 7 15 9 15 10 14 12 14 13 12 16 13 17 11 19
REMARK H PARENT 11 20 9 23 10 24 8 26 8 27 6 30 7 31 5 33 5 34 3 37 4 38 2 40
REMARK H PARENT 2 41 1 43 1 44 1 45 20 48 20 49 23 53 24 55 24 56 25 58 25 59
REMARK H PARENT 26 61 26 62 27 64 27 65 28 67 28 68 29 70 29 71 30 74 34 80
REMARK H PARENT 95 82 35 84 94 85 93 95 87 97 89 99 92 101 86 102 54 111
REMARK H PARENT 57 113 90 116 55 117 91 119
REMARK Flexibility Score: inf
ROOT
ATOM      1  C   UNL A   1      30.088  25.553  25.906  1.00  0.00     0.065 C 
ATOM      2  H   UNL A   1      29.506  25.801  26.769  1.00  0.00     0.061 H 
ATOM      3  H   UNL A   1      29.582  24.810  25.326  1.00  0.00     0.061 H 
ENDROOT
BRANCH   1   4
ATOM      4  C   UNL A   1      31.413  25.011  26.343  1.00  0.00    -0.063 C 
ATOM      5  C   UNL A   1      32.220  24.318  25.526  1.00  0.00    -0.086 C 
ATOM      6  H   UNL A   1      31.963  24.267  24.528  1.00  0.00     0.057 H 
ATOM      7  H   UNL A   1      31.718  25.178  27.314  1.00  0.00     0.060 H 
BRANCH   5   8
ATOM      8  C   UNL A   1      33.471  23.610  25.965  1.00  0.00    -0.032 C 
ATOM      9  H   UNL A   1      33.545  23.671  27.031  1.00  0.00     0.031 H 
ATOM     10  H   UNL A   1      33.405  22.594  25.637  1.00  0.00     0.031 H 
BRANCH   8  11
ATOM     11  C   UNL A   1      34.737  24.224  25.344  1.00  0.00    -0.032 C 
ATOM     12  H   UNL A   1      34.745  24.002  24.297  1.00  0.00     0.031 H 
ATOM     13  H   UNL A   1      34.707  25.276  25.530  1.00  0.00     0.031 H 
BRANCH  11  14
ATOM     14  C   UNL A   1      36.008  23.694  25.955  1.00  0.00    -0.088 C 
ATOM     15  C   UNL A   1      37.240  24.072  25.585  1.00  0.00    -0.085 C 
ATOM     16  H   UNL A   1      37.330  24.801  24.861  1.00  0.00     0.058 H 
ATOM     17  H   UNL A   1      35.924  22.995  26.710  1.00  0.00     0.057 H 
BRANCH  15  18
ATOM     18  C   UNL A   1      38.499  23.492  26.165  1.00  0.00    -0.017 C 
ATOM     19  H   UNL A   1      39.339  23.832  25.596  1.00  0.00     0.035 H 
ATOM     20  H   UNL A   1      38.592  23.812  27.182  1.00  0.00     0.035 H 
BRANCH  18  21
ATOM     21  C   UNL A   1      38.449  21.992  26.127  1.00  0.00    -0.084 C 
ATOM     22  C   UNL A   1      38.150  21.276  25.030  1.00  0.00    -0.084 C 
ATOM     23  H   UNL A   1      37.977  21.789  24.152  1.00  0.00     0.058 H 
ATOM     24  H   UNL A   1      38.657  21.478  26.998  1.00  0.00     0.058 H 
BRANCH  22  25
ATOM     25  C   UNL A   1      38.052  19.779  25.001  1.00  0.00    -0.017 C 
ATOM     26  H   UNL A   1      38.690  19.399  24.232  1.00  0.00     0.035 H 
ATOM     27  H   UNL A   1      38.352  19.394  25.954  1.00  0.00     0.035 H 
BRANCH  25  28
ATOM     28  C   UNL A   1      36.639  19.350  24.727  1.00  0.00    -0.084 C 
ATOM     29  C   UNL A   1      35.558  20.099  25.000  1.00  0.00    -0.084 C 
ATOM     30  H   UNL A   1      35.709  21.036  25.404  1.00  0.00     0.058 H 
ATOM     31  H   UNL A   1      36.489  18.421  24.304  1.00  0.00     0.058 H 
BRANCH  29  32
ATOM     32  C   UNL A   1      34.143  19.659  24.754  1.00  0.00    -0.017 C 
ATOM     33  H   UNL A   1      33.559  19.854  25.628  1.00  0.00     0.035 H 
ATOM     34  H   UNL A   1      33.756  20.203  23.917  1.00  0.00     0.035 H 
BRANCH  32  35
ATOM     35  C   UNL A   1      34.088  18.191  24.441  1.00  0.00    -0.085 C 
ATOM     36  C   UNL A   1      33.130  17.362  24.885  1.00  0.00    -0.089 C 
ATOM     37  H   UNL A   1      32.379  17.757  25.471  1.00  0.00     0.057 H 
ATOM     38  H   UNL A   1      34.833  17.795  23.847  1.00  0.00     0.058 H 
BRANCH  36  39
ATOM     39  C   UNL A   1      33.087  15.892  24.579  1.00  0.00    -0.038 C 
ATOM     40  H   UNL A   1      32.468  15.733  23.720  1.00  0.00     0.031 H 
ATOM     41  H   UNL A   1      34.085  15.556  24.392  1.00  0.00     0.031 H 
BRANCH  39  42
ATOM     42  C   UNL A   1      32.523  15.103  25.750  1.00  0.00    -0.062 C 
ATOM     43  H   UNL A   1      31.469  14.976  25.620  1.00  0.00     0.023 H 
ATOM     44  H   UNL A   1      32.709  15.633  26.660  1.00  0.00     0.023 H 
ATOM     45  H   UNL A   1      32.995  14.143  25.793  1.00  0.00     0.023 H 
ENDBRANCH  39  42
ENDBRANCH  36  39
ENDBRANCH  32  35
ENDBRANCH  29  32
ENDBRANCH  25  28
ENDBRANCH  22  25
ENDBRANCH  18  21
ENDBRANCH  15  18
ENDBRANCH  11  14
ENDBRANCH   8  11
ENDBRANCH   5   8
ENDBRANCH   1   4
BRANCH   1  46
ATOM     46  O   UNL A   1      30.274  26.722  25.108  1.00  0.00    -0.368 OA
BRANCH  46  47
ATOM     47  C   UNL A   1      29.562  26.703  23.876  1.00  0.00     0.126 C 
ATOM     48  H   UNL A   1      28.525  26.838  24.102  1.00  0.00     0.067 H 
ATOM     49  H   UNL A   1      29.813  25.762  23.430  1.00  0.00     0.067 H 
BRANCH  47  50
ATOM     50  C   UNL A   1      29.943  27.749  22.822  1.00  0.00     0.246 C 
ATOM     51  O   UNL A   1      29.342  28.818  22.709  1.00  0.00    -0.272 OA
ATOM     52  N   UNL A   1      31.005  27.497  22.002  1.00  0.00    -0.354 N 
ATOM     53  H   UNL A   1      31.265  28.229  21.396  1.00  0.00     0.163 HD
BRANCH  52  54
ATOM     54  C   UNL A   1      31.796  26.287  21.912  1.00  0.00     0.017 C 
ATOM     55  H   UNL A   1      31.587  25.802  20.982  1.00  0.00     0.049 H 
ATOM     56  H   UNL A   1      31.540  25.653  22.734  1.00  0.00     0.049 H 
BRANCH  54  57
ATOM     57  C   UNL A   1      33.291  26.597  21.988  1.00  0.00    -0.036 C 
ATOM     58  H   UNL A   1      33.621  26.894  21.014  1.00  0.00     0.028 H 
ATOM     59  H   UNL A   1      33.771  25.706  22.335  1.00  0.00     0.028 H 
BRANCH  57  60
ATOM     60  C   UNL A   1      33.655  27.709  22.980  1.00  0.00    -0.052 C 
ATOM     61  H   UNL A   1      32.881  28.448  22.947  1.00  0.00     0.027 H 
ATOM     62  H   UNL A   1      34.611  28.079  22.675  1.00  0.00     0.027 H 
BRANCH  60  63
ATOM     63  C   UNL A   1      33.818  27.258  24.436  1.00  0.00    -0.052 C 
ATOM     64  H   UNL A   1      34.860  27.091  24.616  1.00  0.00     0.027 H 
ATOM     65  H   UNL A   1      33.221  26.376  24.543  1.00  0.00     0.027 H 
BRANCH  63  66
ATOM     66  C   UNL A   1      33.308  28.250  25.483  1.00  0.00    -0.036 C 
ATOM     67  H   UNL A   1      32.707  27.713  26.187  1.00  0.00     0.028 H 
ATOM     68  H   UNL A   1      32.763  28.999  24.950  1.00  0.00     0.028 H 
BRANCH  66  69
ATOM     69  C   UNL A   1      34.404  28.981  26.254  1.00  0.00     0.018 C 
ATOM     70  H   UNL A   1      35.274  29.048  25.635  1.00  0.00     0.049 H 
ATOM     71  H   UNL A   1      34.602  28.425  27.147  1.00  0.00     0.049 H 
BRANCH  69  72
ATOM     72  N   UNL A   1      34.003  30.324  26.645  1.00  0.00    -0.352 N 
ATOM     73  C   UNL A   1      34.504  31.135  27.631  1.00  0.00     0.251 C 
ATOM     74  H   UNL A   1      33.261  30.707  26.123  1.00  0.00     0.163 HD
ATOM     75  O   UNL A   1      33.914  32.168  27.940  1.00  0.00    -0.269 OA
BRANCH  73  76
ATOM     76  C   UNL A   1      35.740  30.755  28.348  1.00  0.00     0.039 A 
ATOM     77  C   UNL A   1      35.670  29.767  29.331  1.00  0.00    -0.049 A 
ATOM     78  C   UNL A   1      36.962  31.363  28.048  1.00  0.00    -0.049 A 
ATOM     79  C   UNL A   1      36.839  29.328  29.957  1.00  0.00    -0.053 A 
ATOM     80  H   UNL A   1      34.758  29.362  29.596  1.00  0.00     0.063 H 
ATOM     81  C   UNL A   1      38.136  30.876  28.619  1.00  0.00    -0.053 A 
ATOM     82  H   UNL A   1      36.995  32.169  27.404  1.00  0.00     0.063 H 
ATOM     83  C   UNL A   1      38.088  29.845  29.570  1.00  0.00    -0.014 A 
ATOM     84  H   UNL A   1      36.787  28.622  30.707  1.00  0.00     0.063 H 
ATOM     85  H   UNL A   1      39.046  31.277  28.343  1.00  0.00     0.063 H 
BRANCH  83  86
ATOM     86  C   UNL A   1      39.351  29.279  30.111  1.00  0.00     0.031 A 
ATOM     87  C   UNL A   1      40.027  29.907  31.297  1.00  0.00     0.074 A 
ATOM     88  C   UNL A   1      39.926  28.234  29.481  1.00  0.00     0.049 A 
ATOM     89  N   UNL A   1      41.165  29.590  31.862  1.00  0.00    -0.248 NA
ATOM     90  C   UNL A   1      39.347  31.054  31.917  1.00  0.00    -0.034 C 
ATOM     91  C   UNL A   1      39.392  27.569  28.291  1.00  0.00    -0.036 A 
ATOM     92  N   UNL A   1      41.091  27.557  29.743  1.00  0.00    -0.354 N 
ATOM     93  C   UNL A   1      41.342  30.500  32.896  1.00  0.00     0.074 A 
ATOM     94  C   UNL A   1      40.218  31.412  32.851  1.00  0.00    -0.034 C 
ATOM     95  H   UNL A   1      38.432  31.471  31.687  1.00  0.00     0.065 H 
ATOM     96  C   UNL A   1      40.216  26.571  27.937  1.00  0.00    -0.036 A 
ATOM     97  H   UNL A   1      38.521  27.827  27.802  1.00  0.00     0.065 H 
ATOM     98  C   UNL A   1      41.359  26.554  28.844  1.00  0.00     0.049 A 
ATOM     99  H   UNL A   1      41.679  27.771  30.504  1.00  0.00     0.167 HD
ATOM    100  C   UNL A   1      42.341  30.557  33.808  1.00  0.00     0.037 A 
ATOM    101  H   UNL A   1      40.109  32.234  33.465  1.00  0.00     0.065 H 
ATOM    102  H   UNL A   1      40.065  25.921  27.150  1.00  0.00     0.065 H 
ATOM    103  C   UNL A   1      42.415  25.723  28.749  1.00  0.00     0.037 A 
ATOM    104  C   UNL A   1      43.448  29.638  33.858  1.00  0.00     0.049 A 
ATOM    105  C   UNL A   1      43.522  25.826  29.763  1.00  0.00     0.074 A 
ATOM    106  C   UNL A   1      44.472  29.572  34.787  1.00  0.00    -0.036 A 
ATOM    107  N   UNL A   1      43.683  28.630  32.933  1.00  0.00    -0.354 N 
ATOM    108  N   UNL A   1      43.635  26.639  30.785  1.00  0.00    -0.248 NA
ATOM    109  C   UNL A   1      44.649  24.895  29.612  1.00  0.00    -0.034 C 
ATOM    110  C   UNL A   1      45.360  28.568  34.391  1.00  0.00    -0.036 A 
ATOM    111  H   UNL A   1      44.565  30.164  35.628  1.00  0.00     0.065 H 
ATOM    112  C   UNL A   1      44.857  27.964  33.250  1.00  0.00     0.049 A 
ATOM    113  H   UNL A   1      43.103  28.420  32.166  1.00  0.00     0.167 HD
ATOM    114  C   UNL A   1      44.828  26.302  31.411  1.00  0.00     0.074 A 
ATOM    115  C   UNL A   1      45.391  25.196  30.667  1.00  0.00    -0.034 C 
ATOM    116  H   UNL A   1      44.817  24.191  28.876  1.00  0.00     0.065 H 
ATOM    117  H   UNL A   1      46.241  28.318  34.867  1.00  0.00     0.065 H 
ATOM    118  C   UNL A   1      45.407  26.863  32.501  1.00  0.00     0.037 A 
ATOM    119  H   UNL A   1      46.261  24.703  30.926  1.00  0.00     0.065 H 
BRANCH 100 120
ATOM    120  C   UNL A   1      42.291  31.652  34.836  1.00  0.00     0.064 A 
ATOM    121  C   UNL A   1      41.623  31.486  36.058  1.00  0.00     0.173 A 
ATOM    122  C   UNL A   1      42.977  32.858  34.623  1.00  0.00     0.173 A 
ATOM    123  F   UNL A   1      40.945  30.356  36.309  1.00  0.00    -0.203 F 
ATOM    124  C   UNL A   1      41.625  32.494  37.020  1.00  0.00     0.198 A 
ATOM    125  C   UNL A   1      43.003  33.851  35.599  1.00  0.00     0.198 A 
ATOM    126  F   UNL A   1      43.638  33.066  33.475  1.00  0.00    -0.203 F 
ATOM    127  F   UNL A   1      40.947  32.328  38.164  1.00  0.00    -0.200 F 
ATOM    128  C   UNL A   1      42.323  33.670  36.793  1.00  0.00     0.200 A 
ATOM    129  F   UNL A   1      43.692  34.980  35.385  1.00  0.00    -0.200 F 
ATOM    130  F   UNL A   1      42.338  34.632  37.726  1.00  0.00    -0.200 F 
ENDBRANCH 100 120
BRANCH 103 131
ATOM    131  C   UNL A   1      42.481  24.722  27.651  1.00  0.00     0.064 A 
ATOM    132  C   UNL A   1      41.933  23.441  27.806  1.00  0.00     0.173 A 
ATOM    133  C   UNL A   1      43.113  25.016  26.433  1.00  0.00     0.173 A 
ATOM    134  F   UNL A   1      41.337  23.104  28.960  1.00  0.00    -0.203 F 
ATOM    135  C   UNL A   1      42.038  22.485  26.798  1.00  0.00     0.198 A 
ATOM    136  C   UNL A   1      43.186  24.070  25.413  1.00  0.00     0.198 A 
ATOM    137  F   UNL A   1      43.650  26.228  26.230  1.00  0.00    -0.203 F 
ATOM    138  F   UNL A   1      41.555  21.251  26.996  1.00  0.00    -0.200 F 
ATOM    139  C   UNL A   1      42.659  22.802  25.600  1.00  0.00     0.200 A 
ATOM    140  F   UNL A   1      43.773  24.388  24.250  1.00  0.00    -0.200 F 
ATOM    141  F   UNL A   1      42.759  21.883  24.630  1.00  0.00    -0.200 F 
ENDBRANCH 103 131
BRANCH 118 142
ATOM    142  C   UNL A   1      46.707  26.273  32.970  1.00  0.00     0.064 A 
ATOM    143  C   UNL A   1      47.943  26.785  32.549  1.00  0.00     0.173 A 
ATOM    144  C   UNL A   1      46.715  25.205  33.881  1.00  0.00     0.173 A 
ATOM    145  F   UNL A   1      47.991  27.794  31.667  1.00  0.00    -0.203 F 
ATOM    146  C   UNL A   1      49.138  26.232  33.001  1.00  0.00     0.198 A 
ATOM    147  C   UNL A   1      47.912  24.677  34.357  1.00  0.00     0.198 A 
ATOM    148  F   UNL A   1      45.562  24.681  34.321  1.00  0.00    -0.203 F 
ATOM    149  F   UNL A   1      50.307  26.703  32.544  1.00  0.00    -0.200 F 
ATOM    150  C   UNL A   1      49.123  25.185  33.910  1.00  0.00     0.200 A 
ATOM    151  F   UNL A   1      47.894  23.677  35.249  1.00  0.00    -0.200 F 
ATOM    152  F   UNL A   1      50.274  24.660  34.351  1.00  0.00    -0.200 F 
ENDBRANCH 118 142
ENDBRANCH  83  86
ENDBRANCH  73  76
ENDBRANCH  69  72
ENDBRANCH  66  69
ENDBRANCH  63  66
ENDBRANCH  60  63
ENDBRANCH  57  60
ENDBRANCH  54  57
ENDBRANCH  52  54
ENDBRANCH  47  50
ENDBRANCH  46  47
ENDBRANCH   1  46
TORSDOF 27
ENDMDL
MODEL 2
REMARK VINA RESULT:      -9.2      3.068      6.332
REMARK SMILES CC/C=C/C/C=C/C/C=C/C/C=C/CC/C=C/COCC(=O)NCCCCCCNC(=O)c1ccc(-c2c3nc(c(-c4c(F)c(F)c(F)c(F)c4F)c4ccc([nH]4)c(-c4c(F)c(F)c(F)c(F)c4F)c4nc(c(-c5c(F)c(F)c(F)c(F)c5F)c5ccc2[nH]5)C=C4)C=C3)cc1
REMARK SMILES IDX 18 1 17 4 16 5 15 8 14 11 13 14 12 15 11 18 10 21 9 22 8 25
REMARK SMILES IDX 7 28 6 29 5 32 4 35 3 36 2 39 1 42 19 46 20 47 21 50 22 51
REMARK SMILES IDX 23 52 24 54 25 57 26 60 27 63 28 66 29 69 30 72 31 73 32 75
REMARK SMILES IDX 33 76 34 77 95 78 35 79 94 81 36 83 37 86 38 87 88 88 39 89
REMARK SMILES IDX 93 90 87 91 89 92 40 93 92 94 86 96 85 98 41 100 73 103
REMARK SMILES IDX 53 104 72 105 54 106 57 107 71 108 90 109 55 110 56 112
REMARK SMILES IDX 70 114 91 115 58 118 42 120 43 121 51 122 44 123 45 124
REMARK SMILES IDX 49 125 52 126 46 127 47 128 50 129 48 130 74 131 75 132
REMARK SMILES IDX 83 133 76 134 77 135 81 136 84 137 78 138 79 139 82 140
REMARK SMILES IDX 80 141 59 142 60 143 68 144 61 145 62 146 66 147 69 148
REMARK SMILES IDX 63 149 64 150 67 151 65 152
REMARK H PARENT 18 2 18 3 16 6 17 7 15 9 15 10 14 12 14 13 12 16 13 17 11 19
REMARK H PARENT 11 20 9 23 10 24 8 26 8 27 6 30 7 31 5 33 5 34 3 37 4 38 2 40
REMARK H PARENT 2 41 1 43 1 44 1 45 20 48 20 49 23 53 24 55 24 56 25 58 25 59
REMARK H PARENT 26 61 26 62 27 64 27 65 28 67 28 68 29 70 29 71 30 74 34 80
REMARK H PARENT 95 82 35 84 94 85 93 95 87 97 89 99 92 101 86 102 54 111
REMARK H PARENT 57 113 90 116 55 117 91 119
REMARK Flexibility Score: inf
ROOT
ATOM      1  C   UNL A   1      33.036  26.168  25.954  1.00  0.00     0.065 C 
ATOM      2  H   UNL A   1      32.372  26.322  26.779  1.00  0.00     0.061 H 
ATOM      3  H   UNL A   1      32.481  26.147  25.039  1.00  0.00     0.061 H 
ENDROOT
BRANCH   1   4
ATOM      4  C   UNL A   1      33.743  24.861  26.126  1.00  0.00    -0.063 C 
ATOM      5  C   UNL A   1      34.963  24.623  25.622  1.00  0.00    -0.086 C 
ATOM      6  H   UNL A   1      35.475  25.417  25.207  1.00  0.00     0.057 H 
ATOM      7  H   UNL A   1      33.272  24.111  26.655  1.00  0.00     0.060 H 
BRANCH   5   8
ATOM      8  C   UNL A   1      35.636  23.279  25.620  1.00  0.00    -0.032 C 
ATOM      9  H   UNL A   1      36.644  23.398  25.959  1.00  0.00     0.031 H 
ATOM     10  H   UNL A   1      35.081  22.634  26.267  1.00  0.00     0.031 H 
BRANCH   8  11
ATOM     11  C   UNL A   1      35.655  22.639  24.222  1.00  0.00    -0.032 C 
ATOM     12  H   UNL A   1      36.673  22.540  23.906  1.00  0.00     0.031 H 
ATOM     13  H   UNL A   1      35.167  21.690  24.296  1.00  0.00     0.031 H 
BRANCH  11  14
ATOM     14  C   UNL A   1      34.912  23.449  23.193  1.00  0.00    -0.088 C 
ATOM     15  C   UNL A   1      33.707  23.126  22.701  1.00  0.00    -0.085 C 
ATOM     16  H   UNL A   1      33.236  22.288  23.076  1.00  0.00     0.058 H 
ATOM     17  H   UNL A   1      35.360  24.312  22.844  1.00  0.00     0.057 H 
BRANCH  15  18
ATOM     18  C   UNL A   1      33.004  23.915  21.633  1.00  0.00    -0.017 C 
ATOM     19  H   UNL A   1      33.534  23.810  20.709  1.00  0.00     0.035 H 
ATOM     20  H   UNL A   1      32.006  23.544  21.527  1.00  0.00     0.035 H 
BRANCH  18  21
ATOM     21  C   UNL A   1      32.948  25.368  22.009  1.00  0.00    -0.084 C 
ATOM     22  C   UNL A   1      31.823  26.011  22.363  1.00  0.00    -0.084 C 
ATOM     23  H   UNL A   1      30.950  25.464  22.414  1.00  0.00     0.058 H 
ATOM     24  H   UNL A   1      33.829  25.906  21.993  1.00  0.00     0.058 H 
BRANCH  22  25
ATOM     25  C   UNL A   1      31.757  27.474  22.692  1.00  0.00    -0.017 C 
ATOM     26  H   UNL A   1      32.010  27.616  23.721  1.00  0.00     0.035 H 
ATOM     27  H   UNL A   1      32.446  28.001  22.065  1.00  0.00     0.035 H 
BRANCH  25  28
ATOM     28  C   UNL A   1      30.373  28.005  22.446  1.00  0.00    -0.084 C 
ATOM     29  C   UNL A   1      29.343  27.845  23.293  1.00  0.00    -0.084 C 
ATOM     30  H   UNL A   1      29.518  27.342  24.177  1.00  0.00     0.058 H 
ATOM     31  H   UNL A   1      30.203  28.526  21.571  1.00  0.00     0.058 H 
BRANCH  29  32
ATOM     32  C   UNL A   1      27.953  28.350  23.034  1.00  0.00    -0.017 C 
ATOM     33  H   UNL A   1      27.501  27.756  22.269  1.00  0.00     0.035 H 
ATOM     34  H   UNL A   1      27.390  28.280  23.942  1.00  0.00     0.035 H 
BRANCH  32  35
ATOM     35  C   UNL A   1      27.980  29.785  22.594  1.00  0.00    -0.085 C 
ATOM     36  C   UNL A   1      28.083  30.829  23.433  1.00  0.00    -0.089 C 
ATOM     37  H   UNL A   1      28.156  30.633  24.443  1.00  0.00     0.057 H 
ATOM     38  H   UNL A   1      27.917  29.982  21.583  1.00  0.00     0.058 H 
BRANCH  36  39
ATOM     39  C   UNL A   1      28.098  32.263  22.988  1.00  0.00    -0.038 C 
ATOM     40  H   UNL A   1      27.214  32.748  23.346  1.00  0.00     0.031 H 
ATOM     41  H   UNL A   1      28.974  32.731  23.387  1.00  0.00     0.031 H 
BRANCH  39  42
ATOM     42  C   UNL A   1      28.144  32.368  21.472  1.00  0.00    -0.062 C 
ATOM     43  H   UNL A   1      27.574  33.217  21.156  1.00  0.00     0.023 H 
ATOM     44  H   UNL A   1      27.732  31.481  21.040  1.00  0.00     0.023 H 
ATOM     45  H   UNL A   1      29.159  32.483  21.152  1.00  0.00     0.023 H 
ENDBRANCH  39  42
ENDBRANCH  36  39
ENDBRANCH  32  35
ENDBRANCH  29  32
ENDBRANCH  25  28
ENDBRANCH  22  25
ENDBRANCH  18  21
ENDBRANCH  15  18
ENDBRANCH  11  14
ENDBRANCH   8  11
ENDBRANCH   5   8
ENDBRANCH   1   4
BRANCH   1  46
ATOM     46  O   UNL A   1      33.982  27.236  25.901  1.00  0.00    -0.368 OA
BRANCH  46  47
ATOM     47  C   UNL A   1      33.691  28.313  26.787  1.00  0.00     0.126 C 
ATOM     48  H   UNL A   1      34.530  28.427  27.440  1.00  0.00     0.067 H 
ATOM     49  H   UNL A   1      32.774  28.034  27.264  1.00  0.00     0.067 H 
BRANCH  47  50
ATOM     50  C   UNL A   1      33.404  29.684  26.162  1.00  0.00     0.246 C 
ATOM     51  O   UNL A   1      32.758  29.810  25.121  1.00  0.00    -0.272 OA
ATOM     52  N   UNL A   1      33.857  30.803  26.799  1.00  0.00    -0.354 N 
ATOM     53  H   UNL A   1      33.582  31.663  26.407  1.00  0.00     0.163 HD
BRANCH  52  54
ATOM     54  C   UNL A   1      34.694  30.881  27.980  1.00  0.00     0.017 C 
ATOM     55  H   UNL A   1      35.393  30.072  27.966  1.00  0.00     0.049 H 
ATOM     56  H   UNL A   1      34.066  30.823  28.844  1.00  0.00     0.049 H 
BRANCH  54  57
ATOM     57  C   UNL A   1      35.460  32.202  28.027  1.00  0.00    -0.036 C 
ATOM     58  H   UNL A   1      35.618  32.535  27.023  1.00  0.00     0.028 H 
ATOM     59  H   UNL A   1      36.374  32.008  28.549  1.00  0.00     0.028 H 
BRANCH  57  60
ATOM     60  C   UNL A   1      34.743  33.320  28.797  1.00  0.00    -0.052 C 
ATOM     61  H   UNL A   1      35.185  33.387  29.770  1.00  0.00     0.027 H 
ATOM     62  H   UNL A   1      33.708  33.051  28.817  1.00  0.00     0.027 H 
BRANCH  60  63
ATOM     63  C   UNL A   1      34.811  34.706  28.149  1.00  0.00    -0.052 C 
ATOM     64  H   UNL A   1      34.577  34.598  27.110  1.00  0.00     0.027 H 
ATOM     65  H   UNL A   1      35.801  35.071  28.326  1.00  0.00     0.027 H 
BRANCH  63  66
ATOM     66  C   UNL A   1      33.859  35.747  28.743  1.00  0.00    -0.036 C 
ATOM     67  H   UNL A   1      33.418  36.294  27.936  1.00  0.00     0.028 H 
ATOM     68  H   UNL A   1      34.448  36.359  29.393  1.00  0.00     0.028 H 
BRANCH  66  69
ATOM     69  C   UNL A   1      32.735  35.168  29.596  1.00  0.00     0.018 C 
ATOM     70  H   UNL A   1      32.985  34.161  29.858  1.00  0.00     0.049 H 
ATOM     71  H   UNL A   1      31.833  35.209  29.021  1.00  0.00     0.049 H 
BRANCH  69  72
ATOM     72  N   UNL A   1      32.519  35.929  30.817  1.00  0.00    -0.352 N 
ATOM     73  C   UNL A   1      33.117  35.802  32.045  1.00  0.00     0.251 C 
ATOM     74  H   UNL A   1      31.843  36.642  30.751  1.00  0.00     0.163 HD
ATOM     75  O   UNL A   1      32.673  36.412  33.015  1.00  0.00    -0.269 OA
BRANCH  73  76
ATOM     76  C   UNL A   1      34.280  34.906  32.215  1.00  0.00     0.039 A 
ATOM     77  C   UNL A   1      35.547  35.375  31.862  1.00  0.00    -0.049 A 
ATOM     78  C   UNL A   1      34.127  33.613  32.724  1.00  0.00    -0.049 A 
ATOM     79  C   UNL A   1      36.671  34.580  32.098  1.00  0.00    -0.053 A 
ATOM     80  H   UNL A   1      35.653  36.306  31.428  1.00  0.00     0.063 H 
ATOM     81  C   UNL A   1      35.252  32.849  33.025  1.00  0.00    -0.053 A 
ATOM     82  H   UNL A   1      33.183  33.226  32.878  1.00  0.00     0.063 H 
ATOM     83  C   UNL A   1      36.537  33.330  32.727  1.00  0.00    -0.014 A 
ATOM     84  H   UNL A   1      37.604  34.910  31.808  1.00  0.00     0.063 H 
ATOM     85  H   UNL A   1      35.141  31.925  33.469  1.00  0.00     0.063 H 
BRANCH  83  86
ATOM     86  C   UNL A   1      37.732  32.543  33.127  1.00  0.00     0.031 A 
ATOM     87  C   UNL A   1      38.459  32.850  34.407  1.00  0.00     0.074 A 
ATOM     88  C   UNL A   1      38.203  31.593  32.295  1.00  0.00     0.049 A 
ATOM     89  N   UNL A   1      39.554  32.313  34.884  1.00  0.00    -0.248 NA
ATOM     90  C   UNL A   1      37.893  33.912  35.252  1.00  0.00    -0.034 C 
ATOM     91  C   UNL A   1      37.615  31.237  31.002  1.00  0.00    -0.036 A 
ATOM     92  N   UNL A   1      39.293  30.764  32.402  1.00  0.00    -0.354 N 
ATOM     93  C   UNL A   1      39.813  32.976  36.076  1.00  0.00     0.074 A 
ATOM     94  C   UNL A   1      38.788  33.987  36.228  1.00  0.00    -0.034 C 
ATOM     95  H   UNL A   1      37.026  34.456  35.121  1.00  0.00     0.065 H 
ATOM     96  C   UNL A   1      38.336  30.252  30.446  1.00  0.00    -0.036 A 
ATOM     97  H   UNL A   1      36.778  31.674  30.586  1.00  0.00     0.065 H 
ATOM     98  C   UNL A   1      39.464  29.939  31.317  1.00  0.00     0.049 A 
ATOM     99  H   UNL A   1      39.892  30.761  33.182  1.00  0.00     0.167 HD
ATOM    100  C   UNL A   1      40.806  32.748  36.969  1.00  0.00     0.037 A 
ATOM    101  H   UNL A   1      38.758  34.676  36.996  1.00  0.00     0.065 H 
ATOM    102  H   UNL A   1      38.127  29.791  29.547  1.00  0.00     0.065 H 
ATOM    103  C   UNL A   1      40.432  29.043  31.044  1.00  0.00     0.037 A 
ATOM    104  C   UNL A   1      41.814  31.731  36.820  1.00  0.00     0.049 A 
ATOM    105  C   UNL A   1      41.536  28.828  32.045  1.00  0.00     0.074 A 
ATOM    106  C   UNL A   1      42.819  31.378  37.705  1.00  0.00    -0.036 A 
ATOM    107  N   UNL A   1      41.954  30.910  35.709  1.00  0.00    -0.354 N 
ATOM    108  N   UNL A   1      41.722  29.404  33.207  1.00  0.00    -0.248 NA
ATOM    109  C   UNL A   1      42.564  27.838  31.696  1.00  0.00    -0.034 C 
ATOM    110  C   UNL A   1      43.604  30.389  37.104  1.00  0.00    -0.036 A 
ATOM    111  H   UNL A   1      42.964  31.777  38.645  1.00  0.00     0.065 H 
ATOM    112  C   UNL A   1      43.051  30.079  35.872  1.00  0.00     0.049 A 
ATOM    113  H   UNL A   1      41.361  30.918  34.923  1.00  0.00     0.167 HD
ATOM    114  C   UNL A   1      42.870  28.831  33.739  1.00  0.00     0.074 A 
ATOM    115  C   UNL A   1      43.324  27.845  32.781  1.00  0.00    -0.034 C 
ATOM    116  H   UNL A   1      42.666  27.282  30.833  1.00  0.00     0.065 H 
ATOM    117  H   UNL A   1      44.452  29.962  37.510  1.00  0.00     0.065 H 
ATOM    118  C   UNL A   1      43.494  29.101  34.911  1.00  0.00     0.037 A 
ATOM    119  H   UNL A   1      44.138  27.226  32.926  1.00  0.00     0.065 H 
BRANCH 100 120
ATOM    120  C   UNL A   1      40.859  33.615  38.195  1.00  0.00     0.064 A 
ATOM    121  C   UNL A   1      40.028  33.378  39.301  1.00  0.00     0.173 A 
ATOM    122  C   UNL A   1      41.798  34.653  38.291  1.00  0.00     0.173 A 
ATOM    123  F   UNL A   1      39.108  32.404  39.258  1.00  0.00    -0.203 F 
ATOM    124  C   UNL A   1      40.121  34.162  40.449  1.00  0.00     0.198 A 
ATOM    125  C   UNL A   1      41.909  35.414  39.452  1.00  0.00     0.198 A 
ATOM    126  F   UNL A   1      42.621  34.917  37.266  1.00  0.00    -0.203 F 
ATOM    127  F   UNL A   1      39.291  33.942  41.478  1.00  0.00    -0.200 F 
ATOM    128  C   UNL A   1      41.068  35.172  40.527  1.00  0.00     0.200 A 
ATOM    129  F   UNL A   1      42.836  36.379  39.531  1.00  0.00    -0.200 F 
ATOM    130  F   UNL A   1      41.168  35.915  41.637  1.00  0.00    -0.200 F 
ENDBRANCH 100 120
BRANCH 103 131
ATOM    131  C   UNL A   1      40.405  28.280  29.768  1.00  0.00     0.064 A 
ATOM    132  C   UNL A   1      41.140  28.707  28.653  1.00  0.00     0.173 A 
ATOM    133  C   UNL A   1      39.626  27.121  29.628  1.00  0.00     0.173 A 
ATOM    134  F   UNL A   1      41.884  29.820  28.730  1.00  0.00    -0.203 F 
ATOM    135  C   UNL A   1      41.076  28.021  27.442  1.00  0.00     0.198 A 
ATOM    136  C   UNL A   1      39.590  26.417  28.426  1.00  0.00     0.198 A 
ATOM    137  F   UNL A   1      38.907  26.665  30.665  1.00  0.00    -0.203 F 
ATOM    138  F   UNL A   1      41.744  28.484  26.377  1.00  0.00    -0.200 F 
ATOM    139  C   UNL A   1      40.306  26.874  27.331  1.00  0.00     0.200 A 
ATOM    140  F   UNL A   1      38.857  25.299  28.330  1.00  0.00    -0.200 F 
ATOM    141  F   UNL A   1      40.245  26.215  26.166  1.00  0.00    -0.200 F 
ENDBRANCH 103 131
BRANCH 118 142
ATOM    142  C   UNL A   1      44.724  28.301  35.237  1.00  0.00     0.064 A 
ATOM    143  C   UNL A   1      44.647  27.072  35.906  1.00  0.00     0.173 A 
ATOM    144  C   UNL A   1      45.992  28.755  34.840  1.00  0.00     0.173 A 
ATOM    145  F   UNL A   1      43.461  26.601  36.321  1.00  0.00    -0.203 F 
ATOM    146  C   UNL A   1      45.796  26.338  36.192  1.00  0.00     0.198 A 
ATOM    147  C   UNL A   1      47.135  28.002  35.097  1.00  0.00     0.198 A 
ATOM    148  F   UNL A   1      46.122  29.921  34.192  1.00  0.00    -0.203 F 
ATOM    149  F   UNL A   1      45.703  25.191  36.880  1.00  0.00    -0.200 F 
ATOM    150  C   UNL A   1      47.037  26.800  35.780  1.00  0.00     0.200 A 
ATOM    151  F   UNL A   1      48.331  28.442  34.683  1.00  0.00    -0.200 F 
ATOM    152  F   UNL A   1      48.141  26.089  36.048  1.00  0.00    -0.200 F 
ENDBRANCH 118 142
ENDBRANCH  83  86
ENDBRANCH  73  76
ENDBRANCH  69  72
ENDBRANCH  66  69
ENDBRANCH  63  66
ENDBRANCH  60  63
ENDBRANCH  57  60
ENDBRANCH  54  57
ENDBRANCH  52  54
ENDBRANCH  47  50
ENDBRANCH  46  47
ENDBRANCH   1  46
TORSDOF 27
ENDMDL
MODEL 3
REMARK VINA RESULT:      -8.9      2.074      4.762
REMARK SMILES CC/C=C/C/C=C/C/C=C/C/C=C/CC/C=C/COCC(=O)NCCCCCCNC(=O)c1ccc(-c2c3nc(c(-c4c(F)c(F)c(F)c(F)c4F)c4ccc([nH]4)c(-c4c(F)c(F)c(F)c(F)c4F)c4nc(c(-c5c(F)c(F)c(F)c(F)c5F)c5ccc2[nH]5)C=C4)C=C3)cc1
REMARK SMILES IDX 18 1 17 4 16 5 15 8 14 11 13 14 12 15 11 18 10 21 9 22 8 25
REMARK SMILES IDX 7 28 6 29 5 32 4 35 3 36 2 39 1 42 19 46 20 47 21 50 22 51
REMARK SMILES IDX 23 52 24 54 25 57 26 60 27 63 28 66 29 69 30 72 31 73 32 75
REMARK SMILES IDX 33 76 34 77 95 78 35 79 94 81 36 83 37 86 38 87 88 88 39 89
REMARK SMILES IDX 93 90 87 91 89 92 40 93 92 94 86 96 85 98 41 100 73 103
REMARK SMILES IDX 53 104 72 105 54 106 57 107 71 108 90 109 55 110 56 112
REMARK SMILES IDX 70 114 91 115 58 118 42 120 43 121 51 122 44 123 45 124
REMARK SMILES IDX 49 125 52 126 46 127 47 128 50 129 48 130 74 131 75 132
REMARK SMILES IDX 83 133 76 134 77 135 81 136 84 137 78 138 79 139 82 140
REMARK SMILES IDX 80 141 59 142 60 143 68 144 61 145 62 146 66 147 69 148
REMARK SMILES IDX 63 149 64 150 67 151 65 152
REMARK H PARENT 18 2 18 3 16 6 17 7 15 9 15 10 14 12 14 13 12 16 13 17 11 19
REMARK H PARENT 11 20 9 23 10 24 8 26 8 27 6 30 7 31 5 33 5 34 3 37 4 38 2 40
REMARK H PARENT 2 41 1 43 1 44 1 45 20 48 20 49 23 53 24 55 24 56 25 58 25 59
REMARK H PARENT 26 61 26 62 27 64 27 65 28 67 28 68 29 70 29 71 30 74 34 80
REMARK H PARENT 95 82 35 84 94 85 93 95 87 97 89 99 92 101 86 102 54 111
REMARK H PARENT 57 113 90 116 55 117 91 119
REMARK Flexibility Score: inf
ROOT
ATOM      1  C   UNL A   1      36.487  19.215  25.001  1.00  0.00     0.065 C 
ATOM      2  H   UNL A   1      36.635  18.915  26.018  1.00  0.00     0.061 H 
ATOM      3  H   UNL A   1      36.900  18.481  24.341  1.00  0.00     0.061 H 
ENDROOT
BRANCH   1   4
ATOM      4  C   UNL A   1      37.174  20.523  24.767  1.00  0.00    -0.063 C 
ATOM      5  C   UNL A   1      37.778  21.212  25.747  1.00  0.00    -0.086 C 
ATOM      6  H   UNL A   1      37.871  20.756  26.668  1.00  0.00     0.057 H 
ATOM      7  H   UNL A   1      37.185  20.911  23.811  1.00  0.00     0.060 H 
BRANCH   5   8
ATOM      8  C   UNL A   1      38.326  22.603  25.596  1.00  0.00    -0.032 C 
ATOM      9  H   UNL A   1      38.812  22.883  26.507  1.00  0.00     0.031 H 
ATOM     10  H   UNL A   1      39.011  22.598  24.775  1.00  0.00     0.031 H 
BRANCH   8  11
ATOM     11  C   UNL A   1      37.227  23.633  25.285  1.00  0.00    -0.032 C 
ATOM     12  H   UNL A   1      36.453  23.537  26.018  1.00  0.00     0.031 H 
ATOM     13  H   UNL A   1      37.679  24.602  25.306  1.00  0.00     0.031 H 
BRANCH  11  14
ATOM     14  C   UNL A   1      36.618  23.450  23.920  1.00  0.00    -0.088 C 
ATOM     15  C   UNL A   1      35.310  23.570  23.652  1.00  0.00    -0.085 C 
ATOM     16  H   UNL A   1      34.678  23.844  24.420  1.00  0.00     0.058 H 
ATOM     17  H   UNL A   1      37.251  23.216  23.138  1.00  0.00     0.057 H 
BRANCH  15  18
ATOM     18  C   UNL A   1      34.711  23.328  22.295  1.00  0.00    -0.017 C 
ATOM     19  H   UNL A   1      34.865  24.192  21.682  1.00  0.00     0.035 H 
ATOM     20  H   UNL A   1      35.184  22.476  21.853  1.00  0.00     0.035 H 
BRANCH  18  21
ATOM     21  C   UNL A   1      33.238  23.062  22.414  1.00  0.00    -0.084 C 
ATOM     22  C   UNL A   1      32.360  23.919  22.961  1.00  0.00    -0.084 C 
ATOM     23  H   UNL A   1      32.715  24.832  23.287  1.00  0.00     0.058 H 
ATOM     24  H   UNL A   1      32.878  22.164  22.054  1.00  0.00     0.058 H 
BRANCH  22  25
ATOM     25  C   UNL A   1      30.895  23.636  23.124  1.00  0.00    -0.017 C 
ATOM     26  H   UNL A   1      30.467  23.428  22.167  1.00  0.00     0.035 H 
ATOM     27  H   UNL A   1      30.777  22.793  23.774  1.00  0.00     0.035 H 
BRANCH  25  28
ATOM     28  C   UNL A   1      30.196  24.819  23.733  1.00  0.00    -0.084 C 
ATOM     29  C   UNL A   1      30.583  26.093  23.559  1.00  0.00    -0.084 C 
ATOM     30  H   UNL A   1      31.399  26.272  22.954  1.00  0.00     0.058 H 
ATOM     31  H   UNL A   1      29.367  24.641  24.321  1.00  0.00     0.058 H 
BRANCH  29  32
ATOM     32  C   UNL A   1      29.902  27.274  24.190  1.00  0.00    -0.017 C 
ATOM     33  H   UNL A   1      29.088  26.929  24.791  1.00  0.00     0.035 H 
ATOM     34  H   UNL A   1      30.615  27.797  24.794  1.00  0.00     0.035 H 
BRANCH  32  35
ATOM     35  C   UNL A   1      29.380  28.212  23.141  1.00  0.00    -0.085 C 
ATOM     36  C   UNL A   1      30.062  29.267  22.667  1.00  0.00    -0.089 C 
ATOM     37  H   UNL A   1      31.008  29.441  23.041  1.00  0.00     0.057 H 
ATOM     38  H   UNL A   1      28.439  28.034  22.758  1.00  0.00     0.058 H 
BRANCH  36  39
ATOM     39  C   UNL A   1      29.531  30.209  21.625  1.00  0.00    -0.038 C 
ATOM     40  H   UNL A   1      30.030  31.151  21.719  1.00  0.00     0.031 H 
ATOM     41  H   UNL A   1      29.709  29.782  20.661  1.00  0.00     0.031 H 
BRANCH  39  42
ATOM     42  C   UNL A   1      28.034  30.422  21.788  1.00  0.00    -0.062 C 
ATOM     43  H   UNL A   1      27.837  31.463  21.942  1.00  0.00     0.023 H 
ATOM     44  H   UNL A   1      27.684  29.865  22.631  1.00  0.00     0.023 H 
ATOM     45  H   UNL A   1      27.528  30.091  20.905  1.00  0.00     0.023 H 
ENDBRANCH  39  42
ENDBRANCH  36  39
ENDBRANCH  32  35
ENDBRANCH  29  32
ENDBRANCH  25  28
ENDBRANCH  22  25
ENDBRANCH  18  21
ENDBRANCH  15  18
ENDBRANCH  11  14
ENDBRANCH   8  11
ENDBRANCH   5   8
ENDBRANCH   1   4
BRANCH   1  46
ATOM     46  O   UNL A   1      35.089  19.341  24.744  1.00  0.00    -0.368 OA
BRANCH  46  47
ATOM     47  C   UNL A   1      34.542  20.603  25.113  1.00  0.00     0.126 C 
ATOM     48  H   UNL A   1      34.826  21.308  24.360  1.00  0.00     0.067 H 
ATOM     49  H   UNL A   1      34.934  20.795  26.091  1.00  0.00     0.067 H 
BRANCH  47  50
ATOM     50  C   UNL A   1      33.020  20.693  25.278  1.00  0.00     0.246 C 
ATOM     51  O   UNL A   1      32.240  20.193  24.467  1.00  0.00    -0.272 OA
ATOM     52  N   UNL A   1      32.516  21.325  26.378  1.00  0.00    -0.354 N 
ATOM     53  H   UNL A   1      31.538  21.290  26.485  1.00  0.00     0.163 HD
BRANCH  52  54
ATOM     54  C   UNL A   1      33.242  22.043  27.407  1.00  0.00     0.017 C 
ATOM     55  H   UNL A   1      34.044  21.430  27.759  1.00  0.00     0.049 H 
ATOM     56  H   UNL A   1      32.564  22.272  28.202  1.00  0.00     0.049 H 
BRANCH  54  57
ATOM     57  C   UNL A   1      33.814  23.353  26.867  1.00  0.00    -0.036 C 
ATOM     58  H   UNL A   1      34.382  23.133  25.987  1.00  0.00     0.028 H 
ATOM     59  H   UNL A   1      34.409  23.773  27.651  1.00  0.00     0.028 H 
BRANCH  57  60
ATOM     60  C   UNL A   1      32.755  24.404  26.507  1.00  0.00    -0.052 C 
ATOM     61  H   UNL A   1      32.295  24.734  27.416  1.00  0.00     0.027 H 
ATOM     62  H   UNL A   1      32.076  23.923  25.835  1.00  0.00     0.027 H 
BRANCH  60  63
ATOM     63  C   UNL A   1      33.284  25.637  25.768  1.00  0.00    -0.052 C 
ATOM     64  H   UNL A   1      32.856  25.644  24.787  1.00  0.00     0.027 H 
ATOM     65  H   UNL A   1      34.350  25.549  25.766  1.00  0.00     0.027 H 
BRANCH  63  66
ATOM     66  C   UNL A   1      32.967  26.978  26.433  1.00  0.00    -0.036 C 
ATOM     67  H   UNL A   1      32.638  26.785  27.433  1.00  0.00     0.028 H 
ATOM     68  H   UNL A   1      32.220  27.446  25.828  1.00  0.00     0.028 H 
BRANCH  66  69
ATOM     69  C   UNL A   1      34.141  27.950  26.499  1.00  0.00     0.018 C 
ATOM     70  H   UNL A   1      34.635  27.958  25.550  1.00  0.00     0.049 H 
ATOM     71  H   UNL A   1      34.797  27.619  27.277  1.00  0.00     0.049 H 
BRANCH  69  72
ATOM     72  N   UNL A   1      33.719  29.305  26.819  1.00  0.00    -0.352 N 
ATOM     73  C   UNL A   1      34.333  30.252  27.599  1.00  0.00     0.251 C 
ATOM     74  H   UNL A   1      32.866  29.584  26.415  1.00  0.00     0.163 HD
ATOM     75  O   UNL A   1      33.735  31.280  27.908  1.00  0.00    -0.269 OA
BRANCH  73  76
ATOM     76  C   UNL A   1      35.707  30.026  28.096  1.00  0.00     0.039 A 
ATOM     77  C   UNL A   1      35.888  29.654  29.429  1.00  0.00    -0.049 A 
ATOM     78  C   UNL A   1      36.812  30.173  27.253  1.00  0.00    -0.049 A 
ATOM     79  C   UNL A   1      37.167  29.347  29.896  1.00  0.00    -0.053 A 
ATOM     80  H   UNL A   1      35.078  29.605  30.068  1.00  0.00     0.063 H 
ATOM     81  C   UNL A   1      38.078  29.800  27.698  1.00  0.00    -0.053 A 
ATOM     82  H   UNL A   1      36.690  30.557  26.302  1.00  0.00     0.063 H 
ATOM     83  C   UNL A   1      38.267  29.370  29.021  1.00  0.00    -0.014 A 
ATOM     84  H   UNL A   1      37.308  29.104  30.889  1.00  0.00     0.063 H 
ATOM     85  H   UNL A   1      38.882  29.839  27.052  1.00  0.00     0.063 H 
BRANCH  83  86
ATOM     86  C   UNL A   1      39.605  28.896  29.460  1.00  0.00     0.031 A 
ATOM     87  C   UNL A   1      40.473  29.755  30.337  1.00  0.00     0.074 A 
ATOM     88  C   UNL A   1      40.065  27.714  29.005  1.00  0.00     0.049 A 
ATOM     89  N   UNL A   1      41.691  29.533  30.763  1.00  0.00    -0.248 NA
ATOM     90  C   UNL A   1      39.907  31.039  30.777  1.00  0.00    -0.034 C 
ATOM     91  C   UNL A   1      39.337  26.813  28.109  1.00  0.00    -0.036 A 
ATOM     92  N   UNL A   1      41.260  27.072  29.220  1.00  0.00    -0.354 N 
ATOM     93  C   UNL A   1      42.040  30.650  31.510  1.00  0.00     0.074 A 
ATOM     94  C   UNL A   1      40.923  31.569  31.442  1.00  0.00    -0.034 C 
ATOM     95  H   UNL A   1      38.964  31.426  30.611  1.00  0.00     0.065 H 
ATOM     96  C   UNL A   1      40.090  25.730  27.866  1.00  0.00    -0.036 A 
ATOM     97  H   UNL A   1      38.395  26.985  27.726  1.00  0.00     0.065 H 
ATOM     98  C   UNL A   1      41.372  25.878  28.548  1.00  0.00     0.049 A 
ATOM     99  H   UNL A   1      41.968  27.432  29.800  1.00  0.00     0.167 HD
ATOM    100  C   UNL A   1      43.180  30.878  32.205  1.00  0.00     0.037 A 
ATOM    101  H   UNL A   1      40.920  32.514  31.857  1.00  0.00     0.065 H 
ATOM    102  H   UNL A   1      39.808  24.922  27.289  1.00  0.00     0.065 H 
ATOM    103  C   UNL A   1      42.398  25.009  28.474  1.00  0.00     0.037 A 
ATOM    104  C   UNL A   1      44.282  29.953  32.282  1.00  0.00     0.049 A 
ATOM    105  C   UNL A   1      43.662  25.301  29.237  1.00  0.00     0.074 A 
ATOM    106  C   UNL A   1      45.450  30.064  33.017  1.00  0.00    -0.036 A 
ATOM    107  N   UNL A   1      44.358  28.751  31.592  1.00  0.00    -0.354 N 
ATOM    108  N   UNL A   1      43.947  26.322  30.008  1.00  0.00    -0.248 NA
ATOM    109  C   UNL A   1      44.748  24.318  29.121  1.00  0.00    -0.034 C 
ATOM    110  C   UNL A   1      46.259  28.963  32.723  1.00  0.00    -0.036 A 
ATOM    111  H   UNL A   1      45.684  30.829  33.668  1.00  0.00     0.065 H 
ATOM    112  C   UNL A   1      45.569  28.131  31.856  1.00  0.00     0.049 A 
ATOM    113  H   UNL A   1      43.655  28.393  31.004  1.00  0.00     0.167 HD
ATOM    114  C   UNL A   1      45.230  26.093  30.487  1.00  0.00     0.074 A 
ATOM    115  C   UNL A   1      45.659  24.825  29.938  1.00  0.00    -0.034 C 
ATOM    116  H   UNL A   1      44.789  23.457  28.553  1.00  0.00     0.065 H 
ATOM    117  H   UNL A   1      47.209  28.796  33.091  1.00  0.00     0.065 H 
ATOM    118  C   UNL A   1      45.986  26.867  31.303  1.00  0.00     0.037 A 
ATOM    119  H   UNL A   1      46.562  24.372  30.157  1.00  0.00     0.065 H 
BRANCH 100 120
ATOM    120  C   UNL A   1      43.305  32.181  32.942  1.00  0.00     0.064 A 
ATOM    121  C   UNL A   1      42.877  32.320  34.270  1.00  0.00     0.173 A 
ATOM    122  C   UNL A   1      43.922  33.285  32.333  1.00  0.00     0.173 A 
ATOM    123  F   UNL A   1      42.273  31.299  34.896  1.00  0.00    -0.203 F 
ATOM    124  C   UNL A   1      43.041  33.522  34.955  1.00  0.00     0.198 A 
ATOM    125  C   UNL A   1      44.113  34.475  33.031  1.00  0.00     0.198 A 
ATOM    126  F   UNL A   1      44.357  33.204  31.067  1.00  0.00    -0.203 F 
ATOM    127  F   UNL A   1      42.589  33.644  36.211  1.00  0.00    -0.200 F 
ATOM    128  C   UNL A   1      43.668  34.594  34.338  1.00  0.00     0.200 A 
ATOM    129  F   UNL A   1      44.734  35.504  32.439  1.00  0.00    -0.200 F 
ATOM    130  F   UNL A   1      43.841  35.744  35.003  1.00  0.00    -0.200 F 
ENDBRANCH 100 120
BRANCH 103 131
ATOM    131  C   UNL A   1      42.277  23.780  27.646  1.00  0.00     0.064 A 
ATOM    132  C   UNL A   1      41.732  22.601  28.174  1.00  0.00     0.173 A 
ATOM    133  C   UNL A   1      42.724  23.750  26.316  1.00  0.00     0.173 A 
ATOM    134  F   UNL A   1      41.309  22.572  29.447  1.00  0.00    -0.203 F 
ATOM    135  C   UNL A   1      41.664  21.435  27.415  1.00  0.00     0.198 A 
ATOM    136  C   UNL A   1      42.624  22.593  25.547  1.00  0.00     0.198 A 
ATOM    137  F   UNL A   1      43.250  24.852  25.759  1.00  0.00    -0.203 F 
ATOM    138  F   UNL A   1      41.191  20.308  27.964  1.00  0.00    -0.200 F 
ATOM    139  C   UNL A   1      42.104  21.433  26.100  1.00  0.00     0.200 A 
ATOM    140  F   UNL A   1      43.036  22.602  24.272  1.00  0.00    -0.200 F 
ATOM    141  F   UNL A   1      42.039  20.311  25.371  1.00  0.00    -0.200 F 
ENDBRANCH 103 131
BRANCH 118 142
ATOM    142  C   UNL A   1      47.348  26.352  31.674  1.00  0.00     0.064 A 
ATOM    143  C   UNL A   1      47.559  25.598  32.837  1.00  0.00     0.173 A 
ATOM    144  C   UNL A   1      48.448  26.585  30.834  1.00  0.00     0.173 A 
ATOM    145  F   UNL A   1      46.544  25.361  33.682  1.00  0.00    -0.203 F 
ATOM    146  C   UNL A   1      48.826  25.120  33.160  1.00  0.00     0.198 A 
ATOM    147  C   UNL A   1      49.707  26.076  31.143  1.00  0.00     0.198 A 
ATOM    148  F   UNL A   1      48.301  27.295  29.705  1.00  0.00    -0.203 F 
ATOM    149  F   UNL A   1      49.014  24.447  34.305  1.00  0.00    -0.200 F 
ATOM    150  C   UNL A   1      49.897  25.352  32.310  1.00  0.00     0.200 A 
ATOM    151  F   UNL A   1      50.736  26.287  30.310  1.00  0.00    -0.200 F 
ATOM    152  F   UNL A   1      51.114  24.884  32.618  1.00  0.00    -0.200 F 
ENDBRANCH 118 142
ENDBRANCH  83  86
ENDBRANCH  73  76
ENDBRANCH  69  72
ENDBRANCH  66  69
ENDBRANCH  63  66
ENDBRANCH  60  63
ENDBRANCH  57  60
ENDBRANCH  54  57
ENDBRANCH  52  54
ENDBRANCH  47  50
ENDBRANCH  46  47
ENDBRANCH   1  46
TORSDOF 27
ENDMDL
MODEL 4
REMARK VINA RESULT:      -8.8      6.107     12.367
REMARK SMILES CC/C=C/C/C=C/C/C=C/C/C=C/CC/C=C/COCC(=O)NCCCCCCNC(=O)c1ccc(-c2c3nc(c(-c4c(F)c(F)c(F)c(F)c4F)c4ccc([nH]4)c(-c4c(F)c(F)c(F)c(F)c4F)c4nc(c(-c5c(F)c(F)c(F)c(F)c5F)c5ccc2[nH]5)C=C4)C=C3)cc1
REMARK SMILES IDX 18 1 17 4 16 5 15 8 14 11 13 14 12 15 11 18 10 21 9 22 8 25
REMARK SMILES IDX 7 28 6 29 5 32 4 35 3 36 2 39 1 42 19 46 20 47 21 50 22 51
REMARK SMILES IDX 23 52 24 54 25 57 26 60 27 63 28 66 29 69 30 72 31 73 32 75
REMARK SMILES IDX 33 76 34 77 95 78 35 79 94 81 36 83 37 86 38 87 88 88 39 89
REMARK SMILES IDX 93 90 87 91 89 92 40 93 92 94 86 96 85 98 41 100 73 103
REMARK SMILES IDX 53 104 72 105 54 106 57 107 71 108 90 109 55 110 56 112
REMARK SMILES IDX 70 114 91 115 58 118 42 120 43 121 51 122 44 123 45 124
REMARK SMILES IDX 49 125 52 126 46 127 47 128 50 129 48 130 74 131 75 132
REMARK SMILES IDX 83 133 76 134 77 135 81 136 84 137 78 138 79 139 82 140
REMARK SMILES IDX 80 141 59 142 60 143 68 144 61 145 62 146 66 147 69 148
REMARK SMILES IDX 63 149 64 150 67 151 65 152
REMARK H PARENT 18 2 18 3 16 6 17 7 15 9 15 10 14 12 14 13 12 16 13 17 11 19
REMARK H PARENT 11 20 9 23 10 24 8 26 8 27 6 30 7 31 5 33 5 34 3 37 4 38 2 40
REMARK H PARENT 2 41 1 43 1 44 1 45 20 48 20 49 23 53 24 55 24 56 25 58 25 59
REMARK H PARENT 26 61 26 62 27 64 27 65 28 67 28 68 29 70 29 71 30 74 34 80
REMARK H PARENT 95 82 35 84 94 85 93 95 87 97 89 99 92 101 86 102 54 111
REMARK H PARENT 57 113 90 116 55 117 91 119
REMARK Flexibility Score: inf
ROOT
ATOM      1  C   UNL A   1      46.045  30.784  26.114  1.00  0.00     0.065 C 
ATOM      2  H   UNL A   1      45.710  30.633  25.109  1.00  0.00     0.061 H 
ATOM      3  H   UNL A   1      46.979  30.284  26.267  1.00  0.00     0.061 H 
ENDROOT
BRANCH   1   4
ATOM      4  C   UNL A   1      45.031  30.226  27.062  1.00  0.00    -0.063 C 
ATOM      5  C   UNL A   1      44.336  29.107  26.806  1.00  0.00    -0.086 C 
ATOM      6  H   UNL A   1      44.605  28.553  25.978  1.00  0.00     0.057 H 
ATOM      7  H   UNL A   1      44.860  30.722  27.950  1.00  0.00     0.060 H 
BRANCH   5   8
ATOM      8  C   UNL A   1      43.191  28.607  27.642  1.00  0.00    -0.032 C 
ATOM      9  H   UNL A   1      43.023  27.576  27.413  1.00  0.00     0.031 H 
ATOM     10  H   UNL A   1      43.453  28.741  28.670  1.00  0.00     0.031 H 
BRANCH   8  11
ATOM     11  C   UNL A   1      41.893  29.390  27.381  1.00  0.00    -0.032 C 
ATOM     12  H   UNL A   1      41.806  30.162  28.117  1.00  0.00     0.031 H 
ATOM     13  H   UNL A   1      41.952  29.788  26.390  1.00  0.00     0.031 H 
BRANCH  11  14
ATOM     14  C   UNL A   1      40.661  28.526  27.447  1.00  0.00    -0.088 C 
ATOM     15  C   UNL A   1      40.399  27.656  28.432  1.00  0.00    -0.085 C 
ATOM     16  H   UNL A   1      41.062  27.598  29.221  1.00  0.00     0.058 H 
ATOM     17  H   UNL A   1      39.974  28.610  26.681  1.00  0.00     0.057 H 
BRANCH  15  18
ATOM     18  C   UNL A   1      39.193  26.760  28.454  1.00  0.00    -0.017 C 
ATOM     19  H   UNL A   1      38.730  26.815  29.417  1.00  0.00     0.035 H 
ATOM     20  H   UNL A   1      38.507  27.081  27.698  1.00  0.00     0.035 H 
BRANCH  18  21
ATOM     21  C   UNL A   1      39.593  25.339  28.178  1.00  0.00    -0.084 C 
ATOM     22  C   UNL A   1      40.866  24.920  28.084  1.00  0.00    -0.084 C 
ATOM     23  H   UNL A   1      41.615  25.610  28.246  1.00  0.00     0.058 H 
ATOM     24  H   UNL A   1      38.843  24.641  28.052  1.00  0.00     0.058 H 
BRANCH  22  25
ATOM     25  C   UNL A   1      41.268  23.510  27.760  1.00  0.00    -0.017 C 
ATOM     26  H   UNL A   1      41.544  23.006  28.662  1.00  0.00     0.035 H 
ATOM     27  H   UNL A   1      40.441  23.013  27.297  1.00  0.00     0.035 H 
BRANCH  25  28
ATOM     28  C   UNL A   1      42.433  23.500  26.813  1.00  0.00    -0.084 C 
ATOM     29  C   UNL A   1      42.927  24.597  26.215  1.00  0.00    -0.084 C 
ATOM     30  H   UNL A   1      42.491  25.506  26.435  1.00  0.00     0.058 H 
ATOM     31  H   UNL A   1      42.883  22.594  26.608  1.00  0.00     0.058 H 
BRANCH  29  32
ATOM     32  C   UNL A   1      44.073  24.584  25.244  1.00  0.00    -0.017 C 
ATOM     33  H   UNL A   1      44.253  23.579  24.928  1.00  0.00     0.035 H 
ATOM     34  H   UNL A   1      43.819  25.199  24.406  1.00  0.00     0.035 H 
BRANCH  32  35
ATOM     35  C   UNL A   1      45.317  25.131  25.882  1.00  0.00    -0.085 C 
ATOM     36  C   UNL A   1      45.401  25.507  27.169  1.00  0.00    -0.089 C 
ATOM     37  H   UNL A   1      44.561  25.406  27.760  1.00  0.00     0.057 H 
ATOM     38  H   UNL A   1      46.161  25.225  25.297  1.00  0.00     0.058 H 
BRANCH  36  39
ATOM     39  C   UNL A   1      46.644  26.065  27.800  1.00  0.00    -0.038 C 
ATOM     40  H   UNL A   1      46.945  26.940  27.263  1.00  0.00     0.031 H 
ATOM     41  H   UNL A   1      46.427  26.304  28.820  1.00  0.00     0.031 H 
BRANCH  39  42
ATOM     42  C   UNL A   1      47.778  25.052  27.772  1.00  0.00    -0.062 C 
ATOM     43  H   UNL A   1      47.585  24.282  28.490  1.00  0.00     0.023 H 
ATOM     44  H   UNL A   1      48.699  25.540  28.012  1.00  0.00     0.023 H 
ATOM     45  H   UNL A   1      47.846  24.619  26.796  1.00  0.00     0.023 H 
ENDBRANCH  39  42
ENDBRANCH  36  39
ENDBRANCH  32  35
ENDBRANCH  29  32
ENDBRANCH  25  28
ENDBRANCH  22  25
ENDBRANCH  18  21
ENDBRANCH  15  18
ENDBRANCH  11  14
ENDBRANCH   8  11
ENDBRANCH   5   8
ENDBRANCH   1   4
BRANCH   1  46
ATOM     46  O   UNL A   1      46.221  32.181  26.348  1.00  0.00    -0.368 OA
BRANCH  46  47
ATOM     47  C   UNL A   1      45.049  32.959  26.124  1.00  0.00     0.126 C 
ATOM     48  H   UNL A   1      44.961  33.649  26.938  1.00  0.00     0.067 H 
ATOM     49  H   UNL A   1      44.257  32.242  26.045  1.00  0.00     0.067 H 
BRANCH  47  50
ATOM     50  C   UNL A   1      44.975  33.768  24.824  1.00  0.00     0.246 C 
ATOM     51  O   UNL A   1      44.238  33.448  23.891  1.00  0.00    -0.272 OA
ATOM     52  N   UNL A   1      45.731  34.899  24.711  1.00  0.00    -0.354 N 
ATOM     53  H   UNL A   1      45.593  35.431  23.894  1.00  0.00     0.163 HD
BRANCH  52  54
ATOM     54  C   UNL A   1      46.713  35.414  25.644  1.00  0.00     0.017 C 
ATOM     55  H   UNL A   1      46.461  35.086  26.631  1.00  0.00     0.049 H 
ATOM     56  H   UNL A   1      46.706  36.482  25.588  1.00  0.00     0.049 H 
BRANCH  54  57
ATOM     57  C   UNL A   1      48.117  34.920  25.298  1.00  0.00    -0.036 C 
ATOM     58  H   UNL A   1      48.599  35.671  24.707  1.00  0.00     0.028 H 
ATOM     59  H   UNL A   1      47.996  33.994  24.775  1.00  0.00     0.028 H 
BRANCH  57  60
ATOM     60  C   UNL A   1      49.001  34.625  26.517  1.00  0.00    -0.052 C 
ATOM     61  H   UNL A   1      49.470  33.675  26.363  1.00  0.00     0.027 H 
ATOM     62  H   UNL A   1      48.352  34.648  27.367  1.00  0.00     0.027 H 
BRANCH  60  63
ATOM     63  C   UNL A   1      50.099  35.657  26.792  1.00  0.00    -0.052 C 
ATOM     64  H   UNL A   1      49.705  36.390  27.466  1.00  0.00     0.027 H 
ATOM     65  H   UNL A   1      50.376  36.060  25.840  1.00  0.00     0.027 H 
BRANCH  63  66
ATOM     66  C   UNL A   1      51.382  35.091  27.405  1.00  0.00    -0.036 C 
ATOM     67  H   UNL A   1      51.157  34.752  28.395  1.00  0.00     0.028 H 
ATOM     68  H   UNL A   1      52.101  35.883  27.385  1.00  0.00     0.028 H 
BRANCH  66  69
ATOM     69  C   UNL A   1      51.998  33.929  26.633  1.00  0.00     0.018 C 
ATOM     70  H   UNL A   1      52.562  34.321  25.812  1.00  0.00     0.049 H 
ATOM     71  H   UNL A   1      51.199  33.302  26.294  1.00  0.00     0.049 H 
BRANCH  69  72
ATOM     72  N   UNL A   1      52.878  33.120  27.461  1.00  0.00    -0.352 N 
ATOM     73  C   UNL A   1      52.586  32.352  28.561  1.00  0.00     0.251 C 
ATOM     74  H   UNL A   1      53.826  33.124  27.193  1.00  0.00     0.163 HD
ATOM     75  O   UNL A   1      53.492  31.886  29.247  1.00  0.00    -0.269 OA
BRANCH  73  76
ATOM     76  C   UNL A   1      51.179  32.107  28.941  1.00  0.00     0.039 A 
ATOM     77  C   UNL A   1      50.722  32.583  30.171  1.00  0.00    -0.049 A 
ATOM     78  C   UNL A   1      50.311  31.420  28.088  1.00  0.00    -0.049 A 
ATOM     79  C   UNL A   1      49.375  32.443  30.512  1.00  0.00    -0.053 A 
ATOM     80  H   UNL A   1      51.377  33.037  30.828  1.00  0.00     0.063 H 
ATOM     81  C   UNL A   1      48.954  31.343  28.396  1.00  0.00    -0.053 A 
ATOM     82  H   UNL A   1      50.674  30.971  27.233  1.00  0.00     0.063 H 
ATOM     83  C   UNL A   1      48.470  31.866  29.605  1.00  0.00    -0.014 A 
ATOM     84  H   UNL A   1      49.042  32.764  31.434  1.00  0.00     0.063 H 
ATOM     85  H   UNL A   1      48.302  30.899  27.731  1.00  0.00     0.063 H 
BRANCH  83  86
ATOM     86  C   UNL A   1      47.010  31.852  29.884  1.00  0.00     0.031 A 
ATOM     87  C   UNL A   1      46.324  30.586  30.314  1.00  0.00     0.074 A 
ATOM     88  C   UNL A   1      46.291  32.973  29.678  1.00  0.00     0.049 A 
ATOM     89  N   UNL A   1      45.051  30.372  30.537  1.00  0.00    -0.248 NA
ATOM     90  C   UNL A   1      47.174  29.401  30.500  1.00  0.00    -0.034 C 
ATOM     91  C   UNL A   1      46.835  34.251  29.214  1.00  0.00    -0.036 A 
ATOM     92  N   UNL A   1      44.947  33.217  29.818  1.00  0.00    -0.354 N 
ATOM     93  C   UNL A   1      44.947  29.030  30.879  1.00  0.00     0.074 A 
ATOM     94  C   UNL A   1      46.278  28.467  30.788  1.00  0.00    -0.034 C 
ATOM     95  H   UNL A   1      48.200  29.317  30.425  1.00  0.00     0.065 H 
ATOM     96  C   UNL A   1      45.840  35.147  29.124  1.00  0.00    -0.036 A 
ATOM     97  H   UNL A   1      47.825  34.433  28.990  1.00  0.00     0.065 H 
ATOM     98  C   UNL A   1      44.582  34.498  29.479  1.00  0.00     0.049 A 
ATOM     99  H   UNL A   1      44.306  32.539  30.132  1.00  0.00     0.167 HD
ATOM    100  C   UNL A   1      43.844  28.337  31.251  1.00  0.00     0.037 A 
ATOM    101  H   UNL A   1      46.500  27.469  30.930  1.00  0.00     0.065 H 
ATOM    102  H   UNL A   1      45.948  36.136  28.849  1.00  0.00     0.065 H 
ATOM    103  C   UNL A   1      43.368  35.080  29.440  1.00  0.00     0.037 A 
ATOM    104  C   UNL A   1      42.526  28.907  31.354  1.00  0.00     0.049 A 
ATOM    105  C   UNL A   1      42.158  34.278  29.836  1.00  0.00     0.074 A 
ATOM    106  C   UNL A   1      41.359  28.302  31.790  1.00  0.00    -0.036 A 
ATOM    107  N   UNL A   1      42.194  30.209  31.008  1.00  0.00    -0.354 N 
ATOM    108  N   UNL A   1      42.085  33.033  30.236  1.00  0.00    -0.248 NA
ATOM    109  C   UNL A   1      40.859  34.964  29.775  1.00  0.00    -0.034 C 
ATOM    110  C   UNL A   1      40.311  29.217  31.648  1.00  0.00    -0.036 A 
ATOM    111  H   UNL A   1      41.275  27.341  32.157  1.00  0.00     0.065 H 
ATOM    112  C   UNL A   1      40.835  30.413  31.184  1.00  0.00     0.049 A 
ATOM    113  H   UNL A   1      42.831  30.886  30.684  1.00  0.00     0.167 HD
ATOM    114  C   UNL A   1      40.743  32.793  30.499  1.00  0.00     0.074 A 
ATOM    115  C   UNL A   1      40.039  34.030  30.234  1.00  0.00    -0.034 C 
ATOM    116  H   UNL A   1      40.644  35.923  29.459  1.00  0.00     0.065 H 
ATOM    117  H   UNL A   1      39.316  29.034  31.853  1.00  0.00     0.065 H 
ATOM    118  C   UNL A   1      40.146  31.650  30.917  1.00  0.00     0.037 A 
ATOM    119  H   UNL A   1      39.027  34.167  30.384  1.00  0.00     0.065 H 
BRANCH 100 120
ATOM    120  C   UNL A   1      44.007  26.880  31.577  1.00  0.00     0.064 A 
ATOM    121  C   UNL A   1      43.911  25.889  30.589  1.00  0.00     0.173 A 
ATOM    122  C   UNL A   1      44.330  26.475  32.881  1.00  0.00     0.173 A 
ATOM    123  F   UNL A   1      43.597  26.220  29.327  1.00  0.00    -0.203 F 
ATOM    124  C   UNL A   1      44.110  24.545  30.898  1.00  0.00     0.198 A 
ATOM    125  C   UNL A   1      44.559  25.135  33.181  1.00  0.00     0.198 A 
ATOM    126  F   UNL A   1      44.441  27.383  33.863  1.00  0.00    -0.203 F 
ATOM    127  F   UNL A   1      43.974  23.612  29.946  1.00  0.00    -0.200 F 
ATOM    128  C   UNL A   1      44.443  24.171  32.191  1.00  0.00     0.200 A 
ATOM    129  F   UNL A   1      44.897  24.778  34.427  1.00  0.00    -0.200 F 
ATOM    130  F   UNL A   1      44.651  22.880  32.485  1.00  0.00    -0.200 F 
ENDBRANCH 100 120
BRANCH 103 131
ATOM    131  C   UNL A   1      43.233  36.497  29.007  1.00  0.00     0.064 A 
ATOM    132  C   UNL A   1      43.583  37.551  29.863  1.00  0.00     0.173 A 
ATOM    133  C   UNL A   1      42.730  36.827  27.739  1.00  0.00     0.173 A 
ATOM    134  F   UNL A   1      44.048  37.288  31.093  1.00  0.00    -0.203 F 
ATOM    135  C   UNL A   1      43.410  38.879  29.478  1.00  0.00     0.198 A 
ATOM    136  C   UNL A   1      42.591  38.155  27.343  1.00  0.00     0.198 A 
ATOM    137  F   UNL A   1      42.385  35.857  26.880  1.00  0.00    -0.203 F 
ATOM    138  F   UNL A   1      43.698  39.866  30.337  1.00  0.00    -0.200 F 
ATOM    139  C   UNL A   1      42.919  39.181  28.216  1.00  0.00     0.200 A 
ATOM    140  F   UNL A   1      42.132  38.440  26.117  1.00  0.00    -0.200 F 
ATOM    141  F   UNL A   1      42.753  40.457  27.847  1.00  0.00    -0.200 F 
ENDBRANCH 103 131
BRANCH 118 142
ATOM    142  C   UNL A   1      38.660  31.690  31.137  1.00  0.00     0.064 A 
ATOM    143  C   UNL A   1      38.109  32.033  32.380  1.00  0.00     0.173 A 
ATOM    144  C   UNL A   1      37.777  31.417  30.080  1.00  0.00     0.173 A 
ATOM    145  F   UNL A   1      38.908  32.287  33.426  1.00  0.00    -0.203 F 
ATOM    146  C   UNL A   1      36.729  32.074  32.564  1.00  0.00     0.198 A 
ATOM    147  C   UNL A   1      36.399  31.493  30.259  1.00  0.00     0.198 A 
ATOM    148  F   UNL A   1      38.251  31.090  28.869  1.00  0.00    -0.203 F 
ATOM    149  F   UNL A   1      36.225  32.353  33.775  1.00  0.00    -0.200 F 
ATOM    150  C   UNL A   1      35.876  31.813  31.503  1.00  0.00     0.200 A 
ATOM    151  F   UNL A   1      35.577  31.256  29.228  1.00  0.00    -0.200 F 
ATOM    152  F   UNL A   1      34.548  31.861  31.680  1.00  0.00    -0.200 F 
ENDBRANCH 118 142
ENDBRANCH  83  86
ENDBRANCH  73  76
ENDBRANCH  69  72
ENDBRANCH  66  69
ENDBRANCH  63  66
ENDBRANCH  60  63
ENDBRANCH  57  60
ENDBRANCH  54  57
ENDBRANCH  52  54
ENDBRANCH  47  50
ENDBRANCH  46  47
ENDBRANCH   1  46
TORSDOF 27
ENDMDL
MODEL 5
REMARK VINA RESULT:      -8.7      5.522     10.576
REMARK SMILES CC/C=C/C/C=C/C/C=C/C/C=C/CC/C=C/COCC(=O)NCCCCCCNC(=O)c1ccc(-c2c3nc(c(-c4c(F)c(F)c(F)c(F)c4F)c4ccc([nH]4)c(-c4c(F)c(F)c(F)c(F)c4F)c4nc(c(-c5c(F)c(F)c(F)c(F)c5F)c5ccc2[nH]5)C=C4)C=C3)cc1
REMARK SMILES IDX 18 1 17 4 16 5 15 8 14 11 13 14 12 15 11 18 10 21 9 22 8 25
REMARK SMILES IDX 7 28 6 29 5 32 4 35 3 36 2 39 1 42 19 46 20 47 21 50 22 51
REMARK SMILES IDX 23 52 24 54 25 57 26 60 27 63 28 66 29 69 30 72 31 73 32 75
REMARK SMILES IDX 33 76 34 77 95 78 35 79 94 81 36 83 37 86 38 87 88 88 39 89
REMARK SMILES IDX 93 90 87 91 89 92 40 93 92 94 86 96 85 98 41 100 73 103
REMARK SMILES IDX 53 104 72 105 54 106 57 107 71 108 90 109 55 110 56 112
REMARK SMILES IDX 70 114 91 115 58 118 42 120 43 121 51 122 44 123 45 124
REMARK SMILES IDX 49 125 52 126 46 127 47 128 50 129 48 130 74 131 75 132
REMARK SMILES IDX 83 133 76 134 77 135 81 136 84 137 78 138 79 139 82 140
REMARK SMILES IDX 80 141 59 142 60 143 68 144 61 145 62 146 66 147 69 148
REMARK SMILES IDX 63 149 64 150 67 151 65 152
REMARK H PARENT 18 2 18 3 16 6 17 7 15 9 15 10 14 12 14 13 12 16 13 17 11 19
REMARK H PARENT 11 20 9 23 10 24 8 26 8 27 6 30 7 31 5 33 5 34 3 37 4 38 2 40
REMARK H PARENT 2 41 1 43 1 44 1 45 20 48 20 49 23 53 24 55 24 56 25 58 25 59
REMARK H PARENT 26 61 26 62 27 64 27 65 28 67 28 68 29 70 29 71 30 74 34 80
REMARK H PARENT 95 82 35 84 94 85 93 95 87 97 89 99 92 101 86 102 54 111
REMARK H PARENT 57 113 90 116 55 117 91 119
REMARK Flexibility Score: inf
ROOT
ATOM      1  C   UNL A   1      40.695  26.847  29.012  1.00  0.00     0.065 C 
ATOM      2  H   UNL A   1      39.798  26.963  28.440  1.00  0.00     0.061 H 
ATOM      3  H   UNL A   1      40.591  26.027  29.691  1.00  0.00     0.061 H 
ENDROOT
BRANCH   1   4
ATOM      4  C   UNL A   1      40.947  28.099  29.793  1.00  0.00    -0.063 C 
ATOM      5  C   UNL A   1      40.196  28.463  30.844  1.00  0.00    -0.086 C 
ATOM      6  H   UNL A   1      39.498  27.787  31.193  1.00  0.00     0.057 H 
ATOM      7  H   UNL A   1      41.731  28.707  29.512  1.00  0.00     0.060 H 
BRANCH   5   8
ATOM      8  C   UNL A   1      40.301  29.787  31.547  1.00  0.00    -0.032 C 
ATOM      9  H   UNL A   1      39.344  30.037  31.955  1.00  0.00     0.031 H 
ATOM     10  H   UNL A   1      41.039  29.693  32.314  1.00  0.00     0.031 H 
BRANCH   8  11
ATOM     11  C   UNL A   1      40.746  30.915  30.601  1.00  0.00    -0.032 C 
ATOM     12  H   UNL A   1      41.793  31.083  30.740  1.00  0.00     0.031 H 
ATOM     13  H   UNL A   1      40.520  30.605  29.603  1.00  0.00     0.031 H 
BRANCH  11  14
ATOM     14  C   UNL A   1      40.017  32.210  30.846  1.00  0.00    -0.088 C 
ATOM     15  C   UNL A   1      39.755  33.122  29.899  1.00  0.00    -0.085 C 
ATOM     16  H   UNL A   1      40.035  32.911  28.928  1.00  0.00     0.058 H 
ATOM     17  H   UNL A   1      39.697  32.407  31.808  1.00  0.00     0.057 H 
BRANCH  15  18
ATOM     18  C   UNL A   1      39.077  34.435  30.171  1.00  0.00    -0.017 C 
ATOM     19  H   UNL A   1      39.751  35.079  30.696  1.00  0.00     0.035 H 
ATOM     20  H   UNL A   1      38.796  34.881  29.240  1.00  0.00     0.035 H 
BRANCH  18  21
ATOM     21  C   UNL A   1      37.845  34.224  31.003  1.00  0.00    -0.084 C 
ATOM     22  C   UNL A   1      37.801  34.380  32.336  1.00  0.00    -0.084 C 
ATOM     23  H   UNL A   1      38.659  34.699  32.813  1.00  0.00     0.058 H 
ATOM     24  H   UNL A   1      36.978  33.939  30.520  1.00  0.00     0.058 H 
BRANCH  22  25
ATOM     25  C   UNL A   1      36.584  34.123  33.176  1.00  0.00    -0.017 C 
ATOM     26  H   UNL A   1      36.770  34.451  34.177  1.00  0.00     0.035 H 
ATOM     27  H   UNL A   1      35.757  34.658  32.759  1.00  0.00     0.035 H 
BRANCH  25  28
ATOM     28  C   UNL A   1      36.256  32.656  33.190  1.00  0.00    -0.084 C 
ATOM     29  C   UNL A   1      37.121  31.688  32.850  1.00  0.00    -0.084 C 
ATOM     30  H   UNL A   1      38.078  31.966  32.582  1.00  0.00     0.058 H 
ATOM     31  H   UNL A   1      35.305  32.376  33.478  1.00  0.00     0.058 H 
BRANCH  29  32
ATOM     32  C   UNL A   1      36.785  30.224  32.835  1.00  0.00    -0.017 C 
ATOM     33  H   UNL A   1      37.561  29.682  33.332  1.00  0.00     0.035 H 
ATOM     34  H   UNL A   1      35.851  30.082  33.338  1.00  0.00     0.035 H 
BRANCH  32  35
ATOM     35  C   UNL A   1      36.656  29.721  31.427  1.00  0.00    -0.085 C 
ATOM     36  C   UNL A   1      36.893  30.468  30.336  1.00  0.00    -0.089 C 
ATOM     37  H   UNL A   1      37.191  31.447  30.473  1.00  0.00     0.057 H 
ATOM     38  H   UNL A   1      36.367  28.741  31.287  1.00  0.00     0.058 H 
BRANCH  36  39
ATOM     39  C   UNL A   1      36.750  29.965  28.929  1.00  0.00    -0.038 C 
ATOM     40  H   UNL A   1      36.397  28.955  28.954  1.00  0.00     0.031 H 
ATOM     41  H   UNL A   1      36.055  30.595  28.413  1.00  0.00     0.031 H 
BRANCH  39  42
ATOM     42  C   UNL A   1      38.080  30.009  28.191  1.00  0.00    -0.062 C 
ATOM     43  H   UNL A   1      38.595  29.081  28.331  1.00  0.00     0.023 H 
ATOM     44  H   UNL A   1      38.675  30.809  28.576  1.00  0.00     0.023 H 
ATOM     45  H   UNL A   1      37.903  30.164  27.147  1.00  0.00     0.023 H 
ENDBRANCH  39  42
ENDBRANCH  36  39
ENDBRANCH  32  35
ENDBRANCH  29  32
ENDBRANCH  25  28
ENDBRANCH  22  25
ENDBRANCH  18  21
ENDBRANCH  15  18
ENDBRANCH  11  14
ENDBRANCH   8  11
ENDBRANCH   5   8
ENDBRANCH   1   4
BRANCH   1  46
ATOM     46  O   UNL A   1      41.788  26.589  28.131  1.00  0.00    -0.368 OA
BRANCH  46  47
ATOM     47  C   UNL A   1      41.403  26.364  26.779  1.00  0.00     0.126 C 
ATOM     48  H   UNL A   1      42.270  26.513  26.170  1.00  0.00     0.067 H 
ATOM     49  H   UNL A   1      40.599  27.050  26.607  1.00  0.00     0.067 H 
BRANCH  47  50
ATOM     50  C   UNL A   1      40.824  24.988  26.428  1.00  0.00     0.246 C 
ATOM     51  O   UNL A   1      39.612  24.783  26.356  1.00  0.00    -0.272 OA
ATOM     52  N   UNL A   1      41.685  23.963  26.160  1.00  0.00    -0.354 N 
ATOM     53  H   UNL A   1      41.272  23.120  25.861  1.00  0.00     0.163 HD
BRANCH  52  54
ATOM     54  C   UNL A   1      43.131  23.961  26.260  1.00  0.00     0.017 C 
ATOM     55  H   UNL A   1      43.456  22.999  26.592  1.00  0.00     0.049 H 
ATOM     56  H   UNL A   1      43.422  24.720  26.957  1.00  0.00     0.049 H 
BRANCH  54  57
ATOM     57  C   UNL A   1      43.779  24.269  24.911  1.00  0.00    -0.036 C 
ATOM     58  H   UNL A   1      44.295  25.203  24.993  1.00  0.00     0.028 H 
ATOM     59  H   UNL A   1      42.989  24.294  24.190  1.00  0.00     0.028 H 
BRANCH  57  60
ATOM     60  C   UNL A   1      44.778  23.206  24.434  1.00  0.00    -0.052 C 
ATOM     61  H   UNL A   1      44.477  22.885  23.458  1.00  0.00     0.027 H 
ATOM     62  H   UNL A   1      44.755  22.426  25.166  1.00  0.00     0.027 H 
BRANCH  60  63
ATOM     63  C   UNL A   1      46.236  23.671  24.353  1.00  0.00    -0.052 C 
ATOM     64  H   UNL A   1      46.347  24.260  23.466  1.00  0.00     0.027 H 
ATOM     65  H   UNL A   1      46.832  22.782  24.350  1.00  0.00     0.027 H 
BRANCH  63  66
ATOM     66  C   UNL A   1      46.717  24.506  25.541  1.00  0.00    -0.036 C 
ATOM     67  H   UNL A   1      46.895  23.844  26.363  1.00  0.00     0.028 H 
ATOM     68  H   UNL A   1      45.949  25.223  25.737  1.00  0.00     0.028 H 
BRANCH  66  69
ATOM     69  C   UNL A   1      47.995  25.300  25.285  1.00  0.00     0.018 C 
ATOM     70  H   UNL A   1      48.767  24.623  24.985  1.00  0.00     0.049 H 
ATOM     71  H   UNL A   1      48.252  25.808  26.192  1.00  0.00     0.049 H 
BRANCH  69  72
ATOM     72  N   UNL A   1      47.822  26.304  24.247  1.00  0.00    -0.352 N 
ATOM     73  C   UNL A   1      47.084  27.461  24.260  1.00  0.00     0.251 C 
ATOM     74  H   UNL A   1      48.308  26.126  23.409  1.00  0.00     0.163 HD
ATOM     75  O   UNL A   1      46.907  28.093  23.221  1.00  0.00    -0.269 OA
BRANCH  73  76
ATOM     76  C   UNL A   1      46.474  27.936  25.520  1.00  0.00     0.039 A 
ATOM     77  C   UNL A   1      47.297  28.510  26.491  1.00  0.00    -0.049 A 
ATOM     78  C   UNL A   1      45.099  27.825  25.741  1.00  0.00    -0.049 A 
ATOM     79  C   UNL A   1      46.731  29.047  27.649  1.00  0.00    -0.053 A 
ATOM     80  H   UNL A   1      48.320  28.536  26.354  1.00  0.00     0.063 H 
ATOM     81  C   UNL A   1      44.527  28.424  26.862  1.00  0.00    -0.053 A 
ATOM     82  H   UNL A   1      44.508  27.301  25.077  1.00  0.00     0.063 H 
ATOM     83  C   UNL A   1      45.336  29.053  27.821  1.00  0.00    -0.014 A 
ATOM     84  H   UNL A   1      47.340  29.442  28.383  1.00  0.00     0.063 H 
ATOM     85  H   UNL A   1      43.503  28.405  26.988  1.00  0.00     0.063 H 
BRANCH  83  86
ATOM     86  C   UNL A   1      44.709  29.760  28.968  1.00  0.00     0.031 A 
ATOM     87  C   UNL A   1      44.445  31.238  28.906  1.00  0.00     0.074 A 
ATOM     88  C   UNL A   1      44.443  29.073  30.097  1.00  0.00     0.049 A 
ATOM     89  N   UNL A   1      43.968  32.031  29.833  1.00  0.00    -0.248 NA
ATOM     90  C   UNL A   1      44.780  31.919  27.647  1.00  0.00    -0.034 C 
ATOM     91  C   UNL A   1      44.700  27.645  30.297  1.00  0.00    -0.036 A 
ATOM     92  N   UNL A   1      43.912  29.484  31.295  1.00  0.00    -0.354 N 
ATOM     93  C   UNL A   1      43.954  33.302  29.274  1.00  0.00     0.074 A 
ATOM     94  C   UNL A   1      44.514  33.184  27.943  1.00  0.00    -0.034 C 
ATOM     95  H   UNL A   1      45.130  31.518  26.763  1.00  0.00     0.065 H 
ATOM     96  C   UNL A   1      44.311  27.296  31.533  1.00  0.00    -0.036 A 
ATOM     97  H   UNL A   1      45.115  27.009  29.599  1.00  0.00     0.065 H 
ATOM     98  C   UNL A   1      43.821  28.481  32.230  1.00  0.00     0.049 A 
ATOM     99  H   UNL A   1      43.624  30.409  31.467  1.00  0.00     0.167 HD
ATOM    100  C   UNL A   1      43.497  34.456  29.815  1.00  0.00     0.037 A 
ATOM    101  H   UNL A   1      44.684  33.980  27.310  1.00  0.00     0.065 H 
ATOM    102  H   UNL A   1      44.351  26.343  31.926  1.00  0.00     0.065 H 
ATOM    103  C   UNL A   1      43.407  28.515  33.511  1.00  0.00     0.037 A 
ATOM    104  C   UNL A   1      42.926  34.565  31.133  1.00  0.00     0.049 A 
ATOM    105  C   UNL A   1      42.928  29.818  34.093  1.00  0.00     0.074 A 
ATOM    106  C   UNL A   1      42.373  35.678  31.742  1.00  0.00    -0.036 A 
ATOM    107  N   UNL A   1      42.846  33.526  32.050  1.00  0.00    -0.354 N 
ATOM    108  N   UNL A   1      42.843  30.995  33.525  1.00  0.00    -0.248 NA
ATOM    109  C   UNL A   1      42.488  29.795  35.494  1.00  0.00    -0.034 C 
ATOM    110  C   UNL A   1      42.015  35.330  33.048  1.00  0.00    -0.036 A 
ATOM    111  H   UNL A   1      42.246  36.605  31.308  1.00  0.00     0.065 H 
ATOM    112  C   UNL A   1      42.287  33.983  33.233  1.00  0.00     0.049 A 
ATOM    113  H   UNL A   1      43.142  32.602  31.884  1.00  0.00     0.167 HD
ATOM    114  C   UNL A   1      42.317  31.847  34.488  1.00  0.00     0.074 A 
ATOM    115  C   UNL A   1      42.082  31.044  35.669  1.00  0.00    -0.034 C 
ATOM    116  H   UNL A   1      42.492  29.011  36.166  1.00  0.00     0.065 H 
ATOM    117  H   UNL A   1      41.617  35.967  33.756  1.00  0.00     0.065 H 
ATOM    118  C   UNL A   1      42.057  33.174  34.403  1.00  0.00     0.037 A 
ATOM    119  H   UNL A   1      41.651  31.400  36.538  1.00  0.00     0.065 H 
BRANCH 100 120
ATOM    120  C   UNL A   1      43.593  35.706  28.987  1.00  0.00     0.064 A 
ATOM    121  C   UNL A   1      44.756  36.491  28.970  1.00  0.00     0.173 A 
ATOM    122  C   UNL A   1      42.534  36.087  28.149  1.00  0.00     0.173 A 
ATOM    123  F   UNL A   1      45.795  36.177  29.758  1.00  0.00    -0.203 F 
ATOM    124  C   UNL A   1      44.846  37.622  28.162  1.00  0.00     0.198 A 
ATOM    125  C   UNL A   1      42.639  37.200  27.319  1.00  0.00     0.198 A 
ATOM    126  F   UNL A   1      41.402  35.367  28.121  1.00  0.00    -0.203 F 
ATOM    127  F   UNL A   1      45.952  38.379  28.191  1.00  0.00    -0.200 F 
ATOM    128  C   UNL A   1      43.792  37.969  27.330  1.00  0.00     0.200 A 
ATOM    129  F   UNL A   1      41.626  37.523  26.504  1.00  0.00    -0.200 F 
ATOM    130  F   UNL A   1      43.886  39.048  26.541  1.00  0.00    -0.200 F 
ENDBRANCH 100 120
BRANCH 103 131
ATOM    131  C   UNL A   1      43.428  27.276  34.335  1.00  0.00     0.064 A 
ATOM    132  C   UNL A   1      44.618  26.809  34.909  1.00  0.00     0.173 A 
ATOM    133  C   UNL A   1      42.263  26.522  34.546  1.00  0.00     0.173 A 
ATOM    134  F   UNL A   1      45.762  27.482  34.719  1.00  0.00    -0.203 F 
ATOM    135  C   UNL A   1      44.649  25.622  35.639  1.00  0.00     0.198 A 
ATOM    136  C   UNL A   1      42.289  25.354  35.305  1.00  0.00     0.198 A 
ATOM    137  F   UNL A   1      41.096  26.927  34.022  1.00  0.00    -0.203 F 
ATOM    138  F   UNL A   1      45.811  25.169  36.128  1.00  0.00    -0.200 F 
ATOM    139  C   UNL A   1      43.483  24.898  35.841  1.00  0.00     0.200 A 
ATOM    140  F   UNL A   1      41.156  24.668  35.511  1.00  0.00    -0.200 F 
ATOM    141  F   UNL A   1      43.513  23.758  36.543  1.00  0.00    -0.200 F 
ENDBRANCH 103 131
BRANCH 118 142
ATOM    142  C   UNL A   1      41.465  33.839  35.613  1.00  0.00     0.064 A 
ATOM    143  C   UNL A   1      42.258  34.557  36.520  1.00  0.00     0.173 A 
ATOM    144  C   UNL A   1      40.082  33.788  35.847  1.00  0.00     0.173 A 
ATOM    145  F   UNL A   1      43.587  34.623  36.351  1.00  0.00    -0.203 F 
ATOM    146  C   UNL A   1      41.692  35.176  37.632  1.00  0.00     0.198 A 
ATOM    147  C   UNL A   1      39.516  34.437  36.941  1.00  0.00     0.198 A 
ATOM    148  F   UNL A   1      39.277  33.121  35.008  1.00  0.00    -0.203 F 
ATOM    149  F   UNL A   1      42.477  35.811  38.515  1.00  0.00    -0.200 F 
ATOM    150  C   UNL A   1      40.322  35.122  37.838  1.00  0.00     0.200 A 
ATOM    151  F   UNL A   1      38.189  34.398  37.128  1.00  0.00    -0.200 F 
ATOM    152  F   UNL A   1      39.777  35.725  38.903  1.00  0.00    -0.200 F 
ENDBRANCH 118 142
ENDBRANCH  83  86
ENDBRANCH  73  76
ENDBRANCH  69  72
ENDBRANCH  66  69
ENDBRANCH  63  66
ENDBRANCH  60  63
ENDBRANCH  57  60
ENDBRANCH  54  57
ENDBRANCH  52  54
ENDBRANCH  47  50
ENDBRANCH  46  47
ENDBRANCH   1  46
TORSDOF 27
ENDMDL
MODEL 6
REMARK VINA RESULT:      -8.7      5.106     10.849
REMARK SMILES CC/C=C/C/C=C/C/C=C/C/C=C/CC/C=C/COCC(=O)NCCCCCCNC(=O)c1ccc(-c2c3nc(c(-c4c(F)c(F)c(F)c(F)c4F)c4ccc([nH]4)c(-c4c(F)c(F)c(F)c(F)c4F)c4nc(c(-c5c(F)c(F)c(F)c(F)c5F)c5ccc2[nH]5)C=C4)C=C3)cc1
REMARK SMILES IDX 18 1 17 4 16 5 15 8 14 11 13 14 12 15 11 18 10 21 9 22 8 25
REMARK SMILES IDX 7 28 6 29 5 32 4 35 3 36 2 39 1 42 19 46 20 47 21 50 22 51
REMARK SMILES IDX 23 52 24 54 25 57 26 60 27 63 28 66 29 69 30 72 31 73 32 75
REMARK SMILES IDX 33 76 34 77 95 78 35 79 94 81 36 83 37 86 38 87 88 88 39 89
REMARK SMILES IDX 93 90 87 91 89 92 40 93 92 94 86 96 85 98 41 100 73 103
REMARK SMILES IDX 53 104 72 105 54 106 57 107 71 108 90 109 55 110 56 112
REMARK SMILES IDX 70 114 91 115 58 118 42 120 43 121 51 122 44 123 45 124
REMARK SMILES IDX 49 125 52 126 46 127 47 128 50 129 48 130 74 131 75 132
REMARK SMILES IDX 83 133 76 134 77 135 81 136 84 137 78 138 79 139 82 140
REMARK SMILES IDX 80 141 59 142 60 143 68 144 61 145 62 146 66 147 69 148
REMARK SMILES IDX 63 149 64 150 67 151 65 152
REMARK H PARENT 18 2 18 3 16 6 17 7 15 9 15 10 14 12 14 13 12 16 13 17 11 19
REMARK H PARENT 11 20 9 23 10 24 8 26 8 27 6 30 7 31 5 33 5 34 3 37 4 38 2 40
REMARK H PARENT 2 41 1 43 1 44 1 45 20 48 20 49 23 53 24 55 24 56 25 58 25 59
REMARK H PARENT 26 61 26 62 27 64 27 65 28 67 28 68 29 70 29 71 30 74 34 80
REMARK H PARENT 95 82 35 84 94 85 93 95 87 97 89 99 92 101 86 102 54 111
REMARK H PARENT 57 113 90 116 55 117 91 119
REMARK Flexibility Score: inf
ROOT
ATOM      1  C   UNL A   1      31.562  24.392  26.255  1.00  0.00     0.065 C 
ATOM      2  H   UNL A   1      31.181  23.419  26.024  1.00  0.00     0.061 H 
ATOM      3  H   UNL A   1      31.515  24.561  27.310  1.00  0.00     0.061 H 
ENDROOT
BRANCH   1   4
ATOM      4  C   UNL A   1      30.734  25.425  25.557  1.00  0.00    -0.063 C 
ATOM      5  C   UNL A   1      31.216  26.197  24.571  1.00  0.00    -0.086 C 
ATOM      6  H   UNL A   1      32.157  25.979  24.207  1.00  0.00     0.057 H 
ATOM      7  H   UNL A   1      29.752  25.547  25.845  1.00  0.00     0.060 H 
BRANCH   5   8
ATOM      8  C   UNL A   1      30.481  27.358  23.964  1.00  0.00    -0.032 C 
ATOM      9  H   UNL A   1      30.247  27.124  22.946  1.00  0.00     0.031 H 
ATOM     10  H   UNL A   1      29.594  27.522  24.539  1.00  0.00     0.031 H 
BRANCH   8  11
ATOM     11  C   UNL A   1      31.308  28.654  23.996  1.00  0.00    -0.032 C 
ATOM     12  H   UNL A   1      32.238  28.478  23.496  1.00  0.00     0.031 H 
ATOM     13  H   UNL A   1      30.732  29.415  23.512  1.00  0.00     0.031 H 
BRANCH  11  14
ATOM     14  C   UNL A   1      31.600  29.132  25.394  1.00  0.00    -0.088 C 
ATOM     15  C   UNL A   1      32.815  29.492  25.833  1.00  0.00    -0.085 C 
ATOM     16  H   UNL A   1      33.599  29.480  25.162  1.00  0.00     0.058 H 
ATOM     17  H   UNL A   1      30.811  29.186  26.058  1.00  0.00     0.057 H 
BRANCH  15  18
ATOM     18  C   UNL A   1      33.099  29.911  27.247  1.00  0.00    -0.017 C 
ATOM     19  H   UNL A   1      32.217  30.342  27.672  1.00  0.00     0.035 H 
ATOM     20  H   UNL A   1      33.396  29.053  27.812  1.00  0.00     0.035 H 
BRANCH  18  21
ATOM     21  C   UNL A   1      34.208  30.924  27.278  1.00  0.00    -0.084 C 
ATOM     22  C   UNL A   1      34.423  31.774  28.295  1.00  0.00    -0.084 C 
ATOM     23  H   UNL A   1      33.810  31.703  29.122  1.00  0.00     0.058 H 
ATOM     24  H   UNL A   1      34.844  30.970  26.466  1.00  0.00     0.058 H 
BRANCH  22  25
ATOM     25  C   UNL A   1      35.500  32.819  28.307  1.00  0.00    -0.017 C 
ATOM     26  H   UNL A   1      36.109  32.688  29.177  1.00  0.00     0.035 H 
ATOM     27  H   UNL A   1      36.093  32.715  27.422  1.00  0.00     0.035 H 
BRANCH  25  28
ATOM     28  C   UNL A   1      34.897  34.195  28.329  1.00  0.00    -0.084 C 
ATOM     29  C   UNL A   1      33.659  34.468  28.772  1.00  0.00    -0.084 C 
ATOM     30  H   UNL A   1      33.094  33.686  29.139  1.00  0.00     0.058 H 
ATOM     31  H   UNL A   1      35.470  34.980  27.981  1.00  0.00     0.058 H 
BRANCH  29  32
ATOM     32  C   UNL A   1      33.044  35.838  28.766  1.00  0.00    -0.017 C 
ATOM     33  H   UNL A   1      33.570  36.455  28.069  1.00  0.00     0.035 H 
ATOM     34  H   UNL A   1      32.016  35.750  28.484  1.00  0.00     0.035 H 
BRANCH  32  35
ATOM     35  C   UNL A   1      33.119  36.461  30.130  1.00  0.00    -0.085 C 
ATOM     36  C   UNL A   1      32.940  35.786  31.277  1.00  0.00    -0.089 C 
ATOM     37  H   UNL A   1      32.748  34.773  31.219  1.00  0.00     0.057 H 
ATOM     38  H   UNL A   1      33.320  37.471  30.191  1.00  0.00     0.058 H 
BRANCH  36  39
ATOM     39  C   UNL A   1      33.004  36.415  32.639  1.00  0.00    -0.038 C 
ATOM     40  H   UNL A   1      32.024  36.743  32.917  1.00  0.00     0.031 H 
ATOM     41  H   UNL A   1      33.369  35.686  33.331  1.00  0.00     0.031 H 
BRANCH  39  42
ATOM     42  C   UNL A   1      33.949  37.607  32.651  1.00  0.00    -0.062 C 
ATOM     43  H   UNL A   1      33.484  38.435  32.157  1.00  0.00     0.023 H 
ATOM     44  H   UNL A   1      34.853  37.350  32.141  1.00  0.00     0.023 H 
ATOM     45  H   UNL A   1      34.171  37.875  33.662  1.00  0.00     0.023 H 
ENDBRANCH  39  42
ENDBRANCH  36  39
ENDBRANCH  32  35
ENDBRANCH  29  32
ENDBRANCH  25  28
ENDBRANCH  22  25
ENDBRANCH  18  21
ENDBRANCH  15  18
ENDBRANCH  11  14
ENDBRANCH   8  11
ENDBRANCH   5   8
ENDBRANCH   1   4
BRANCH   1  46
ATOM     46  O   UNL A   1      32.921  24.480  25.828  1.00  0.00    -0.368 OA
BRANCH  46  47
ATOM     47  C   UNL A   1      33.558  23.218  25.654  1.00  0.00     0.126 C 
ATOM     48  H   UNL A   1      34.244  23.314  24.838  1.00  0.00     0.067 H 
ATOM     49  H   UNL A   1      32.756  22.527  25.499  1.00  0.00     0.067 H 
BRANCH  47  50
ATOM     50  C   UNL A   1      34.338  22.649  26.846  1.00  0.00     0.246 C 
ATOM     51  O   UNL A   1      33.777  22.232  27.860  1.00  0.00    -0.272 OA
ATOM     52  N   UNL A   1      35.699  22.578  26.766  1.00  0.00    -0.354 N 
ATOM     53  H   UNL A   1      36.152  22.133  27.519  1.00  0.00     0.163 HD
BRANCH  52  54
ATOM     54  C   UNL A   1      36.559  23.076  25.712  1.00  0.00     0.017 C 
ATOM     55  H   UNL A   1      36.328  24.105  25.531  1.00  0.00     0.049 H 
ATOM     56  H   UNL A   1      36.390  22.491  24.832  1.00  0.00     0.049 H 
BRANCH  54  57
ATOM     57  C   UNL A   1      38.032  22.956  26.098  1.00  0.00    -0.036 C 
ATOM     58  H   UNL A   1      38.111  23.065  27.159  1.00  0.00     0.028 H 
ATOM     59  H   UNL A   1      38.553  23.722  25.562  1.00  0.00     0.028 H 
BRANCH  57  60
ATOM     60  C   UNL A   1      38.681  21.623  25.701  1.00  0.00    -0.052 C 
ATOM     61  H   UNL A   1      38.797  21.615  24.637  1.00  0.00     0.027 H 
ATOM     62  H   UNL A   1      38.031  20.855  26.065  1.00  0.00     0.027 H 
BRANCH  60  63
ATOM     63  C   UNL A   1      40.053  21.352  26.329  1.00  0.00    -0.052 C 
ATOM     64  H   UNL A   1      39.981  21.549  27.379  1.00  0.00     0.027 H 
ATOM     65  H   UNL A   1      40.744  21.993  25.823  1.00  0.00     0.027 H 
BRANCH  63  66
ATOM     66  C   UNL A   1      40.579  19.927  26.148  1.00  0.00    -0.036 C 
ATOM     67  H   UNL A   1      40.546  19.689  25.105  1.00  0.00     0.028 H 
ATOM     68  H   UNL A   1      39.953  19.296  26.743  1.00  0.00     0.028 H 
BRANCH  66  69
ATOM     69  C   UNL A   1      42.006  19.707  26.642  1.00  0.00     0.018 C 
ATOM     70  H   UNL A   1      41.984  19.019  27.461  1.00  0.00     0.049 H 
ATOM     71  H   UNL A   1      42.399  20.657  26.940  1.00  0.00     0.049 H 
BRANCH  69  72
ATOM     72  N   UNL A   1      42.873  19.172  25.604  1.00  0.00    -0.352 N 
ATOM     73  C   UNL A   1      43.823  19.806  24.844  1.00  0.00     0.251 C 
ATOM     74  H   UNL A   1      42.761  18.211  25.420  1.00  0.00     0.163 HD
ATOM     75  O   UNL A   1      44.329  19.232  23.882  1.00  0.00    -0.269 OA
BRANCH  73  76
ATOM     76  C   UNL A   1      44.222  21.193  25.161  1.00  0.00     0.039 A 
ATOM     77  C   UNL A   1      43.804  22.223  24.316  1.00  0.00    -0.049 A 
ATOM     78  C   UNL A   1      44.997  21.481  26.287  1.00  0.00    -0.049 A 
ATOM     79  C   UNL A   1      44.091  23.549  24.645  1.00  0.00    -0.053 A 
ATOM     80  H   UNL A   1      43.283  22.006  23.451  1.00  0.00     0.063 H 
ATOM     81  C   UNL A   1      45.223  22.806  26.653  1.00  0.00    -0.053 A 
ATOM     82  H   UNL A   1      45.401  20.714  26.847  1.00  0.00     0.063 H 
ATOM     83  C   UNL A   1      44.761  23.855  25.842  1.00  0.00    -0.014 A 
ATOM     84  H   UNL A   1      43.812  24.310  24.006  1.00  0.00     0.063 H 
ATOM     85  H   UNL A   1      45.733  23.019  27.524  1.00  0.00     0.063 H 
BRANCH  83  86
ATOM     86  C   UNL A   1      44.935  25.263  26.284  1.00  0.00     0.031 A 
ATOM     87  C   UNL A   1      46.294  25.906  26.279  1.00  0.00     0.074 A 
ATOM     88  C   UNL A   1      43.871  25.939  26.760  1.00  0.00     0.049 A 
ATOM     89  N   UNL A   1      46.645  27.098  26.690  1.00  0.00    -0.248 NA
ATOM     90  C   UNL A   1      47.408  25.097  25.762  1.00  0.00    -0.034 C 
ATOM     91  C   UNL A   1      42.510  25.407  26.863  1.00  0.00    -0.036 A 
ATOM     92  N   UNL A   1      43.766  27.214  27.260  1.00  0.00    -0.354 N 
ATOM     93  C   UNL A   1      48.016  27.180  26.492  1.00  0.00     0.074 A 
ATOM     94  C   UNL A   1      48.443  25.900  25.967  1.00  0.00    -0.034 C 
ATOM     95  H   UNL A   1      47.390  24.152  25.348  1.00  0.00     0.065 H 
ATOM     96  C   UNL A   1      41.705  26.351  27.374  1.00  0.00    -0.036 A 
ATOM     97  H   UNL A   1      42.218  24.457  26.586  1.00  0.00     0.065 H 
ATOM     98  C   UNL A   1      42.498  27.537  27.680  1.00  0.00     0.049 A 
ATOM     99  H   UNL A   1      44.526  27.836  27.312  1.00  0.00     0.167 HD
ATOM    100  C   UNL A   1      48.839  28.233  26.711  1.00  0.00     0.037 A 
ATOM    101  H   UNL A   1      49.425  25.645  25.777  1.00  0.00     0.065 H 
ATOM    102  H   UNL A   1      40.689  26.253  27.527  1.00  0.00     0.065 H 
ATOM    103  C   UNL A   1      42.029  28.657  28.264  1.00  0.00     0.037 A 
ATOM    104  C   UNL A   1      48.407  29.509  27.218  1.00  0.00     0.049 A 
ATOM    105  C   UNL A   1      42.973  29.802  28.517  1.00  0.00     0.074 A 
ATOM    106  C   UNL A   1      49.154  30.659  27.408  1.00  0.00    -0.036 A 
ATOM    107  N   UNL A   1      47.114  29.802  27.628  1.00  0.00    -0.354 N 
ATOM    108  N   UNL A   1      44.252  29.895  28.247  1.00  0.00    -0.248 NA
ATOM    109  C   UNL A   1      42.407  30.999  29.155  1.00  0.00    -0.034 C 
ATOM    110  C   UNL A   1      48.330  31.626  27.991  1.00  0.00    -0.036 A 
ATOM    111  H   UNL A   1      50.149  30.781  27.162  1.00  0.00     0.065 H 
ATOM    112  C   UNL A   1      47.053  31.102  28.105  1.00  0.00     0.049 A 
ATOM    113  H   UNL A   1      46.353  29.178  27.586  1.00  0.00     0.167 HD
ATOM    114  C   UNL A   1      44.638  31.164  28.658  1.00  0.00     0.074 A 
ATOM    115  C   UNL A   1      43.451  31.814  29.174  1.00  0.00    -0.034 C 
ATOM    116  H   UNL A   1      41.447  31.162  29.497  1.00  0.00     0.065 H 
ATOM    117  H   UNL A   1      48.623  32.571  28.286  1.00  0.00     0.065 H 
ATOM    118  C   UNL A   1      45.865  31.738  28.616  1.00  0.00     0.037 A 
ATOM    119  H   UNL A   1      43.423  32.788  29.513  1.00  0.00     0.065 H 
BRANCH 100 120
ATOM    120  C   UNL A   1      50.300  28.058  26.405  1.00  0.00     0.064 A 
ATOM    121  C   UNL A   1      50.799  28.179  25.099  1.00  0.00     0.173 A 
ATOM    122  C   UNL A   1      51.220  27.831  27.440  1.00  0.00     0.173 A 
ATOM    123  F   UNL A   1      49.962  28.388  24.072  1.00  0.00    -0.203 F 
ATOM    124  C   UNL A   1      52.162  28.060  24.838  1.00  0.00     0.198 A 
ATOM    125  C   UNL A   1      52.586  27.744  27.179  1.00  0.00     0.198 A 
ATOM    126  F   UNL A   1      50.798  27.714  28.707  1.00  0.00    -0.203 F 
ATOM    127  F   UNL A   1      52.612  28.141  23.579  1.00  0.00    -0.200 F 
ATOM    128  C   UNL A   1      53.054  27.852  25.879  1.00  0.00     0.200 A 
ATOM    129  F   UNL A   1      53.447  27.560  28.189  1.00  0.00    -0.200 F 
ATOM    130  F   UNL A   1      54.367  27.754  25.630  1.00  0.00    -0.200 F 
ENDBRANCH 100 120
BRANCH 103 131
ATOM    131  C   UNL A   1      40.597  28.753  28.652  1.00  0.00     0.064 A 
ATOM    132  C   UNL A   1      39.627  29.193  27.740  1.00  0.00     0.173 A 
ATOM    133  C   UNL A   1      40.170  28.429  29.950  1.00  0.00     0.173 A 
ATOM    134  F   UNL A   1      39.988  29.534  26.494  1.00  0.00    -0.203 F 
ATOM    135  C   UNL A   1      38.293  29.331  28.117  1.00  0.00     0.198 A 
ATOM    136  C   UNL A   1      38.830  28.534  30.315  1.00  0.00     0.198 A 
ATOM    137  F   UNL A   1      41.056  27.998  30.860  1.00  0.00    -0.203 F 
ATOM    138  F   UNL A   1      37.398  29.808  27.242  1.00  0.00    -0.200 F 
ATOM    139  C   UNL A   1      37.894  28.996  29.402  1.00  0.00     0.200 A 
ATOM    140  F   UNL A   1      38.447  28.194  31.553  1.00  0.00    -0.200 F 
ATOM    141  F   UNL A   1      36.611  29.129  29.764  1.00  0.00    -0.200 F 
ENDBRANCH 103 131
BRANCH 118 142
ATOM    142  C   UNL A   1      45.983  33.149  29.121  1.00  0.00     0.064 A 
ATOM    143  C   UNL A   1      46.240  33.429  30.470  1.00  0.00     0.173 A 
ATOM    144  C   UNL A   1      45.875  34.231  28.234  1.00  0.00     0.173 A 
ATOM    145  F   UNL A   1      46.336  32.431  31.361  1.00  0.00    -0.203 F 
ATOM    146  C   UNL A   1      46.356  34.742  30.919  1.00  0.00     0.198 A 
ATOM    147  C   UNL A   1      46.026  35.541  28.681  1.00  0.00     0.198 A 
ATOM    148  F   UNL A   1      45.636  34.020  26.932  1.00  0.00    -0.203 F 
ATOM    149  F   UNL A   1      46.548  34.987  32.223  1.00  0.00    -0.200 F 
ATOM    150  C   UNL A   1      46.257  35.796  30.024  1.00  0.00     0.200 A 
ATOM    151  F   UNL A   1      45.947  36.558  27.810  1.00  0.00    -0.200 F 
ATOM    152  F   UNL A   1      46.378  37.059  30.456  1.00  0.00    -0.200 F 
ENDBRANCH 118 142
ENDBRANCH  83  86
ENDBRANCH  73  76
ENDBRANCH  69  72
ENDBRANCH  66  69
ENDBRANCH  63  66
ENDBRANCH  60  63
ENDBRANCH  57  60
ENDBRANCH  54  57
ENDBRANCH  52  54
ENDBRANCH  47  50
ENDBRANCH  46  47
ENDBRANCH   1  46
TORSDOF 27
ENDMDL
MODEL 7
REMARK VINA RESULT:      -8.7      2.826      5.916
REMARK SMILES CC/C=C/C/C=C/C/C=C/C/C=C/CC/C=C/COCC(=O)NCCCCCCNC(=O)c1ccc(-c2c3nc(c(-c4c(F)c(F)c(F)c(F)c4F)c4ccc([nH]4)c(-c4c(F)c(F)c(F)c(F)c4F)c4nc(c(-c5c(F)c(F)c(F)c(F)c5F)c5ccc2[nH]5)C=C4)C=C3)cc1
REMARK SMILES IDX 18 1 17 4 16 5 15 8 14 11 13 14 12 15 11 18 10 21 9 22 8 25
REMARK SMILES IDX 7 28 6 29 5 32 4 35 3 36 2 39 1 42 19 46 20 47 21 50 22 51
REMARK SMILES IDX 23 52 24 54 25 57 26 60 27 63 28 66 29 69 30 72 31 73 32 75
REMARK SMILES IDX 33 76 34 77 95 78 35 79 94 81 36 83 37 86 38 87 88 88 39 89
REMARK SMILES IDX 93 90 87 91 89 92 40 93 92 94 86 96 85 98 41 100 73 103
REMARK SMILES IDX 53 104 72 105 54 106 57 107 71 108 90 109 55 110 56 112
REMARK SMILES IDX 70 114 91 115 58 118 42 120 43 121 51 122 44 123 45 124
REMARK SMILES IDX 49 125 52 126 46 127 47 128 50 129 48 130 74 131 75 132
REMARK SMILES IDX 83 133 76 134 77 135 81 136 84 137 78 138 79 139 82 140
REMARK SMILES IDX 80 141 59 142 60 143 68 144 61 145 62 146 66 147 69 148
REMARK SMILES IDX 63 149 64 150 67 151 65 152
REMARK H PARENT 18 2 18 3 16 6 17 7 15 9 15 10 14 12 14 13 12 16 13 17 11 19
REMARK H PARENT 11 20 9 23 10 24 8 26 8 27 6 30 7 31 5 33 5 34 3 37 4 38 2 40
REMARK H PARENT 2 41 1 43 1 44 1 45 20 48 20 49 23 53 24 55 24 56 25 58 25 59
REMARK H PARENT 26 61 26 62 27 64 27 65 28 67 28 68 29 70 29 71 30 74 34 80
REMARK H PARENT 95 82 35 84 94 85 93 95 87 97 89 99 92 101 86 102 54 111
REMARK H PARENT 57 113 90 116 55 117 91 119
REMARK Flexibility Score: inf
ROOT
ATOM      1  C   UNL A   1      35.742  23.473  25.934  1.00  0.00     0.065 C 
ATOM      2  H   UNL A   1      35.672  23.534  27.000  1.00  0.00     0.061 H 
ATOM      3  H   UNL A   1      35.102  22.697  25.570  1.00  0.00     0.061 H 
ENDROOT
BRANCH   1   4
ATOM      4  C   UNL A   1      37.154  23.161  25.549  1.00  0.00    -0.063 C 
ATOM      5  C   UNL A   1      37.710  21.955  25.743  1.00  0.00    -0.086 C 
ATOM      6  H   UNL A   1      37.095  21.187  26.057  1.00  0.00     0.057 H 
ATOM      7  H   UNL A   1      37.724  23.904  25.117  1.00  0.00     0.060 H 
BRANCH   5   8
ATOM      8  C   UNL A   1      39.166  21.646  25.535  1.00  0.00    -0.032 C 
ATOM      9  H   UNL A   1      39.249  20.735  24.979  1.00  0.00     0.031 H 
ATOM     10  H   UNL A   1      39.603  22.467  25.006  1.00  0.00     0.031 H 
BRANCH   8  11
ATOM     11  C   UNL A   1      39.924  21.485  26.863  1.00  0.00    -0.032 C 
ATOM     12  H   UNL A   1      39.594  22.247  27.539  1.00  0.00     0.031 H 
ATOM     13  H   UNL A   1      39.716  20.504  27.235  1.00  0.00     0.031 H 
BRANCH  11  14
ATOM     14  C   UNL A   1      41.417  21.600  26.706  1.00  0.00    -0.088 C 
ATOM     15  C   UNL A   1      42.146  22.640  27.136  1.00  0.00    -0.085 C 
ATOM     16  H   UNL A   1      41.662  23.398  27.643  1.00  0.00     0.058 H 
ATOM     17  H   UNL A   1      41.913  20.825  26.236  1.00  0.00     0.057 H 
BRANCH  15  18
ATOM     18  C   UNL A   1      43.627  22.766  26.921  1.00  0.00    -0.017 C 
ATOM     19  H   UNL A   1      44.039  21.798  26.724  1.00  0.00     0.035 H 
ATOM     20  H   UNL A   1      43.805  23.415  26.089  1.00  0.00     0.035 H 
BRANCH  18  21
ATOM     21  C   UNL A   1      44.285  23.344  28.141  1.00  0.00    -0.084 C 
ATOM     22  C   UNL A   1      43.636  23.634  29.280  1.00  0.00    -0.084 C 
ATOM     23  H   UNL A   1      42.629  23.413  29.332  1.00  0.00     0.058 H 
ATOM     24  H   UNL A   1      45.300  23.530  28.101  1.00  0.00     0.058 H 
BRANCH  22  25
ATOM     25  C   UNL A   1      44.282  24.256  30.484  1.00  0.00    -0.017 C 
ATOM     26  H   UNL A   1      45.315  24.437  30.276  1.00  0.00     0.035 H 
ATOM     27  H   UNL A   1      43.782  25.176  30.707  1.00  0.00     0.035 H 
BRANCH  25  28
ATOM     28  C   UNL A   1      44.169  23.343  31.672  1.00  0.00    -0.084 C 
ATOM     29  C   UNL A   1      44.134  23.765  32.946  1.00  0.00    -0.084 C 
ATOM     30  H   UNL A   1      44.167  24.782  33.119  1.00  0.00     0.058 H 
ATOM     31  H   UNL A   1      44.116  22.327  31.497  1.00  0.00     0.058 H 
BRANCH  29  32
ATOM     32  C   UNL A   1      44.052  22.852  34.135  1.00  0.00    -0.017 C 
ATOM     33  H   UNL A   1      43.592  23.374  34.947  1.00  0.00     0.035 H 
ATOM     34  H   UNL A   1      43.471  21.994  33.867  1.00  0.00     0.035 H 
BRANCH  32  35
ATOM     35  C   UNL A   1      45.420  22.396  34.553  1.00  0.00    -0.085 C 
ATOM     36  C   UNL A   1      45.783  21.108  34.666  1.00  0.00    -0.089 C 
ATOM     37  H   UNL A   1      45.082  20.385  34.445  1.00  0.00     0.057 H 
ATOM     38  H   UNL A   1      46.126  23.117  34.766  1.00  0.00     0.058 H 
BRANCH  36  39
ATOM     39  C   UNL A   1      47.150  20.658  35.096  1.00  0.00    -0.038 C 
ATOM     40  H   UNL A   1      47.723  21.513  35.389  1.00  0.00     0.031 H 
ATOM     41  H   UNL A   1      47.039  19.979  35.916  1.00  0.00     0.031 H 
BRANCH  39  42
ATOM     42  C   UNL A   1      47.872  19.938  33.968  1.00  0.00    -0.062 C 
ATOM     43  H   UNL A   1      47.188  19.288  33.464  1.00  0.00     0.023 H 
ATOM     44  H   UNL A   1      48.679  19.363  34.370  1.00  0.00     0.023 H 
ATOM     45  H   UNL A   1      48.256  20.657  33.274  1.00  0.00     0.023 H 
ENDBRANCH  39  42
ENDBRANCH  36  39
ENDBRANCH  32  35
ENDBRANCH  29  32
ENDBRANCH  25  28
ENDBRANCH  22  25
ENDBRANCH  18  21
ENDBRANCH  15  18
ENDBRANCH  11  14
ENDBRANCH   8  11
ENDBRANCH   5   8
ENDBRANCH   1   4
BRANCH   1  46
ATOM     46  O   UNL A   1      35.341  24.718  25.362  1.00  0.00    -0.368 OA
BRANCH  46  47
ATOM     47  C   UNL A   1      34.099  24.663  24.667  1.00  0.00     0.126 C 
ATOM     48  H   UNL A   1      33.324  24.583  25.400  1.00  0.00     0.067 H 
ATOM     49  H   UNL A   1      34.193  23.826  24.006  1.00  0.00     0.067 H 
BRANCH  47  50
ATOM     50  C   UNL A   1      33.748  25.844  23.753  1.00  0.00     0.246 C 
ATOM     51  O   UNL A   1      33.917  25.804  22.534  1.00  0.00    -0.272 OA
ATOM     52  N   UNL A   1      33.203  26.965  24.309  1.00  0.00    -0.354 N 
ATOM     53  H   UNL A   1      32.918  27.665  23.678  1.00  0.00     0.163 HD
BRANCH  52  54
ATOM     54  C   UNL A   1      32.991  27.252  25.714  1.00  0.00     0.017 C 
ATOM     55  H   UNL A   1      33.100  26.348  26.275  1.00  0.00     0.049 H 
ATOM     56  H   UNL A   1      32.006  27.653  25.832  1.00  0.00     0.049 H 
BRANCH  54  57
ATOM     57  C   UNL A   1      33.996  28.282  26.225  1.00  0.00    -0.036 C 
ATOM     58  H   UNL A   1      34.768  28.391  25.491  1.00  0.00     0.028 H 
ATOM     59  H   UNL A   1      34.363  27.914  27.161  1.00  0.00     0.028 H 
BRANCH  57  60
ATOM     60  C   UNL A   1      33.396  29.667  26.501  1.00  0.00    -0.052 C 
ATOM     61  H   UNL A   1      32.423  29.527  26.923  1.00  0.00     0.027 H 
ATOM     62  H   UNL A   1      33.385  30.179  25.562  1.00  0.00     0.027 H 
BRANCH  60  63
ATOM     63  C   UNL A   1      34.205  30.550  27.457  1.00  0.00    -0.052 C 
ATOM     64  H   UNL A   1      35.244  30.343  27.301  1.00  0.00     0.027 H 
ATOM     65  H   UNL A   1      33.867  30.309  28.444  1.00  0.00     0.027 H 
BRANCH  63  66
ATOM     66  C   UNL A   1      33.991  32.056  27.287  1.00  0.00    -0.036 C 
ATOM     67  H   UNL A   1      34.302  32.328  26.300  1.00  0.00     0.028 H 
ATOM     68  H   UNL A   1      34.564  32.531  28.055  1.00  0.00     0.028 H 
BRANCH  66  69
ATOM     69  C   UNL A   1      32.549  32.519  27.476  1.00  0.00     0.018 C 
ATOM     70  H   UNL A   1      32.129  32.004  28.315  1.00  0.00     0.049 H 
ATOM     71  H   UNL A   1      32.014  32.298  26.576  1.00  0.00     0.049 H 
BRANCH  69  72
ATOM     72  N   UNL A   1      32.455  33.951  27.710  1.00  0.00    -0.352 N 
ATOM     73  C   UNL A   1      33.141  34.741  28.598  1.00  0.00     0.251 C 
ATOM     74  H   UNL A   1      31.801  34.425  27.147  1.00  0.00     0.163 HD
ATOM     75  O   UNL A   1      32.795  35.904  28.786  1.00  0.00    -0.269 OA
BRANCH  73  76
ATOM     76  C   UNL A   1      34.283  34.186  29.354  1.00  0.00     0.039 A 
ATOM     77  C   UNL A   1      34.027  33.339  30.435  1.00  0.00    -0.049 A 
ATOM     78  C   UNL A   1      35.600  34.490  28.998  1.00  0.00    -0.049 A 
ATOM     79  C   UNL A   1      35.090  32.732  31.107  1.00  0.00    -0.053 A 
ATOM     80  H   UNL A   1      33.056  33.164  30.737  1.00  0.00     0.063 H 
ATOM     81  C   UNL A   1      36.657  33.829  29.621  1.00  0.00    -0.053 A 
ATOM     82  H   UNL A   1      35.789  35.201  28.274  1.00  0.00     0.063 H 
ATOM     83  C   UNL A   1      36.412  32.933  30.673  1.00  0.00    -0.014 A 
ATOM     84  H   UNL A   1      34.905  32.133  31.926  1.00  0.00     0.063 H 
ATOM     85  H   UNL A   1      37.625  34.000  29.308  1.00  0.00     0.063 H 
BRANCH  83  86
ATOM     86  C   UNL A   1      37.538  32.173  31.274  1.00  0.00     0.031 A 
ATOM     87  C   UNL A   1      38.058  32.525  32.640  1.00  0.00     0.074 A 
ATOM     88  C   UNL A   1      38.140  31.207  30.551  1.00  0.00     0.049 A 
ATOM     89  N   UNL A   1      39.073  32.016  33.294  1.00  0.00    -0.248 NA
ATOM     90  C   UNL A   1      37.361  33.602  33.358  1.00  0.00    -0.034 C 
ATOM     91  C   UNL A   1      37.759  30.808  29.195  1.00  0.00    -0.036 A 
ATOM     92  N   UNL A   1      39.207  30.396  30.847  1.00  0.00    -0.354 N 
ATOM     93  C   UNL A   1      39.141  32.714  34.491  1.00  0.00     0.074 A 
ATOM     94  C   UNL A   1      38.095  33.716  34.456  1.00  0.00    -0.034 C 
ATOM     95  H   UNL A   1      36.520  34.132  33.081  1.00  0.00     0.065 H 
ATOM     96  C   UNL A   1      38.565  29.818  28.784  1.00  0.00    -0.036 A 
ATOM     97  H   UNL A   1      36.992  31.222  28.643  1.00  0.00     0.065 H 
ATOM     98  C   UNL A   1      39.550  29.543  29.826  1.00  0.00     0.049 A 
ATOM     99  H   UNL A   1      39.680  30.422  31.710  1.00  0.00     0.167 HD
ATOM    100  C   UNL A   1      39.987  32.525  35.532  1.00  0.00     0.037 A 
ATOM    101  H   UNL A   1      37.943  34.425  35.190  1.00  0.00     0.065 H 
ATOM    102  H   UNL A   1      38.500  29.329  27.877  1.00  0.00     0.065 H 
ATOM    103  C   UNL A   1      40.556  28.653  29.730  1.00  0.00     0.037 A 
ATOM    104  C   UNL A   1      41.015  31.517  35.568  1.00  0.00     0.049 A 
ATOM    105  C   UNL A   1      41.495  28.480  30.893  1.00  0.00     0.074 A 
ATOM    106  C   UNL A   1      41.876  31.201  36.605  1.00  0.00    -0.036 A 
ATOM    107  N   UNL A   1      41.330  30.668  34.516  1.00  0.00    -0.354 N 
ATOM    108  N   UNL A   1      41.497  29.091  32.053  1.00  0.00    -0.248 NA
ATOM    109  C   UNL A   1      42.573  27.494  30.735  1.00  0.00    -0.034 C 
ATOM    110  C   UNL A   1      42.753  30.207  36.161  1.00  0.00    -0.036 A 
ATOM    111  H   UNL A   1      41.873  31.628  37.545  1.00  0.00     0.065 H 
ATOM    112  C   UNL A   1      42.397  29.856  34.868  1.00  0.00     0.049 A 
ATOM    113  H   UNL A   1      40.865  30.646  33.649  1.00  0.00     0.167 HD
ATOM    114  C   UNL A   1      42.555  28.547  32.770  1.00  0.00     0.074 A 
ATOM    115  C   UNL A   1      43.159  27.541  31.922  1.00  0.00    -0.034 C 
ATOM    116  H   UNL A   1      42.811  26.916  29.913  1.00  0.00     0.065 H 
ATOM    117  H   UNL A   1      43.532  29.802  36.703  1.00  0.00     0.065 H 
ATOM    118  C   UNL A   1      42.990  28.857  34.015  1.00  0.00     0.037 A 
ATOM    119  H   UNL A   1      43.946  26.937  32.207  1.00  0.00     0.065 H 
BRANCH 100 120
ATOM    120  C   UNL A   1      39.845  33.425  36.726  1.00  0.00     0.064 A 
ATOM    121  C   UNL A   1      40.579  34.614  36.844  1.00  0.00     0.173 A 
ATOM    122  C   UNL A   1      38.914  33.127  37.733  1.00  0.00     0.173 A 
ATOM    123  F   UNL A   1      41.488  34.942  35.914  1.00  0.00    -0.203 F 
ATOM    124  C   UNL A   1      40.402  35.461  37.936  1.00  0.00     0.198 A 
ATOM    125  C   UNL A   1      38.717  33.992  38.807  1.00  0.00     0.198 A 
ATOM    126  F   UNL A   1      38.180  32.006  37.666  1.00  0.00    -0.203 F 
ATOM    127  F   UNL A   1      41.142  36.573  38.047  1.00  0.00    -0.200 F 
ATOM    128  C   UNL A   1      39.465  35.154  38.910  1.00  0.00     0.200 A 
ATOM    129  F   UNL A   1      37.799  33.700  39.738  1.00  0.00    -0.200 F 
ATOM    130  F   UNL A   1      39.283  35.978  39.951  1.00  0.00    -0.200 F 
ENDBRANCH 100 120
BRANCH 103 131
ATOM    131  C   UNL A   1      40.730  27.855  28.487  1.00  0.00     0.064 A 
ATOM    132  C   UNL A   1      40.076  26.626  28.318  1.00  0.00     0.173 A 
ATOM    133  C   UNL A   1      41.574  28.291  27.453  1.00  0.00     0.173 A 
ATOM    134  F   UNL A   1      39.276  26.155  29.286  1.00  0.00    -0.203 F 
ATOM    135  C   UNL A   1      40.278  25.854  27.175  1.00  0.00     0.198 A 
ATOM    136  C   UNL A   1      41.747  27.534  26.297  1.00  0.00     0.198 A 
ATOM    137  F   UNL A   1      42.220  29.461  27.563  1.00  0.00    -0.203 F 
ATOM    138  F   UNL A   1      39.685  24.658  27.065  1.00  0.00    -0.200 F 
ATOM    139  C   UNL A   1      41.109  26.310  26.164  1.00  0.00     0.200 A 
ATOM    140  F   UNL A   1      42.538  27.988  25.315  1.00  0.00    -0.200 F 
ATOM    141  F   UNL A   1      41.303  25.567  25.066  1.00  0.00    -0.200 F 
ENDBRANCH 103 131
BRANCH 118 142
ATOM    142  C   UNL A   1      44.163  28.083  34.548  1.00  0.00     0.064 A 
ATOM    143  C   UNL A   1      45.478  28.545  34.400  1.00  0.00     0.173 A 
ATOM    144  C   UNL A   1      43.963  26.882  35.247  1.00  0.00     0.173 A 
ATOM    145  F   UNL A   1      45.725  29.678  33.726  1.00  0.00    -0.203 F 
ATOM    146  C   UNL A   1      46.553  27.819  34.908  1.00  0.00     0.198 A 
ATOM    147  C   UNL A   1      45.037  26.178  35.783  1.00  0.00     0.198 A 
ATOM    148  F   UNL A   1      42.725  26.399  35.423  1.00  0.00    -0.203 F 
ATOM    149  F   UNL A   1      47.806  28.253  34.707  1.00  0.00    -0.200 F 
ATOM    150  C   UNL A   1      46.332  26.642  35.605  1.00  0.00     0.200 A 
ATOM    151  F   UNL A   1      44.819  25.048  36.472  1.00  0.00    -0.200 F 
ATOM    152  F   UNL A   1      47.366  25.949  36.101  1.00  0.00    -0.200 F 
ENDBRANCH 118 142
ENDBRANCH  83  86
ENDBRANCH  73  76
ENDBRANCH  69  72
ENDBRANCH  66  69
ENDBRANCH  63  66
ENDBRANCH  60  63
ENDBRANCH  57  60
ENDBRANCH  54  57
ENDBRANCH  52  54
ENDBRANCH  47  50
ENDBRANCH  46  47
ENDBRANCH   1  46
TORSDOF 27
ENDMDL
MODEL 8
REMARK VINA RESULT:      -8.6      3.150      8.781
REMARK SMILES CC/C=C/C/C=C/C/C=C/C/C=C/CC/C=C/COCC(=O)NCCCCCCNC(=O)c1ccc(-c2c3nc(c(-c4c(F)c(F)c(F)c(F)c4F)c4ccc([nH]4)c(-c4c(F)c(F)c(F)c(F)c4F)c4nc(c(-c5c(F)c(F)c(F)c(F)c5F)c5ccc2[nH]5)C=C4)C=C3)cc1
REMARK SMILES IDX 18 1 17 4 16 5 15 8 14 11 13 14 12 15 11 18 10 21 9 22 8 25
REMARK SMILES IDX 7 28 6 29 5 32 4 35 3 36 2 39 1 42 19 46 20 47 21 50 22 51
REMARK SMILES IDX 23 52 24 54 25 57 26 60 27 63 28 66 29 69 30 72 31 73 32 75
REMARK SMILES IDX 33 76 34 77 95 78 35 79 94 81 36 83 37 86 38 87 88 88 39 89
REMARK SMILES IDX 93 90 87 91 89 92 40 93 92 94 86 96 85 98 41 100 73 103
REMARK SMILES IDX 53 104 72 105 54 106 57 107 71 108 90 109 55 110 56 112
REMARK SMILES IDX 70 114 91 115 58 118 42 120 43 121 51 122 44 123 45 124
REMARK SMILES IDX 49 125 52 126 46 127 47 128 50 129 48 130 74 131 75 132
REMARK SMILES IDX 83 133 76 134 77 135 81 136 84 137 78 138 79 139 82 140
REMARK SMILES IDX 80 141 59 142 60 143 68 144 61 145 62 146 66 147 69 148
REMARK SMILES IDX 63 149 64 150 67 151 65 152
REMARK H PARENT 18 2 18 3 16 6 17 7 15 9 15 10 14 12 14 13 12 16 13 17 11 19
REMARK H PARENT 11 20 9 23 10 24 8 26 8 27 6 30 7 31 5 33 5 34 3 37 4 38 2 40
REMARK H PARENT 2 41 1 43 1 44 1 45 20 48 20 49 23 53 24 55 24 56 25 58 25 59
REMARK H PARENT 26 61 26 62 27 64 27 65 28 67 28 68 29 70 29 71 30 74 34 80
REMARK H PARENT 95 82 35 84 94 85 93 95 87 97 89 99 92 101 86 102 54 111
REMARK H PARENT 57 113 90 116 55 117 91 119
REMARK Flexibility Score: inf
ROOT
ATOM      1  C   UNL A   1      32.026  26.976  24.918  1.00  0.00     0.065 C 
ATOM      2  H   UNL A   1      32.941  27.210  25.421  1.00  0.00     0.061 H 
ATOM      3  H   UNL A   1      31.571  26.118  25.368  1.00  0.00     0.061 H 
ENDROOT
BRANCH   1   4
ATOM      4  C   UNL A   1      32.316  26.676  23.481  1.00  0.00    -0.063 C 
ATOM      5  C   UNL A   1      32.108  25.468  22.934  1.00  0.00    -0.086 C 
ATOM      6  H   UNL A   1      31.616  24.762  23.504  1.00  0.00     0.057 H 
ATOM      7  H   UNL A   1      32.691  27.430  22.885  1.00  0.00     0.060 H 
BRANCH   5   8
ATOM      8  C   UNL A   1      32.543  25.074  21.551  1.00  0.00    -0.032 C 
ATOM      9  H   UNL A   1      31.687  25.068  20.909  1.00  0.00     0.031 H 
ATOM     10  H   UNL A   1      33.272  25.784  21.222  1.00  0.00     0.031 H 
BRANCH   8  11
ATOM     11  C   UNL A   1      33.196  23.682  21.519  1.00  0.00    -0.032 C 
ATOM     12  H   UNL A   1      32.862  23.168  20.642  1.00  0.00     0.031 H 
ATOM     13  H   UNL A   1      34.256  23.824  21.520  1.00  0.00     0.031 H 
BRANCH  11  14
ATOM     14  C   UNL A   1      32.853  22.844  22.723  1.00  0.00    -0.088 C 
ATOM     15  C   UNL A   1      32.526  21.544  22.673  1.00  0.00    -0.085 C 
ATOM     16  H   UNL A   1      32.546  21.072  21.755  1.00  0.00     0.058 H 
ATOM     17  H   UNL A   1      32.873  23.301  23.649  1.00  0.00     0.057 H 
BRANCH  15  18
ATOM     18  C   UNL A   1      32.132  20.737  23.876  1.00  0.00    -0.017 C 
ATOM     19  H   UNL A   1      31.139  20.362  23.740  1.00  0.00     0.035 H 
ATOM     20  H   UNL A   1      32.818  19.924  23.990  1.00  0.00     0.035 H 
BRANCH  18  21
ATOM     21  C   UNL A   1      32.173  21.588  25.113  1.00  0.00    -0.084 C 
ATOM     22  C   UNL A   1      31.102  22.204  25.639  1.00  0.00    -0.084 C 
ATOM     23  H   UNL A   1      30.187  22.053  25.186  1.00  0.00     0.058 H 
ATOM     24  H   UNL A   1      33.082  21.709  25.587  1.00  0.00     0.058 H 
BRANCH  22  25
ATOM     25  C   UNL A   1      31.149  23.094  26.847  1.00  0.00    -0.017 C 
ATOM     26  H   UNL A   1      30.267  23.698  26.875  1.00  0.00     0.035 H 
ATOM     27  H   UNL A   1      31.208  22.484  27.724  1.00  0.00     0.035 H 
BRANCH  25  28
ATOM     28  C   UNL A   1      32.357  23.986  26.794  1.00  0.00    -0.084 C 
ATOM     29  C   UNL A   1      33.393  23.804  25.959  1.00  0.00    -0.084 C 
ATOM     30  H   UNL A   1      33.347  23.012  25.298  1.00  0.00     0.058 H 
ATOM     31  H   UNL A   1      32.393  24.790  27.441  1.00  0.00     0.058 H 
BRANCH  29  32
ATOM     32  C   UNL A   1      34.614  24.678  25.926  1.00  0.00    -0.017 C 
ATOM     33  H   UNL A   1      34.415  25.534  25.318  1.00  0.00     0.035 H 
ATOM     34  H   UNL A   1      34.847  24.977  26.926  1.00  0.00     0.035 H 
BRANCH  32  35
ATOM     35  C   UNL A   1      35.787  23.932  25.360  1.00  0.00    -0.085 C 
ATOM     36  C   UNL A   1      35.750  23.220  24.222  1.00  0.00    -0.089 C 
ATOM     37  H   UNL A   1      34.861  23.190  23.698  1.00  0.00     0.057 H 
ATOM     38  H   UNL A   1      36.679  23.968  25.877  1.00  0.00     0.058 H 
BRANCH  36  39
ATOM     39  C   UNL A   1      36.923  22.466  23.666  1.00  0.00    -0.038 C 
ATOM     40  H   UNL A   1      36.659  22.066  22.709  1.00  0.00     0.031 H 
ATOM     41  H   UNL A   1      37.748  23.141  23.578  1.00  0.00     0.031 H 
BRANCH  39  42
ATOM     42  C   UNL A   1      37.329  21.325  24.586  1.00  0.00    -0.062 C 
ATOM     43  H   UNL A   1      36.670  20.495  24.437  1.00  0.00     0.023 H 
ATOM     44  H   UNL A   1      37.271  21.649  25.603  1.00  0.00     0.023 H 
ATOM     45  H   UNL A   1      38.332  21.026  24.362  1.00  0.00     0.023 H 
ENDBRANCH  39  42
ENDBRANCH  36  39
ENDBRANCH  32  35
ENDBRANCH  29  32
ENDBRANCH  25  28
ENDBRANCH  22  25
ENDBRANCH  18  21
ENDBRANCH  15  18
ENDBRANCH  11  14
ENDBRANCH   8  11
ENDBRANCH   5   8
ENDBRANCH   1   4
BRANCH   1  46
ATOM     46  O   UNL A   1      31.134  28.085  25.019  1.00  0.00    -0.368 OA
BRANCH  46  47
ATOM     47  C   UNL A   1      31.632  29.160  25.809  1.00  0.00     0.126 C 
ATOM     48  H   UNL A   1      30.890  29.931  25.807  1.00  0.00     0.067 H 
ATOM     49  H   UNL A   1      32.566  29.423  25.355  1.00  0.00     0.067 H 
BRANCH  47  50
ATOM     50  C   UNL A   1      31.980  28.860  27.272  1.00  0.00     0.246 C 
ATOM     51  O   UNL A   1      31.264  28.158  27.988  1.00  0.00    -0.272 OA
ATOM     52  N   UNL A   1      33.138  29.366  27.789  1.00  0.00    -0.354 N 
ATOM     53  H   UNL A   1      33.361  29.082  28.705  1.00  0.00     0.163 HD
BRANCH  52  54
ATOM     54  C   UNL A   1      34.078  30.268  27.156  1.00  0.00     0.017 C 
ATOM     55  H   UNL A   1      33.544  31.101  26.752  1.00  0.00     0.049 H 
ATOM     56  H   UNL A   1      34.590  29.736  26.381  1.00  0.00     0.049 H 
BRANCH  54  57
ATOM     57  C   UNL A   1      35.114  30.778  28.157  1.00  0.00    -0.036 C 
ATOM     58  H   UNL A   1      35.995  30.178  28.063  1.00  0.00     0.028 H 
ATOM     59  H   UNL A   1      34.665  30.707  29.126  1.00  0.00     0.028 H 
BRANCH  57  60
ATOM     60  C   UNL A   1      35.510  32.248  27.963  1.00  0.00    -0.052 C 
ATOM     61  H   UNL A   1      35.990  32.338  27.010  1.00  0.00     0.027 H 
ATOM     62  H   UNL A   1      36.145  32.496  28.787  1.00  0.00     0.027 H 
BRANCH  60  63
ATOM     63  C   UNL A   1      34.349  33.248  28.004  1.00  0.00    -0.052 C 
ATOM     64  H   UNL A   1      33.489  32.774  27.578  1.00  0.00     0.027 H 
ATOM     65  H   UNL A   1      34.676  34.107  27.458  1.00  0.00     0.027 H 
BRANCH  63  66
ATOM     66  C   UNL A   1      33.973  33.747  29.401  1.00  0.00    -0.036 C 
ATOM     67  H   UNL A   1      34.801  33.566  30.054  1.00  0.00     0.028 H 
ATOM     68  H   UNL A   1      33.090  33.214  29.685  1.00  0.00     0.028 H 
BRANCH  66  69
ATOM     69  C   UNL A   1      33.624  35.230  29.475  1.00  0.00     0.018 C 
ATOM     70  H   UNL A   1      33.191  35.529  28.543  1.00  0.00     0.049 H 
ATOM     71  H   UNL A   1      34.527  35.769  29.676  1.00  0.00     0.049 H 
BRANCH  69  72
ATOM     72  N   UNL A   1      32.683  35.524  30.544  1.00  0.00    -0.352 N 
ATOM     73  C   UNL A   1      32.763  35.240  31.884  1.00  0.00     0.251 C 
ATOM     74  H   UNL A   1      31.866  35.998  30.264  1.00  0.00     0.163 HD
ATOM     75  O   UNL A   1      31.784  35.399  32.609  1.00  0.00    -0.269 OA
BRANCH  73  76
ATOM     76  C   UNL A   1      34.020  34.713  32.457  1.00  0.00     0.039 A 
ATOM     77  C   UNL A   1      34.025  33.426  32.998  1.00  0.00    -0.049 A 
ATOM     78  C   UNL A   1      35.189  35.478  32.454  1.00  0.00    -0.049 A 
ATOM     79  C   UNL A   1      35.221  32.873  33.461  1.00  0.00    -0.053 A 
ATOM     80  H   UNL A   1      33.148  32.884  33.055  1.00  0.00     0.063 H 
ATOM     81  C   UNL A   1      36.394  34.902  32.850  1.00  0.00    -0.053 A 
ATOM     82  H   UNL A   1      35.161  36.466  32.160  1.00  0.00     0.063 H 
ATOM     83  C   UNL A   1      36.425  33.589  33.346  1.00  0.00    -0.014 A 
ATOM     84  H   UNL A   1      35.221  31.935  33.891  1.00  0.00     0.063 H 
ATOM     85  H   UNL A   1      37.270  35.443  32.780  1.00  0.00     0.063 H 
BRANCH  83  86
ATOM     86  C   UNL A   1      37.726  32.957  33.686  1.00  0.00     0.031 A 
ATOM     87  C   UNL A   1      38.361  31.960  32.758  1.00  0.00     0.074 A 
ATOM     88  C   UNL A   1      38.301  33.235  34.874  1.00  0.00     0.049 A 
ATOM     89  N   UNL A   1      39.456  31.261  32.921  1.00  0.00    -0.248 NA
ATOM     90  C   UNL A   1      37.664  31.697  31.490  1.00  0.00    -0.034 C 
ATOM     91  C   UNL A   1      37.757  34.148  35.881  1.00  0.00    -0.036 A 
ATOM     92  N   UNL A   1      39.460  32.767  35.443  1.00  0.00    -0.354 N 
ATOM     93  C   UNL A   1      39.575  30.472  31.785  1.00  0.00     0.074 A 
ATOM     94  C   UNL A   1      38.416  30.742  30.961  1.00  0.00    -0.034 C 
ATOM     95  H   UNL A   1      36.812  32.140  31.111  1.00  0.00     0.065 H 
ATOM     96  C   UNL A   1      38.588  34.188  36.934  1.00  0.00    -0.036 A 
ATOM     97  H   UNL A   1      36.875  34.677  35.795  1.00  0.00     0.065 H 
ATOM     98  C   UNL A   1      39.698  33.270  36.699  1.00  0.00     0.049 A 
ATOM     99  H   UNL A   1      40.062  32.133  34.993  1.00  0.00     0.167 HD
ATOM    100  C   UNL A   1      40.570  29.615  31.454  1.00  0.00     0.037 A 
ATOM    101  H   UNL A   1      38.202  30.254  30.077  1.00  0.00     0.065 H 
ATOM    102  H   UNL A   1      38.462  34.774  37.774  1.00  0.00     0.065 H 
ATOM    103  C   UNL A   1      40.688  33.008  37.573  1.00  0.00     0.037 A 
ATOM    104  C   UNL A   1      41.729  29.362  32.270  1.00  0.00     0.049 A 
ATOM    105  C   UNL A   1      41.768  32.032  37.186  1.00  0.00     0.074 A 
ATOM    106  C   UNL A   1      42.824  28.564  31.987  1.00  0.00    -0.036 A 
ATOM    107  N   UNL A   1      41.939  29.893  33.535  1.00  0.00    -0.354 N 
ATOM    108  N   UNL A   1      41.911  31.355  36.074  1.00  0.00    -0.248 NA
ATOM    109  C   UNL A   1      42.824  31.785  38.177  1.00  0.00    -0.034 C 
ATOM    110  C   UNL A   1      43.665  28.562  33.104  1.00  0.00    -0.036 A 
ATOM    111  H   UNL A   1      42.991  28.057  31.104  1.00  0.00     0.065 H 
ATOM    112  C   UNL A   1      43.127  29.409  34.059  1.00  0.00     0.049 A 
ATOM    113  H   UNL A   1      41.333  30.521  33.991  1.00  0.00     0.167 HD
ATOM    114  C   UNL A   1      43.082  30.623  36.219  1.00  0.00     0.074 A 
ATOM    115  C   UNL A   1      43.622  30.957  37.520  1.00  0.00    -0.034 C 
ATOM    116  H   UNL A   1      42.919  32.160  39.135  1.00  0.00     0.065 H 
ATOM    117  H   UNL A   1      44.539  28.021  33.202  1.00  0.00     0.065 H 
ATOM    118  C   UNL A   1      43.655  29.749  35.356  1.00  0.00     0.037 A 
ATOM    119  H   UNL A   1      44.517  30.596  37.888  1.00  0.00     0.065 H 
BRANCH 100 120
ATOM    120  C   UNL A   1      40.457  28.879  30.149  1.00  0.00     0.064 A 
ATOM    121  C   UNL A   1      41.111  29.327  28.991  1.00  0.00     0.173 A 
ATOM    122  C   UNL A   1      39.740  27.675  30.072  1.00  0.00     0.173 A 
ATOM    123  F   UNL A   1      41.802  30.476  29.007  1.00  0.00    -0.203 F 
ATOM    124  C   UNL A   1      41.034  28.609  27.800  1.00  0.00     0.198 A 
ATOM    125  C   UNL A   1      39.691  26.944  28.888  1.00  0.00     0.198 A 
ATOM    126  F   UNL A   1      39.103  27.198  31.151  1.00  0.00    -0.203 F 
ATOM    127  F   UNL A   1      41.634  29.076  26.697  1.00  0.00    -0.200 F 
ATOM    128  C   UNL A   1      40.333  27.414  27.752  1.00  0.00     0.200 A 
ATOM    129  F   UNL A   1      39.027  25.780  28.849  1.00  0.00    -0.200 F 
ATOM    130  F   UNL A   1      40.273  26.715  26.611  1.00  0.00    -0.200 F 
ENDBRANCH 100 120
BRANCH 103 131
ATOM    131  C   UNL A   1      40.708  33.676  38.902  1.00  0.00     0.064 A 
ATOM    132  C   UNL A   1      39.894  33.225  39.950  1.00  0.00     0.173 A 
ATOM    133  C   UNL A   1      41.524  34.792  39.144  1.00  0.00     0.173 A 
ATOM    134  F   UNL A   1      39.081  32.176  39.763  1.00  0.00    -0.203 F 
ATOM    135  C   UNL A   1      39.875  33.881  41.180  1.00  0.00     0.198 A 
ATOM    136  C   UNL A   1      41.529  35.425  40.385  1.00  0.00     0.198 A 
ATOM    137  F   UNL A   1      42.326  35.261  38.176  1.00  0.00    -0.203 F 
ATOM    138  F   UNL A   1      39.045  33.464  42.145  1.00  0.00    -0.200 F 
ATOM    139  C   UNL A   1      40.696  34.977  41.398  1.00  0.00     0.200 A 
ATOM    140  F   UNL A   1      42.337  36.473  40.595  1.00  0.00    -0.200 F 
ATOM    141  F   UNL A   1      40.677  35.607  42.580  1.00  0.00    -0.200 F 
ENDBRANCH 103 131
BRANCH 118 142
ATOM    142  C   UNL A   1      44.947  29.110  35.780  1.00  0.00     0.064 A 
ATOM    143  C   UNL A   1      46.187  29.704  35.505  1.00  0.00     0.173 A 
ATOM    144  C   UNL A   1      44.941  27.906  36.502  1.00  0.00     0.173 A 
ATOM    145  F   UNL A   1      46.249  30.846  34.804  1.00  0.00    -0.203 F 
ATOM    146  C   UNL A   1      47.375  29.103  35.913  1.00  0.00     0.198 A 
ATOM    147  C   UNL A   1      46.129  27.326  36.938  1.00  0.00     0.198 A 
ATOM    148  F   UNL A   1      43.782  27.299  36.797  1.00  0.00    -0.203 F 
ATOM    149  F   UNL A   1      48.551  29.661  35.593  1.00  0.00    -0.200 F 
ATOM    150  C   UNL A   1      47.345  27.920  36.636  1.00  0.00     0.200 A 
ATOM    151  F   UNL A   1      46.096  26.191  37.651  1.00  0.00    -0.200 F 
ATOM    152  F   UNL A   1      48.488  27.346  37.036  1.00  0.00    -0.200 F 
ENDBRANCH 118 142
ENDBRANCH  83  86
ENDBRANCH  73  76
ENDBRANCH  69  72
ENDBRANCH  66  69
ENDBRANCH  63  66
ENDBRANCH  60  63
ENDBRANCH  57  60
ENDBRANCH  54  57
ENDBRANCH  52  54
ENDBRANCH  47  50
ENDBRANCH  46  47
ENDBRANCH   1  46
TORSDOF 27
ENDMDL
MODEL 9
REMARK VINA RESULT:      -8.6      5.668     11.050
REMARK SMILES CC/C=C/C/C=C/C/C=C/C/C=C/CC/C=C/COCC(=O)NCCCCCCNC(=O)c1ccc(-c2c3nc(c(-c4c(F)c(F)c(F)c(F)c4F)c4ccc([nH]4)c(-c4c(F)c(F)c(F)c(F)c4F)c4nc(c(-c5c(F)c(F)c(F)c(F)c5F)c5ccc2[nH]5)C=C4)C=C3)cc1
REMARK SMILES IDX 18 1 17 4 16 5 15 8 14 11 13 14 12 15 11 18 10 21 9 22 8 25
REMARK SMILES IDX 7 28 6 29 5 32 4 35 3 36 2 39 1 42 19 46 20 47 21 50 22 51
REMARK SMILES IDX 23 52 24 54 25 57 26 60 27 63 28 66 29 69 30 72 31 73 32 75
REMARK SMILES IDX 33 76 34 77 95 78 35 79 94 81 36 83 37 86 38 87 88 88 39 89
REMARK SMILES IDX 93 90 87 91 89 92 40 93 92 94 86 96 85 98 41 100 73 103
REMARK SMILES IDX 53 104 72 105 54 106 57 107 71 108 90 109 55 110 56 112
REMARK SMILES IDX 70 114 91 115 58 118 42 120 43 121 51 122 44 123 45 124
REMARK SMILES IDX 49 125 52 126 46 127 47 128 50 129 48 130 74 131 75 132
REMARK SMILES IDX 83 133 76 134 77 135 81 136 84 137 78 138 79 139 82 140
REMARK SMILES IDX 80 141 59 142 60 143 68 144 61 145 62 146 66 147 69 148
REMARK SMILES IDX 63 149 64 150 67 151 65 152
REMARK H PARENT 18 2 18 3 16 6 17 7 15 9 15 10 14 12 14 13 12 16 13 17 11 19
REMARK H PARENT 11 20 9 23 10 24 8 26 8 27 6 30 7 31 5 33 5 34 3 37 4 38 2 40
REMARK H PARENT 2 41 1 43 1 44 1 45 20 48 20 49 23 53 24 55 24 56 25 58 25 59
REMARK H PARENT 26 61 26 62 27 64 27 65 28 67 28 68 29 70 29 71 30 74 34 80
REMARK H PARENT 95 82 35 84 94 85 93 95 87 97 89 99 92 101 86 102 54 111
REMARK H PARENT 57 113 90 116 55 117 91 119
REMARK Flexibility Score: inf
ROOT
ATOM      1  C   UNL A   1      39.936  21.674  26.636  1.00  0.00     0.065 C 
ATOM      2  H   UNL A   1      40.399  21.487  25.689  1.00  0.00     0.061 H 
ATOM      3  H   UNL A   1      38.881  21.513  26.565  1.00  0.00     0.061 H 
ENDROOT
BRANCH   1   4
ATOM      4  C   UNL A   1      40.188  23.094  27.035  1.00  0.00    -0.063 C 
ATOM      5  C   UNL A   1      39.217  24.020  27.077  1.00  0.00    -0.086 C 
ATOM      6  H   UNL A   1      38.244  23.702  26.945  1.00  0.00     0.057 H 
ATOM      7  H   UNL A   1      41.148  23.373  27.289  1.00  0.00     0.060 H 
BRANCH   5   8
ATOM      8  C   UNL A   1      39.450  25.487  27.301  1.00  0.00    -0.032 C 
ATOM      9  H   UNL A   1      39.861  25.911  26.409  1.00  0.00     0.031 H 
ATOM     10  H   UNL A   1      38.510  25.935  27.548  1.00  0.00     0.031 H 
BRANCH   8  11
ATOM     11  C   UNL A   1      40.418  25.753  28.467  1.00  0.00    -0.032 C 
ATOM     12  H   UNL A   1      40.389  24.915  29.131  1.00  0.00     0.031 H 
ATOM     13  H   UNL A   1      41.391  25.899  28.049  1.00  0.00     0.031 H 
BRANCH  11  14
ATOM     14  C   UNL A   1      40.072  26.994  29.247  1.00  0.00    -0.088 C 
ATOM     15  C   UNL A   1      38.921  27.175  29.910  1.00  0.00    -0.085 C 
ATOM     16  H   UNL A   1      38.238  26.401  29.922  1.00  0.00     0.058 H 
ATOM     17  H   UNL A   1      40.769  27.755  29.273  1.00  0.00     0.057 H 
BRANCH  15  18
ATOM     18  C   UNL A   1      38.568  28.442  30.637  1.00  0.00    -0.017 C 
ATOM     19  H   UNL A   1      38.213  28.200  31.616  1.00  0.00     0.035 H 
ATOM     20  H   UNL A   1      39.440  29.058  30.706  1.00  0.00     0.035 H 
BRANCH  18  21
ATOM     21  C   UNL A   1      37.499  29.190  29.894  1.00  0.00    -0.084 C 
ATOM     22  C   UNL A   1      37.580  29.529  28.597  1.00  0.00    -0.084 C 
ATOM     23  H   UNL A   1      38.413  29.226  28.069  1.00  0.00     0.058 H 
ATOM     24  H   UNL A   1      36.649  29.461  30.413  1.00  0.00     0.058 H 
BRANCH  22  25
ATOM     25  C   UNL A   1      36.534  30.319  27.865  1.00  0.00    -0.017 C 
ATOM     26  H   UNL A   1      36.306  31.203  28.422  1.00  0.00     0.035 H 
ATOM     27  H   UNL A   1      36.911  30.578  26.897  1.00  0.00     0.035 H 
BRANCH  25  28
ATOM     28  C   UNL A   1      35.283  29.504  27.696  1.00  0.00    -0.084 C 
ATOM     29  C   UNL A   1      34.119  29.997  27.245  1.00  0.00    -0.084 C 
ATOM     30  H   UNL A   1      34.086  30.994  26.979  1.00  0.00     0.058 H 
ATOM     31  H   UNL A   1      35.321  28.502  27.941  1.00  0.00     0.058 H 
BRANCH  29  32
ATOM     32  C   UNL A   1      32.860  29.190  27.103  1.00  0.00    -0.017 C 
ATOM     33  H   UNL A   1      32.308  29.239  28.018  1.00  0.00     0.035 H 
ATOM     34  H   UNL A   1      32.283  29.595  26.298  1.00  0.00     0.035 H 
BRANCH  32  35
ATOM     35  C   UNL A   1      33.178  27.756  26.794  1.00  0.00    -0.085 C 
ATOM     36  C   UNL A   1      32.436  26.976  25.991  1.00  0.00    -0.089 C 
ATOM     37  H   UNL A   1      31.598  27.389  25.552  1.00  0.00     0.057 H 
ATOM     38  H   UNL A   1      34.020  27.344  27.224  1.00  0.00     0.058 H 
BRANCH  36  39
ATOM     39  C   UNL A   1      32.751  25.538  25.695  1.00  0.00    -0.038 C 
ATOM     40  H   UNL A   1      32.391  24.929  26.497  1.00  0.00     0.031 H 
ATOM     41  H   UNL A   1      32.275  25.271  24.774  1.00  0.00     0.031 H 
BRANCH  39  42
ATOM     42  C   UNL A   1      34.249  25.324  25.543  1.00  0.00    -0.062 C 
ATOM     43  H   UNL A   1      34.583  25.774  24.631  1.00  0.00     0.023 H 
ATOM     44  H   UNL A   1      34.459  24.276  25.521  1.00  0.00     0.023 H 
ATOM     45  H   UNL A   1      34.760  25.774  26.369  1.00  0.00     0.023 H 
ENDBRANCH  39  42
ENDBRANCH  36  39
ENDBRANCH  32  35
ENDBRANCH  29  32
ENDBRANCH  25  28
ENDBRANCH  22  25
ENDBRANCH  18  21
ENDBRANCH  15  18
ENDBRANCH  11  14
ENDBRANCH   8  11
ENDBRANCH   5   8
ENDBRANCH   1   4
BRANCH   1  46
ATOM     46  O   UNL A   1      40.480  20.786  27.612  1.00  0.00    -0.368 OA
BRANCH  46  47
ATOM     47  C   UNL A   1      41.871  20.527  27.450  1.00  0.00     0.126 C 
ATOM     48  H   UNL A   1      42.166  19.856  28.230  1.00  0.00     0.067 H 
ATOM     49  H   UNL A   1      42.333  21.493  27.480  1.00  0.00     0.067 H 
BRANCH  47  50
ATOM     50  C   UNL A   1      42.327  19.916  26.120  1.00  0.00     0.246 C 
ATOM     51  O   UNL A   1      41.950  18.806  25.742  1.00  0.00    -0.272 OA
ATOM     52  N   UNL A   1      43.156  20.642  25.314  1.00  0.00    -0.354 N 
ATOM     53  H   UNL A   1      43.359  20.247  24.435  1.00  0.00     0.163 HD
BRANCH  52  54
ATOM     54  C   UNL A   1      43.776  21.922  25.593  1.00  0.00     0.017 C 
ATOM     55  H   UNL A   1      43.504  22.234  26.578  1.00  0.00     0.049 H 
ATOM     56  H   UNL A   1      43.435  22.629  24.865  1.00  0.00     0.049 H 
BRANCH  54  57
ATOM     57  C   UNL A   1      45.299  21.830  25.501  1.00  0.00    -0.036 C 
ATOM     58  H   UNL A   1      45.575  20.797  25.529  1.00  0.00     0.028 H 
ATOM     59  H   UNL A   1      45.690  22.387  26.327  1.00  0.00     0.028 H 
BRANCH  57  60
ATOM     60  C   UNL A   1      45.893  22.453  24.230  1.00  0.00    -0.052 C 
ATOM     61  H   UNL A   1      45.084  22.699  23.573  1.00  0.00     0.027 H 
ATOM     62  H   UNL A   1      46.563  21.723  23.827  1.00  0.00     0.027 H 
BRANCH  60  63
ATOM     63  C   UNL A   1      46.726  23.720  24.452  1.00  0.00    -0.052 C 
ATOM     64  H   UNL A   1      46.690  24.301  23.554  1.00  0.00     0.027 H 
ATOM     65  H   UNL A   1      47.711  23.389  24.705  1.00  0.00     0.027 H 
BRANCH  63  66
ATOM     66  C   UNL A   1      46.261  24.607  25.609  1.00  0.00    -0.036 C 
ATOM     67  H   UNL A   1      47.127  24.940  26.142  1.00  0.00     0.028 H 
ATOM     68  H   UNL A   1      45.606  24.007  26.205  1.00  0.00     0.028 H 
BRANCH  66  69
ATOM     69  C   UNL A   1      45.460  25.835  25.189  1.00  0.00     0.018 C 
ATOM     70  H   UNL A   1      45.922  26.269  24.327  1.00  0.00     0.049 H 
ATOM     71  H   UNL A   1      45.451  26.518  26.013  1.00  0.00     0.049 H 
BRANCH  69  72
ATOM     72  N   UNL A   1      44.079  25.510  24.865  1.00  0.00    -0.352 N 
ATOM     73  C   UNL A   1      42.916  26.065  25.334  1.00  0.00     0.251 C 
ATOM     74  H   UNL A   1      43.963  24.782  24.213  1.00  0.00     0.163 HD
ATOM     75  O   UNL A   1      41.835  25.534  25.089  1.00  0.00    -0.269 OA
BRANCH  73  76
ATOM     76  C   UNL A   1      42.959  27.289  26.162  1.00  0.00     0.039 A 
ATOM     77  C   UNL A   1      43.691  27.272  27.351  1.00  0.00    -0.049 A 
ATOM     78  C   UNL A   1      42.289  28.450  25.767  1.00  0.00    -0.049 A 
ATOM     79  C   UNL A   1      43.821  28.442  28.102  1.00  0.00    -0.053 A 
ATOM     80  H   UNL A   1      44.135  26.397  27.674  1.00  0.00     0.063 H 
ATOM     81  C   UNL A   1      42.477  29.634  26.477  1.00  0.00    -0.053 A 
ATOM     82  H   UNL A   1      41.658  28.432  24.951  1.00  0.00     0.063 H 
ATOM     83  C   UNL A   1      43.256  29.645  27.645  1.00  0.00    -0.014 A 
ATOM     84  H   UNL A   1      44.333  28.424  28.997  1.00  0.00     0.063 H 
ATOM     85  H   UNL A   1      42.041  30.508  26.144  1.00  0.00     0.063 H 
BRANCH  83  86
ATOM     86  C   UNL A   1      43.517  30.928  28.348  1.00  0.00     0.031 A 
ATOM     87  C   UNL A   1      44.715  31.764  27.997  1.00  0.00     0.074 A 
ATOM     88  C   UNL A   1      42.704  31.303  29.355  1.00  0.00     0.049 A 
ATOM     89  N   UNL A   1      45.137  32.875  28.548  1.00  0.00    -0.248 NA
ATOM     90  C   UNL A   1      45.564  31.279  26.899  1.00  0.00    -0.034 C 
ATOM     91  C   UNL A   1      41.536  30.552  29.822  1.00  0.00    -0.036 A 
ATOM     92  N   UNL A   1      42.742  32.401  30.180  1.00  0.00    -0.354 N 
ATOM     93  C   UNL A   1      46.300  33.216  27.871  1.00  0.00     0.074 A 
ATOM     94  C   UNL A   1      46.546  32.170  26.900  1.00  0.00    -0.034 C 
ATOM     95  H   UNL A   1      45.431  30.459  26.286  1.00  0.00     0.065 H 
ATOM     96  C   UNL A   1      40.960  31.217  30.835  1.00  0.00    -0.036 A 
ATOM     97  H   UNL A   1      41.210  29.654  29.434  1.00  0.00     0.065 H 
ATOM     98  C   UNL A   1      41.741  32.416  31.121  1.00  0.00     0.049 A 
ATOM     99  H   UNL A   1      43.421  33.109  30.103  1.00  0.00     0.167 HD
ATOM    100  C   UNL A   1      47.080  34.311  28.033  1.00  0.00     0.037 A 
ATOM    101  H   UNL A   1      47.377  32.124  26.290  1.00  0.00     0.065 H 
ATOM    102  H   UNL A   1      40.103  30.927  31.331  1.00  0.00     0.065 H 
ATOM    103  C   UNL A   1      41.490  33.288  32.117  1.00  0.00     0.037 A 
ATOM    104  C   UNL A   1      46.823  35.356  28.990  1.00  0.00     0.049 A 
ATOM    105  C   UNL A   1      42.389  34.484  32.288  1.00  0.00     0.074 A 
ATOM    106  C   UNL A   1      47.517  36.539  29.181  1.00  0.00    -0.036 A 
ATOM    107  N   UNL A   1      45.797  35.341  29.924  1.00  0.00    -0.354 N 
ATOM    108  N   UNL A   1      43.438  34.837  31.587  1.00  0.00    -0.248 NA
ATOM    109  C   UNL A   1      42.068  35.402  33.389  1.00  0.00    -0.034 C 
ATOM    110  C   UNL A   1      46.951  37.208  30.270  1.00  0.00    -0.036 A 
ATOM    111  H   UNL A   1      48.315  36.870  28.617  1.00  0.00     0.065 H 
ATOM    112  C   UNL A   1      45.864  36.475  30.718  1.00  0.00     0.049 A 
ATOM    113  H   UNL A   1      45.122  34.630  30.009  1.00  0.00     0.167 HD
ATOM    114  C   UNL A   1      43.887  36.027  32.144  1.00  0.00     0.074 A 
ATOM    115  C   UNL A   1      42.981  36.348  33.227  1.00  0.00    -0.034 C 
ATOM    116  H   UNL A   1      41.324  35.330  34.102  1.00  0.00     0.065 H 
ATOM    117  H   UNL A   1      47.285  38.098  30.673  1.00  0.00     0.065 H 
ATOM    118  C   UNL A   1      44.956  36.784  31.793  1.00  0.00     0.037 A 
ATOM    119  H   UNL A   1      43.040  37.205  33.799  1.00  0.00     0.065 H 
BRANCH 100 120
ATOM    120  C   UNL A   1      48.295  34.444  27.159  1.00  0.00     0.064 A 
ATOM    121  C   UNL A   1      49.473  33.727  27.420  1.00  0.00     0.173 A 
ATOM    122  C   UNL A   1      48.258  35.247  26.009  1.00  0.00     0.173 A 
ATOM    123  F   UNL A   1      49.564  32.952  28.511  1.00  0.00    -0.203 F 
ATOM    124  C   UNL A   1      50.575  33.826  26.574  1.00  0.00     0.198 A 
ATOM    125  C   UNL A   1      49.351  35.318  25.148  1.00  0.00     0.198 A 
ATOM    126  F   UNL A   1      47.154  35.947  25.708  1.00  0.00    -0.203 F 
ATOM    127  F   UNL A   1      51.703  33.163  26.864  1.00  0.00    -0.200 F 
ATOM    128  C   UNL A   1      50.509  34.613  25.435  1.00  0.00     0.200 A 
ATOM    129  F   UNL A   1      49.279  36.067  24.039  1.00  0.00    -0.200 F 
ATOM    130  F   UNL A   1      51.564  34.695  24.612  1.00  0.00    -0.200 F 
ENDBRANCH 100 120
BRANCH 103 131
ATOM    131  C   UNL A   1      40.339  33.066  33.032  1.00  0.00     0.064 A 
ATOM    132  C   UNL A   1      39.110  33.705  32.818  1.00  0.00     0.173 A 
ATOM    133  C   UNL A   1      40.450  32.228  34.153  1.00  0.00     0.173 A 
ATOM    134  F   UNL A   1      38.960  34.533  31.774  1.00  0.00    -0.203 F 
ATOM    135  C   UNL A   1      38.047  33.537  33.703  1.00  0.00     0.198 A 
ATOM    136  C   UNL A   1      39.375  32.033  35.016  1.00  0.00     0.198 A 
ATOM    137  F   UNL A   1      41.603  31.587  34.401  1.00  0.00    -0.203 F 
ATOM    138  F   UNL A   1      36.902  34.206  33.506  1.00  0.00    -0.200 F 
ATOM    139  C   UNL A   1      38.178  32.697  34.798  1.00  0.00     0.200 A 
ATOM    140  F   UNL A   1      39.502  31.207  36.064  1.00  0.00    -0.200 F 
ATOM    141  F   UNL A   1      37.155  32.535  35.648  1.00  0.00    -0.200 F 
ENDBRANCH 103 131
BRANCH 118 142
ATOM    142  C   UNL A   1      45.191  38.047  32.573  1.00  0.00     0.064 A 
ATOM    143  C   UNL A   1      44.575  39.256  32.219  1.00  0.00     0.173 A 
ATOM    144  C   UNL A   1      46.014  38.037  33.710  1.00  0.00     0.173 A 
ATOM    145  F   UNL A   1      43.792  39.322  31.131  1.00  0.00    -0.203 F 
ATOM    146  C   UNL A   1      44.796  40.415  32.958  1.00  0.00     0.198 A 
ATOM    147  C   UNL A   1      46.205  39.190  34.466  1.00  0.00     0.198 A 
ATOM    148  F   UNL A   1      46.622  36.906  34.096  1.00  0.00    -0.203 F 
ATOM    149  F   UNL A   1      44.239  41.571  32.570  1.00  0.00    -0.200 F 
ATOM    150  C   UNL A   1      45.604  40.380  34.085  1.00  0.00     0.200 A 
ATOM    151  F   UNL A   1      46.973  39.149  35.564  1.00  0.00    -0.200 F 
ATOM    152  F   UNL A   1      45.809  41.494  34.800  1.00  0.00    -0.200 F 
ENDBRANCH 118 142
ENDBRANCH  83  86
ENDBRANCH  73  76
ENDBRANCH  69  72
ENDBRANCH  66  69
ENDBRANCH  63  66
ENDBRANCH  60  63
ENDBRANCH  57  60
ENDBRANCH  54  57
ENDBRANCH  52  54
ENDBRANCH  47  50
ENDBRANCH  46  47
ENDBRANCH   1  46
TORSDOF 27
ENDMDL
MODEL 10
REMARK VINA RESULT:      -8.6      6.069     11.663
REMARK SMILES CC/C=C/C/C=C/C/C=C/C/C=C/CC/C=C/COCC(=O)NCCCCCCNC(=O)c1ccc(-c2c3nc(c(-c4c(F)c(F)c(F)c(F)c4F)c4ccc([nH]4)c(-c4c(F)c(F)c(F)c(F)c4F)c4nc(c(-c5c(F)c(F)c(F)c(F)c5F)c5ccc2[nH]5)C=C4)C=C3)cc1
REMARK SMILES IDX 18 1 17 4 16 5 15 8 14 11 13 14 12 15 11 18 10 21 9 22 8 25
REMARK SMILES IDX 7 28 6 29 5 32 4 35 3 36 2 39 1 42 19 46 20 47 21 50 22 51
REMARK SMILES IDX 23 52 24 54 25 57 26 60 27 63 28 66 29 69 30 72 31 73 32 75
REMARK SMILES IDX 33 76 34 77 95 78 35 79 94 81 36 83 37 86 38 87 88 88 39 89
REMARK SMILES IDX 93 90 87 91 89 92 40 93 92 94 86 96 85 98 41 100 73 103
REMARK SMILES IDX 53 104 72 105 54 106 57 107 71 108 90 109 55 110 56 112
REMARK SMILES IDX 70 114 91 115 58 118 42 120 43 121 51 122 44 123 45 124
REMARK SMILES IDX 49 125 52 126 46 127 47 128 50 129 48 130 74 131 75 132
REMARK SMILES IDX 83 133 76 134 77 135 81 136 84 137 78 138 79 139 82 140
REMARK SMILES IDX 80 141 59 142 60 143 68 144 61 145 62 146 66 147 69 148
REMARK SMILES IDX 63 149 64 150 67 151 65 152
REMARK H PARENT 18 2 18 3 16 6 17 7 15 9 15 10 14 12 14 13 12 16 13 17 11 19
REMARK H PARENT 11 20 9 23 10 24 8 26 8 27 6 30 7 31 5 33 5 34 3 37 4 38 2 40
REMARK H PARENT 2 41 1 43 1 44 1 45 20 48 20 49 23 53 24 55 24 56 25 58 25 59
REMARK H PARENT 26 61 26 62 27 64 27 65 28 67 28 68 29 70 29 71 30 74 34 80
REMARK H PARENT 95 82 35 84 94 85 93 95 87 97 89 99 92 101 86 102 54 111
REMARK H PARENT 57 113 90 116 55 117 91 119
REMARK Flexibility Score: inf
ROOT
ATOM      1  C   UNL A   1      39.954  21.803  26.604  1.00  0.00     0.065 C 
ATOM      2  H   UNL A   1      40.500  21.652  25.696  1.00  0.00     0.061 H 
ATOM      3  H   UNL A   1      38.914  21.615  26.440  1.00  0.00     0.061 H 
ENDROOT
BRANCH   1   4
ATOM      4  C   UNL A   1      40.129  23.219  27.055  1.00  0.00    -0.063 C 
ATOM      5  C   UNL A   1      39.114  24.095  27.107  1.00  0.00    -0.086 C 
ATOM      6  H   UNL A   1      38.161  23.736  26.943  1.00  0.00     0.057 H 
ATOM      7  H   UNL A   1      41.069  23.534  27.339  1.00  0.00     0.060 H 
BRANCH   5   8
ATOM      8  C   UNL A   1      39.272  25.564  27.385  1.00  0.00    -0.032 C 
ATOM      9  H   UNL A   1      39.577  26.054  26.484  1.00  0.00     0.031 H 
ATOM     10  H   UNL A   1      38.331  25.935  27.731  1.00  0.00     0.031 H 
BRANCH   8  11
ATOM     11  C   UNL A   1      40.318  25.841  28.478  1.00  0.00    -0.032 C 
ATOM     12  H   UNL A   1      40.345  25.004  29.144  1.00  0.00     0.031 H 
ATOM     13  H   UNL A   1      41.258  25.995  27.991  1.00  0.00     0.031 H 
BRANCH  11  14
ATOM     14  C   UNL A   1      40.017  27.081  29.279  1.00  0.00    -0.088 C 
ATOM     15  C   UNL A   1      38.898  27.268  29.992  1.00  0.00    -0.085 C 
ATOM     16  H   UNL A   1      38.210  26.499  30.031  1.00  0.00     0.058 H 
ATOM     17  H   UNL A   1      40.721  27.836  29.278  1.00  0.00     0.057 H 
BRANCH  15  18
ATOM     18  C   UNL A   1      38.588  28.533  30.740  1.00  0.00    -0.017 C 
ATOM     19  H   UNL A   1      38.369  28.296  31.760  1.00  0.00     0.035 H 
ATOM     20  H   UNL A   1      39.436  29.184  30.689  1.00  0.00     0.035 H 
BRANCH  18  21
ATOM     21  C   UNL A   1      37.404  29.225  30.128  1.00  0.00    -0.084 C 
ATOM     22  C   UNL A   1      37.162  29.278  28.808  1.00  0.00    -0.084 C 
ATOM     23  H   UNL A   1      37.812  28.783  28.178  1.00  0.00     0.058 H 
ATOM     24  H   UNL A   1      36.734  29.689  30.762  1.00  0.00     0.058 H 
BRANCH  22  25
ATOM     25  C   UNL A   1      36.006  30.009  28.191  1.00  0.00    -0.017 C 
ATOM     26  H   UNL A   1      36.171  30.106  27.139  1.00  0.00     0.035 H 
ATOM     27  H   UNL A   1      35.108  29.456  28.376  1.00  0.00     0.035 H 
BRANCH  25  28
ATOM     28  C   UNL A   1      35.865  31.377  28.797  1.00  0.00    -0.084 C 
ATOM     29  C   UNL A   1      35.972  32.522  28.105  1.00  0.00    -0.084 C 
ATOM     30  H   UNL A   1      36.142  32.459  27.089  1.00  0.00     0.058 H 
ATOM     31  H   UNL A   1      35.675  31.440  29.810  1.00  0.00     0.058 H 
BRANCH  29  32
ATOM     32  C   UNL A   1      35.862  33.890  28.715  1.00  0.00    -0.017 C 
ATOM     33  H   UNL A   1      36.805  34.162  29.138  1.00  0.00     0.035 H 
ATOM     34  H   UNL A   1      35.583  34.584  27.950  1.00  0.00     0.035 H 
BRANCH  32  35
ATOM     35  C   UNL A   1      34.814  33.911  29.790  1.00  0.00    -0.085 C 
ATOM     36  C   UNL A   1      35.053  34.245  31.068  1.00  0.00    -0.089 C 
ATOM     37  H   UNL A   1      36.015  34.512  31.328  1.00  0.00     0.057 H 
ATOM     38  H   UNL A   1      33.849  33.653  29.530  1.00  0.00     0.058 H 
BRANCH  36  39
ATOM     39  C   UNL A   1      34.004  34.252  32.142  1.00  0.00    -0.038 C 
ATOM     40  H   UNL A   1      33.995  35.212  32.615  1.00  0.00     0.031 H 
ATOM     41  H   UNL A   1      33.056  34.045  31.690  1.00  0.00     0.031 H 
BRANCH  39  42
ATOM     42  C   UNL A   1      34.281  33.186  33.190  1.00  0.00    -0.062 C 
ATOM     43  H   UNL A   1      34.997  33.556  33.895  1.00  0.00     0.023 H 
ATOM     44  H   UNL A   1      34.670  32.311  32.715  1.00  0.00     0.023 H 
ATOM     45  H   UNL A   1      33.373  32.942  33.701  1.00  0.00     0.023 H 
ENDBRANCH  39  42
ENDBRANCH  36  39
ENDBRANCH  32  35
ENDBRANCH  29  32
ENDBRANCH  25  28
ENDBRANCH  22  25
ENDBRANCH  18  21
ENDBRANCH  15  18
ENDBRANCH  11  14
ENDBRANCH   8  11
ENDBRANCH   5   8
ENDBRANCH   1   4
BRANCH   1  46
ATOM     46  O   UNL A   1      40.439  20.905  27.602  1.00  0.00    -0.368 OA
BRANCH  46  47
ATOM     47  C   UNL A   1      41.814  20.562  27.456  1.00  0.00     0.126 C 
ATOM     48  H   UNL A   1      42.052  19.855  28.222  1.00  0.00     0.067 H 
ATOM     49  H   UNL A   1      42.335  21.496  27.517  1.00  0.00     0.067 H 
BRANCH  47  50
ATOM     50  C   UNL A   1      42.253  19.956  26.117  1.00  0.00     0.246 C 
ATOM     51  O   UNL A   1      41.863  18.852  25.736  1.00  0.00    -0.272 OA
ATOM     52  N   UNL A   1      43.082  20.680  25.310  1.00  0.00    -0.354 N 
ATOM     53  H   UNL A   1      43.274  20.288  24.427  1.00  0.00     0.163 HD
BRANCH  52  54
ATOM     54  C   UNL A   1      43.716  21.952  25.591  1.00  0.00     0.017 C 
ATOM     55  H   UNL A   1      43.469  22.252  26.587  1.00  0.00     0.049 H 
ATOM     56  H   UNL A   1      43.362  22.671  24.882  1.00  0.00     0.049 H 
BRANCH  54  57
ATOM     57  C   UNL A   1      45.235  21.854  25.462  1.00  0.00    -0.036 C 
ATOM     58  H   UNL A   1      45.504  20.818  25.456  1.00  0.00     0.028 H 
ATOM     59  H   UNL A   1      45.649  22.385  26.294  1.00  0.00     0.028 H 
BRANCH  57  60
ATOM     60  C   UNL A   1      45.805  22.506  24.195  1.00  0.00    -0.052 C 
ATOM     61  H   UNL A   1      44.986  22.741  23.548  1.00  0.00     0.027 H 
ATOM     62  H   UNL A   1      46.490  21.798  23.778  1.00  0.00     0.027 H 
BRANCH  60  63
ATOM     63  C   UNL A   1      46.609  23.790  24.427  1.00  0.00    -0.052 C 
ATOM     64  H   UNL A   1      46.545  24.385  23.540  1.00  0.00     0.027 H 
ATOM     65  H   UNL A   1      47.606  23.479  24.661  1.00  0.00     0.027 H 
BRANCH  63  66
ATOM     66  C   UNL A   1      46.140  24.644  25.607  1.00  0.00    -0.036 C 
ATOM     67  H   UNL A   1      47.003  24.956  26.157  1.00  0.00     0.028 H 
ATOM     68  H   UNL A   1      45.476  24.031  26.179  1.00  0.00     0.028 H 
BRANCH  66  69
ATOM     69  C   UNL A   1      45.349  25.889  25.216  1.00  0.00     0.018 C 
ATOM     70  H   UNL A   1      45.807  26.333  24.357  1.00  0.00     0.049 H 
ATOM     71  H   UNL A   1      45.358  26.558  26.052  1.00  0.00     0.049 H 
BRANCH  69  72
ATOM     72  N   UNL A   1      43.961  25.587  24.903  1.00  0.00    -0.352 N 
ATOM     73  C   UNL A   1      42.810  26.164  25.377  1.00  0.00     0.251 C 
ATOM     74  H   UNL A   1      43.828  24.859  24.254  1.00  0.00     0.163 HD
ATOM     75  O   UNL A   1      41.719  25.651  25.141  1.00  0.00    -0.269 OA
BRANCH  73  76
ATOM     76  C   UNL A   1      42.881  27.391  26.199  1.00  0.00     0.039 A 
ATOM     77  C   UNL A   1      43.609  27.363  27.389  1.00  0.00    -0.049 A 
ATOM     78  C   UNL A   1      42.239  28.566  25.797  1.00  0.00    -0.049 A 
ATOM     79  C   UNL A   1      43.765  28.533  28.135  1.00  0.00    -0.053 A 
ATOM     80  H   UNL A   1      44.032  26.480  27.717  1.00  0.00     0.063 H 
ATOM     81  C   UNL A   1      42.452  29.748  26.502  1.00  0.00    -0.053 A 
ATOM     82  H   UNL A   1      41.609  28.558  24.980  1.00  0.00     0.063 H 
ATOM     83  C   UNL A   1      43.228  29.746  27.672  1.00  0.00    -0.014 A 
ATOM     84  H   UNL A   1      44.275  28.507  29.032  1.00  0.00     0.063 H 
ATOM     85  H   UNL A   1      42.037  30.630  26.164  1.00  0.00     0.063 H 
BRANCH  83  86
ATOM     86  C   UNL A   1      43.517  31.027  28.369  1.00  0.00     0.031 A 
ATOM     87  C   UNL A   1      44.727  31.841  28.006  1.00  0.00     0.074 A 
ATOM     88  C   UNL A   1      42.720  31.418  29.383  1.00  0.00     0.049 A 
ATOM     89  N   UNL A   1      45.172  32.946  28.550  1.00  0.00    -0.248 NA
ATOM     90  C   UNL A   1      45.557  31.339  26.901  1.00  0.00    -0.034 C 
ATOM     91  C   UNL A   1      41.544  30.688  29.862  1.00  0.00    -0.036 A 
ATOM     92  N   UNL A   1      42.784  32.516  30.205  1.00  0.00    -0.354 N 
ATOM     93  C   UNL A   1      46.335  33.266  27.862  1.00  0.00     0.074 A 
ATOM     94  C   UNL A   1      46.554  32.213  26.892  1.00  0.00    -0.034 C 
ATOM     95  H   UNL A   1      45.405  30.520  26.291  1.00  0.00     0.065 H 
ATOM     96  C   UNL A   1      40.989  31.365  30.878  1.00  0.00    -0.036 A 
ATOM     97  H   UNL A   1      41.199  29.794  29.479  1.00  0.00     0.065 H 
ATOM     98  C   UNL A   1      41.792  32.551  31.155  1.00  0.00     0.049 A 
ATOM     99  H   UNL A   1      43.474  33.212  30.120  1.00  0.00     0.167 HD
ATOM    100  C   UNL A   1      47.135  34.347  28.015  1.00  0.00     0.037 A 
ATOM    101  H   UNL A   1      47.379  32.152  26.274  1.00  0.00     0.065 H 
ATOM    102  H   UNL A   1      40.131  31.091  31.382  1.00  0.00     0.065 H 
ATOM    103  C   UNL A   1      41.565  33.429  32.150  1.00  0.00     0.037 A 
ATOM    104  C   UNL A   1      46.904  35.399  28.971  1.00  0.00     0.049 A 
ATOM    105  C   UNL A   1      42.486  34.610  32.311  1.00  0.00     0.074 A 
ATOM    106  C   UNL A   1      47.620  36.570  29.153  1.00  0.00    -0.036 A 
ATOM    107  N   UNL A   1      45.886  35.403  29.914  1.00  0.00    -0.354 N 
ATOM    108  N   UNL A   1      43.535  34.943  31.600  1.00  0.00    -0.248 NA
ATOM    109  C   UNL A   1      42.190  35.536  33.412  1.00  0.00    -0.034 C 
ATOM    110  C   UNL A   1      47.075  37.252  30.246  1.00  0.00    -0.036 A 
ATOM    111  H   UNL A   1      48.419  36.886  28.582  1.00  0.00     0.065 H 
ATOM    112  C   UNL A   1      45.980  36.538  30.705  1.00  0.00     0.049 A 
ATOM    113  H   UNL A   1      45.200  34.704  30.007  1.00  0.00     0.167 HD
ATOM    114  C   UNL A   1      44.008  36.127  32.149  1.00  0.00     0.074 A 
ATOM    115  C   UNL A   1      43.118  36.466  33.239  1.00  0.00    -0.034 C 
ATOM    116  H   UNL A   1      41.452  35.478  34.131  1.00  0.00     0.065 H 
ATOM    117  H   UNL A   1      47.428  38.136  30.643  1.00  0.00     0.065 H 
ATOM    118  C   UNL A   1      45.087  36.865  31.787  1.00  0.00     0.037 A 
ATOM    119  H   UNL A   1      43.196  37.323  33.809  1.00  0.00     0.065 H 
BRANCH 100 120
ATOM    120  C   UNL A   1      48.344  34.457  27.130  1.00  0.00     0.064 A 
ATOM    121  C   UNL A   1      49.502  33.702  27.366  1.00  0.00     0.173 A 
ATOM    122  C   UNL A   1      48.320  35.279  25.992  1.00  0.00     0.173 A 
ATOM    123  F   UNL A   1      49.582  32.907  28.444  1.00  0.00    -0.203 F 
ATOM    124  C   UNL A   1      50.598  33.780  26.510  1.00  0.00     0.198 A 
ATOM    125  C   UNL A   1      49.405  35.332  25.121  1.00  0.00     0.198 A 
ATOM    126  F   UNL A   1      47.235  36.017  25.715  1.00  0.00    -0.203 F 
ATOM    127  F   UNL A   1      51.708  33.079  26.777  1.00  0.00    -0.200 F 
ATOM    128  C   UNL A   1      50.544  34.587  25.384  1.00  0.00     0.200 A 
ATOM    129  F   UNL A   1      49.344  36.100  24.025  1.00  0.00    -0.200 F 
ATOM    130  F   UNL A   1      51.593  34.650  24.551  1.00  0.00    -0.200 F 
ENDBRANCH 100 120
BRANCH 103 131
ATOM    131  C   UNL A   1      40.419  33.229  33.076  1.00  0.00     0.064 A 
ATOM    132  C   UNL A   1      39.236  33.968  32.935  1.00  0.00     0.173 A 
ATOM    133  C   UNL A   1      40.489  32.311  34.136  1.00  0.00     0.173 A 
ATOM    134  F   UNL A   1      39.127  34.873  31.951  1.00  0.00    -0.203 F 
ATOM    135  C   UNL A   1      38.180  33.817  33.832  1.00  0.00     0.198 A 
ATOM    136  C   UNL A   1      39.420  32.136  35.010  1.00  0.00     0.198 A 
ATOM    137  F   UNL A   1      41.596  31.574  34.313  1.00  0.00    -0.203 F 
ATOM    138  F   UNL A   1      37.084  34.578  33.707  1.00  0.00    -0.200 F 
ATOM    139  C   UNL A   1      38.270  32.897  34.865  1.00  0.00     0.200 A 
ATOM    140  F   UNL A   1      39.506  31.234  35.997  1.00  0.00    -0.200 F 
ATOM    141  F   UNL A   1      37.255  32.752  35.727  1.00  0.00    -0.200 F 
ENDBRANCH 103 131
BRANCH 118 142
ATOM    142  C   UNL A   1      45.350  38.125  32.562  1.00  0.00     0.064 A 
ATOM    143  C   UNL A   1      46.216  38.144  33.664  1.00  0.00     0.173 A 
ATOM    144  C   UNL A   1      44.757  39.336  32.171  1.00  0.00     0.173 A 
ATOM    145  F   UNL A   1      46.795  37.011  34.089  1.00  0.00    -0.203 F 
ATOM    146  C   UNL A   1      46.456  39.323  34.365  1.00  0.00     0.198 A 
ATOM    147  C   UNL A   1      45.028  40.519  32.853  1.00  0.00     0.198 A 
ATOM    148  F   UNL A   1      43.926  39.375  31.119  1.00  0.00    -0.203 F 
ATOM    149  F   UNL A   1      47.246  39.307  35.449  1.00  0.00    -0.200 F 
ATOM    150  C   UNL A   1      45.869  40.510  33.955  1.00  0.00     0.200 A 
ATOM    151  F   UNL A   1      44.472  41.668  32.444  1.00  0.00    -0.200 F 
ATOM    152  F   UNL A   1      46.109  41.646  34.625  1.00  0.00    -0.200 F 
ENDBRANCH 118 142
ENDBRANCH  83  86
ENDBRANCH  73  76
ENDBRANCH  69  72
ENDBRANCH  66  69
ENDBRANCH  63  66
ENDBRANCH  60  63
ENDBRANCH  57  60
ENDBRANCH  54  57
ENDBRANCH  52  54
ENDBRANCH  47  50
ENDBRANCH  46  47
ENDBRANCH   1  46
TORSDOF 27
ENDMDL
