MODEL 1
REMARK VINA RESULT:     -12.1      0.000      0.000
REMARK SMILES O=C(CCCc1nc(-c2ccc(Cl)c(Cl)c2)c(-c2ccccc2)o1)NCCCCCCNC(=O)c1ccc(-c2c3nc(c(-c4c(F)c(F)c(F)c(F)c4F)c4ccc([nH]4)c(-c4c(F)c(F)c(F)c(F)c4F)c4nc(c(-c5c(F)c(F)c(F)c(F)c5F)c5ccc2[nH]5)C=C4)C=C3)cc1
REMARK SMILES IDX 27 1 26 4 25 7 1 8 2 9 3 11 4 14 5 17 6 20 7 21 24 22 8 23
REMARK SMILES IDX 17 24 9 25 10 26 16 27 11 28 14 30 12 32 15 34 13 35 18 36
REMARK SMILES IDX 19 37 23 38 20 39 22 41 21 43 28 47 29 50 30 53 31 56 32 59
REMARK SMILES IDX 33 60 34 62 35 63 36 64 97 65 37 66 96 68 38 70 39 73 40 74
REMARK SMILES IDX 90 75 41 76 95 77 89 78 91 79 42 80 94 81 88 83 87 85 43 87
REMARK SMILES IDX 75 90 55 91 74 92 56 93 59 94 73 95 92 96 57 97 58 99 72 101
REMARK SMILES IDX 93 102 60 105 44 107 45 108 53 109 46 110 47 111 51 112
REMARK SMILES IDX 54 113 48 114 49 115 52 116 50 117 76 118 77 119 85 120
REMARK SMILES IDX 78 121 79 122 83 123 86 124 80 125 81 126 84 127 82 128
REMARK SMILES IDX 61 129 62 130 70 131 63 132 64 133 68 134 71 135 65 136
REMARK SMILES IDX 66 137 69 138 67 139
REMARK H PARENT 27 2 27 3 26 5 26 6 25 10 3 12 3 13 4 15 4 16 5 18 5 19 10 29
REMARK H PARENT 16 31 11 33 19 40 23 42 20 44 22 45 21 46 28 48 28 49 29 51
REMARK H PARENT 29 52 30 54 30 55 31 57 31 58 32 61 36 67 97 69 37 71 96 72
REMARK H PARENT 95 82 89 84 91 86 94 88 88 89 56 98 59 100 92 103 57 104
REMARK H PARENT 93 106
REMARK Flexibility Score: inf
ROOT
ATOM      1  C   UNL A   1      40.595  22.109  27.147  1.00  0.00    -0.036 C 
ATOM      2  H   UNL A   1      40.169  22.069  28.128  1.00  0.00     0.028 H 
ATOM      3  H   UNL A   1      40.780  23.107  26.806  1.00  0.00     0.028 H 
ENDROOT
BRANCH   1   4
ATOM      4  C   UNL A   1      39.592  21.501  26.169  1.00  0.00     0.017 C 
ATOM      5  H   UNL A   1      40.088  21.311  25.239  1.00  0.00     0.049 H 
ATOM      6  H   UNL A   1      39.218  20.594  26.598  1.00  0.00     0.049 H 
BRANCH   4   7
ATOM      7  N   UNL A   1      38.469  22.380  25.929  1.00  0.00    -0.356 N 
ATOM      8  O   UNL A   1      37.423  21.021  24.404  1.00  0.00    -0.275 OA
ATOM      9  C   UNL A   1      37.455  22.057  25.062  1.00  0.00     0.220 C 
ATOM     10  H   UNL A   1      38.431  23.241  26.405  1.00  0.00     0.163 HD
BRANCH   9  11
ATOM     11  C   UNL A   1      36.354  23.093  24.985  1.00  0.00     0.027 C 
ATOM     12  H   UNL A   1      36.710  24.000  25.427  1.00  0.00     0.037 H 
ATOM     13  H   UNL A   1      35.508  22.697  25.506  1.00  0.00     0.037 H 
BRANCH  11  14
ATOM     14  C   UNL A   1      35.908  23.392  23.549  1.00  0.00    -0.036 C 
ATOM     15  H   UNL A   1      36.481  22.770  22.895  1.00  0.00     0.028 H 
ATOM     16  H   UNL A   1      36.068  24.442  23.415  1.00  0.00     0.028 H 
BRANCH  14  17
ATOM     17  C   UNL A   1      34.427  23.161  23.236  1.00  0.00     0.025 C 
ATOM     18  H   UNL A   1      34.081  22.326  23.809  1.00  0.00     0.037 H 
ATOM     19  H   UNL A   1      34.342  22.982  22.184  1.00  0.00     0.037 H 
BRANCH  17  20
ATOM     20  C   UNL A   1      33.582  24.340  23.558  1.00  0.00     0.195 A 
ATOM     21  N   UNL A   1      32.382  24.617  23.085  1.00  0.00    -0.213 NA
ATOM     22  O   UNL A   1      34.041  25.209  24.509  1.00  0.00    -0.440 OA
ATOM     23  C   UNL A   1      32.039  25.776  23.735  1.00  0.00     0.117 A 
ATOM     24  C   UNL A   1      33.024  26.119  24.639  1.00  0.00     0.162 A 
BRANCH  23  25
ATOM     25  C   UNL A   1      30.809  26.502  23.515  1.00  0.00     0.006 A 
ATOM     26  C   UNL A   1      29.597  25.993  23.990  1.00  0.00    -0.051 A 
ATOM     27  C   UNL A   1      30.828  27.736  22.851  1.00  0.00    -0.032 A 
ATOM     28  C   UNL A   1      28.419  26.729  23.836  1.00  0.00    -0.041 A 
ATOM     29  H   UNL A   1      29.572  25.072  24.456  1.00  0.00     0.063 H 
ATOM     30  C   UNL A   1      29.648  28.470  22.688  1.00  0.00     0.060 A 
ATOM     31  H   UNL A   1      31.717  28.106  22.480  1.00  0.00     0.065 H 
ATOM     32  C   UNL A   1      28.443  27.970  23.189  1.00  0.00     0.059 A 
ATOM     33  H   UNL A   1      27.528  26.357  24.200  1.00  0.00     0.064 H 
ATOM     34  Cl  UNL A   1      29.755  29.986  21.868  1.00  0.00    -0.083 Cl
ATOM     35  Cl  UNL A   1      26.953  28.834  23.051  1.00  0.00    -0.083 Cl
ENDBRANCH  23  25
BRANCH  24  36
ATOM     36  C   UNL A   1      33.164  27.134  25.662  1.00  0.00     0.020 A 
ATOM     37  C   UNL A   1      34.257  28.007  25.666  1.00  0.00    -0.051 A 
ATOM     38  C   UNL A   1      32.165  27.284  26.635  1.00  0.00    -0.051 A 
ATOM     39  C   UNL A   1      34.336  29.027  26.618  1.00  0.00    -0.062 A 
ATOM     40  H   UNL A   1      35.005  27.899  24.965  1.00  0.00     0.063 H 
ATOM     41  C   UNL A   1      32.251  28.296  27.591  1.00  0.00    -0.062 A 
ATOM     42  H   UNL A   1      31.359  26.639  26.644  1.00  0.00     0.063 H 
ATOM     43  C   UNL A   1      33.334  29.171  27.577  1.00  0.00    -0.062 A 
ATOM     44  H   UNL A   1      35.139  29.675  26.611  1.00  0.00     0.062 H 
ATOM     45  H   UNL A   1      31.513  28.397  28.305  1.00  0.00     0.062 H 
ATOM     46  H   UNL A   1      33.396  29.926  28.278  1.00  0.00     0.062 H 
ENDBRANCH  24  36
ENDBRANCH  17  20
ENDBRANCH  14  17
ENDBRANCH  11  14
ENDBRANCH   9  11
ENDBRANCH   4   7
ENDBRANCH   1   4
BRANCH   1  47
ATOM     47  C   UNL A   1      41.960  21.412  27.192  1.00  0.00    -0.052 C 
ATOM     48  H   UNL A   1      42.607  21.993  27.816  1.00  0.00     0.027 H 
ATOM     49  H   UNL A   1      42.288  21.344  26.176  1.00  0.00     0.027 H 
BRANCH  47  50
ATOM     50  C   UNL A   1      41.950  19.979  27.728  1.00  0.00    -0.052 C 
ATOM     51  H   UNL A   1      40.933  19.681  27.868  1.00  0.00     0.027 H 
ATOM     52  H   UNL A   1      42.513  19.992  28.638  1.00  0.00     0.027 H 
BRANCH  50  53
ATOM     53  C   UNL A   1      42.626  18.955  26.815  1.00  0.00    -0.036 C 
ATOM     54  H   UNL A   1      42.130  18.016  26.944  1.00  0.00     0.028 H 
ATOM     55  H   UNL A   1      43.656  18.927  27.100  1.00  0.00     0.028 H 
BRANCH  53  56
ATOM     56  C   UNL A   1      42.595  19.311  25.333  1.00  0.00     0.018 C 
ATOM     57  H   UNL A   1      42.538  20.375  25.238  1.00  0.00     0.049 H 
ATOM     58  H   UNL A   1      41.743  18.829  24.903  1.00  0.00     0.049 H 
BRANCH  56  59
ATOM     59  N   UNL A   1      43.773  18.842  24.620  1.00  0.00    -0.352 N 
ATOM     60  C   UNL A   1      44.882  19.549  24.232  1.00  0.00     0.251 C 
ATOM     61  H   UNL A   1      43.774  17.886  24.384  1.00  0.00     0.163 HD
ATOM     62  O   UNL A   1      45.721  19.035  23.494  1.00  0.00    -0.269 OA
BRANCH  60  63
ATOM     63  C   UNL A   1      45.056  20.945  24.685  1.00  0.00     0.039 A 
ATOM     64  C   UNL A   1      44.704  21.984  23.820  1.00  0.00    -0.049 A 
ATOM     65  C   UNL A   1      45.566  21.229  25.955  1.00  0.00    -0.049 A 
ATOM     66  C   UNL A   1      44.821  23.309  24.247  1.00  0.00    -0.053 A 
ATOM     67  H   UNL A   1      44.358  21.774  22.870  1.00  0.00     0.063 H 
ATOM     68  C   UNL A   1      45.606  22.545  26.407  1.00  0.00    -0.053 A 
ATOM     69  H   UNL A   1      45.913  20.465  26.555  1.00  0.00     0.063 H 
ATOM     70  C   UNL A   1      45.249  23.599  25.552  1.00  0.00    -0.014 A 
ATOM     71  H   UNL A   1      44.591  24.078  23.599  1.00  0.00     0.063 H 
ATOM     72  H   UNL A   1      45.899  22.746  27.375  1.00  0.00     0.063 H 
BRANCH  70  73
ATOM     73  C   UNL A   1      45.371  25.002  26.026  1.00  0.00     0.031 A 
ATOM     74  C   UNL A   1      46.713  25.684  26.009  1.00  0.00     0.074 A 
ATOM     75  C   UNL A   1      44.291  25.647  26.508  1.00  0.00     0.049 A 
ATOM     76  N   UNL A   1      47.044  26.876  26.439  1.00  0.00    -0.248 NA
ATOM     77  C   UNL A   1      47.840  24.913  25.457  1.00  0.00    -0.034 C 
ATOM     78  C   UNL A   1      42.946  25.081  26.618  1.00  0.00    -0.036 A 
ATOM     79  N   UNL A   1      44.156  26.919  27.005  1.00  0.00    -0.354 N 
ATOM     80  C   UNL A   1      48.409  26.994  26.210  1.00  0.00     0.074 A 
ATOM     81  C   UNL A   1      48.860  25.729  25.672  1.00  0.00    -0.034 C 
ATOM     82  H   UNL A   1      47.835  23.980  25.016  1.00  0.00     0.065 H 
ATOM     83  C   UNL A   1      42.120  26.007  27.133  1.00  0.00    -0.036 A 
ATOM     84  H   UNL A   1      42.675  24.123  26.345  1.00  0.00     0.065 H 
ATOM     85  C   UNL A   1      42.882  27.217  27.423  1.00  0.00     0.049 A 
ATOM     86  H   UNL A   1      44.904  27.559  27.058  1.00  0.00     0.167 HD
ATOM     87  C   UNL A   1      49.209  28.070  26.398  1.00  0.00     0.037 A 
ATOM     88  H   UNL A   1      49.847  25.495  25.481  1.00  0.00     0.065 H 
ATOM     89  H   UNL A   1      41.109  25.882  27.298  1.00  0.00     0.065 H 
ATOM     90  C   UNL A   1      42.389  28.339  27.983  1.00  0.00     0.037 A 
ATOM     91  C   UNL A   1      48.757  29.332  26.920  1.00  0.00     0.049 A 
ATOM     92  C   UNL A   1      43.306  29.516  28.195  1.00  0.00     0.074 A 
ATOM     93  C   UNL A   1      49.487  30.488  27.141  1.00  0.00    -0.036 A 
ATOM     94  N   UNL A   1      47.451  29.607  27.296  1.00  0.00    -0.354 N 
ATOM     95  N   UNL A   1      44.585  29.630  27.930  1.00  0.00    -0.248 NA
ATOM     96  C   UNL A   1      42.705  30.728  28.767  1.00  0.00    -0.034 C 
ATOM     97  C   UNL A   1      48.629  31.449  27.684  1.00  0.00    -0.036 A 
ATOM     98  H   UNL A   1      50.491  30.617  26.940  1.00  0.00     0.065 H 
ATOM     99  C   UNL A   1      47.353  30.912  27.748  1.00  0.00     0.049 A 
ATOM    100  H   UNL A   1      46.703  28.967  27.250  1.00  0.00     0.167 HD
ATOM    101  C   UNL A   1      44.929  30.934  28.262  1.00  0.00     0.074 A 
ATOM    102  C   UNL A   1      43.721  31.577  28.733  1.00  0.00    -0.034 C 
ATOM    103  H   UNL A   1      41.741  30.880  29.107  1.00  0.00     0.065 H 
ATOM    104  H   UNL A   1      48.901  32.399  27.985  1.00  0.00     0.065 H 
ATOM    105  C   UNL A   1      46.136  31.545  28.185  1.00  0.00     0.037 A 
ATOM    106  H   UNL A   1      43.659  32.569  29.008  1.00  0.00     0.065 H 
BRANCH  87 107
ATOM    107  C   UNL A   1      50.654  27.936  26.013  1.00  0.00     0.064 A 
ATOM    108  C   UNL A   1      51.071  28.088  24.680  1.00  0.00     0.173 A 
ATOM    109  C   UNL A   1      51.639  27.703  26.985  1.00  0.00     0.173 A 
ATOM    110  F   UNL A   1      50.169  28.299  23.711  1.00  0.00    -0.203 F 
ATOM    111  C   UNL A   1      52.415  27.988  24.334  1.00  0.00     0.198 A 
ATOM    112  C   UNL A   1      52.986  27.637  26.638  1.00  0.00     0.198 A 
ATOM    113  F   UNL A   1      51.296  27.556  28.273  1.00  0.00    -0.203 F 
ATOM    114  F   UNL A   1      52.783  28.091  23.049  1.00  0.00    -0.200 F 
ATOM    115  C   UNL A   1      53.372  27.773  25.313  1.00  0.00     0.200 A 
ATOM    116  F   UNL A   1      53.912  27.443  27.588  1.00  0.00    -0.200 F 
ATOM    117  F   UNL A   1      54.668  27.691  24.979  1.00  0.00    -0.200 F 
ENDBRANCH  87 107
BRANCH  90 118
ATOM    118  C   UNL A   1      40.956  28.417  28.376  1.00  0.00     0.064 A 
ATOM    119  C   UNL A   1      39.993  28.945  27.503  1.00  0.00     0.173 A 
ATOM    120  C   UNL A   1      40.526  28.009  29.647  1.00  0.00     0.173 A 
ATOM    121  F   UNL A   1      40.356  29.366  26.282  1.00  0.00    -0.203 F 
ATOM    122  C   UNL A   1      38.667  29.103  27.901  1.00  0.00     0.198 A 
ATOM    123  C   UNL A   1      39.193  28.136  30.031  1.00  0.00     0.198 A 
ATOM    124  F   UNL A   1      41.403  27.490  30.519  1.00  0.00    -0.203 F 
ATOM    125  F   UNL A   1      37.785  29.678  27.072  1.00  0.00    -0.200 F 
ATOM    126  C   UNL A   1      38.267  28.697  29.165  1.00  0.00     0.200 A 
ATOM    127  F   UNL A   1      38.807  27.726  31.248  1.00  0.00    -0.200 F 
ATOM    128  F   UNL A   1      36.995  28.857  29.551  1.00  0.00    -0.200 F 
ENDBRANCH  90 118
BRANCH 105 129
ATOM    129  C   UNL A   1      46.196  33.002  28.547  1.00  0.00     0.064 A 
ATOM    130  C   UNL A   1      46.484  33.433  29.850  1.00  0.00     0.173 A 
ATOM    131  C   UNL A   1      45.988  33.980  27.562  1.00  0.00     0.173 A 
ATOM    132  F   UNL A   1      46.680  32.538  30.830  1.00  0.00    -0.203 F 
ATOM    133  C   UNL A   1      46.522  34.789  30.162  1.00  0.00     0.198 A 
ATOM    134  C   UNL A   1      46.062  35.336  27.871  1.00  0.00     0.198 A 
ATOM    135  F   UNL A   1      45.720  33.623  26.297  1.00  0.00    -0.203 F 
ATOM    136  F   UNL A   1      46.739  35.177  31.426  1.00  0.00    -0.200 F 
ATOM    137  C   UNL A   1      46.318  35.739  29.172  1.00  0.00     0.200 A 
ATOM    138  F   UNL A   1      45.882  36.251  26.908  1.00  0.00    -0.200 F 
ATOM    139  F   UNL A   1      46.360  37.044  29.475  1.00  0.00    -0.200 F 
ENDBRANCH 105 129
ENDBRANCH  70  73
ENDBRANCH  60  63
ENDBRANCH  56  59
ENDBRANCH  53  56
ENDBRANCH  50  53
ENDBRANCH  47  50
ENDBRANCH   1  47
TORSDOF 18
ENDMDL
MODEL 2
REMARK VINA RESULT:     -12.0      1.719      3.175
REMARK SMILES O=C(CCCc1nc(-c2ccc(Cl)c(Cl)c2)c(-c2ccccc2)o1)NCCCCCCNC(=O)c1ccc(-c2c3nc(c(-c4c(F)c(F)c(F)c(F)c4F)c4ccc([nH]4)c(-c4c(F)c(F)c(F)c(F)c4F)c4nc(c(-c5c(F)c(F)c(F)c(F)c5F)c5ccc2[nH]5)C=C4)C=C3)cc1
REMARK SMILES IDX 27 1 26 4 25 7 1 8 2 9 3 11 4 14 5 17 6 20 7 21 24 22 8 23
REMARK SMILES IDX 17 24 9 25 10 26 16 27 11 28 14 30 12 32 15 34 13 35 18 36
REMARK SMILES IDX 19 37 23 38 20 39 22 41 21 43 28 47 29 50 30 53 31 56 32 59
REMARK SMILES IDX 33 60 34 62 35 63 36 64 97 65 37 66 96 68 38 70 39 73 40 74
REMARK SMILES IDX 90 75 41 76 95 77 89 78 91 79 42 80 94 81 88 83 87 85 43 87
REMARK SMILES IDX 75 90 55 91 74 92 56 93 59 94 73 95 92 96 57 97 58 99 72 101
REMARK SMILES IDX 93 102 60 105 44 107 45 108 53 109 46 110 47 111 51 112
REMARK SMILES IDX 54 113 48 114 49 115 52 116 50 117 76 118 77 119 85 120
REMARK SMILES IDX 78 121 79 122 83 123 86 124 80 125 81 126 84 127 82 128
REMARK SMILES IDX 61 129 62 130 70 131 63 132 64 133 68 134 71 135 65 136
REMARK SMILES IDX 66 137 69 138 67 139
REMARK H PARENT 27 2 27 3 26 5 26 6 25 10 3 12 3 13 4 15 4 16 5 18 5 19 10 29
REMARK H PARENT 16 31 11 33 19 40 23 42 20 44 22 45 21 46 28 48 28 49 29 51
REMARK H PARENT 29 52 30 54 30 55 31 57 31 58 32 61 36 67 97 69 37 71 96 72
REMARK H PARENT 95 82 89 84 91 86 94 88 88 89 56 98 59 100 92 103 57 104
REMARK H PARENT 93 106
REMARK Flexibility Score: inf
ROOT
ATOM      1  C   UNL A   1      37.033  23.236  24.721  1.00  0.00    -0.036 C 
ATOM      2  H   UNL A   1      37.843  23.875  24.998  1.00  0.00     0.028 H 
ATOM      3  H   UNL A   1      37.054  22.946  23.691  1.00  0.00     0.028 H 
ENDROOT
BRANCH   1   4
ATOM      4  C   UNL A   1      35.729  24.007  24.922  1.00  0.00     0.017 C 
ATOM      5  H   UNL A   1      35.705  24.391  25.921  1.00  0.00     0.049 H 
ATOM      6  H   UNL A   1      35.698  24.800  24.203  1.00  0.00     0.049 H 
BRANCH   4   7
ATOM      7  N   UNL A   1      34.569  23.169  24.715  1.00  0.00    -0.356 N 
ATOM      8  O   UNL A   1      34.614  23.261  22.423  1.00  0.00    -0.275 OA
ATOM      9  C   UNL A   1      34.107  22.850  23.462  1.00  0.00     0.220 C 
ATOM     10  H   UNL A   1      34.092  22.815  25.501  1.00  0.00     0.163 HD
BRANCH   9  11
ATOM     11  C   UNL A   1      32.906  21.929  23.461  1.00  0.00     0.027 C 
ATOM     12  H   UNL A   1      33.175  21.020  22.966  1.00  0.00     0.037 H 
ATOM     13  H   UNL A   1      32.113  22.441  22.958  1.00  0.00     0.037 H 
BRANCH  11  14
ATOM     14  C   UNL A   1      32.408  21.588  24.871  1.00  0.00    -0.036 C 
ATOM     15  H   UNL A   1      33.173  21.870  25.563  1.00  0.00     0.028 H 
ATOM     16  H   UNL A   1      32.194  20.539  24.851  1.00  0.00     0.028 H 
BRANCH  14  17
ATOM     17  C   UNL A   1      31.106  22.263  25.313  1.00  0.00     0.025 C 
ATOM     18  H   UNL A   1      30.965  22.084  26.359  1.00  0.00     0.037 H 
ATOM     19  H   UNL A   1      30.311  21.847  24.729  1.00  0.00     0.037 H 
BRANCH  17  20
ATOM     20  C   UNL A   1      31.113  23.730  25.079  1.00  0.00     0.195 A 
ATOM     21  N   UNL A   1      30.304  24.418  24.295  1.00  0.00    -0.213 NA
ATOM     22  O   UNL A   1      31.992  24.485  25.806  1.00  0.00    -0.440 OA
ATOM     23  C   UNL A   1      30.706  25.717  24.481  1.00  0.00     0.117 A 
ATOM     24  C   UNL A   1      31.702  25.772  25.435  1.00  0.00     0.162 A 
BRANCH  23  25
ATOM     25  C   UNL A   1      30.136  26.854  23.793  1.00  0.00     0.006 A 
ATOM     26  C   UNL A   1      30.943  27.671  22.997  1.00  0.00    -0.051 A 
ATOM     27  C   UNL A   1      28.764  27.125  23.895  1.00  0.00    -0.032 A 
ATOM     28  C   UNL A   1      30.378  28.728  22.279  1.00  0.00    -0.041 A 
ATOM     29  H   UNL A   1      31.959  27.493  22.939  1.00  0.00     0.063 H 
ATOM     30  C   UNL A   1      28.199  28.189  23.185  1.00  0.00     0.060 A 
ATOM     31  H   UNL A   1      28.169  26.537  24.499  1.00  0.00     0.065 H 
ATOM     32  C   UNL A   1      29.005  28.987  22.367  1.00  0.00     0.059 A 
ATOM     33  H   UNL A   1      30.974  29.322  21.681  1.00  0.00     0.064 H 
ATOM     34  Cl  UNL A   1      26.500  28.453  23.355  1.00  0.00    -0.083 Cl
ATOM     35  Cl  UNL A   1      28.371  30.298  21.437  1.00  0.00    -0.083 Cl
ENDBRANCH  23  25
BRANCH  24  36
ATOM     36  C   UNL A   1      32.408  26.837  26.116  1.00  0.00     0.020 A 
ATOM     37  C   UNL A   1      33.738  27.135  25.803  1.00  0.00    -0.051 A 
ATOM     38  C   UNL A   1      31.737  27.621  27.067  1.00  0.00    -0.051 A 
ATOM     39  C   UNL A   1      34.379  28.214  26.418  1.00  0.00    -0.062 A 
ATOM     40  H   UNL A   1      34.247  26.558  25.116  1.00  0.00     0.063 H 
ATOM     41  C   UNL A   1      32.381  28.690  27.688  1.00  0.00    -0.062 A 
ATOM     42  H   UNL A   1      30.757  27.403  27.309  1.00  0.00     0.063 H 
ATOM     43  C   UNL A   1      33.700  28.990  27.357  1.00  0.00    -0.062 A 
ATOM     44  H   UNL A   1      35.358  28.436  26.177  1.00  0.00     0.062 H 
ATOM     45  H   UNL A   1      31.881  29.259  28.388  1.00  0.00     0.062 H 
ATOM     46  H   UNL A   1      34.176  29.786  27.809  1.00  0.00     0.062 H 
ENDBRANCH  24  36
ENDBRANCH  17  20
ENDBRANCH  14  17
ENDBRANCH  11  14
ENDBRANCH   9  11
ENDBRANCH   4   7
ENDBRANCH   1   4
BRANCH   1  47
ATOM     47  C   UNL A   1      37.149  21.940  25.533  1.00  0.00    -0.052 C 
ATOM     48  H   UNL A   1      36.390  21.955  26.288  1.00  0.00     0.027 H 
ATOM     49  H   UNL A   1      38.145  21.926  25.923  1.00  0.00     0.027 H 
BRANCH  47  50
ATOM     50  C   UNL A   1      36.991  20.645  24.733  1.00  0.00    -0.052 C 
ATOM     51  H   UNL A   1      37.019  20.890  23.693  1.00  0.00     0.027 H 
ATOM     52  H   UNL A   1      36.060  20.212  25.037  1.00  0.00     0.027 H 
BRANCH  50  53
ATOM     53  C   UNL A   1      38.068  19.595  25.007  1.00  0.00    -0.036 C 
ATOM     54  H   UNL A   1      38.495  19.304  24.070  1.00  0.00     0.028 H 
ATOM     55  H   UNL A   1      37.583  18.788  25.514  1.00  0.00     0.028 H 
BRANCH  53  56
ATOM     56  C   UNL A   1      39.195  20.067  25.918  1.00  0.00     0.018 C 
ATOM     57  H   UNL A   1      38.811  20.172  26.911  1.00  0.00     0.049 H 
ATOM     58  H   UNL A   1      39.554  20.999  25.532  1.00  0.00     0.049 H 
BRANCH  56  59
ATOM     59  N   UNL A   1      40.316  19.141  25.947  1.00  0.00    -0.352 N 
ATOM     60  C   UNL A   1      41.652  19.413  26.094  1.00  0.00     0.251 C 
ATOM     61  H   UNL A   1      40.085  18.189  25.848  1.00  0.00     0.163 HD
ATOM     62  O   UNL A   1      42.489  18.526  25.936  1.00  0.00    -0.269 OA
BRANCH  60  63
ATOM     63  C   UNL A   1      42.089  20.787  26.418  1.00  0.00     0.039 A 
ATOM     64  C   UNL A   1      42.261  21.704  25.379  1.00  0.00    -0.049 A 
ATOM     65  C   UNL A   1      42.329  21.170  27.741  1.00  0.00    -0.049 A 
ATOM     66  C   UNL A   1      42.632  23.019  25.671  1.00  0.00    -0.053 A 
ATOM     67  H   UNL A   1      42.116  21.412  24.399  1.00  0.00     0.063 H 
ATOM     68  C   UNL A   1      42.618  22.499  28.036  1.00  0.00    -0.053 A 
ATOM     69  H   UNL A   1      42.292  20.469  28.497  1.00  0.00     0.063 H 
ATOM     70  C   UNL A   1      42.789  23.434  27.003  1.00  0.00    -0.014 A 
ATOM     71  H   UNL A   1      42.791  23.689  24.903  1.00  0.00     0.063 H 
ATOM     72  H   UNL A   1      42.708  22.799  29.019  1.00  0.00     0.063 H 
BRANCH  70  73
ATOM     73  C   UNL A   1      43.174  24.830  27.333  1.00  0.00     0.031 A 
ATOM     74  C   UNL A   1      44.589  25.290  27.107  1.00  0.00     0.074 A 
ATOM     75  C   UNL A   1      42.267  25.670  27.870  1.00  0.00     0.049 A 
ATOM     76  N   UNL A   1      45.143  26.443  27.390  1.00  0.00    -0.248 NA
ATOM     77  C   UNL A   1      45.514  24.314  26.508  1.00  0.00    -0.034 C 
ATOM     78  C   UNL A   1      40.877  25.332  28.177  1.00  0.00    -0.036 A 
ATOM     79  N   UNL A   1      42.384  26.981  28.262  1.00  0.00    -0.354 N 
ATOM     80  C   UNL A   1      46.472  26.328  27.004  1.00  0.00     0.074 A 
ATOM     81  C   UNL A   1      46.663  24.972  26.535  1.00  0.00    -0.034 C 
ATOM     82  H   UNL A   1      45.318  23.363  26.156  1.00  0.00     0.065 H 
ATOM     83  C   UNL A   1      40.266  26.412  28.693  1.00  0.00    -0.036 A 
ATOM     84  H   UNL A   1      40.436  24.412  28.022  1.00  0.00     0.065 H 
ATOM     85  C   UNL A   1      41.228  27.504  28.788  1.00  0.00     0.049 A 
ATOM     86  H   UNL A   1      43.219  27.497  28.175  1.00  0.00     0.167 HD
ATOM     87  C   UNL A   1      47.439  27.275  27.005  1.00  0.00     0.037 A 
ATOM     88  H   UNL A   1      47.573  24.572  26.260  1.00  0.00     0.065 H 
ATOM     89  H   UNL A   1      39.275  26.459  28.978  1.00  0.00     0.065 H 
ATOM     90  C   UNL A   1      40.978  28.727  29.295  1.00  0.00     0.037 A 
ATOM     91  C   UNL A   1      47.246  28.627  27.458  1.00  0.00     0.049 A 
ATOM     92  C   UNL A   1      42.078  29.757  29.299  1.00  0.00     0.074 A 
ATOM     93  C   UNL A   1      48.160  29.666  27.493  1.00  0.00    -0.036 A 
ATOM     94  N   UNL A   1      46.050  29.130  27.949  1.00  0.00    -0.354 N 
ATOM     95  N   UNL A   1      43.318  29.650  28.887  1.00  0.00    -0.248 NA
ATOM     96  C   UNL A   1      41.737  31.087  29.822  1.00  0.00    -0.034 C 
ATOM     97  C   UNL A   1      47.526  30.787  28.038  1.00  0.00    -0.036 A 
ATOM     98  H   UNL A   1      49.140  29.621  27.173  1.00  0.00     0.065 H 
ATOM     99  C   UNL A   1      46.203  30.464  28.290  1.00  0.00     0.049 A 
ATOM    100  H   UNL A   1      45.216  28.615  28.042  1.00  0.00     0.167 HD
ATOM    101  C   UNL A   1      43.888  30.904  29.061  1.00  0.00     0.074 A 
ATOM    102  C   UNL A   1      42.855  31.761  29.601  1.00  0.00    -0.034 C 
ATOM    103  H   UNL A   1      40.855  31.412  30.250  1.00  0.00     0.065 H 
ATOM    104  H   UNL A   1      47.970  31.702  28.221  1.00  0.00     0.065 H 
ATOM    105  C   UNL A   1      45.154  31.310  28.797  1.00  0.00     0.037 A 
ATOM    106  H   UNL A   1      42.975  32.768  29.791  1.00  0.00     0.065 H 
BRANCH  87 107
ATOM    107  C   UNL A   1      48.791  26.889  26.479  1.00  0.00     0.064 A 
ATOM    108  C   UNL A   1      49.764  26.319  27.316  1.00  0.00     0.173 A 
ATOM    109  C   UNL A   1      49.104  27.041  25.120  1.00  0.00     0.173 A 
ATOM    110  F   UNL A   1      49.520  26.163  28.625  1.00  0.00    -0.203 F 
ATOM    111  C   UNL A   1      51.006  25.938  26.816  1.00  0.00     0.198 A 
ATOM    112  C   UNL A   1      50.337  26.629  24.618  1.00  0.00     0.198 A 
ATOM    113  F   UNL A   1      48.210  27.575  24.275  1.00  0.00    -0.203 F 
ATOM    114  F   UNL A   1      51.935  25.439  27.644  1.00  0.00    -0.200 F 
ATOM    115  C   UNL A   1      51.288  26.085  25.467  1.00  0.00     0.200 A 
ATOM    116  F   UNL A   1      50.603  26.758  23.310  1.00  0.00    -0.200 F 
ATOM    117  F   UNL A   1      52.480  25.705  24.985  1.00  0.00    -0.200 F 
ENDBRANCH  87 107
BRANCH  90 118
ATOM    118  C   UNL A   1      39.631  29.057  29.834  1.00  0.00     0.064 A 
ATOM    119  C   UNL A   1      39.294  28.776  31.167  1.00  0.00     0.173 A 
ATOM    120  C   UNL A   1      38.638  29.617  29.017  1.00  0.00     0.173 A 
ATOM    121  F   UNL A   1      40.203  28.224  31.984  1.00  0.00    -0.203 F 
ATOM    122  C   UNL A   1      38.006  29.001  31.648  1.00  0.00     0.198 A 
ATOM    123  C   UNL A   1      37.360  29.874  29.510  1.00  0.00     0.198 A 
ATOM    124  F   UNL A   1      38.908  29.913  27.737  1.00  0.00    -0.203 F 
ATOM    125  F   UNL A   1      37.693  28.655  32.904  1.00  0.00    -0.200 F 
ATOM    126  C   UNL A   1      37.040  29.552  30.820  1.00  0.00     0.200 A 
ATOM    127  F   UNL A   1      36.434  30.422  28.711  1.00  0.00    -0.200 F 
ATOM    128  F   UNL A   1      35.799  29.759  31.280  1.00  0.00    -0.200 F 
ENDBRANCH  90 118
BRANCH 105 129
ATOM    129  C   UNL A   1      45.473  32.761  29.018  1.00  0.00     0.064 A 
ATOM    130  C   UNL A   1      45.243  33.732  28.032  1.00  0.00     0.173 A 
ATOM    131  C   UNL A   1      45.993  33.188  30.251  1.00  0.00     0.173 A 
ATOM    132  F   UNL A   1      44.759  33.375  26.833  1.00  0.00    -0.203 F 
ATOM    133  C   UNL A   1      45.559  35.069  28.258  1.00  0.00     0.198 A 
ATOM    134  C   UNL A   1      46.273  34.531  30.485  1.00  0.00     0.198 A 
ATOM    135  F   UNL A   1      46.221  32.302  31.232  1.00  0.00    -0.203 F 
ATOM    136  F   UNL A   1      45.388  35.969  27.280  1.00  0.00    -0.200 F 
ATOM    137  C   UNL A   1      46.067  35.469  29.485  1.00  0.00     0.200 A 
ATOM    138  F   UNL A   1      46.748  34.916  31.678  1.00  0.00    -0.200 F 
ATOM    139  F   UNL A   1      46.365  36.757  29.701  1.00  0.00    -0.200 F 
ENDBRANCH 105 129
ENDBRANCH  70  73
ENDBRANCH  60  63
ENDBRANCH  56  59
ENDBRANCH  53  56
ENDBRANCH  50  53
ENDBRANCH  47  50
ENDBRANCH   1  47
TORSDOF 18
ENDMDL
MODEL 3
REMARK VINA RESULT:     -11.9      1.658      7.382
REMARK SMILES O=C(CCCc1nc(-c2ccc(Cl)c(Cl)c2)c(-c2ccccc2)o1)NCCCCCCNC(=O)c1ccc(-c2c3nc(c(-c4c(F)c(F)c(F)c(F)c4F)c4ccc([nH]4)c(-c4c(F)c(F)c(F)c(F)c4F)c4nc(c(-c5c(F)c(F)c(F)c(F)c5F)c5ccc2[nH]5)C=C4)C=C3)cc1
REMARK SMILES IDX 27 1 26 4 25 7 1 8 2 9 3 11 4 14 5 17 6 20 7 21 24 22 8 23
REMARK SMILES IDX 17 24 9 25 10 26 16 27 11 28 14 30 12 32 15 34 13 35 18 36
REMARK SMILES IDX 19 37 23 38 20 39 22 41 21 43 28 47 29 50 30 53 31 56 32 59
REMARK SMILES IDX 33 60 34 62 35 63 36 64 97 65 37 66 96 68 38 70 39 73 40 74
REMARK SMILES IDX 90 75 41 76 95 77 89 78 91 79 42 80 94 81 88 83 87 85 43 87
REMARK SMILES IDX 75 90 55 91 74 92 56 93 59 94 73 95 92 96 57 97 58 99 72 101
REMARK SMILES IDX 93 102 60 105 44 107 45 108 53 109 46 110 47 111 51 112
REMARK SMILES IDX 54 113 48 114 49 115 52 116 50 117 76 118 77 119 85 120
REMARK SMILES IDX 78 121 79 122 83 123 86 124 80 125 81 126 84 127 82 128
REMARK SMILES IDX 61 129 62 130 70 131 63 132 64 133 68 134 71 135 65 136
REMARK SMILES IDX 66 137 69 138 67 139
REMARK H PARENT 27 2 27 3 26 5 26 6 25 10 3 12 3 13 4 15 4 16 5 18 5 19 10 29
REMARK H PARENT 16 31 11 33 19 40 23 42 20 44 22 45 21 46 28 48 28 49 29 51
REMARK H PARENT 29 52 30 54 30 55 31 57 31 58 32 61 36 67 97 69 37 71 96 72
REMARK H PARENT 95 82 89 84 91 86 94 88 88 89 56 98 59 100 92 103 57 104
REMARK H PARENT 93 106
REMARK Flexibility Score: inf
ROOT
ATOM      1  C   UNL A   1      36.541  23.080  25.414  1.00  0.00    -0.036 C 
ATOM      2  H   UNL A   1      37.088  23.676  26.113  1.00  0.00     0.028 H 
ATOM      3  H   UNL A   1      36.136  23.644  24.600  1.00  0.00     0.028 H 
ENDROOT
BRANCH   1   4
ATOM      4  C   UNL A   1      35.348  22.467  26.146  1.00  0.00     0.017 C 
ATOM      5  H   UNL A   1      35.500  21.411  26.231  1.00  0.00     0.049 H 
ATOM      6  H   UNL A   1      35.278  22.926  27.110  1.00  0.00     0.049 H 
BRANCH   4   7
ATOM      7  N   UNL A   1      34.105  22.705  25.445  1.00  0.00    -0.356 N 
ATOM      8  O   UNL A   1      33.414  20.517  25.432  1.00  0.00    -0.275 OA
ATOM      9  C   UNL A   1      33.221  21.696  25.153  1.00  0.00     0.220 C 
ATOM     10  H   UNL A   1      33.885  23.624  25.168  1.00  0.00     0.163 HD
BRANCH   9  11
ATOM     11  C   UNL A   1      31.962  22.161  24.452  1.00  0.00     0.027 C 
ATOM     12  H   UNL A   1      31.709  23.133  24.818  1.00  0.00     0.037 H 
ATOM     13  H   UNL A   1      31.198  21.442  24.662  1.00  0.00     0.037 H 
BRANCH  11  14
ATOM     14  C   UNL A   1      32.113  22.235  22.929  1.00  0.00    -0.036 C 
ATOM     15  H   UNL A   1      31.132  22.312  22.508  1.00  0.00     0.028 H 
ATOM     16  H   UNL A   1      32.645  21.348  22.652  1.00  0.00     0.028 H 
BRANCH  14  17
ATOM     17  C   UNL A   1      32.948  23.399  22.385  1.00  0.00     0.025 C 
ATOM     18  H   UNL A   1      32.920  23.370  21.315  1.00  0.00     0.037 H 
ATOM     19  H   UNL A   1      33.944  23.285  22.758  1.00  0.00     0.037 H 
BRANCH  17  20
ATOM     20  C   UNL A   1      32.448  24.723  22.837  1.00  0.00     0.195 A 
ATOM     21  N   UNL A   1      31.464  25.428  22.311  1.00  0.00    -0.213 NA
ATOM     22  O   UNL A   1      32.997  25.256  23.970  1.00  0.00    -0.440 OA
ATOM     23  C   UNL A   1      31.385  26.527  23.127  1.00  0.00     0.117 A 
ATOM     24  C   UNL A   1      32.283  26.409  24.168  1.00  0.00     0.162 A 
BRANCH  23  25
ATOM     25  C   UNL A   1      30.467  27.626  22.929  1.00  0.00     0.006 A 
ATOM     26  C   UNL A   1      30.911  28.819  22.351  1.00  0.00    -0.051 A 
ATOM     27  C   UNL A   1      29.118  27.492  23.287  1.00  0.00    -0.032 A 
ATOM     28  C   UNL A   1      30.008  29.855  22.098  1.00  0.00    -0.041 A 
ATOM     29  H   UNL A   1      31.909  28.934  22.111  1.00  0.00     0.063 H 
ATOM     30  C   UNL A   1      28.214  28.532  23.043  1.00  0.00     0.060 A 
ATOM     31  H   UNL A   1      28.790  26.622  23.733  1.00  0.00     0.065 H 
ATOM     32  C   UNL A   1      28.658  29.712  22.439  1.00  0.00     0.059 A 
ATOM     33  H   UNL A   1      30.337  30.729  21.659  1.00  0.00     0.064 H 
ATOM     34  Cl  UNL A   1      26.568  28.286  23.503  1.00  0.00    -0.083 Cl
ATOM     35  Cl  UNL A   1      27.594  31.025  22.080  1.00  0.00    -0.083 Cl
ENDBRANCH  23  25
BRANCH  24  36
ATOM     36  C   UNL A   1      32.563  27.169  25.369  1.00  0.00     0.020 A 
ATOM     37  C   UNL A   1      33.808  27.775  25.564  1.00  0.00    -0.051 A 
ATOM     38  C   UNL A   1      31.557  27.347  26.330  1.00  0.00    -0.051 A 
ATOM     39  C   UNL A   1      34.034  28.565  26.694  1.00  0.00    -0.062 A 
ATOM     40  H   UNL A   1      34.561  27.641  24.872  1.00  0.00     0.063 H 
ATOM     41  C   UNL A   1      31.787  28.126  27.463  1.00  0.00    -0.062 A 
ATOM     42  H   UNL A   1      30.637  26.896  26.197  1.00  0.00     0.063 H 
ATOM     43  C   UNL A   1      33.024  28.740  27.641  1.00  0.00    -0.062 A 
ATOM     44  H   UNL A   1      34.951  29.019  26.830  1.00  0.00     0.062 H 
ATOM     45  H   UNL A   1      31.042  28.249  28.167  1.00  0.00     0.062 H 
ATOM     46  H   UNL A   1      33.195  29.325  28.474  1.00  0.00     0.062 H 
ENDBRANCH  24  36
ENDBRANCH  17  20
ENDBRANCH  14  17
ENDBRANCH  11  14
ENDBRANCH   9  11
ENDBRANCH   4   7
ENDBRANCH   1   4
BRANCH   1  47
ATOM     47  C   UNL A   1      37.508  22.065  24.793  1.00  0.00    -0.052 C 
ATOM     48  H   UNL A   1      38.394  22.044  25.394  1.00  0.00     0.027 H 
ATOM     49  H   UNL A   1      37.676  22.395  23.790  1.00  0.00     0.027 H 
BRANCH  47  50
ATOM     50  C   UNL A   1      36.980  20.634  24.682  1.00  0.00    -0.052 C 
ATOM     51  H   UNL A   1      36.633  20.482  23.682  1.00  0.00     0.027 H 
ATOM     52  H   UNL A   1      36.205  20.538  25.414  1.00  0.00     0.027 H 
BRANCH  50  53
ATOM     53  C   UNL A   1      38.011  19.550  25.000  1.00  0.00    -0.036 C 
ATOM     54  H   UNL A   1      38.482  19.260  24.084  1.00  0.00     0.028 H 
ATOM     55  H   UNL A   1      37.478  18.751  25.468  1.00  0.00     0.028 H 
BRANCH  53  56
ATOM     56  C   UNL A   1      39.098  19.979  25.979  1.00  0.00     0.018 C 
ATOM     57  H   UNL A   1      38.673  20.034  26.959  1.00  0.00     0.049 H 
ATOM     58  H   UNL A   1      39.469  20.929  25.654  1.00  0.00     0.049 H 
BRANCH  56  59
ATOM     59  N   UNL A   1      40.221  19.055  26.008  1.00  0.00    -0.352 N 
ATOM     60  C   UNL A   1      41.560  19.331  26.122  1.00  0.00     0.251 C 
ATOM     61  H   UNL A   1      39.989  18.100  25.936  1.00  0.00     0.163 HD
ATOM     62  O   UNL A   1      42.394  18.441  25.969  1.00  0.00    -0.269 OA
BRANCH  60  63
ATOM     63  C   UNL A   1      42.000  20.713  26.405  1.00  0.00     0.039 A 
ATOM     64  C   UNL A   1      42.252  21.085  27.727  1.00  0.00    -0.049 A 
ATOM     65  C   UNL A   1      42.163  21.640  25.371  1.00  0.00    -0.049 A 
ATOM     66  C   UNL A   1      42.710  22.374  28.009  1.00  0.00    -0.053 A 
ATOM     67  H   UNL A   1      42.099  20.409  28.494  1.00  0.00     0.063 H 
ATOM     68  C   UNL A   1      42.696  22.896  25.644  1.00  0.00    -0.053 A 
ATOM     69  H   UNL A   1      41.888  21.393  24.408  1.00  0.00     0.063 H 
ATOM     70  C   UNL A   1      42.960  23.282  26.968  1.00  0.00    -0.014 A 
ATOM     71  H   UNL A   1      42.866  22.660  28.988  1.00  0.00     0.063 H 
ATOM     72  H   UNL A   1      42.898  23.547  24.870  1.00  0.00     0.063 H 
BRANCH  70  73
ATOM     73  C   UNL A   1      43.456  24.654  27.247  1.00  0.00     0.031 A 
ATOM     74  C   UNL A   1      42.510  25.699  27.773  1.00  0.00     0.074 A 
ATOM     75  C   UNL A   1      44.741  24.971  26.993  1.00  0.00     0.049 A 
ATOM     76  N   UNL A   1      42.726  26.968  28.018  1.00  0.00    -0.248 NA
ATOM     77  C   UNL A   1      41.126  25.268  28.034  1.00  0.00    -0.034 C 
ATOM     78  C   UNL A   1      45.745  24.060  26.442  1.00  0.00    -0.036 A 
ATOM     79  N   UNL A   1      45.419  26.153  27.155  1.00  0.00    -0.354 N 
ATOM     80  C   UNL A   1      41.513  27.480  28.459  1.00  0.00     0.074 A 
ATOM     81  C   UNL A   1      40.545  26.407  28.379  1.00  0.00    -0.034 C 
ATOM     82  H   UNL A   1      40.716  24.324  27.967  1.00  0.00     0.065 H 
ATOM     83  C   UNL A   1      46.914  24.712  26.328  1.00  0.00    -0.036 A 
ATOM     84  H   UNL A   1      45.580  23.075  26.182  1.00  0.00     0.065 H 
ATOM     85  C   UNL A   1      46.734  26.093  26.763  1.00  0.00     0.049 A 
ATOM     86  H   UNL A   1      45.002  26.968  27.519  1.00  0.00     0.167 HD
ATOM     87  C   UNL A   1      41.236  28.721  28.923  1.00  0.00     0.037 A 
ATOM     88  H   UNL A   1      39.536  26.516  28.567  1.00  0.00     0.065 H 
ATOM     89  H   UNL A   1      47.798  24.300  25.988  1.00  0.00     0.065 H 
ATOM     90  C   UNL A   1      47.683  27.049  26.749  1.00  0.00     0.037 A 
ATOM     91  C   UNL A   1      42.201  29.784  29.015  1.00  0.00     0.049 A 
ATOM     92  C   UNL A   1      47.343  28.426  27.256  1.00  0.00     0.074 A 
ATOM     93  C   UNL A   1      42.024  31.076  29.478  1.00  0.00    -0.036 A 
ATOM     94  N   UNL A   1      43.533  29.673  28.642  1.00  0.00    -0.354 N 
ATOM     95  N   UNL A   1      46.203  28.884  27.714  1.00  0.00    -0.248 NA
ATOM     96  C   UNL A   1      48.429  29.417  27.260  1.00  0.00    -0.034 C 
ATOM     97  C   UNL A   1      43.239  31.757  29.352  1.00  0.00    -0.036 A 
ATOM     98  H   UNL A   1      41.146  31.470  29.851  1.00  0.00     0.065 H 
ATOM     99  C   UNL A   1      44.188  30.873  28.865  1.00  0.00     0.049 A 
ATOM    100  H   UNL A   1      43.951  28.861  28.274  1.00  0.00     0.167 HD
ATOM    101  C   UNL A   1      46.446  30.196  28.100  1.00  0.00     0.074 A 
ATOM    102  C   UNL A   1      47.845  30.457  27.836  1.00  0.00    -0.034 C 
ATOM    103  H   UNL A   1      49.395  29.326  26.907  1.00  0.00     0.065 H 
ATOM    104  H   UNL A   1      43.401  32.750  29.584  1.00  0.00     0.065 H 
ATOM    105  C   UNL A   1      45.588  31.105  28.625  1.00  0.00     0.037 A 
ATOM    106  H   UNL A   1      48.326  31.340  28.066  1.00  0.00     0.065 H 
BRANCH  87 107
ATOM    107  C   UNL A   1      39.835  28.992  29.388  1.00  0.00     0.064 A 
ATOM    108  C   UNL A   1      38.845  29.446  28.501  1.00  0.00     0.173 A 
ATOM    109  C   UNL A   1      39.460  28.752  30.719  1.00  0.00     0.173 A 
ATOM    110  F   UNL A   1      39.154  29.703  27.221  1.00  0.00    -0.203 F 
ATOM    111  C   UNL A   1      37.542  29.670  28.933  1.00  0.00     0.198 A 
ATOM    112  C   UNL A   1      38.146  28.947  31.139  1.00  0.00     0.198 A 
ATOM    113  F   UNL A   1      40.363  28.314  31.608  1.00  0.00    -0.203 F 
ATOM    114  F   UNL A   1      36.627  30.146  28.077  1.00  0.00    -0.200 F 
ATOM    115  C   UNL A   1      37.191  29.412  30.249  1.00  0.00     0.200 A 
ATOM    116  F   UNL A   1      37.805  28.683  32.409  1.00  0.00    -0.200 F 
ATOM    117  F   UNL A   1      35.931  29.615  30.660  1.00  0.00    -0.200 F 
ENDBRANCH  87 107
BRANCH  90 118
ATOM    118  C   UNL A   1      49.052  26.743  26.251  1.00  0.00     0.064 A 
ATOM    119  C   UNL A   1      50.056  26.290  27.121  1.00  0.00     0.173 A 
ATOM    120  C   UNL A   1      49.399  26.942  24.906  1.00  0.00     0.173 A 
ATOM    121  F   UNL A   1      49.780  26.102  28.420  1.00  0.00    -0.203 F 
ATOM    122  C   UNL A   1      51.360  26.091  26.675  1.00  0.00     0.198 A 
ATOM    123  C   UNL A   1      50.696  26.708  24.455  1.00  0.00     0.198 A 
ATOM    124  F   UNL A   1      48.477  27.366  24.030  1.00  0.00    -0.203 F 
ATOM    125  F   UNL A   1      52.314  25.728  27.543  1.00  0.00    -0.200 F 
ATOM    126  C   UNL A   1      51.680  26.298  25.342  1.00  0.00     0.200 A 
ATOM    127  F   UNL A   1      50.997  26.893  23.162  1.00  0.00    -0.200 F 
ATOM    128  F   UNL A   1      52.936  26.114  24.915  1.00  0.00    -0.200 F 
ENDBRANCH  90 118
BRANCH 105 129
ATOM    129  C   UNL A   1      46.153  32.440  29.019  1.00  0.00     0.064 A 
ATOM    130  C   UNL A   1      46.680  32.676  30.298  1.00  0.00     0.173 A 
ATOM    131  C   UNL A   1      46.191  33.490  28.089  1.00  0.00     0.173 A 
ATOM    132  F   UNL A   1      46.657  31.709  31.227  1.00  0.00    -0.203 F 
ATOM    133  C   UNL A   1      47.187  33.927  30.641  1.00  0.00     0.198 A 
ATOM    134  C   UNL A   1      46.731  34.728  28.425  1.00  0.00     0.198 A 
ATOM    135  F   UNL A   1      45.711  33.314  26.849  1.00  0.00    -0.203 F 
ATOM    136  F   UNL A   1      47.628  34.148  31.887  1.00  0.00    -0.200 F 
ATOM    137  C   UNL A   1      47.218  34.949  29.704  1.00  0.00     0.200 A 
ATOM    138  F   UNL A   1      46.776  35.708  27.512  1.00  0.00    -0.200 F 
ATOM    139  F   UNL A   1      47.711  36.149  30.037  1.00  0.00    -0.200 F 
ENDBRANCH 105 129
ENDBRANCH  70  73
ENDBRANCH  60  63
ENDBRANCH  56  59
ENDBRANCH  53  56
ENDBRANCH  50  53
ENDBRANCH  47  50
ENDBRANCH   1  47
TORSDOF 18
ENDMDL
MODEL 4
REMARK VINA RESULT:     -11.9      1.203      2.350
REMARK SMILES O=C(CCCc1nc(-c2ccc(Cl)c(Cl)c2)c(-c2ccccc2)o1)NCCCCCCNC(=O)c1ccc(-c2c3nc(c(-c4c(F)c(F)c(F)c(F)c4F)c4ccc([nH]4)c(-c4c(F)c(F)c(F)c(F)c4F)c4nc(c(-c5c(F)c(F)c(F)c(F)c5F)c5ccc2[nH]5)C=C4)C=C3)cc1
REMARK SMILES IDX 27 1 26 4 25 7 1 8 2 9 3 11 4 14 5 17 6 20 7 21 24 22 8 23
REMARK SMILES IDX 17 24 9 25 10 26 16 27 11 28 14 30 12 32 15 34 13 35 18 36
REMARK SMILES IDX 19 37 23 38 20 39 22 41 21 43 28 47 29 50 30 53 31 56 32 59
REMARK SMILES IDX 33 60 34 62 35 63 36 64 97 65 37 66 96 68 38 70 39 73 40 74
REMARK SMILES IDX 90 75 41 76 95 77 89 78 91 79 42 80 94 81 88 83 87 85 43 87
REMARK SMILES IDX 75 90 55 91 74 92 56 93 59 94 73 95 92 96 57 97 58 99 72 101
REMARK SMILES IDX 93 102 60 105 44 107 45 108 53 109 46 110 47 111 51 112
REMARK SMILES IDX 54 113 48 114 49 115 52 116 50 117 76 118 77 119 85 120
REMARK SMILES IDX 78 121 79 122 83 123 86 124 80 125 81 126 84 127 82 128
REMARK SMILES IDX 61 129 62 130 70 131 63 132 64 133 68 134 71 135 65 136
REMARK SMILES IDX 66 137 69 138 67 139
REMARK H PARENT 27 2 27 3 26 5 26 6 25 10 3 12 3 13 4 15 4 16 5 18 5 19 10 29
REMARK H PARENT 16 31 11 33 19 40 23 42 20 44 22 45 21 46 28 48 28 49 29 51
REMARK H PARENT 29 52 30 54 30 55 31 57 31 58 32 61 36 67 97 69 37 71 96 72
REMARK H PARENT 95 82 89 84 91 86 94 88 88 89 56 98 59 100 92 103 57 104
REMARK H PARENT 93 106
REMARK Flexibility Score: inf
ROOT
ATOM      1  C   UNL A   1      40.129  22.311  26.472  1.00  0.00    -0.036 C 
ATOM      2  H   UNL A   1      40.006  22.433  27.527  1.00  0.00     0.028 H 
ATOM      3  H   UNL A   1      40.116  23.236  25.934  1.00  0.00     0.028 H 
ENDROOT
BRANCH   1   4
ATOM      4  C   UNL A   1      38.951  21.492  25.948  1.00  0.00     0.017 C 
ATOM      5  H   UNL A   1      39.326  20.603  25.486  1.00  0.00     0.049 H 
ATOM      6  H   UNL A   1      38.315  21.258  26.776  1.00  0.00     0.049 H 
BRANCH   4   7
ATOM      7  N   UNL A   1      38.171  22.229  24.978  1.00  0.00    -0.356 N 
ATOM      8  O   UNL A   1      36.456  20.710  24.848  1.00  0.00    -0.275 OA
ATOM      9  C   UNL A   1      36.962  21.775  24.510  1.00  0.00     0.220 C 
ATOM     10  H   UNL A   1      38.519  23.087  24.641  1.00  0.00     0.163 HD
BRANCH   9  11
ATOM     11  C   UNL A   1      36.287  22.714  23.533  1.00  0.00     0.027 C 
ATOM     12  H   UNL A   1      35.646  22.139  22.898  1.00  0.00     0.037 H 
ATOM     13  H   UNL A   1      37.059  23.209  22.982  1.00  0.00     0.037 H 
BRANCH  11  14
ATOM     14  C   UNL A   1      35.449  23.798  24.219  1.00  0.00    -0.036 C 
ATOM     15  H   UNL A   1      36.019  24.704  24.209  1.00  0.00     0.028 H 
ATOM     16  H   UNL A   1      35.239  23.418  25.198  1.00  0.00     0.028 H 
BRANCH  14  17
ATOM     17  C   UNL A   1      34.082  24.098  23.595  1.00  0.00     0.025 C 
ATOM     18  H   UNL A   1      33.402  23.320  23.870  1.00  0.00     0.037 H 
ATOM     19  H   UNL A   1      34.216  24.152  22.535  1.00  0.00     0.037 H 
BRANCH  17  20
ATOM     20  C   UNL A   1      33.521  25.399  24.044  1.00  0.00     0.195 A 
ATOM     21  N   UNL A   1      34.043  26.233  24.923  1.00  0.00    -0.213 NA
ATOM     22  O   UNL A   1      32.381  25.843  23.434  1.00  0.00    -0.440 OA
ATOM     23  C   UNL A   1      33.161  27.285  24.930  1.00  0.00     0.117 A 
ATOM     24  C   UNL A   1      32.170  27.077  23.991  1.00  0.00     0.162 A 
BRANCH  23  25
ATOM     25  C   UNL A   1      33.283  28.447  25.780  1.00  0.00     0.006 A 
ATOM     26  C   UNL A   1      34.399  28.599  26.608  1.00  0.00    -0.051 A 
ATOM     27  C   UNL A   1      32.299  29.445  25.757  1.00  0.00    -0.032 A 
ATOM     28  C   UNL A   1      34.548  29.756  27.378  1.00  0.00    -0.041 A 
ATOM     29  H   UNL A   1      35.114  27.855  26.651  1.00  0.00     0.063 H 
ATOM     30  C   UNL A   1      32.442  30.599  26.534  1.00  0.00     0.060 A 
ATOM     31  H   UNL A   1      31.463  29.327  25.163  1.00  0.00     0.065 H 
ATOM     32  C   UNL A   1      33.574  30.759  27.340  1.00  0.00     0.059 A 
ATOM     33  H   UNL A   1      35.380  29.871  27.978  1.00  0.00     0.064 H 
ATOM     34  Cl  UNL A   1      31.191  31.786  26.443  1.00  0.00    -0.083 Cl
ATOM     35  Cl  UNL A   1      33.832  32.170  28.303  1.00  0.00    -0.083 Cl
ENDBRANCH  23  25
BRANCH  24  36
ATOM     36  C   UNL A   1      31.071  27.864  23.474  1.00  0.00     0.020 A 
ATOM     37  C   UNL A   1      31.300  28.946  22.619  1.00  0.00    -0.051 A 
ATOM     38  C   UNL A   1      29.750  27.507  23.788  1.00  0.00    -0.051 A 
ATOM     39  C   UNL A   1      30.222  29.648  22.071  1.00  0.00    -0.062 A 
ATOM     40  H   UNL A   1      32.266  29.228  22.391  1.00  0.00     0.063 H 
ATOM     41  C   UNL A   1      28.677  28.215  23.249  1.00  0.00    -0.062 A 
ATOM     42  H   UNL A   1      29.573  26.713  24.425  1.00  0.00     0.063 H 
ATOM     43  C   UNL A   1      28.914  29.281  22.385  1.00  0.00    -0.062 A 
ATOM     44  H   UNL A   1      30.395  30.440  21.433  1.00  0.00     0.062 H 
ATOM     45  H   UNL A   1      27.709  27.948  23.488  1.00  0.00     0.062 H 
ATOM     46  H   UNL A   1      28.121  29.801  21.978  1.00  0.00     0.062 H 
ENDBRANCH  24  36
ENDBRANCH  17  20
ENDBRANCH  14  17
ENDBRANCH  11  14
ENDBRANCH   9  11
ENDBRANCH   4   7
ENDBRANCH   1   4
BRANCH   1  47
ATOM     47  C   UNL A   1      41.509  21.690  26.223  1.00  0.00    -0.052 C 
ATOM     48  H   UNL A   1      42.250  22.383  26.566  1.00  0.00     0.027 H 
ATOM     49  H   UNL A   1      41.558  21.493  25.173  1.00  0.00     0.027 H 
BRANCH  47  50
ATOM     50  C   UNL A   1      41.763  20.349  26.915  1.00  0.00    -0.052 C 
ATOM     51  H   UNL A   1      40.884  20.085  27.463  1.00  0.00     0.027 H 
ATOM     52  H   UNL A   1      42.621  20.488  27.540  1.00  0.00     0.027 H 
BRANCH  50  53
ATOM     53  C   UNL A   1      42.099  19.199  25.966  1.00  0.00    -0.036 C 
ATOM     54  H   UNL A   1      41.984  19.551  24.962  1.00  0.00     0.028 H 
ATOM     55  H   UNL A   1      41.431  18.400  26.208  1.00  0.00     0.028 H 
BRANCH  53  56
ATOM     56  C   UNL A   1      43.511  18.645  26.118  1.00  0.00     0.018 C 
ATOM     57  H   UNL A   1      43.454  17.687  26.591  1.00  0.00     0.049 H 
ATOM     58  H   UNL A   1      44.071  19.344  26.704  1.00  0.00     0.049 H 
BRANCH  56  59
ATOM     59  N   UNL A   1      44.194  18.496  24.842  1.00  0.00    -0.352 N 
ATOM     60  C   UNL A   1      44.755  19.463  24.048  1.00  0.00     0.251 C 
ATOM     61  H   UNL A   1      44.263  17.574  24.502  1.00  0.00     0.163 HD
ATOM     62  O   UNL A   1      45.154  19.187  22.919  1.00  0.00    -0.269 OA
BRANCH  60  63
ATOM     63  C   UNL A   1      44.855  20.851  24.545  1.00  0.00     0.039 A 
ATOM     64  C   UNL A   1      45.454  21.082  25.786  1.00  0.00    -0.049 A 
ATOM     65  C   UNL A   1      44.359  21.920  23.793  1.00  0.00    -0.049 A 
ATOM     66  C   UNL A   1      45.595  22.391  26.252  1.00  0.00    -0.053 A 
ATOM     67  H   UNL A   1      45.790  20.289  26.356  1.00  0.00     0.063 H 
ATOM     68  C   UNL A   1      44.574  23.227  24.221  1.00  0.00    -0.053 A 
ATOM     69  H   UNL A   1      43.835  21.740  22.923  1.00  0.00     0.063 H 
ATOM     70  C   UNL A   1      45.180  23.476  25.463  1.00  0.00    -0.014 A 
ATOM     71  H   UNL A   1      46.008  22.562  27.182  1.00  0.00     0.063 H 
ATOM     72  H   UNL A   1      44.286  24.017  23.623  1.00  0.00     0.063 H 
BRANCH  70  73
ATOM     73  C   UNL A   1      45.330  24.875  25.939  1.00  0.00     0.031 A 
ATOM     74  C   UNL A   1      46.684  25.534  25.911  1.00  0.00     0.074 A 
ATOM     75  C   UNL A   1      44.265  25.537  26.431  1.00  0.00     0.049 A 
ATOM     76  N   UNL A   1      47.039  26.719  26.341  1.00  0.00    -0.248 NA
ATOM     77  C   UNL A   1      47.792  24.744  25.349  1.00  0.00    -0.034 C 
ATOM     78  C   UNL A   1      42.912  24.995  26.550  1.00  0.00    -0.036 A 
ATOM     79  N   UNL A   1      44.157  26.811  26.931  1.00  0.00    -0.354 N 
ATOM     80  C   UNL A   1      48.404  26.813  26.102  1.00  0.00     0.074 A 
ATOM     81  C   UNL A   1      48.829  25.542  25.557  1.00  0.00    -0.034 C 
ATOM     82  H   UNL A   1      47.768  23.812  24.906  1.00  0.00     0.065 H 
ATOM     83  C   UNL A   1      42.106  25.934  27.074  1.00  0.00    -0.036 A 
ATOM     84  H   UNL A   1      42.622  24.042  26.277  1.00  0.00     0.065 H 
ATOM     85  C   UNL A   1      42.892  27.130  27.360  1.00  0.00     0.049 A 
ATOM     86  H   UNL A   1      44.916  27.438  26.979  1.00  0.00     0.167 HD
ATOM     87  C   UNL A   1      49.224  27.875  26.285  1.00  0.00     0.037 A 
ATOM     88  H   UNL A   1      49.809  25.291  25.357  1.00  0.00     0.065 H 
ATOM     89  H   UNL A   1      41.094  25.826  27.246  1.00  0.00     0.065 H 
ATOM     90  C   UNL A   1      42.423  28.259  27.926  1.00  0.00     0.037 A 
ATOM     91  C   UNL A   1      48.799  29.144  26.813  1.00  0.00     0.049 A 
ATOM     92  C   UNL A   1      43.362  29.419  28.133  1.00  0.00     0.074 A 
ATOM     93  C   UNL A   1      49.550  30.286  27.031  1.00  0.00    -0.036 A 
ATOM     94  N   UNL A   1      47.500  29.440  27.201  1.00  0.00    -0.354 N 
ATOM     95  N   UNL A   1      44.641  29.512  27.858  1.00  0.00    -0.248 NA
ATOM     96  C   UNL A   1      42.786  30.641  28.713  1.00  0.00    -0.034 C 
ATOM     97  C   UNL A   1      48.713  31.261  27.583  1.00  0.00    -0.036 A 
ATOM     98  H   UNL A   1      50.554  30.398  26.821  1.00  0.00     0.065 H 
ATOM     99  C   UNL A   1      47.429  30.746  27.656  1.00  0.00     0.049 A 
ATOM    100  H   UNL A   1      46.741  28.814  27.159  1.00  0.00     0.167 HD
ATOM    101  C   UNL A   1      45.009  30.809  28.190  1.00  0.00     0.074 A 
ATOM    102  C   UNL A   1      43.817  31.472  28.672  1.00  0.00    -0.034 C 
ATOM    103  H   UNL A   1      41.829  30.808  29.060  1.00  0.00     0.065 H 
ATOM    104  H   UNL A   1      49.004  32.205  27.884  1.00  0.00     0.065 H 
ATOM    105  C   UNL A   1      46.227  31.399  28.104  1.00  0.00     0.037 A 
ATOM    106  H   UNL A   1      43.775  32.464  28.949  1.00  0.00     0.065 H 
BRANCH  87 107
ATOM    107  C   UNL A   1      50.663  27.717  25.888  1.00  0.00     0.064 A 
ATOM    108  C   UNL A   1      51.076  27.889  24.557  1.00  0.00     0.173 A 
ATOM    109  C   UNL A   1      51.648  27.439  26.848  1.00  0.00     0.173 A 
ATOM    110  F   UNL A   1      50.174  28.144  23.598  1.00  0.00    -0.203 F 
ATOM    111  C   UNL A   1      52.416  27.767  24.199  1.00  0.00     0.198 A 
ATOM    112  C   UNL A   1      52.991  27.350  26.491  1.00  0.00     0.198 A 
ATOM    113  F   UNL A   1      51.310  27.269  28.135  1.00  0.00    -0.203 F 
ATOM    114  F   UNL A   1      52.779  27.892  22.915  1.00  0.00    -0.200 F 
ATOM    115  C   UNL A   1      53.373  27.507  25.168  1.00  0.00     0.200 A 
ATOM    116  F   UNL A   1      53.918  27.112  27.431  1.00  0.00    -0.200 F 
ATOM    117  F   UNL A   1      54.665  27.404  24.824  1.00  0.00    -0.200 F 
ENDBRANCH  87 107
BRANCH  90 118
ATOM    118  C   UNL A   1      40.994  28.361  28.331  1.00  0.00     0.064 A 
ATOM    119  C   UNL A   1      40.033  28.903  27.464  1.00  0.00     0.173 A 
ATOM    120  C   UNL A   1      40.569  27.963  29.606  1.00  0.00     0.173 A 
ATOM    121  F   UNL A   1      40.393  29.315  26.239  1.00  0.00    -0.203 F 
ATOM    122  C   UNL A   1      38.714  29.083  27.873  1.00  0.00     0.198 A 
ATOM    123  C   UNL A   1      39.241  28.112  30.001  1.00  0.00     0.198 A 
ATOM    124  F   UNL A   1      41.445  27.432  30.472  1.00  0.00    -0.203 F 
ATOM    125  F   UNL A   1      37.834  29.670  27.051  1.00  0.00    -0.200 F 
ATOM    126  C   UNL A   1      38.318  28.686  29.142  1.00  0.00     0.200 A 
ATOM    127  F   UNL A   1      38.859  27.711  31.222  1.00  0.00    -0.200 F 
ATOM    128  F   UNL A   1      37.051  28.868  29.538  1.00  0.00    -0.200 F 
ENDBRANCH  90 118
BRANCH 105 129
ATOM    129  C   UNL A   1      46.315  32.854  28.468  1.00  0.00     0.064 A 
ATOM    130  C   UNL A   1      46.611  33.277  29.773  1.00  0.00     0.173 A 
ATOM    131  C   UNL A   1      46.126  33.838  27.485  1.00  0.00     0.173 A 
ATOM    132  F   UNL A   1      46.789  32.377  30.751  1.00  0.00    -0.203 F 
ATOM    133  C   UNL A   1      46.676  34.632  30.087  1.00  0.00     0.198 A 
ATOM    134  C   UNL A   1      46.227  35.191  27.796  1.00  0.00     0.198 A 
ATOM    135  F   UNL A   1      45.852  33.487  26.220  1.00  0.00    -0.203 F 
ATOM    136  F   UNL A   1      46.899  35.013  31.352  1.00  0.00    -0.200 F 
ATOM    137  C   UNL A   1      46.490  35.587  29.098  1.00  0.00     0.200 A 
ATOM    138  F   UNL A   1      46.064  36.111  26.835  1.00  0.00    -0.200 F 
ATOM    139  F   UNL A   1      46.557  36.890  29.403  1.00  0.00    -0.200 F 
ENDBRANCH 105 129
ENDBRANCH  70  73
ENDBRANCH  60  63
ENDBRANCH  56  59
ENDBRANCH  53  56
ENDBRANCH  50  53
ENDBRANCH  47  50
ENDBRANCH   1  47
TORSDOF 18
ENDMDL
MODEL 5
REMARK VINA RESULT:     -11.8      6.809     12.593
REMARK SMILES O=C(CCCc1nc(-c2ccc(Cl)c(Cl)c2)c(-c2ccccc2)o1)NCCCCCCNC(=O)c1ccc(-c2c3nc(c(-c4c(F)c(F)c(F)c(F)c4F)c4ccc([nH]4)c(-c4c(F)c(F)c(F)c(F)c4F)c4nc(c(-c5c(F)c(F)c(F)c(F)c5F)c5ccc2[nH]5)C=C4)C=C3)cc1
REMARK SMILES IDX 27 1 26 4 25 7 1 8 2 9 3 11 4 14 5 17 6 20 7 21 24 22 8 23
REMARK SMILES IDX 17 24 9 25 10 26 16 27 11 28 14 30 12 32 15 34 13 35 18 36
REMARK SMILES IDX 19 37 23 38 20 39 22 41 21 43 28 47 29 50 30 53 31 56 32 59
REMARK SMILES IDX 33 60 34 62 35 63 36 64 97 65 37 66 96 68 38 70 39 73 40 74
REMARK SMILES IDX 90 75 41 76 95 77 89 78 91 79 42 80 94 81 88 83 87 85 43 87
REMARK SMILES IDX 75 90 55 91 74 92 56 93 59 94 73 95 92 96 57 97 58 99 72 101
REMARK SMILES IDX 93 102 60 105 44 107 45 108 53 109 46 110 47 111 51 112
REMARK SMILES IDX 54 113 48 114 49 115 52 116 50 117 76 118 77 119 85 120
REMARK SMILES IDX 78 121 79 122 83 123 86 124 80 125 81 126 84 127 82 128
REMARK SMILES IDX 61 129 62 130 70 131 63 132 64 133 68 134 71 135 65 136
REMARK SMILES IDX 66 137 69 138 67 139
REMARK H PARENT 27 2 27 3 26 5 26 6 25 10 3 12 3 13 4 15 4 16 5 18 5 19 10 29
REMARK H PARENT 16 31 11 33 19 40 23 42 20 44 22 45 21 46 28 48 28 49 29 51
REMARK H PARENT 29 52 30 54 30 55 31 57 31 58 32 61 36 67 97 69 37 71 96 72
REMARK H PARENT 95 82 89 84 91 86 94 88 88 89 56 98 59 100 92 103 57 104
REMARK H PARENT 93 106
REMARK Flexibility Score: inf
ROOT
ATOM      1  C   UNL A   1      34.430  31.377  28.214  1.00  0.00    -0.036 C 
ATOM      2  H   UNL A   1      35.294  30.792  27.981  1.00  0.00     0.028 H 
ATOM      3  H   UNL A   1      34.119  31.286  29.234  1.00  0.00     0.028 H 
ENDROOT
BRANCH   1   4
ATOM      4  C   UNL A   1      33.267  30.866  27.364  1.00  0.00     0.017 C 
ATOM      5  H   UNL A   1      32.633  30.258  27.976  1.00  0.00     0.049 H 
ATOM      6  H   UNL A   1      32.738  31.714  26.982  1.00  0.00     0.049 H 
BRANCH   4   7
ATOM      7  N   UNL A   1      33.725  30.079  26.240  1.00  0.00    -0.356 N 
ATOM      8  O   UNL A   1      31.667  29.859  25.249  1.00  0.00    -0.275 OA
ATOM      9  C   UNL A   1      32.875  29.644  25.253  1.00  0.00     0.220 C 
ATOM     10  H   UNL A   1      34.680  29.847  26.180  1.00  0.00     0.163 HD
BRANCH   9  11
ATOM     11  C   UNL A   1      33.559  28.872  24.145  1.00  0.00     0.027 C 
ATOM     12  H   UNL A   1      34.591  28.753  24.400  1.00  0.00     0.037 H 
ATOM     13  H   UNL A   1      33.431  29.431  23.242  1.00  0.00     0.037 H 
BRANCH  11  14
ATOM     14  C   UNL A   1      32.950  27.484  23.914  1.00  0.00    -0.036 C 
ATOM     15  H   UNL A   1      33.601  26.949  23.255  1.00  0.00     0.028 H 
ATOM     16  H   UNL A   1      31.972  27.666  23.518  1.00  0.00     0.028 H 
BRANCH  14  17
ATOM     17  C   UNL A   1      32.733  26.621  25.160  1.00  0.00     0.025 C 
ATOM     18  H   UNL A   1      31.695  26.368  25.226  1.00  0.00     0.037 H 
ATOM     19  H   UNL A   1      33.057  27.188  26.008  1.00  0.00     0.037 H 
BRANCH  17  20
ATOM     20  C   UNL A   1      33.526  25.365  25.132  1.00  0.00     0.195 A 
ATOM     21  N   UNL A   1      34.806  25.221  25.420  1.00  0.00    -0.213 NA
ATOM     22  O   UNL A   1      32.863  24.200  24.859  1.00  0.00    -0.440 OA
ATOM     23  C   UNL A   1      35.016  23.872  25.285  1.00  0.00     0.117 A 
ATOM     24  C   UNL A   1      33.828  23.236  24.989  1.00  0.00     0.162 A 
BRANCH  23  25
ATOM     25  C   UNL A   1      36.296  23.224  25.460  1.00  0.00     0.006 A 
ATOM     26  C   UNL A   1      37.352  23.906  26.071  1.00  0.00    -0.051 A 
ATOM     27  C   UNL A   1      36.477  21.896  25.048  1.00  0.00    -0.032 A 
ATOM     28  C   UNL A   1      38.568  23.255  26.300  1.00  0.00    -0.041 A 
ATOM     29  H   UNL A   1      37.235  24.892  26.352  1.00  0.00     0.063 H 
ATOM     30  C   UNL A   1      37.696  21.246  25.268  1.00  0.00     0.060 A 
ATOM     31  H   UNL A   1      35.707  21.396  24.578  1.00  0.00     0.065 H 
ATOM     32  C   UNL A   1      38.740  21.924  25.905  1.00  0.00     0.059 A 
ATOM     33  H   UNL A   1      39.341  23.757  26.764  1.00  0.00     0.064 H 
ATOM     34  Cl  UNL A   1      37.837  19.608  24.740  1.00  0.00    -0.083 Cl
ATOM     35  Cl  UNL A   1      40.262  21.176  26.237  1.00  0.00    -0.083 Cl
ENDBRANCH  23  25
BRANCH  24  36
ATOM     36  C   UNL A   1      33.412  21.855  24.856  1.00  0.00     0.020 A 
ATOM     37  C   UNL A   1      33.381  21.003  25.964  1.00  0.00    -0.051 A 
ATOM     38  C   UNL A   1      32.982  21.374  23.610  1.00  0.00    -0.051 A 
ATOM     39  C   UNL A   1      32.907  19.695  25.829  1.00  0.00    -0.062 A 
ATOM     40  H   UNL A   1      33.707  21.339  26.883  1.00  0.00     0.063 H 
ATOM     41  C   UNL A   1      32.520  20.066  23.475  1.00  0.00    -0.062 A 
ATOM     42  H   UNL A   1      33.010  21.996  22.785  1.00  0.00     0.063 H 
ATOM     43  C   UNL A   1      32.477  19.229  24.587  1.00  0.00    -0.062 A 
ATOM     44  H   UNL A   1      32.877  19.072  26.651  1.00  0.00     0.062 H 
ATOM     45  H   UNL A   1      32.209  19.719  22.554  1.00  0.00     0.062 H 
ATOM     46  H   UNL A   1      32.127  18.263  24.492  1.00  0.00     0.062 H 
ENDBRANCH  24  36
ENDBRANCH  17  20
ENDBRANCH  14  17
ENDBRANCH  11  14
ENDBRANCH   9  11
ENDBRANCH   4   7
ENDBRANCH   1   4
BRANCH   1  47
ATOM     47  C   UNL A   1      34.783  32.854  28.003  1.00  0.00    -0.052 C 
ATOM     48  H   UNL A   1      34.233  33.207  27.155  1.00  0.00     0.027 H 
ATOM     49  H   UNL A   1      35.844  32.887  27.873  1.00  0.00     0.027 H 
BRANCH  47  50
ATOM     50  C   UNL A   1      34.475  33.779  29.182  1.00  0.00    -0.052 C 
ATOM     51  H   UNL A   1      35.286  34.469  29.286  1.00  0.00     0.027 H 
ATOM     52  H   UNL A   1      34.349  33.149  30.039  1.00  0.00     0.027 H 
BRANCH  50  53
ATOM     53  C   UNL A   1      33.181  34.580  29.040  1.00  0.00    -0.036 C 
ATOM     54  H   UNL A   1      32.425  34.098  29.623  1.00  0.00     0.028 H 
ATOM     55  H   UNL A   1      32.952  34.604  27.995  1.00  0.00     0.028 H 
BRANCH  53  56
ATOM     56  C   UNL A   1      33.281  36.031  29.495  1.00  0.00     0.018 C 
ATOM     57  H   UNL A   1      32.987  36.666  28.685  1.00  0.00     0.049 H 
ATOM     58  H   UNL A   1      34.295  36.209  29.788  1.00  0.00     0.049 H 
BRANCH  56  59
ATOM     59  N   UNL A   1      32.436  36.318  30.643  1.00  0.00    -0.352 N 
ATOM     60  C   UNL A   1      32.564  35.879  31.937  1.00  0.00     0.251 C 
ATOM     61  H   UNL A   1      31.666  36.906  30.469  1.00  0.00     0.163 HD
ATOM     62  O   UNL A   1      31.670  36.085  32.755  1.00  0.00    -0.269 OA
BRANCH  60  63
ATOM     63  C   UNL A   1      33.774  35.133  32.340  1.00  0.00     0.039 A 
ATOM     64  C   UNL A   1      33.637  33.820  32.797  1.00  0.00    -0.049 A 
ATOM     65  C   UNL A   1      35.038  35.725  32.271  1.00  0.00    -0.049 A 
ATOM     66  C   UNL A   1      34.773  33.085  33.142  1.00  0.00    -0.053 A 
ATOM     67  H   UNL A   1      32.699  33.395  32.880  1.00  0.00     0.063 H 
ATOM     68  C   UNL A   1      36.175  34.966  32.537  1.00  0.00    -0.053 A 
ATOM     69  H   UNL A   1      35.129  36.722  32.023  1.00  0.00     0.063 H 
ATOM     70  C   UNL A   1      36.053  33.643  32.991  1.00  0.00    -0.014 A 
ATOM     71  H   UNL A   1      34.672  32.127  33.510  1.00  0.00     0.063 H 
ATOM     72  H   UNL A   1      37.110  35.378  32.400  1.00  0.00     0.063 H 
BRANCH  70  73
ATOM     73  C   UNL A   1      37.273  32.874  33.344  1.00  0.00     0.031 A 
ATOM     74  C   UNL A   1      38.004  33.175  34.625  1.00  0.00     0.074 A 
ATOM     75  C   UNL A   1      37.747  31.936  32.501  1.00  0.00     0.049 A 
ATOM     76  N   UNL A   1      39.120  32.667  35.084  1.00  0.00    -0.248 NA
ATOM     77  C   UNL A   1      37.415  34.207  35.496  1.00  0.00    -0.034 C 
ATOM     78  C   UNL A   1      37.154  31.581  31.210  1.00  0.00    -0.036 A 
ATOM     79  N   UNL A   1      38.842  31.115  32.599  1.00  0.00    -0.354 N 
ATOM     80  C   UNL A   1      39.363  33.314  36.289  1.00  0.00     0.074 A 
ATOM     81  C   UNL A   1      38.321  34.303  36.457  1.00  0.00    -0.034 C 
ATOM     82  H   UNL A   1      36.527  34.720  35.386  1.00  0.00     0.065 H 
ATOM     83  C   UNL A   1      37.883  30.604  30.645  1.00  0.00    -0.036 A 
ATOM     84  H   UNL A   1      36.312  32.013  30.799  1.00  0.00     0.065 H 
ATOM     85  C   UNL A   1      39.013  30.289  31.515  1.00  0.00     0.049 A 
ATOM     86  H   UNL A   1      39.450  31.118  33.374  1.00  0.00     0.167 HD
ATOM     87  C   UNL A   1      40.345  33.082  37.192  1.00  0.00     0.037 A 
ATOM     88  H   UNL A   1      38.289  34.992  37.224  1.00  0.00     0.065 H 
ATOM     89  H   UNL A   1      37.677  30.150  29.742  1.00  0.00     0.065 H 
ATOM     90  C   UNL A   1      39.976  29.386  31.251  1.00  0.00     0.037 A 
ATOM     91  C   UNL A   1      41.373  32.089  37.031  1.00  0.00     0.049 A 
ATOM     92  C   UNL A   1      41.066  29.159  32.267  1.00  0.00     0.074 A 
ATOM     93  C   UNL A   1      42.409  31.769  37.892  1.00  0.00    -0.036 A 
ATOM     94  N   UNL A   1      41.489  31.246  35.936  1.00  0.00    -0.354 N 
ATOM     95  N   UNL A   1      41.257  29.746  33.424  1.00  0.00    -0.248 NA
ATOM     96  C   UNL A   1      42.065  28.131  31.947  1.00  0.00    -0.034 C 
ATOM     97  C   UNL A   1      43.172  30.758  37.301  1.00  0.00    -0.036 A 
ATOM     98  H   UNL A   1      42.587  32.203  38.811  1.00  0.00     0.065 H 
ATOM     99  C   UNL A   1      42.580  30.407  36.098  1.00  0.00     0.049 A 
ATOM    100  H   UNL A   1      40.887  31.244  35.157  1.00  0.00     0.167 HD
ATOM    101  C   UNL A   1      42.367  29.129  33.986  1.00  0.00     0.074 A 
ATOM    102  C   UNL A   1      42.799  28.113  33.050  1.00  0.00    -0.034 C 
ATOM    103  H   UNL A   1      42.169  27.568  31.087  1.00  0.00     0.065 H 
ATOM    104  H   UNL A   1      44.032  30.342  37.694  1.00  0.00     0.065 H 
ATOM    105  C   UNL A   1      42.976  29.381  35.170  1.00  0.00     0.037 A 
ATOM    106  H   UNL A   1      43.577  27.458  33.220  1.00  0.00     0.065 H 
BRANCH  87 107
ATOM    107  C   UNL A   1      40.340  33.903  38.449  1.00  0.00     0.064 A 
ATOM    108  C   UNL A   1      39.608  33.504  39.579  1.00  0.00     0.173 A 
ATOM    109  C   UNL A   1      41.109  35.072  38.547  1.00  0.00     0.173 A 
ATOM    110  F   UNL A   1      38.846  32.401  39.533  1.00  0.00    -0.203 F 
ATOM    111  C   UNL A   1      39.628  34.256  40.750  1.00  0.00     0.198 A 
ATOM    112  C   UNL A   1      41.152  35.804  39.732  1.00  0.00     0.198 A 
ATOM    113  F   UNL A   1      41.832  35.497  37.500  1.00  0.00    -0.203 F 
ATOM    114  F   UNL A   1      38.885  33.878  41.799  1.00  0.00    -0.200 F 
ATOM    115  C   UNL A   1      40.407  35.399  40.829  1.00  0.00     0.200 A 
ATOM    116  F   UNL A   1      41.918  36.902  39.812  1.00  0.00    -0.200 F 
ATOM    117  F   UNL A   1      40.437  36.114  41.962  1.00  0.00    -0.200 F 
ENDBRANCH  87 107
BRANCH  90 118
ATOM    118  C   UNL A   1      39.957  28.615  29.978  1.00  0.00     0.064 A 
ATOM    119  C   UNL A   1      39.377  27.339  29.912  1.00  0.00     0.173 A 
ATOM    120  C   UNL A   1      40.559  29.116  28.814  1.00  0.00     0.173 A 
ATOM    121  F   UNL A   1      38.805  26.808  31.003  1.00  0.00    -0.203 F 
ATOM    122  C   UNL A   1      39.438  26.578  28.747  1.00  0.00     0.198 A 
ATOM    123  C   UNL A   1      40.588  28.367  27.639  1.00  0.00     0.198 A 
ATOM    124  F   UNL A   1      41.122  30.333  28.819  1.00  0.00    -0.203 F 
ATOM    125  F   UNL A   1      38.940  25.334  28.735  1.00  0.00    -0.200 F 
ATOM    126  C   UNL A   1      40.042  27.093  27.610  1.00  0.00     0.200 A 
ATOM    127  F   UNL A   1      41.158  28.876  26.538  1.00  0.00    -0.200 F 
ATOM    128  F   UNL A   1      40.109  26.358  26.493  1.00  0.00    -0.200 F 
ENDBRANCH  90 118
BRANCH 105 129
ATOM    129  C   UNL A   1      44.127  28.495  35.556  1.00  0.00     0.064 A 
ATOM    130  C   UNL A   1      45.449  28.794  35.195  1.00  0.00     0.173 A 
ATOM    131  C   UNL A   1      43.900  27.342  36.324  1.00  0.00     0.173 A 
ATOM    132  F   UNL A   1      45.717  29.878  34.452  1.00  0.00    -0.203 F 
ATOM    133  C   UNL A   1      46.496  27.950  35.556  1.00  0.00     0.198 A 
ATOM    134  C   UNL A   1      44.954  26.520  36.713  1.00  0.00     0.198 A 
ATOM    135  F   UNL A   1      42.656  27.016  36.706  1.00  0.00    -0.203 F 
ATOM    136  F   UNL A   1      47.743  28.223  35.148  1.00  0.00    -0.200 F 
ATOM    137  C   UNL A   1      46.250  26.819  36.319  1.00  0.00     0.200 A 
ATOM    138  F   UNL A   1      44.715  25.437  37.465  1.00  0.00    -0.200 F 
ATOM    139  F   UNL A   1      47.260  26.011  36.668  1.00  0.00    -0.200 F 
ENDBRANCH 105 129
ENDBRANCH  70  73
ENDBRANCH  60  63
ENDBRANCH  56  59
ENDBRANCH  53  56
ENDBRANCH  50  53
ENDBRANCH  47  50
ENDBRANCH   1  47
TORSDOF 18
ENDMDL
MODEL 6
REMARK VINA RESULT:     -11.7      6.743     12.346
REMARK SMILES O=C(CCCc1nc(-c2ccc(Cl)c(Cl)c2)c(-c2ccccc2)o1)NCCCCCCNC(=O)c1ccc(-c2c3nc(c(-c4c(F)c(F)c(F)c(F)c4F)c4ccc([nH]4)c(-c4c(F)c(F)c(F)c(F)c4F)c4nc(c(-c5c(F)c(F)c(F)c(F)c5F)c5ccc2[nH]5)C=C4)C=C3)cc1
REMARK SMILES IDX 27 1 26 4 25 7 1 8 2 9 3 11 4 14 5 17 6 20 7 21 24 22 8 23
REMARK SMILES IDX 17 24 9 25 10 26 16 27 11 28 14 30 12 32 15 34 13 35 18 36
REMARK SMILES IDX 19 37 23 38 20 39 22 41 21 43 28 47 29 50 30 53 31 56 32 59
REMARK SMILES IDX 33 60 34 62 35 63 36 64 97 65 37 66 96 68 38 70 39 73 40 74
REMARK SMILES IDX 90 75 41 76 95 77 89 78 91 79 42 80 94 81 88 83 87 85 43 87
REMARK SMILES IDX 75 90 55 91 74 92 56 93 59 94 73 95 92 96 57 97 58 99 72 101
REMARK SMILES IDX 93 102 60 105 44 107 45 108 53 109 46 110 47 111 51 112
REMARK SMILES IDX 54 113 48 114 49 115 52 116 50 117 76 118 77 119 85 120
REMARK SMILES IDX 78 121 79 122 83 123 86 124 80 125 81 126 84 127 82 128
REMARK SMILES IDX 61 129 62 130 70 131 63 132 64 133 68 134 71 135 65 136
REMARK SMILES IDX 66 137 69 138 67 139
REMARK H PARENT 27 2 27 3 26 5 26 6 25 10 3 12 3 13 4 15 4 16 5 18 5 19 10 29
REMARK H PARENT 16 31 11 33 19 40 23 42 20 44 22 45 21 46 28 48 28 49 29 51
REMARK H PARENT 29 52 30 54 30 55 31 57 31 58 32 61 36 67 97 69 37 71 96 72
REMARK H PARENT 95 82 89 84 91 86 94 88 88 89 56 98 59 100 92 103 57 104
REMARK H PARENT 93 106
REMARK Flexibility Score: inf
ROOT
ATOM      1  C   UNL A   1      34.817  31.705  28.123  1.00  0.00    -0.036 C 
ATOM      2  H   UNL A   1      35.599  31.225  27.573  1.00  0.00     0.028 H 
ATOM      3  H   UNL A   1      34.828  31.471  29.167  1.00  0.00     0.028 H 
ENDROOT
BRANCH   1   4
ATOM      4  C   UNL A   1      33.479  31.200  27.584  1.00  0.00     0.017 C 
ATOM      5  H   UNL A   1      32.979  30.656  28.358  1.00  0.00     0.049 H 
ATOM      6  H   UNL A   1      32.904  32.049  27.276  1.00  0.00     0.049 H 
BRANCH   4   7
ATOM      7  N   UNL A   1      33.651  30.335  26.438  1.00  0.00    -0.356 N 
ATOM      8  O   UNL A   1      33.149  28.383  27.537  1.00  0.00    -0.275 OA
ATOM      9  C   UNL A   1      33.456  28.977  26.508  1.00  0.00     0.220 C 
ATOM     10  H   UNL A   1      33.917  30.733  25.578  1.00  0.00     0.163 HD
BRANCH   9  11
ATOM     11  C   UNL A   1      33.646  28.258  25.190  1.00  0.00     0.027 C 
ATOM     12  H   UNL A   1      34.188  27.354  25.370  1.00  0.00     0.037 H 
ATOM     13  H   UNL A   1      34.177  28.921  24.539  1.00  0.00     0.037 H 
BRANCH  11  14
ATOM     14  C   UNL A   1      32.323  27.904  24.501  1.00  0.00    -0.036 C 
ATOM     15  H   UNL A   1      32.547  27.620  23.494  1.00  0.00     0.028 H 
ATOM     16  H   UNL A   1      31.714  28.779  24.589  1.00  0.00     0.028 H 
BRANCH  14  17
ATOM     17  C   UNL A   1      31.508  26.773  25.135  1.00  0.00     0.025 C 
ATOM     18  H   UNL A   1      30.532  26.765  24.695  1.00  0.00     0.037 H 
ATOM     19  H   UNL A   1      31.466  26.956  26.189  1.00  0.00     0.037 H 
BRANCH  17  20
ATOM     20  C   UNL A   1      32.129  25.438  24.937  1.00  0.00     0.195 A 
ATOM     21  N   UNL A   1      31.561  24.360  24.430  1.00  0.00    -0.213 NA
ATOM     22  O   UNL A   1      33.459  25.306  25.227  1.00  0.00    -0.440 OA
ATOM     23  C   UNL A   1      32.574  23.435  24.427  1.00  0.00     0.117 A 
ATOM     24  C   UNL A   1      33.746  24.016  24.867  1.00  0.00     0.162 A 
BRANCH  23  25
ATOM     25  C   UNL A   1      32.426  22.064  23.993  1.00  0.00     0.006 A 
ATOM     26  C   UNL A   1      32.172  21.774  22.650  1.00  0.00    -0.051 A 
ATOM     27  C   UNL A   1      32.567  21.014  24.912  1.00  0.00    -0.032 A 
ATOM     28  C   UNL A   1      32.097  20.446  22.221  1.00  0.00    -0.041 A 
ATOM     29  H   UNL A   1      32.040  22.543  21.973  1.00  0.00     0.063 H 
ATOM     30  C   UNL A   1      32.482  19.684  24.486  1.00  0.00     0.060 A 
ATOM     31  H   UNL A   1      32.733  21.224  25.908  1.00  0.00     0.065 H 
ATOM     32  C   UNL A   1      32.256  19.399  23.136  1.00  0.00     0.059 A 
ATOM     33  H   UNL A   1      31.923  20.236  21.226  1.00  0.00     0.064 H 
ATOM     34  Cl  UNL A   1      32.677  18.448  25.676  1.00  0.00    -0.083 Cl
ATOM     35  Cl  UNL A   1      32.171  17.782  22.533  1.00  0.00    -0.083 Cl
ENDBRANCH  23  25
BRANCH  24  36
ATOM     36  C   UNL A   1      35.126  23.588  24.962  1.00  0.00     0.020 A 
ATOM     37  C   UNL A   1      35.674  22.707  24.025  1.00  0.00    -0.051 A 
ATOM     38  C   UNL A   1      35.947  24.105  25.976  1.00  0.00    -0.051 A 
ATOM     39  C   UNL A   1      37.027  22.364  24.091  1.00  0.00    -0.062 A 
ATOM     40  H   UNL A   1      35.079  22.309  23.283  1.00  0.00     0.063 H 
ATOM     41  C   UNL A   1      37.294  23.754  26.048  1.00  0.00    -0.062 A 
ATOM     42  H   UNL A   1      35.548  24.751  26.677  1.00  0.00     0.063 H 
ATOM     43  C   UNL A   1      37.835  22.888  25.100  1.00  0.00    -0.062 A 
ATOM     44  H   UNL A   1      37.429  21.721  23.392  1.00  0.00     0.062 H 
ATOM     45  H   UNL A   1      37.889  24.136  26.799  1.00  0.00     0.062 H 
ATOM     46  H   UNL A   1      38.834  22.634  25.146  1.00  0.00     0.062 H 
ENDBRANCH  24  36
ENDBRANCH  17  20
ENDBRANCH  14  17
ENDBRANCH  11  14
ENDBRANCH   9  11
ENDBRANCH   4   7
ENDBRANCH   1   4
BRANCH   1  47
ATOM     47  C   UNL A   1      35.024  33.221  28.021  1.00  0.00    -0.052 C 
ATOM     48  H   UNL A   1      34.426  33.581  27.209  1.00  0.00     0.027 H 
ATOM     49  H   UNL A   1      36.074  33.365  27.880  1.00  0.00     0.027 H 
BRANCH  47  50
ATOM     50  C   UNL A   1      34.653  34.022  29.270  1.00  0.00    -0.052 C 
ATOM     51  H   UNL A   1      35.398  34.775  29.418  1.00  0.00     0.027 H 
ATOM     52  H   UNL A   1      34.599  33.320  30.077  1.00  0.00     0.027 H 
BRANCH  50  53
ATOM     53  C   UNL A   1      33.288  34.707  29.202  1.00  0.00    -0.036 C 
ATOM     54  H   UNL A   1      32.599  34.138  29.790  1.00  0.00     0.028 H 
ATOM     55  H   UNL A   1      33.020  34.749  28.168  1.00  0.00     0.028 H 
BRANCH  53  56
ATOM     56  C   UNL A   1      33.275  36.144  29.711  1.00  0.00     0.018 C 
ATOM     57  H   UNL A   1      32.945  36.785  28.921  1.00  0.00     0.049 H 
ATOM     58  H   UNL A   1      34.270  36.384  30.026  1.00  0.00     0.049 H 
BRANCH  56  59
ATOM     59  N   UNL A   1      32.396  36.324  30.856  1.00  0.00    -0.352 N 
ATOM     60  C   UNL A   1      32.511  35.802  32.119  1.00  0.00     0.251 C 
ATOM     61  H   UNL A   1      31.611  36.900  30.704  1.00  0.00     0.163 HD
ATOM     62  O   UNL A   1      31.593  35.924  32.928  1.00  0.00    -0.269 OA
BRANCH  60  63
ATOM     63  C   UNL A   1      33.735  35.068  32.499  1.00  0.00     0.039 A 
ATOM     64  C   UNL A   1      33.624  33.741  32.921  1.00  0.00    -0.049 A 
ATOM     65  C   UNL A   1      34.988  35.685  32.444  1.00  0.00    -0.049 A 
ATOM     66  C   UNL A   1      34.775  33.018  33.243  1.00  0.00    -0.053 A 
ATOM     67  H   UNL A   1      32.695  33.296  32.994  1.00  0.00     0.063 H 
ATOM     68  C   UNL A   1      36.139  34.940  32.686  1.00  0.00    -0.053 A 
ATOM     69  H   UNL A   1      35.060  36.690  32.223  1.00  0.00     0.063 H 
ATOM     70  C   UNL A   1      36.043  33.604  33.104  1.00  0.00    -0.014 A 
ATOM     71  H   UNL A   1      34.692  32.048  33.585  1.00  0.00     0.063 H 
ATOM     72  H   UNL A   1      37.067  35.373  32.559  1.00  0.00     0.063 H 
BRANCH  70  73
ATOM     73  C   UNL A   1      37.279  32.847  33.434  1.00  0.00     0.031 A 
ATOM     74  C   UNL A   1      38.027  33.153  34.704  1.00  0.00     0.074 A 
ATOM     75  C   UNL A   1      37.749  31.919  32.578  1.00  0.00     0.049 A 
ATOM     76  N   UNL A   1      39.157  32.655  35.142  1.00  0.00    -0.248 NA
ATOM     77  C   UNL A   1      37.441  34.173  35.589  1.00  0.00    -0.034 C 
ATOM     78  C   UNL A   1      37.139  31.562  31.297  1.00  0.00    -0.036 A 
ATOM     79  N   UNL A   1      38.856  31.111  32.655  1.00  0.00    -0.354 N 
ATOM     80  C   UNL A   1      39.412  33.301  36.345  1.00  0.00     0.074 A 
ATOM     81  C   UNL A   1      38.361  34.277  36.535  1.00  0.00    -0.034 C 
ATOM     82  H   UNL A   1      36.544  34.676  35.496  1.00  0.00     0.065 H 
ATOM     83  C   UNL A   1      37.871  30.596  30.716  1.00  0.00    -0.036 A 
ATOM     84  H   UNL A   1      36.285  31.986  30.902  1.00  0.00     0.065 H 
ATOM     85  C   UNL A   1      39.018  30.292  31.564  1.00  0.00     0.049 A 
ATOM     86  H   UNL A   1      39.477  31.118  33.420  1.00  0.00     0.167 HD
ATOM     87  C   UNL A   1      40.412  33.077  37.231  1.00  0.00     0.037 A 
ATOM     88  H   UNL A   1      38.333  34.962  37.306  1.00  0.00     0.065 H 
ATOM     89  H   UNL A   1      37.655  30.144  29.814  1.00  0.00     0.065 H 
ATOM     90  C   UNL A   1      39.988  29.401  31.280  1.00  0.00     0.037 A 
ATOM     91  C   UNL A   1      41.449  32.097  37.049  1.00  0.00     0.049 A 
ATOM     92  C   UNL A   1      41.097  29.183  32.277  1.00  0.00     0.074 A 
ATOM     93  C   UNL A   1      42.503  31.786  37.890  1.00  0.00    -0.036 A 
ATOM     94  N   UNL A   1      41.557  31.260  35.947  1.00  0.00    -0.354 N 
ATOM     95  N   UNL A   1      41.301  29.767  33.433  1.00  0.00    -0.248 NA
ATOM     96  C   UNL A   1      42.103  28.168  31.936  1.00  0.00    -0.034 C 
ATOM     97  C   UNL A   1      43.268  30.787  37.282  1.00  0.00    -0.036 A 
ATOM     98  H   UNL A   1      42.691  32.218  38.808  1.00  0.00     0.065 H 
ATOM     99  C   UNL A   1      42.660  30.434  36.088  1.00  0.00     0.049 A 
ATOM    100  H   UNL A   1      40.941  31.254  35.179  1.00  0.00     0.167 HD
ATOM    101  C   UNL A   1      42.427  29.161  33.974  1.00  0.00     0.074 A 
ATOM    102  C   UNL A   1      42.855  28.155  33.026  1.00  0.00    -0.034 C 
ATOM    103  H   UNL A   1      42.199  27.610  31.072  1.00  0.00     0.065 H 
ATOM    104  H   UNL A   1      44.139  30.380  37.659  1.00  0.00     0.065 H 
ATOM    105  C   UNL A   1      43.053  29.416  35.149  1.00  0.00     0.037 A 
ATOM    106  H   UNL A   1      43.644  27.509  33.180  1.00  0.00     0.065 H 
BRANCH  87 107
ATOM    107  C   UNL A   1      40.418  33.892  38.491  1.00  0.00     0.064 A 
ATOM    108  C   UNL A   1      41.126  35.103  38.573  1.00  0.00     0.173 A 
ATOM    109  C   UNL A   1      39.675  33.492  39.611  1.00  0.00     0.173 A 
ATOM    110  F   UNL A   1      41.863  35.524  37.535  1.00  0.00    -0.203 F 
ATOM    111  C   UNL A   1      41.108  35.868  39.735  1.00  0.00     0.198 A 
ATOM    112  C   UNL A   1      39.633  34.277  40.761  1.00  0.00     0.198 A 
ATOM    113  F   UNL A   1      38.976  32.347  39.586  1.00  0.00    -0.203 F 
ATOM    114  F   UNL A   1      41.828  36.996  39.804  1.00  0.00    -0.200 F 
ATOM    115  C   UNL A   1      40.354  35.459  40.825  1.00  0.00     0.200 A 
ATOM    116  F   UNL A   1      38.892  33.889  41.809  1.00  0.00    -0.200 F 
ATOM    117  F   UNL A   1      40.326  36.205  41.939  1.00  0.00    -0.200 F 
ENDBRANCH  87 107
BRANCH  90 118
ATOM    118  C   UNL A   1      39.957  28.635  30.005  1.00  0.00     0.064 A 
ATOM    119  C   UNL A   1      39.374  27.360  29.939  1.00  0.00     0.173 A 
ATOM    120  C   UNL A   1      40.549  29.140  28.838  1.00  0.00     0.173 A 
ATOM    121  F   UNL A   1      38.810  26.825  31.033  1.00  0.00    -0.203 F 
ATOM    122  C   UNL A   1      39.424  26.604  28.770  1.00  0.00     0.198 A 
ATOM    123  C   UNL A   1      40.567  28.395  27.660  1.00  0.00     0.198 A 
ATOM    124  F   UNL A   1      41.114  30.356  28.842  1.00  0.00    -0.203 F 
ATOM    125  F   UNL A   1      38.924  25.361  28.758  1.00  0.00    -0.200 F 
ATOM    126  C   UNL A   1      40.019  27.123  27.630  1.00  0.00     0.200 A 
ATOM    127  F   UNL A   1      41.128  28.908  26.556  1.00  0.00    -0.200 F 
ATOM    128  F   UNL A   1      40.075  26.392  26.509  1.00  0.00    -0.200 F 
ENDBRANCH  90 118
BRANCH 105 129
ATOM    129  C   UNL A   1      44.220  28.543  35.512  1.00  0.00     0.064 A 
ATOM    130  C   UNL A   1      45.529  28.845  35.107  1.00  0.00     0.173 A 
ATOM    131  C   UNL A   1      44.025  27.399  36.301  1.00  0.00     0.173 A 
ATOM    132  F   UNL A   1      45.768  29.920  34.342  1.00  0.00    -0.203 F 
ATOM    133  C   UNL A   1      46.592  28.013  35.447  1.00  0.00     0.198 A 
ATOM    134  C   UNL A   1      45.095  26.589  36.669  1.00  0.00     0.198 A 
ATOM    135  F   UNL A   1      42.795  27.070  36.724  1.00  0.00    -0.203 F 
ATOM    136  F   UNL A   1      47.825  28.288  34.999  1.00  0.00    -0.200 F 
ATOM    137  C   UNL A   1      46.376  26.890  36.232  1.00  0.00     0.200 A 
ATOM    138  F   UNL A   1      44.886  25.514  37.442  1.00  0.00    -0.200 F 
ATOM    139  F   UNL A   1      47.402  26.093  36.561  1.00  0.00    -0.200 F 
ENDBRANCH 105 129
ENDBRANCH  70  73
ENDBRANCH  60  63
ENDBRANCH  56  59
ENDBRANCH  53  56
ENDBRANCH  50  53
ENDBRANCH  47  50
ENDBRANCH   1  47
TORSDOF 18
ENDMDL
MODEL 7
REMARK VINA RESULT:     -11.7      1.959      3.512
REMARK SMILES O=C(CCCc1nc(-c2ccc(Cl)c(Cl)c2)c(-c2ccccc2)o1)NCCCCCCNC(=O)c1ccc(-c2c3nc(c(-c4c(F)c(F)c(F)c(F)c4F)c4ccc([nH]4)c(-c4c(F)c(F)c(F)c(F)c4F)c4nc(c(-c5c(F)c(F)c(F)c(F)c5F)c5ccc2[nH]5)C=C4)C=C3)cc1
REMARK SMILES IDX 27 1 26 4 25 7 1 8 2 9 3 11 4 14 5 17 6 20 7 21 24 22 8 23
REMARK SMILES IDX 17 24 9 25 10 26 16 27 11 28 14 30 12 32 15 34 13 35 18 36
REMARK SMILES IDX 19 37 23 38 20 39 22 41 21 43 28 47 29 50 30 53 31 56 32 59
REMARK SMILES IDX 33 60 34 62 35 63 36 64 97 65 37 66 96 68 38 70 39 73 40 74
REMARK SMILES IDX 90 75 41 76 95 77 89 78 91 79 42 80 94 81 88 83 87 85 43 87
REMARK SMILES IDX 75 90 55 91 74 92 56 93 59 94 73 95 92 96 57 97 58 99 72 101
REMARK SMILES IDX 93 102 60 105 44 107 45 108 53 109 46 110 47 111 51 112
REMARK SMILES IDX 54 113 48 114 49 115 52 116 50 117 76 118 77 119 85 120
REMARK SMILES IDX 78 121 79 122 83 123 86 124 80 125 81 126 84 127 82 128
REMARK SMILES IDX 61 129 62 130 70 131 63 132 64 133 68 134 71 135 65 136
REMARK SMILES IDX 66 137 69 138 67 139
REMARK H PARENT 27 2 27 3 26 5 26 6 25 10 3 12 3 13 4 15 4 16 5 18 5 19 10 29
REMARK H PARENT 16 31 11 33 19 40 23 42 20 44 22 45 21 46 28 48 28 49 29 51
REMARK H PARENT 29 52 30 54 30 55 31 57 31 58 32 61 36 67 97 69 37 71 96 72
REMARK H PARENT 95 82 89 84 91 86 94 88 88 89 56 98 59 100 92 103 57 104
REMARK H PARENT 93 106
REMARK Flexibility Score: inf
ROOT
ATOM      1  C   UNL A   1      36.997  23.056  25.204  1.00  0.00    -0.036 C 
ATOM      2  H   UNL A   1      37.384  22.771  26.159  1.00  0.00     0.028 H 
ATOM      3  H   UNL A   1      37.560  23.835  24.733  1.00  0.00     0.028 H 
ENDROOT
BRANCH   1   4
ATOM      4  C   UNL A   1      35.588  23.609  25.408  1.00  0.00     0.017 C 
ATOM      5  H   UNL A   1      35.215  23.267  26.351  1.00  0.00     0.049 H 
ATOM      6  H   UNL A   1      35.644  24.678  25.380  1.00  0.00     0.049 H 
BRANCH   4   7
ATOM      7  N   UNL A   1      34.683  23.181  24.364  1.00  0.00    -0.356 N 
ATOM      8  O   UNL A   1      33.560  21.639  25.639  1.00  0.00    -0.275 OA
ATOM      9  C   UNL A   1      33.721  22.225  24.573  1.00  0.00     0.220 C 
ATOM     10  H   UNL A   1      34.761  23.590  23.471  1.00  0.00     0.163 HD
BRANCH   9  11
ATOM     11  C   UNL A   1      32.851  21.949  23.365  1.00  0.00     0.027 C 
ATOM     12  H   UNL A   1      32.283  21.062  23.550  1.00  0.00     0.037 H 
ATOM     13  H   UNL A   1      33.502  21.841  22.522  1.00  0.00     0.037 H 
BRANCH  11  14
ATOM     14  C   UNL A   1      31.881  23.093  23.048  1.00  0.00    -0.036 C 
ATOM     15  H   UNL A   1      31.260  22.777  22.236  1.00  0.00     0.028 H 
ATOM     16  H   UNL A   1      32.500  23.938  22.829  1.00  0.00     0.028 H 
BRANCH  14  17
ATOM     17  C   UNL A   1      30.964  23.543  24.189  1.00  0.00     0.025 C 
ATOM     18  H   UNL A   1      31.275  23.057  25.091  1.00  0.00     0.037 H 
ATOM     19  H   UNL A   1      29.962  23.278  23.923  1.00  0.00     0.037 H 
BRANCH  17  20
ATOM     20  C   UNL A   1      30.997  25.012  24.406  1.00  0.00     0.195 A 
ATOM     21  N   UNL A   1      31.809  25.684  25.199  1.00  0.00    -0.213 NA
ATOM     22  O   UNL A   1      30.157  25.784  23.651  1.00  0.00    -0.440 OA
ATOM     23  C   UNL A   1      31.452  26.993  24.989  1.00  0.00     0.117 A 
ATOM     24  C   UNL A   1      30.479  27.066  24.013  1.00  0.00     0.162 A 
BRANCH  23  25
ATOM     25  C   UNL A   1      32.041  28.120  25.676  1.00  0.00     0.006 A 
ATOM     26  C   UNL A   1      33.274  27.985  26.321  1.00  0.00    -0.051 A 
ATOM     27  C   UNL A   1      31.395  29.364  25.673  1.00  0.00    -0.032 A 
ATOM     28  C   UNL A   1      33.873  29.093  26.927  1.00  0.00    -0.041 A 
ATOM     29  H   UNL A   1      33.742  27.065  26.351  1.00  0.00     0.063 H 
ATOM     30  C   UNL A   1      31.990  30.471  26.287  1.00  0.00     0.060 A 
ATOM     31  H   UNL A   1      30.475  29.463  25.217  1.00  0.00     0.065 H 
ATOM     32  C   UNL A   1      33.236  30.338  26.907  1.00  0.00     0.059 A 
ATOM     33  H   UNL A   1      34.790  28.992  27.390  1.00  0.00     0.064 H 
ATOM     34  Cl  UNL A   1      31.136  31.972  26.232  1.00  0.00    -0.083 Cl
ATOM     35  Cl  UNL A   1      34.044  31.668  27.658  1.00  0.00    -0.083 Cl
ENDBRANCH  23  25
BRANCH  24  36
ATOM     36  C   UNL A   1      29.821  28.144  23.305  1.00  0.00     0.020 A 
ATOM     37  C   UNL A   1      30.541  29.003  22.469  1.00  0.00    -0.051 A 
ATOM     38  C   UNL A   1      28.430  28.301  23.412  1.00  0.00    -0.051 A 
ATOM     39  C   UNL A   1      29.877  29.991  21.737  1.00  0.00    -0.062 A 
ATOM     40  H   UNL A   1      31.566  28.907  22.392  1.00  0.00     0.063 H 
ATOM     41  C   UNL A   1      27.770  29.294  22.689  1.00  0.00    -0.062 A 
ATOM     42  H   UNL A   1      27.892  27.675  24.033  1.00  0.00     0.063 H 
ATOM     43  C   UNL A   1      28.494  30.134  21.847  1.00  0.00    -0.062 A 
ATOM     44  H   UNL A   1      30.411  30.616  21.114  1.00  0.00     0.062 H 
ATOM     45  H   UNL A   1      26.748  29.404  22.778  1.00  0.00     0.062 H 
ATOM     46  H   UNL A   1      28.006  30.864  21.305  1.00  0.00     0.062 H 
ENDBRANCH  24  36
ENDBRANCH  17  20
ENDBRANCH  14  17
ENDBRANCH  11  14
ENDBRANCH   9  11
ENDBRANCH   4   7
ENDBRANCH   1   4
BRANCH   1  47
ATOM     47  C   UNL A   1      37.085  21.841  24.273  1.00  0.00    -0.052 C 
ATOM     48  H   UNL A   1      38.052  21.847  23.813  1.00  0.00     0.027 H 
ATOM     49  H   UNL A   1      36.278  21.943  23.579  1.00  0.00     0.027 H 
BRANCH  47  50
ATOM     50  C   UNL A   1      36.894  20.480  24.945  1.00  0.00    -0.052 C 
ATOM     51  H   UNL A   1      36.107  19.964  24.437  1.00  0.00     0.027 H 
ATOM     52  H   UNL A   1      36.670  20.678  25.973  1.00  0.00     0.027 H 
BRANCH  50  53
ATOM     53  C   UNL A   1      38.134  19.587  24.936  1.00  0.00    -0.036 C 
ATOM     54  H   UNL A   1      38.547  19.601  23.949  1.00  0.00     0.028 H 
ATOM     55  H   UNL A   1      37.811  18.615  25.241  1.00  0.00     0.028 H 
BRANCH  53  56
ATOM     56  C   UNL A   1      39.224  20.009  25.915  1.00  0.00     0.018 C 
ATOM     57  H   UNL A   1      38.807  20.042  26.899  1.00  0.00     0.049 H 
ATOM     58  H   UNL A   1      39.583  20.968  25.604  1.00  0.00     0.049 H 
BRANCH  56  59
ATOM     59  N   UNL A   1      40.357  19.096  25.918  1.00  0.00    -0.352 N 
ATOM     60  C   UNL A   1      41.691  19.382  26.056  1.00  0.00     0.251 C 
ATOM     61  H   UNL A   1      40.136  18.143  25.806  1.00  0.00     0.163 HD
ATOM     62  O   UNL A   1      42.537  18.507  25.876  1.00  0.00    -0.269 OA
BRANCH  60  63
ATOM     63  C   UNL A   1      42.114  20.755  26.398  1.00  0.00     0.039 A 
ATOM     64  C   UNL A   1      42.318  21.676  25.367  1.00  0.00    -0.049 A 
ATOM     65  C   UNL A   1      42.313  21.135  27.729  1.00  0.00    -0.049 A 
ATOM     66  C   UNL A   1      42.676  22.990  25.674  1.00  0.00    -0.053 A 
ATOM     67  H   UNL A   1      42.203  21.386  24.383  1.00  0.00     0.063 H 
ATOM     68  C   UNL A   1      42.590  22.464  28.037  1.00  0.00    -0.053 A 
ATOM     69  H   UNL A   1      42.254  20.431  28.481  1.00  0.00     0.063 H 
ATOM     70  C   UNL A   1      42.791  23.402  27.012  1.00  0.00    -0.014 A 
ATOM     71  H   UNL A   1      42.858  23.663  24.913  1.00  0.00     0.063 H 
ATOM     72  H   UNL A   1      42.649  22.760  29.023  1.00  0.00     0.063 H 
BRANCH  70  73
ATOM     73  C   UNL A   1      43.163  24.798  27.357  1.00  0.00     0.031 A 
ATOM     74  C   UNL A   1      44.575  25.272  27.140  1.00  0.00     0.074 A 
ATOM     75  C   UNL A   1      42.248  25.624  27.901  1.00  0.00     0.049 A 
ATOM     76  N   UNL A   1      45.117  26.427  27.436  1.00  0.00    -0.248 NA
ATOM     77  C   UNL A   1      45.510  24.311  26.533  1.00  0.00    -0.034 C 
ATOM     78  C   UNL A   1      40.859  25.271  28.200  1.00  0.00    -0.036 A 
ATOM     79  N   UNL A   1      42.352  26.931  28.307  1.00  0.00    -0.354 N 
ATOM     80  C   UNL A   1      46.449  26.328  27.053  1.00  0.00     0.074 A 
ATOM     81  C   UNL A   1      46.652  24.979  26.570  1.00  0.00    -0.034 C 
ATOM     82  H   UNL A   1      45.323  23.362  26.170  1.00  0.00     0.065 H 
ATOM     83  C   UNL A   1      40.237  26.339  28.727  1.00  0.00    -0.036 A 
ATOM     84  H   UNL A   1      40.428  24.348  28.035  1.00  0.00     0.065 H 
ATOM     85  C   UNL A   1      41.190  27.439  28.835  1.00  0.00     0.049 A 
ATOM     86  H   UNL A   1      43.182  27.456  28.227  1.00  0.00     0.167 HD
ATOM     87  C   UNL A   1      47.407  27.284  27.067  1.00  0.00     0.037 A 
ATOM     88  H   UNL A   1      47.567  24.590  26.293  1.00  0.00     0.065 H 
ATOM     89  H   UNL A   1      39.245  26.375  29.009  1.00  0.00     0.065 H 
ATOM     90  C   UNL A   1      40.928  28.654  29.355  1.00  0.00     0.037 A 
ATOM     91  C   UNL A   1      47.201  28.629  27.533  1.00  0.00     0.049 A 
ATOM     92  C   UNL A   1      42.018  29.694  29.372  1.00  0.00     0.074 A 
ATOM     93  C   UNL A   1      48.105  29.676  27.582  1.00  0.00    -0.036 A 
ATOM     94  N   UNL A   1      45.999  29.116  28.026  1.00  0.00    -0.354 N 
ATOM     95  N   UNL A   1      43.261  29.601  28.963  1.00  0.00    -0.248 NA
ATOM     96  C   UNL A   1      41.664  31.015  29.909  1.00  0.00    -0.034 C 
ATOM     97  C   UNL A   1      47.460  30.785  28.137  1.00  0.00    -0.036 A 
ATOM     98  H   UNL A   1      49.086  29.643  27.263  1.00  0.00     0.065 H 
ATOM     99  C   UNL A   1      46.139  30.447  28.381  1.00  0.00     0.049 A 
ATOM    100  H   UNL A   1      45.170  28.592  28.112  1.00  0.00     0.167 HD
ATOM    101  C   UNL A   1      43.819  30.859  29.151  1.00  0.00     0.074 A 
ATOM    102  C   UNL A   1      42.777  31.701  29.698  1.00  0.00    -0.034 C 
ATOM    103  H   UNL A   1      40.778  31.328  30.338  1.00  0.00     0.065 H 
ATOM    104  H   UNL A   1      47.896  31.701  28.331  1.00  0.00     0.065 H 
ATOM    105  C   UNL A   1      45.082  31.279  28.895  1.00  0.00     0.037 A 
ATOM    106  H   UNL A   1      42.888  32.707  29.898  1.00  0.00     0.065 H 
BRANCH  87 107
ATOM    107  C   UNL A   1      48.763  26.915  26.539  1.00  0.00     0.064 A 
ATOM    108  C   UNL A   1      49.747  26.365  27.378  1.00  0.00     0.173 A 
ATOM    109  C   UNL A   1      49.072  27.064  25.179  1.00  0.00     0.173 A 
ATOM    110  F   UNL A   1      49.508  26.213  28.688  1.00  0.00    -0.203 F 
ATOM    111  C   UNL A   1      50.994  26.000  26.878  1.00  0.00     0.198 A 
ATOM    112  C   UNL A   1      50.309  26.668  24.677  1.00  0.00     0.198 A 
ATOM    113  F   UNL A   1      48.168  27.579  24.333  1.00  0.00    -0.203 F 
ATOM    114  F   UNL A   1      51.932  25.520  27.707  1.00  0.00    -0.200 F 
ATOM    115  C   UNL A   1      51.271  26.143  25.527  1.00  0.00     0.200 A 
ATOM    116  F   UNL A   1      50.571  26.793  23.368  1.00  0.00    -0.200 F 
ATOM    117  F   UNL A   1      52.467  25.778  25.045  1.00  0.00    -0.200 F 
ENDBRANCH  87 107
BRANCH  90 118
ATOM    118  C   UNL A   1      39.576  28.967  29.893  1.00  0.00     0.064 A 
ATOM    119  C   UNL A   1      38.595  29.563  29.087  1.00  0.00     0.173 A 
ATOM    120  C   UNL A   1      39.252  28.720  31.235  1.00  0.00     0.173 A 
ATOM    121  F   UNL A   1      38.862  29.836  27.801  1.00  0.00    -0.203 F 
ATOM    122  C   UNL A   1      37.361  29.940  29.612  1.00  0.00     0.198 A 
ATOM    123  C   UNL A   1      38.004  29.066  31.750  1.00  0.00     0.198 A 
ATOM    124  F   UNL A   1      40.150  28.145  32.049  1.00  0.00    -0.203 F 
ATOM    125  F   UNL A   1      36.471  30.574  28.836  1.00  0.00    -0.200 F 
ATOM    126  C   UNL A   1      37.065  29.690  30.943  1.00  0.00     0.200 A 
ATOM    127  F   UNL A   1      37.716  28.806  33.033  1.00  0.00    -0.200 F 
ATOM    128  F   UNL A   1      35.882  30.060  31.450  1.00  0.00    -0.200 F 
ENDBRANCH  90 118
BRANCH 105 129
ATOM    129  C   UNL A   1      45.388  32.731  29.132  1.00  0.00     0.064 A 
ATOM    130  C   UNL A   1      45.907  33.192  30.351  1.00  0.00     0.173 A 
ATOM    131  C   UNL A   1      45.180  33.669  28.109  1.00  0.00     0.173 A 
ATOM    132  F   UNL A   1      46.113  32.338  31.364  1.00  0.00    -0.203 F 
ATOM    133  C   UNL A   1      46.170  34.545  30.549  1.00  0.00     0.198 A 
ATOM    134  C   UNL A   1      45.478  35.016  28.299  1.00  0.00     0.198 A 
ATOM    135  F   UNL A   1      44.695  33.280  26.921  1.00  0.00    -0.203 F 
ATOM    136  F   UNL A   1      46.608  34.972  31.741  1.00  0.00    -0.200 F 
ATOM    137  C   UNL A   1      45.961  35.454  29.522  1.00  0.00     0.200 A 
ATOM    138  F   UNL A   1      45.292  35.889  27.300  1.00  0.00    -0.200 F 
ATOM    139  F   UNL A   1      46.220  36.755  29.714  1.00  0.00    -0.200 F 
ENDBRANCH 105 129
ENDBRANCH  70  73
ENDBRANCH  60  63
ENDBRANCH  56  59
ENDBRANCH  53  56
ENDBRANCH  50  53
ENDBRANCH  47  50
ENDBRANCH   1  47
TORSDOF 18
ENDMDL
MODEL 8
REMARK VINA RESULT:     -11.7      6.035     11.684
REMARK SMILES O=C(CCCc1nc(-c2ccc(Cl)c(Cl)c2)c(-c2ccccc2)o1)NCCCCCCNC(=O)c1ccc(-c2c3nc(c(-c4c(F)c(F)c(F)c(F)c4F)c4ccc([nH]4)c(-c4c(F)c(F)c(F)c(F)c4F)c4nc(c(-c5c(F)c(F)c(F)c(F)c5F)c5ccc2[nH]5)C=C4)C=C3)cc1
REMARK SMILES IDX 27 1 26 4 25 7 1 8 2 9 3 11 4 14 5 17 6 20 7 21 24 22 8 23
REMARK SMILES IDX 17 24 9 25 10 26 16 27 11 28 14 30 12 32 15 34 13 35 18 36
REMARK SMILES IDX 19 37 23 38 20 39 22 41 21 43 28 47 29 50 30 53 31 56 32 59
REMARK SMILES IDX 33 60 34 62 35 63 36 64 97 65 37 66 96 68 38 70 39 73 40 74
REMARK SMILES IDX 90 75 41 76 95 77 89 78 91 79 42 80 94 81 88 83 87 85 43 87
REMARK SMILES IDX 75 90 55 91 74 92 56 93 59 94 73 95 92 96 57 97 58 99 72 101
REMARK SMILES IDX 93 102 60 105 44 107 45 108 53 109 46 110 47 111 51 112
REMARK SMILES IDX 54 113 48 114 49 115 52 116 50 117 76 118 77 119 85 120
REMARK SMILES IDX 78 121 79 122 83 123 86 124 80 125 81 126 84 127 82 128
REMARK SMILES IDX 61 129 62 130 70 131 63 132 64 133 68 134 71 135 65 136
REMARK SMILES IDX 66 137 69 138 67 139
REMARK H PARENT 27 2 27 3 26 5 26 6 25 10 3 12 3 13 4 15 4 16 5 18 5 19 10 29
REMARK H PARENT 16 31 11 33 19 40 23 42 20 44 22 45 21 46 28 48 28 49 29 51
REMARK H PARENT 29 52 30 54 30 55 31 57 31 58 32 61 36 67 97 69 37 71 96 72
REMARK H PARENT 95 82 89 84 91 86 94 88 88 89 56 98 59 100 92 103 57 104
REMARK H PARENT 93 106
REMARK Flexibility Score: inf
ROOT
ATOM      1  C   UNL A   1      32.745  28.560  27.204  1.00  0.00    -0.036 C 
ATOM      2  H   UNL A   1      33.405  28.250  26.422  1.00  0.00     0.028 H 
ATOM      3  H   UNL A   1      33.067  28.254  28.177  1.00  0.00     0.028 H 
ENDROOT
BRANCH   1   4
ATOM      4  C   UNL A   1      31.389  27.897  26.972  1.00  0.00     0.017 C 
ATOM      5  H   UNL A   1      31.113  27.357  27.854  1.00  0.00     0.049 H 
ATOM      6  H   UNL A   1      30.677  28.665  26.751  1.00  0.00     0.049 H 
BRANCH   4   7
ATOM      7  N   UNL A   1      31.420  26.981  25.853  1.00  0.00    -0.356 N 
ATOM      8  O   UNL A   1      30.566  28.454  24.315  1.00  0.00    -0.275 OA
ATOM      9  C   UNL A   1      31.011  27.345  24.594  1.00  0.00     0.220 C 
ATOM     10  H   UNL A   1      31.746  26.063  26.000  1.00  0.00     0.163 HD
BRANCH   9  11
ATOM     11  C   UNL A   1      31.161  26.254  23.556  1.00  0.00     0.027 C 
ATOM     12  H   UNL A   1      30.189  25.985  23.202  1.00  0.00     0.037 H 
ATOM     13  H   UNL A   1      31.659  25.433  24.028  1.00  0.00     0.037 H 
BRANCH  11  14
ATOM     14  C   UNL A   1      32.017  26.678  22.356  1.00  0.00    -0.036 C 
ATOM     15  H   UNL A   1      32.799  27.310  22.722  1.00  0.00     0.028 H 
ATOM     16  H   UNL A   1      31.340  27.157  21.679  1.00  0.00     0.028 H 
BRANCH  14  17
ATOM     17  C   UNL A   1      32.667  25.548  21.552  1.00  0.00     0.025 C 
ATOM     18  H   UNL A   1      33.514  25.942  21.029  1.00  0.00     0.037 H 
ATOM     19  H   UNL A   1      31.929  25.164  20.879  1.00  0.00     0.037 H 
BRANCH  17  20
ATOM     20  C   UNL A   1      33.121  24.422  22.409  1.00  0.00     0.195 A 
ATOM     21  N   UNL A   1      32.543  23.245  22.554  1.00  0.00    -0.213 NA
ATOM     22  O   UNL A   1      34.310  24.566  23.070  1.00  0.00    -0.440 OA
ATOM     23  C   UNL A   1      33.385  22.576  23.406  1.00  0.00     0.117 A 
ATOM     24  C   UNL A   1      34.488  23.356  23.689  1.00  0.00     0.162 A 
BRANCH  23  25
ATOM     25  C   UNL A   1      33.151  21.239  23.902  1.00  0.00     0.006 A 
ATOM     26  C   UNL A   1      33.216  20.975  25.273  1.00  0.00    -0.051 A 
ATOM     27  C   UNL A   1      32.826  20.204  23.014  1.00  0.00    -0.032 A 
ATOM     28  C   UNL A   1      32.923  19.697  25.756  1.00  0.00    -0.041 A 
ATOM     29  H   UNL A   1      33.482  21.726  25.930  1.00  0.00     0.063 H 
ATOM     30  C   UNL A   1      32.542  18.922  23.495  1.00  0.00     0.060 A 
ATOM     31  H   UNL A   1      32.797  20.389  21.999  1.00  0.00     0.065 H 
ATOM     32  C   UNL A   1      32.581  18.669  24.869  1.00  0.00     0.059 A 
ATOM     33  H   UNL A   1      32.959  19.509  26.770  1.00  0.00     0.064 H 
ATOM     34  Cl  UNL A   1      32.140  17.703  22.338  1.00  0.00    -0.083 Cl
ATOM     35  Cl  UNL A   1      32.212  17.119  25.537  1.00  0.00    -0.083 Cl
ENDBRANCH  23  25
BRANCH  24  36
ATOM     36  C   UNL A   1      35.730  23.150  24.404  1.00  0.00     0.020 A 
ATOM     37  C   UNL A   1      36.149  24.045  25.393  1.00  0.00    -0.051 A 
ATOM     38  C   UNL A   1      36.503  22.008  24.143  1.00  0.00    -0.051 A 
ATOM     39  C   UNL A   1      37.313  23.790  26.123  1.00  0.00    -0.062 A 
ATOM     40  H   UNL A   1      35.598  24.895  25.586  1.00  0.00     0.063 H 
ATOM     41  C   UNL A   1      37.670  21.760  24.864  1.00  0.00    -0.062 A 
ATOM     42  H   UNL A   1      36.204  21.346  23.408  1.00  0.00     0.063 H 
ATOM     43  C   UNL A   1      38.070  22.648  25.859  1.00  0.00    -0.062 A 
ATOM     44  H   UNL A   1      37.614  24.448  26.859  1.00  0.00     0.062 H 
ATOM     45  H   UNL A   1      38.233  20.920  24.663  1.00  0.00     0.062 H 
ATOM     46  H   UNL A   1      38.929  22.463  26.400  1.00  0.00     0.062 H 
ENDBRANCH  24  36
ENDBRANCH  17  20
ENDBRANCH  14  17
ENDBRANCH  11  14
ENDBRANCH   9  11
ENDBRANCH   4   7
ENDBRANCH   1   4
BRANCH   1  47
ATOM     47  C   UNL A   1      32.719  30.093  27.224  1.00  0.00    -0.052 C 
ATOM     48  H   UNL A   1      33.610  30.444  26.745  1.00  0.00     0.027 H 
ATOM     49  H   UNL A   1      32.646  30.372  28.254  1.00  0.00     0.027 H 
BRANCH  47  50
ATOM     50  C   UNL A   1      31.522  30.741  26.526  1.00  0.00    -0.052 C 
ATOM     51  H   UNL A   1      30.631  30.281  26.896  1.00  0.00     0.027 H 
ATOM     52  H   UNL A   1      31.666  30.594  25.476  1.00  0.00     0.027 H 
BRANCH  50  53
ATOM     53  C   UNL A   1      31.404  32.251  26.740  1.00  0.00    -0.036 C 
ATOM     54  H   UNL A   1      30.729  32.420  27.553  1.00  0.00     0.028 H 
ATOM     55  H   UNL A   1      31.057  32.662  25.816  1.00  0.00     0.028 H 
BRANCH  53  56
ATOM     56  C   UNL A   1      32.720  32.949  27.059  1.00  0.00     0.018 C 
ATOM     57  H   UNL A   1      33.287  33.041  26.157  1.00  0.00     0.049 H 
ATOM     58  H   UNL A   1      33.232  32.357  27.790  1.00  0.00     0.049 H 
BRANCH  56  59
ATOM     59  N   UNL A   1      32.527  34.275  27.626  1.00  0.00    -0.352 N 
ATOM     60  C   UNL A   1      33.155  34.851  28.701  1.00  0.00     0.251 C 
ATOM     61  H   UNL A   1      31.853  34.836  27.176  1.00  0.00     0.163 HD
ATOM     62  O   UNL A   1      32.760  35.925  29.150  1.00  0.00    -0.269 OA
BRANCH  60  63
ATOM     63  C   UNL A   1      34.296  34.162  29.337  1.00  0.00     0.039 A 
ATOM     64  C   UNL A   1      34.042  33.169  30.286  1.00  0.00    -0.049 A 
ATOM     65  C   UNL A   1      35.612  34.495  29.003  1.00  0.00    -0.049 A 
ATOM     66  C   UNL A   1      35.108  32.477  30.866  1.00  0.00    -0.053 A 
ATOM     67  H   UNL A   1      33.071  32.946  30.557  1.00  0.00     0.063 H 
ATOM     68  C   UNL A   1      36.668  33.750  29.521  1.00  0.00    -0.053 A 
ATOM     69  H   UNL A   1      35.800  35.291  28.374  1.00  0.00     0.063 H 
ATOM     70  C   UNL A   1      36.428  32.745  30.470  1.00  0.00    -0.014 A 
ATOM     71  H   UNL A   1      34.924  31.765  31.590  1.00  0.00     0.063 H 
ATOM     72  H   UNL A   1      37.632  33.939  29.207  1.00  0.00     0.063 H 
BRANCH  70  73
ATOM     73  C   UNL A   1      37.573  32.013  31.070  1.00  0.00     0.031 A 
ATOM     74  C   UNL A   1      38.018  32.338  32.471  1.00  0.00     0.074 A 
ATOM     75  C   UNL A   1      38.237  31.090  30.347  1.00  0.00     0.049 A 
ATOM     76  N   UNL A   1      39.033  31.864  33.151  1.00  0.00    -0.248 NA
ATOM     77  C   UNL A   1      37.234  33.352  33.196  1.00  0.00    -0.034 C 
ATOM     78  C   UNL A   1      37.930  30.716  28.966  1.00  0.00    -0.036 A 
ATOM     79  N   UNL A   1      39.313  30.303  30.672  1.00  0.00    -0.354 N 
ATOM     80  C   UNL A   1      39.005  32.519  34.376  1.00  0.00     0.074 A 
ATOM     81  C   UNL A   1      37.921  33.476  34.321  1.00  0.00    -0.034 C 
ATOM     82  H   UNL A   1      36.371  33.837  32.904  1.00  0.00     0.065 H 
ATOM     83  C   UNL A   1      38.788  29.762  28.568  1.00  0.00    -0.036 A 
ATOM     84  H   UNL A   1      37.177  31.122  28.389  1.00  0.00     0.065 H 
ATOM     85  C   UNL A   1      39.726  29.482  29.651  1.00  0.00     0.049 A 
ATOM     86  H   UNL A   1      39.750  30.326  31.555  1.00  0.00     0.167 HD
ATOM     87  C   UNL A   1      39.789  32.318  35.461  1.00  0.00     0.037 A 
ATOM     88  H   UNL A   1      37.713  34.165  35.061  1.00  0.00     0.065 H 
ATOM     89  H   UNL A   1      38.784  29.301  27.645  1.00  0.00     0.065 H 
ATOM     90  C   UNL A   1      40.750  28.609  29.595  1.00  0.00     0.037 A 
ATOM     91  C   UNL A   1      40.858  31.357  35.520  1.00  0.00     0.049 A 
ATOM     92  C   UNL A   1      41.616  28.416  30.813  1.00  0.00     0.074 A 
ATOM     93  C   UNL A   1      41.705  31.070  36.576  1.00  0.00    -0.036 A 
ATOM     94  N   UNL A   1      41.220  30.517  34.477  1.00  0.00    -0.354 N 
ATOM     95  N   UNL A   1      41.550  29.009  31.981  1.00  0.00    -0.248 NA
ATOM     96  C   UNL A   1      42.690  27.419  30.711  1.00  0.00    -0.034 C 
ATOM     97  C   UNL A   1      42.603  30.083  36.160  1.00  0.00    -0.036 A 
ATOM     98  H   UNL A   1      41.680  31.510  37.509  1.00  0.00     0.065 H 
ATOM     99  C   UNL A   1      42.279  29.713  34.864  1.00  0.00     0.049 A 
ATOM    100  H   UNL A   1      40.789  30.497  33.592  1.00  0.00     0.167 HD
ATOM    101  C   UNL A   1      42.539  28.427  32.761  1.00  0.00     0.074 A 
ATOM    102  C   UNL A   1      43.183  27.424  31.940  1.00  0.00    -0.034 C 
ATOM    103  H   UNL A   1      42.983  26.859  29.894  1.00  0.00     0.065 H 
ATOM    104  H   UNL A   1      43.377  29.694  36.723  1.00  0.00     0.065 H 
ATOM    105  C   UNL A   1      42.887  28.698  34.043  1.00  0.00     0.037 A 
ATOM    106  H   UNL A   1      43.930  26.794  32.269  1.00  0.00     0.065 H 
BRANCH  87 107
ATOM    107  C   UNL A   1      39.504  33.140  36.685  1.00  0.00     0.064 A 
ATOM    108  C   UNL A   1      38.593  32.703  37.661  1.00  0.00     0.173 A 
ATOM    109  C   UNL A   1      40.177  34.349  36.913  1.00  0.00     0.173 A 
ATOM    110  F   UNL A   1      37.913  31.561  37.486  1.00  0.00    -0.203 F 
ATOM    111  C   UNL A   1      38.352  33.456  38.806  1.00  0.00     0.198 A 
ATOM    112  C   UNL A   1      39.957  35.083  38.076  1.00  0.00     0.198 A 
ATOM    113  F   UNL A   1      41.061  34.811  36.016  1.00  0.00    -0.203 F 
ATOM    114  F   UNL A   1      37.445  33.041  39.701  1.00  0.00    -0.200 F 
ATOM    115  C   UNL A   1      39.041  34.641  39.017  1.00  0.00     0.200 A 
ATOM    116  F   UNL A   1      40.635  36.222  38.286  1.00  0.00    -0.200 F 
ATOM    117  F   UNL A   1      38.818  35.358  40.128  1.00  0.00    -0.200 F 
ENDBRANCH  87 107
BRANCH  90 118
ATOM    118  C   UNL A   1      41.014  27.837  28.350  1.00  0.00     0.064 A 
ATOM    119  C   UNL A   1      40.534  26.528  28.195  1.00  0.00     0.173 A 
ATOM    120  C   UNL A   1      41.789  28.372  27.312  1.00  0.00     0.173 A 
ATOM    121  F   UNL A   1      39.802  25.963  29.167  1.00  0.00    -0.203 F 
ATOM    122  C   UNL A   1      40.855  25.770  27.071  1.00  0.00     0.198 A 
ATOM    123  C   UNL A   1      42.081  27.625  26.172  1.00  0.00     0.198 A 
ATOM    124  F   UNL A   1      42.267  29.622  27.406  1.00  0.00    -0.203 F 
ATOM    125  F   UNL A   1      40.444  24.499  26.982  1.00  0.00    -0.200 F 
ATOM    126  C   UNL A   1      41.628  26.321  26.059  1.00  0.00     0.200 A 
ATOM    127  F   UNL A   1      42.814  28.167  25.189  1.00  0.00    -0.200 F 
ATOM    128  F   UNL A   1      41.944  25.590  24.982  1.00  0.00    -0.200 F 
ENDBRANCH  90 118
BRANCH 105 129
ATOM    129  C   UNL A   1      43.960  27.849  34.662  1.00  0.00     0.064 A 
ATOM    130  C   UNL A   1      45.303  28.254  34.693  1.00  0.00     0.173 A 
ATOM    131  C   UNL A   1      43.631  26.621  35.256  1.00  0.00     0.173 A 
ATOM    132  F   UNL A   1      45.672  29.414  34.129  1.00  0.00    -0.203 F 
ATOM    133  C   UNL A   1      46.281  27.443  35.262  1.00  0.00     0.198 A 
ATOM    134  C   UNL A   1      44.606  25.829  35.855  1.00  0.00     0.198 A 
ATOM    135  F   UNL A   1      42.360  26.191  35.263  1.00  0.00    -0.203 F 
ATOM    136  F   UNL A   1      47.566  27.822  35.227  1.00  0.00    -0.200 F 
ATOM    137  C   UNL A   1      45.932  26.235  35.848  1.00  0.00     0.200 A 
ATOM    138  F   UNL A   1      44.263  24.670  36.436  1.00  0.00    -0.200 F 
ATOM    139  F   UNL A   1      46.875  25.458  36.399  1.00  0.00    -0.200 F 
ENDBRANCH 105 129
ENDBRANCH  70  73
ENDBRANCH  60  63
ENDBRANCH  56  59
ENDBRANCH  53  56
ENDBRANCH  50  53
ENDBRANCH  47  50
ENDBRANCH   1  47
TORSDOF 18
ENDMDL
MODEL 9
REMARK VINA RESULT:     -11.6      6.172     10.989
REMARK SMILES O=C(CCCc1nc(-c2ccc(Cl)c(Cl)c2)c(-c2ccccc2)o1)NCCCCCCNC(=O)c1ccc(-c2c3nc(c(-c4c(F)c(F)c(F)c(F)c4F)c4ccc([nH]4)c(-c4c(F)c(F)c(F)c(F)c4F)c4nc(c(-c5c(F)c(F)c(F)c(F)c5F)c5ccc2[nH]5)C=C4)C=C3)cc1
REMARK SMILES IDX 27 1 26 4 25 7 1 8 2 9 3 11 4 14 5 17 6 20 7 21 24 22 8 23
REMARK SMILES IDX 17 24 9 25 10 26 16 27 11 28 14 30 12 32 15 34 13 35 18 36
REMARK SMILES IDX 19 37 23 38 20 39 22 41 21 43 28 47 29 50 30 53 31 56 32 59
REMARK SMILES IDX 33 60 34 62 35 63 36 64 97 65 37 66 96 68 38 70 39 73 40 74
REMARK SMILES IDX 90 75 41 76 95 77 89 78 91 79 42 80 94 81 88 83 87 85 43 87
REMARK SMILES IDX 75 90 55 91 74 92 56 93 59 94 73 95 92 96 57 97 58 99 72 101
REMARK SMILES IDX 93 102 60 105 44 107 45 108 53 109 46 110 47 111 51 112
REMARK SMILES IDX 54 113 48 114 49 115 52 116 50 117 76 118 77 119 85 120
REMARK SMILES IDX 78 121 79 122 83 123 86 124 80 125 81 126 84 127 82 128
REMARK SMILES IDX 61 129 62 130 70 131 63 132 64 133 68 134 71 135 65 136
REMARK SMILES IDX 66 137 69 138 67 139
REMARK H PARENT 27 2 27 3 26 5 26 6 25 10 3 12 3 13 4 15 4 16 5 18 5 19 10 29
REMARK H PARENT 16 31 11 33 19 40 23 42 20 44 22 45 21 46 28 48 28 49 29 51
REMARK H PARENT 29 52 30 54 30 55 31 57 31 58 32 61 36 67 97 69 37 71 96 72
REMARK H PARENT 95 82 89 84 91 86 94 88 88 89 56 98 59 100 92 103 57 104
REMARK H PARENT 93 106
REMARK Flexibility Score: inf
ROOT
ATOM      1  C   UNL A   1      32.783  28.592  26.826  1.00  0.00    -0.036 C 
ATOM      2  H   UNL A   1      33.283  28.431  25.894  1.00  0.00     0.028 H 
ATOM      3  H   UNL A   1      33.315  28.197  27.666  1.00  0.00     0.028 H 
ENDROOT
BRANCH   1   4
ATOM      4  C   UNL A   1      31.445  27.857  26.781  1.00  0.00     0.017 C 
ATOM      5  H   UNL A   1      31.326  27.299  27.687  1.00  0.00     0.049 H 
ATOM      6  H   UNL A   1      30.669  28.586  26.672  1.00  0.00     0.049 H 
BRANCH   4   7
ATOM      7  N   UNL A   1      31.366  26.948  25.658  1.00  0.00    -0.356 N 
ATOM      8  O   UNL A   1      30.516  28.478  24.173  1.00  0.00    -0.275 OA
ATOM      9  C   UNL A   1      30.912  27.344  24.424  1.00  0.00     0.220 C 
ATOM     10  H   UNL A   1      31.647  26.013  25.783  1.00  0.00     0.163 HD
BRANCH   9  11
ATOM     11  C   UNL A   1      30.946  26.253  23.374  1.00  0.00     0.027 C 
ATOM     12  H   UNL A   1      29.941  26.009  23.105  1.00  0.00     0.037 H 
ATOM     13  H   UNL A   1      31.463  25.418  23.800  1.00  0.00     0.037 H 
BRANCH  11  14
ATOM     14  C   UNL A   1      31.706  26.661  22.107  1.00  0.00    -0.036 C 
ATOM     15  H   UNL A   1      32.459  27.365  22.392  1.00  0.00     0.028 H 
ATOM     16  H   UNL A   1      30.962  27.052  21.443  1.00  0.00     0.028 H 
BRANCH  14  17
ATOM     17  C   UNL A   1      32.391  25.531  21.332  1.00  0.00     0.025 C 
ATOM     18  H   UNL A   1      33.224  25.938  20.797  1.00  0.00     0.037 H 
ATOM     19  H   UNL A   1      31.665  25.106  20.670  1.00  0.00     0.037 H 
BRANCH  17  20
ATOM     20  C   UNL A   1      32.881  24.445  22.218  1.00  0.00     0.195 A 
ATOM     21  N   UNL A   1      32.352  23.247  22.381  1.00  0.00    -0.213 NA
ATOM     22  O   UNL A   1      34.055  24.652  22.888  1.00  0.00    -0.440 OA
ATOM     23  C   UNL A   1      33.212  22.633  23.257  1.00  0.00     0.117 A 
ATOM     24  C   UNL A   1      34.277  23.465  23.535  1.00  0.00     0.162 A 
BRANCH  23  25
ATOM     25  C   UNL A   1      33.028  21.297  23.779  1.00  0.00     0.006 A 
ATOM     26  C   UNL A   1      33.132  21.058  25.152  1.00  0.00    -0.051 A 
ATOM     27  C   UNL A   1      32.715  20.239  22.914  1.00  0.00    -0.032 A 
ATOM     28  C   UNL A   1      32.887  19.779  25.661  1.00  0.00    -0.041 A 
ATOM     29  H   UNL A   1      33.389  21.827  25.791  1.00  0.00     0.063 H 
ATOM     30  C   UNL A   1      32.480  18.957  23.422  1.00  0.00     0.060 A 
ATOM     31  H   UNL A   1      32.659  20.407  21.898  1.00  0.00     0.065 H 
ATOM     32  C   UNL A   1      32.557  18.728  24.799  1.00  0.00     0.059 A 
ATOM     33  H   UNL A   1      32.951  19.609  26.677  1.00  0.00     0.064 H 
ATOM     34  Cl  UNL A   1      32.090  17.708  22.293  1.00  0.00    -0.083 Cl
ATOM     35  Cl  UNL A   1      32.249  17.179  25.499  1.00  0.00    -0.083 Cl
ENDBRANCH  23  25
BRANCH  24  36
ATOM     36  C   UNL A   1      35.518  23.327  24.269  1.00  0.00     0.020 A 
ATOM     37  C   UNL A   1      35.784  24.119  25.389  1.00  0.00    -0.051 A 
ATOM     38  C   UNL A   1      36.448  22.348  23.886  1.00  0.00    -0.051 A 
ATOM     39  C   UNL A   1      36.955  23.920  26.127  1.00  0.00    -0.062 A 
ATOM     40  H   UNL A   1      35.116  24.852  25.673  1.00  0.00     0.063 H 
ATOM     41  C   UNL A   1      37.620  22.158  24.617  1.00  0.00    -0.062 A 
ATOM     42  H   UNL A   1      36.261  21.764  23.055  1.00  0.00     0.063 H 
ATOM     43  C   UNL A   1      37.869  22.940  25.741  1.00  0.00    -0.062 A 
ATOM     44  H   UNL A   1      37.143  24.501  26.959  1.00  0.00     0.062 H 
ATOM     45  H   UNL A   1      38.299  21.438  24.326  1.00  0.00     0.062 H 
ATOM     46  H   UNL A   1      38.732  22.796  26.289  1.00  0.00     0.062 H 
ENDBRANCH  24  36
ENDBRANCH  17  20
ENDBRANCH  14  17
ENDBRANCH  11  14
ENDBRANCH   9  11
ENDBRANCH   4   7
ENDBRANCH   1   4
BRANCH   1  47
ATOM     47  C   UNL A   1      32.681  30.105  27.057  1.00  0.00    -0.052 C 
ATOM     48  H   UNL A   1      33.601  30.550  26.735  1.00  0.00     0.027 H 
ATOM     49  H   UNL A   1      32.483  30.230  28.100  1.00  0.00     0.027 H 
BRANCH  47  50
ATOM     50  C   UNL A   1      31.537  30.807  26.324  1.00  0.00    -0.052 C 
ATOM     51  H   UNL A   1      30.620  30.331  26.601  1.00  0.00     0.027 H 
ATOM     52  H   UNL A   1      31.752  30.728  25.278  1.00  0.00     0.027 H 
BRANCH  50  53
ATOM     53  C   UNL A   1      31.410  32.300  26.628  1.00  0.00    -0.036 C 
ATOM     54  H   UNL A   1      30.560  32.439  27.264  1.00  0.00     0.028 H 
ATOM     55  H   UNL A   1      31.313  32.795  25.686  1.00  0.00     0.028 H 
BRANCH  53  56
ATOM     56  C   UNL A   1      32.625  32.911  27.317  1.00  0.00     0.018 C 
ATOM     57  H   UNL A   1      33.455  32.873  26.644  1.00  0.00     0.049 H 
ATOM     58  H   UNL A   1      32.810  32.345  28.207  1.00  0.00     0.049 H 
BRANCH  56  59
ATOM     59  N   UNL A   1      32.408  34.293  27.713  1.00  0.00    -0.352 N 
ATOM     60  C   UNL A   1      33.040  35.017  28.692  1.00  0.00     0.251 C 
ATOM     61  H   UNL A   1      31.711  34.776  27.210  1.00  0.00     0.163 HD
ATOM     62  O   UNL A   1      32.625  36.131  29.008  1.00  0.00    -0.269 OA
BRANCH  60  63
ATOM     63  C   UNL A   1      34.210  34.443  29.387  1.00  0.00     0.039 A 
ATOM     64  C   UNL A   1      34.012  33.745  30.580  1.00  0.00    -0.049 A 
ATOM     65  C   UNL A   1      35.499  34.592  28.866  1.00  0.00    -0.049 A 
ATOM     66  C   UNL A   1      35.101  33.159  31.229  1.00  0.00    -0.053 A 
ATOM     67  H   UNL A   1      33.064  33.663  30.982  1.00  0.00     0.063 H 
ATOM     68  C   UNL A   1      36.570  33.940  29.469  1.00  0.00    -0.053 A 
ATOM     69  H   UNL A   1      35.655  35.186  28.037  1.00  0.00     0.063 H 
ATOM     70  C   UNL A   1      36.385  33.230  30.665  1.00  0.00    -0.014 A 
ATOM     71  H   UNL A   1      34.961  32.670  32.127  1.00  0.00     0.063 H 
ATOM     72  H   UNL A   1      37.505  33.979  29.034  1.00  0.00     0.063 H 
BRANCH  70  73
ATOM     73  C   UNL A   1      37.554  32.605  31.336  1.00  0.00     0.031 A 
ATOM     74  C   UNL A   1      38.298  31.486  30.657  1.00  0.00     0.074 A 
ATOM     75  C   UNL A   1      37.922  33.012  32.566  1.00  0.00     0.049 A 
ATOM     76  N   UNL A   1      39.298  30.765  31.098  1.00  0.00    -0.248 NA
ATOM     77  C   UNL A   1      37.838  31.108  29.310  1.00  0.00    -0.034 C 
ATOM     78  C   UNL A   1      37.257  34.056  33.347  1.00  0.00    -0.036 A 
ATOM     79  N   UNL A   1      38.943  32.589  33.381  1.00  0.00    -0.354 N 
ATOM     80  C   UNL A   1      39.583  29.856  30.088  1.00  0.00     0.074 A 
ATOM     81  C   UNL A   1      38.607  30.064  29.041  1.00  0.00    -0.034 C 
ATOM     82  H   UNL A   1      37.107  31.544  28.726  1.00  0.00     0.065 H 
ATOM     83  C   UNL A   1      37.897  34.203  34.519  1.00  0.00    -0.036 A 
ATOM     84  H   UNL A   1      36.428  34.593  33.046  1.00  0.00     0.065 H 
ATOM     85  C   UNL A   1      38.992  33.242  34.588  1.00  0.00     0.049 A 
ATOM     86  H   UNL A   1      39.581  31.883  33.123  1.00  0.00     0.167 HD
ATOM     87  C   UNL A   1      40.590  28.952  30.021  1.00  0.00     0.037 A 
ATOM     88  H   UNL A   1      38.521  29.476  28.198  1.00  0.00     0.065 H 
ATOM     89  H   UNL A   1      37.652  34.887  35.253  1.00  0.00     0.065 H 
ATOM     90  C   UNL A   1      39.824  33.075  35.635  1.00  0.00     0.037 A 
ATOM     91  C   UNL A   1      41.570  28.755  31.056  1.00  0.00     0.049 A 
ATOM     92  C   UNL A   1      40.926  32.052  35.539  1.00  0.00     0.074 A 
ATOM     93  C   UNL A   1      42.634  27.871  31.082  1.00  0.00    -0.036 A 
ATOM     94  N   UNL A   1      41.608  29.462  32.249  1.00  0.00    -0.354 N 
ATOM     95  N   UNL A   1      41.213  31.230  34.559  1.00  0.00    -0.248 NA
ATOM     96  C   UNL A   1      41.831  31.944  36.692  1.00  0.00    -0.034 C 
ATOM     97  C   UNL A   1      43.295  28.019  32.306  1.00  0.00    -0.036 A 
ATOM     98  H   UNL A   1      42.895  27.216  30.329  1.00  0.00     0.065 H 
ATOM     99  C   UNL A   1      42.677  29.034  33.018  1.00  0.00     0.049 A 
ATOM    100  H   UNL A   1      40.969  30.164  32.511  1.00  0.00     0.167 HD
ATOM    101  C   UNL A   1      42.353  30.544  34.957  1.00  0.00     0.074 A 
ATOM    102  C   UNL A   1      42.713  31.055  36.262  1.00  0.00    -0.034 C 
ATOM    103  H   UNL A   1      41.791  32.435  37.600  1.00  0.00     0.065 H 
ATOM    104  H   UNL A   1      44.107  27.465  32.624  1.00  0.00     0.065 H 
ATOM    105  C   UNL A   1      43.039  29.576  34.302  1.00  0.00     0.037 A 
ATOM    106  H   UNL A   1      43.550  30.763  36.790  1.00  0.00     0.065 H 
BRANCH  87 107
ATOM    107  C   UNL A   1      40.696  28.122  28.775  1.00  0.00     0.064 A 
ATOM    108  C   UNL A   1      41.437  28.562  27.666  1.00  0.00     0.173 A 
ATOM    109  C   UNL A   1      40.095  26.857  28.700  1.00  0.00     0.173 A 
ATOM    110  F   UNL A   1      42.021  29.770  27.682  1.00  0.00    -0.203 F 
ATOM    111  C   UNL A   1      41.554  27.777  26.523  1.00  0.00     0.198 A 
ATOM    112  C   UNL A   1      40.242  26.061  27.567  1.00  0.00     0.198 A 
ATOM    113  F   UNL A   1      39.379  26.385  29.732  1.00  0.00    -0.203 F 
ATOM    114  F   UNL A   1      42.229  28.239  25.461  1.00  0.00    -0.200 F 
ATOM    115  C   UNL A   1      40.964  26.524  26.478  1.00  0.00     0.200 A 
ATOM    116  F   UNL A   1      39.683  24.842  27.529  1.00  0.00    -0.200 F 
ATOM    117  F   UNL A   1      41.089  25.762  25.381  1.00  0.00    -0.200 F 
ENDBRANCH  87 107
BRANCH  90 118
ATOM    118  C   UNL A   1      39.664  33.901  36.863  1.00  0.00     0.064 A 
ATOM    119  C   UNL A   1      38.886  33.452  37.941  1.00  0.00     0.173 A 
ATOM    120  C   UNL A   1      40.244  35.173  36.966  1.00  0.00     0.173 A 
ATOM    121  F   UNL A   1      38.294  32.249  37.884  1.00  0.00    -0.203 F 
ATOM    122  C   UNL A   1      38.660  34.260  39.053  1.00  0.00     0.198 A 
ATOM    123  C   UNL A   1      40.046  35.966  38.094  1.00  0.00     0.198 A 
ATOM    124  F   UNL A   1      41.003  35.649  35.967  1.00  0.00    -0.203 F 
ATOM    125  F   UNL A   1      37.854  33.834  40.035  1.00  0.00    -0.200 F 
ATOM    126  C   UNL A   1      39.242  35.516  39.130  1.00  0.00     0.200 A 
ATOM    127  F   UNL A   1      40.623  37.173  38.172  1.00  0.00    -0.200 F 
ATOM    128  F   UNL A   1      39.017  36.297  40.195  1.00  0.00    -0.200 F 
ENDBRANCH  90 118
BRANCH 105 129
ATOM    129  C   UNL A   1      44.292  29.060  34.950  1.00  0.00     0.064 A 
ATOM    130  C   UNL A   1      45.547  29.639  34.711  1.00  0.00     0.173 A 
ATOM    131  C   UNL A   1      44.227  27.982  35.848  1.00  0.00     0.173 A 
ATOM    132  F   UNL A   1      45.665  30.664  33.853  1.00  0.00    -0.203 F 
ATOM    133  C   UNL A   1      46.695  29.134  35.316  1.00  0.00     0.198 A 
ATOM    134  C   UNL A   1      45.372  27.503  36.478  1.00  0.00     0.198 A 
ATOM    135  F   UNL A   1      43.051  27.398  36.120  1.00  0.00    -0.203 F 
ATOM    136  F   UNL A   1      47.891  29.664  35.026  1.00  0.00    -0.200 F 
ATOM    137  C   UNL A   1      46.606  28.071  36.203  1.00  0.00     0.200 A 
ATOM    138  F   UNL A   1      45.280  26.487  37.348  1.00  0.00    -0.200 F 
ATOM    139  F   UNL A   1      47.712  27.590  36.787  1.00  0.00    -0.200 F 
ENDBRANCH 105 129
ENDBRANCH  70  73
ENDBRANCH  60  63
ENDBRANCH  56  59
ENDBRANCH  53  56
ENDBRANCH  50  53
ENDBRANCH  47  50
ENDBRANCH   1  47
TORSDOF 18
ENDMDL
MODEL 10
REMARK VINA RESULT:     -11.5      0.645      2.046
REMARK SMILES O=C(CCCc1nc(-c2ccc(Cl)c(Cl)c2)c(-c2ccccc2)o1)NCCCCCCNC(=O)c1ccc(-c2c3nc(c(-c4c(F)c(F)c(F)c(F)c4F)c4ccc([nH]4)c(-c4c(F)c(F)c(F)c(F)c4F)c4nc(c(-c5c(F)c(F)c(F)c(F)c5F)c5ccc2[nH]5)C=C4)C=C3)cc1
REMARK SMILES IDX 27 1 26 4 25 7 1 8 2 9 3 11 4 14 5 17 6 20 7 21 24 22 8 23
REMARK SMILES IDX 17 24 9 25 10 26 16 27 11 28 14 30 12 32 15 34 13 35 18 36
REMARK SMILES IDX 19 37 23 38 20 39 22 41 21 43 28 47 29 50 30 53 31 56 32 59
REMARK SMILES IDX 33 60 34 62 35 63 36 64 97 65 37 66 96 68 38 70 39 73 40 74
REMARK SMILES IDX 90 75 41 76 95 77 89 78 91 79 42 80 94 81 88 83 87 85 43 87
REMARK SMILES IDX 75 90 55 91 74 92 56 93 59 94 73 95 92 96 57 97 58 99 72 101
REMARK SMILES IDX 93 102 60 105 44 107 45 108 53 109 46 110 47 111 51 112
REMARK SMILES IDX 54 113 48 114 49 115 52 116 50 117 76 118 77 119 85 120
REMARK SMILES IDX 78 121 79 122 83 123 86 124 80 125 81 126 84 127 82 128
REMARK SMILES IDX 61 129 62 130 70 131 63 132 64 133 68 134 71 135 65 136
REMARK SMILES IDX 66 137 69 138 67 139
REMARK H PARENT 27 2 27 3 26 5 26 6 25 10 3 12 3 13 4 15 4 16 5 18 5 19 10 29
REMARK H PARENT 16 31 11 33 19 40 23 42 20 44 22 45 21 46 28 48 28 49 29 51
REMARK H PARENT 29 52 30 54 30 55 31 57 31 58 32 61 36 67 97 69 37 71 96 72
REMARK H PARENT 95 82 89 84 91 86 94 88 88 89 56 98 59 100 92 103 57 104
REMARK H PARENT 93 106
REMARK Flexibility Score: inf
ROOT
ATOM      1  C   UNL A   1      39.726  23.023  27.117  1.00  0.00    -0.036 C 
ATOM      2  H   UNL A   1      39.280  22.515  27.945  1.00  0.00     0.028 H 
ATOM      3  H   UNL A   1      40.345  23.846  27.407  1.00  0.00     0.028 H 
ENDROOT
BRANCH   1   4
ATOM      4  C   UNL A   1      38.605  23.612  26.262  1.00  0.00     0.017 C 
ATOM      5  H   UNL A   1      38.282  24.534  26.700  1.00  0.00     0.049 H 
ATOM      6  H   UNL A   1      38.988  23.768  25.274  1.00  0.00     0.049 H 
BRANCH   4   7
ATOM      7  N   UNL A   1      37.472  22.718  26.166  1.00  0.00    -0.356 N 
ATOM      8  O   UNL A   1      37.331  22.755  23.876  1.00  0.00    -0.275 OA
ATOM      9  C   UNL A   1      36.928  22.348  24.961  1.00  0.00     0.220 C 
ATOM     10  H   UNL A   1      37.077  22.362  26.995  1.00  0.00     0.163 HD
BRANCH   9  11
ATOM     11  C   UNL A   1      35.775  21.373  25.077  1.00  0.00     0.027 C 
ATOM     12  H   UNL A   1      35.824  20.901  26.035  1.00  0.00     0.037 H 
ATOM     13  H   UNL A   1      35.871  20.670  24.277  1.00  0.00     0.037 H 
BRANCH  11  14
ATOM     14  C   UNL A   1      34.403  22.043  24.934  1.00  0.00    -0.036 C 
ATOM     15  H   UNL A   1      34.276  22.705  25.765  1.00  0.00     0.028 H 
ATOM     16  H   UNL A   1      33.697  21.239  24.895  1.00  0.00     0.028 H 
BRANCH  14  17
ATOM     17  C   UNL A   1      34.172  22.851  23.653  1.00  0.00     0.025 C 
ATOM     18  H   UNL A   1      33.643  22.240  22.952  1.00  0.00     0.037 H 
ATOM     19  H   UNL A   1      35.131  23.145  23.278  1.00  0.00     0.037 H 
BRANCH  17  20
ATOM     20  C   UNL A   1      33.386  24.089  23.891  1.00  0.00     0.195 A 
ATOM     21  N   UNL A   1      32.212  24.401  23.376  1.00  0.00    -0.213 NA
ATOM     22  O   UNL A   1      33.872  24.985  24.803  1.00  0.00    -0.440 OA
ATOM     23  C   UNL A   1      31.919  25.611  23.953  1.00  0.00     0.117 A 
ATOM     24  C   UNL A   1      32.903  25.953  24.859  1.00  0.00     0.162 A 
BRANCH  23  25
ATOM     25  C   UNL A   1      30.734  26.387  23.666  1.00  0.00     0.006 A 
ATOM     26  C   UNL A   1      29.481  25.943  24.096  1.00  0.00    -0.051 A 
ATOM     27  C   UNL A   1      30.838  27.606  22.980  1.00  0.00    -0.032 A 
ATOM     28  C   UNL A   1      28.346  26.728  23.877  1.00  0.00    -0.041 A 
ATOM     29  H   UNL A   1      29.394  25.034  24.578  1.00  0.00     0.063 H 
ATOM     30  C   UNL A   1      29.701  28.388  22.751  1.00  0.00     0.060 A 
ATOM     31  H   UNL A   1      31.758  27.927  22.642  1.00  0.00     0.065 H 
ATOM     32  C   UNL A   1      28.454  27.953  23.209  1.00  0.00     0.059 A 
ATOM     33  H   UNL A   1      27.424  26.404  24.208  1.00  0.00     0.064 H 
ATOM     34  Cl  UNL A   1      29.913  29.881  21.908  1.00  0.00    -0.083 Cl
ATOM     35  Cl  UNL A   1      27.012  28.880  22.989  1.00  0.00    -0.083 Cl
ENDBRANCH  23  25
BRANCH  24  36
ATOM     36  C   UNL A   1      33.077  27.015  25.827  1.00  0.00     0.020 A 
ATOM     37  C   UNL A   1      34.243  27.785  25.850  1.00  0.00    -0.051 A 
ATOM     38  C   UNL A   1      32.041  27.316  26.724  1.00  0.00    -0.051 A 
ATOM     39  C   UNL A   1      34.362  28.854  26.743  1.00  0.00    -0.062 A 
ATOM     40  H   UNL A   1      35.019  27.566  25.205  1.00  0.00     0.063 H 
ATOM     41  C   UNL A   1      32.165  28.375  27.623  1.00  0.00    -0.062 A 
ATOM     42  H   UNL A   1      31.179  26.747  26.719  1.00  0.00     0.063 H 
ATOM     43  C   UNL A   1      33.323  29.147  27.626  1.00  0.00    -0.062 A 
ATOM     44  H   UNL A   1      35.221  29.426  26.750  1.00  0.00     0.062 H 
ATOM     45  H   UNL A   1      31.399  28.587  28.281  1.00  0.00     0.062 H 
ATOM     46  H   UNL A   1      33.414  29.937  28.284  1.00  0.00     0.062 H 
ENDBRANCH  24  36
ENDBRANCH  17  20
ENDBRANCH  14  17
ENDBRANCH  11  14
ENDBRANCH   9  11
ENDBRANCH   4   7
ENDBRANCH   1   4
BRANCH   1  47
ATOM     47  C   UNL A   1      40.642  22.034  26.388  1.00  0.00    -0.052 C 
ATOM     48  H   UNL A   1      41.619  22.469  26.331  1.00  0.00     0.027 H 
ATOM     49  H   UNL A   1      40.191  21.863  25.433  1.00  0.00     0.027 H 
BRANCH  47  50
ATOM     50  C   UNL A   1      40.778  20.657  27.042  1.00  0.00    -0.052 C 
ATOM     51  H   UNL A   1      39.817  20.367  27.411  1.00  0.00     0.027 H 
ATOM     52  H   UNL A   1      41.511  20.759  27.815  1.00  0.00     0.027 H 
BRANCH  50  53
ATOM     53  C   UNL A   1      41.284  19.558  26.108  1.00  0.00    -0.036 C 
ATOM     54  H   UNL A   1      41.346  19.963  25.119  1.00  0.00     0.028 H 
ATOM     55  H   UNL A   1      40.589  18.749  26.186  1.00  0.00     0.028 H 
BRANCH  53  56
ATOM     56  C   UNL A   1      42.650  18.993  26.478  1.00  0.00     0.018 C 
ATOM     57  H   UNL A   1      42.509  18.084  27.025  1.00  0.00     0.049 H 
ATOM     58  H   UNL A   1      43.158  19.732  27.062  1.00  0.00     0.049 H 
BRANCH  56  59
ATOM     59  N   UNL A   1      43.474  18.712  25.312  1.00  0.00    -0.352 N 
ATOM     60  C   UNL A   1      44.215  19.581  24.552  1.00  0.00     0.251 C 
ATOM     61  H   UNL A   1      43.504  17.769  25.029  1.00  0.00     0.163 HD
ATOM     62  O   UNL A   1      44.729  19.206  23.501  1.00  0.00    -0.269 OA
BRANCH  60  63
ATOM     63  C   UNL A   1      44.373  20.983  24.990  1.00  0.00     0.039 A 
ATOM     64  C   UNL A   1      45.134  21.254  26.129  1.00  0.00    -0.049 A 
ATOM     65  C   UNL A   1      43.772  22.028  24.282  1.00  0.00    -0.049 A 
ATOM     66  C   UNL A   1      45.330  22.577  26.533  1.00  0.00    -0.053 A 
ATOM     67  H   UNL A   1      45.550  20.480  26.671  1.00  0.00     0.063 H 
ATOM     68  C   UNL A   1      44.035  23.348  24.637  1.00  0.00    -0.053 A 
ATOM     69  H   UNL A   1      43.135  21.821  23.497  1.00  0.00     0.063 H 
ATOM     70  C   UNL A   1      44.803  23.636  25.776  1.00  0.00    -0.014 A 
ATOM     71  H   UNL A   1      45.865  22.777  27.392  1.00  0.00     0.063 H 
ATOM     72  H   UNL A   1      43.662  24.119  24.061  1.00  0.00     0.063 H 
BRANCH  70  73
ATOM     73  C   UNL A   1      45.008  25.049  26.185  1.00  0.00     0.031 A 
ATOM     74  C   UNL A   1      46.375  25.670  26.075  1.00  0.00     0.074 A 
ATOM     75  C   UNL A   1      43.981  25.760  26.690  1.00  0.00     0.049 A 
ATOM     76  N   UNL A   1      46.778  26.862  26.440  1.00  0.00    -0.248 NA
ATOM     77  C   UNL A   1      47.440  24.828  25.504  1.00  0.00    -0.034 C 
ATOM     78  C   UNL A   1      42.620  25.259  26.887  1.00  0.00    -0.036 A 
ATOM     79  N   UNL A   1      43.926  27.056  27.140  1.00  0.00    -0.354 N 
ATOM     80  C   UNL A   1      48.133  26.910  26.142  1.00  0.00     0.074 A 
ATOM     81  C   UNL A   1      48.503  25.606  25.636  1.00  0.00    -0.034 C 
ATOM     82  H   UNL A   1      47.374  23.879  25.103  1.00  0.00     0.065 H 
ATOM     83  C   UNL A   1      41.861  26.241  27.402  1.00  0.00    -0.036 A 
ATOM     84  H   UNL A   1      42.296  24.304  26.667  1.00  0.00     0.065 H 
ATOM     85  C   UNL A   1      42.687  27.426  27.604  1.00  0.00     0.049 A 
ATOM     86  H   UNL A   1      44.701  27.663  27.130  1.00  0.00     0.167 HD
ATOM     87  C   UNL A   1      48.987  27.955  26.247  1.00  0.00     0.037 A 
ATOM     88  H   UNL A   1      49.468  25.320  25.408  1.00  0.00     0.065 H 
ATOM     89  H   UNL A   1      40.854  26.168  27.619  1.00  0.00     0.065 H 
ATOM     90  C   UNL A   1      42.271  28.590  28.140  1.00  0.00     0.037 A 
ATOM     91  C   UNL A   1      48.616  29.256  26.737  1.00  0.00     0.049 A 
ATOM     92  C   UNL A   1      43.246  29.733  28.259  1.00  0.00     0.074 A 
ATOM     93  C   UNL A   1      49.404  30.386  26.875  1.00  0.00    -0.036 A 
ATOM     94  N   UNL A   1      47.342  29.603  27.163  1.00  0.00    -0.354 N 
ATOM     95  N   UNL A   1      44.514  29.779  27.930  1.00  0.00    -0.248 NA
ATOM     96  C   UNL A   1      42.726  30.992  28.809  1.00  0.00    -0.034 C 
ATOM     97  C   UNL A   1      48.615  31.405  27.417  1.00  0.00    -0.036 A 
ATOM     98  H   UNL A   1      50.401  30.462  26.621  1.00  0.00     0.065 H 
ATOM     99  C   UNL A   1      47.323  30.928  27.564  1.00  0.00     0.049 A 
ATOM    100  H   UNL A   1      46.566  28.996  27.179  1.00  0.00     0.167 HD
ATOM    101  C   UNL A   1      44.929  31.078  28.191  1.00  0.00     0.074 A 
ATOM    102  C   UNL A   1      43.774  31.793  28.692  1.00  0.00    -0.034 C 
ATOM    103  H   UNL A   1      41.788  31.200  29.187  1.00  0.00     0.065 H 
ATOM    104  H   UNL A   1      48.942  32.353  27.666  1.00  0.00     0.065 H 
ATOM    105  C   UNL A   1      46.156  31.632  28.031  1.00  0.00     0.037 A 
ATOM    106  H   UNL A   1      43.769  32.797  28.927  1.00  0.00     0.065 H 
BRANCH  87 107
ATOM    107  C   UNL A   1      50.404  27.742  25.800  1.00  0.00     0.064 A 
ATOM    108  C   UNL A   1      51.431  27.491  26.725  1.00  0.00     0.173 A 
ATOM    109  C   UNL A   1      50.736  27.741  24.437  1.00  0.00     0.173 A 
ATOM    110  F   UNL A   1      51.169  27.494  28.040  1.00  0.00    -0.203 F 
ATOM    111  C   UNL A   1      52.738  27.268  26.303  1.00  0.00     0.198 A 
ATOM    112  C   UNL A   1      52.040  27.485  24.018  1.00  0.00     0.198 A 
ATOM    113  F   UNL A   1      49.794  27.971  23.510  1.00  0.00    -0.203 F 
ATOM    114  F   UNL A   1      53.708  27.075  27.207  1.00  0.00    -0.200 F 
ATOM    115  C   UNL A   1      53.040  27.256  24.950  1.00  0.00     0.200 A 
ATOM    116  F   UNL A   1      52.328  27.460  22.708  1.00  0.00    -0.200 F 
ATOM    117  F   UNL A   1      54.297  27.027  24.545  1.00  0.00    -0.200 F 
ENDBRANCH  87 107
BRANCH  90 118
ATOM    118  C   UNL A   1      40.863  28.747  28.597  1.00  0.00     0.064 A 
ATOM    119  C   UNL A   1      40.504  28.512  29.933  1.00  0.00     0.173 A 
ATOM    120  C   UNL A   1      39.841  29.089  27.700  1.00  0.00     0.173 A 
ATOM    121  F   UNL A   1      41.442  28.165  30.827  1.00  0.00    -0.203 F 
ATOM    122  C   UNL A   1      39.174  28.570  30.343  1.00  0.00     0.198 A 
ATOM    123  C   UNL A   1      38.515  29.181  28.120  1.00  0.00     0.198 A 
ATOM    124  F   UNL A   1      40.129  29.332  26.413  1.00  0.00    -0.203 F 
ATOM    125  F   UNL A   1      38.852  28.270  31.609  1.00  0.00    -0.200 F 
ATOM    126  C   UNL A   1      38.180  28.907  29.437  1.00  0.00     0.200 A 
ATOM    127  F   UNL A   1      37.560  29.523  27.244  1.00  0.00    -0.200 F 
ATOM    128  F   UNL A   1      36.900  28.954  29.829  1.00  0.00    -0.200 F 
ENDBRANCH  90 118
BRANCH 105 129
ATOM    129  C   UNL A   1      46.296  33.097  28.329  1.00  0.00     0.064 A 
ATOM    130  C   UNL A   1      46.087  34.079  27.349  1.00  0.00     0.173 A 
ATOM    131  C   UNL A   1      46.620  33.523  29.627  1.00  0.00     0.173 A 
ATOM    132  F   UNL A   1      45.787  33.724  26.091  1.00  0.00    -0.203 F 
ATOM    133  C   UNL A   1      46.235  35.431  27.649  1.00  0.00     0.198 A 
ATOM    134  C   UNL A   1      46.732  34.877  29.931  1.00  0.00     0.198 A 
ATOM    135  F   UNL A   1      46.820  32.627  30.604  1.00  0.00    -0.203 F 
ATOM    136  F   UNL A   1      46.090  36.348  26.683  1.00  0.00    -0.200 F 
ATOM    137  C   UNL A   1      46.551  35.829  28.939  1.00  0.00     0.200 A 
ATOM    138  F   UNL A   1      47.020  35.260  31.183  1.00  0.00    -0.200 F 
ATOM    139  F   UNL A   1      46.688  37.131  29.225  1.00  0.00    -0.200 F 
ENDBRANCH 105 129
ENDBRANCH  70  73
ENDBRANCH  60  63
ENDBRANCH  56  59
ENDBRANCH  53  56
ENDBRANCH  50  53
ENDBRANCH  47  50
ENDBRANCH   1  47
TORSDOF 18
ENDMDL
