MODEL 1
REMARK VINA RESULT:     -12.9      0.000      0.000
REMARK SMILES O=C(NCCCCCCNC(=O)c1ccccc1Nc1nc(Cl)nc(Nc2ccc(N3CCOCC3=O)cc2)n1)c1ccc(-c2c3nc(c(-c4c(F)c(F)c(F)c(F)c4F)c4ccc([nH]4)c(-c4c(F)c(F)c(F)c(F)c4F)c4nc(c(-c5c(F)c(F)c(F)c(F)c5F)c5ccc2[nH]5)C=C4)C=C3)cc1
REMARK SMILES IDX 8 1 7 4 6 7 5 10 4 13 3 16 1 17 2 18 41 20 42 21 103 22
REMARK SMILES IDX 43 23 102 25 44 27 45 30 46 31 96 32 47 33 101 34 95 35
REMARK SMILES IDX 97 36 48 37 100 38 94 40 93 42 49 44 81 47 61 48 80 49 62 50
REMARK SMILES IDX 65 51 79 52 98 53 63 54 64 56 78 58 99 59 66 62 50 64 51 65
REMARK SMILES IDX 59 66 52 67 53 68 57 69 60 70 54 71 55 72 58 73 56 74 82 75
REMARK SMILES IDX 83 76 91 77 84 78 85 79 89 80 92 81 86 82 87 83 90 84 88 85
REMARK SMILES IDX 67 86 68 87 76 88 69 89 70 90 74 91 77 92 71 93 72 94 75 95
REMARK SMILES IDX 73 96 9 97 10 100 11 101 12 103 13 104 14 105 18 106 15 107
REMARK SMILES IDX 17 109 16 110 19 114 20 116 21 117 40 118 22 119 25 120
REMARK SMILES IDX 23 121 24 122 26 123 27 125 28 126 39 127 29 128 38 130
REMARK SMILES IDX 30 132 31 135 32 136 36 137 33 138 35 141 37 142 34 143
REMARK H PARENT 8 2 8 3 7 5 7 6 6 8 6 9 5 11 5 12 4 14 4 15 3 19 42 24 103 26
REMARK H PARENT 43 28 102 29 101 39 95 41 97 43 100 45 94 46 62 55 65 57 98 60
REMARK H PARENT 63 61 99 63 9 98 9 99 10 102 14 108 15 111 17 112 16 113
REMARK H PARENT 19 115 26 124 28 129 39 131 29 133 38 134 32 139 32 140 33 144
REMARK H PARENT 33 145 35 146 35 147
REMARK Flexibility Score: inf
ROOT
ATOM      1  C   UNL A   1      32.776  28.798  27.156  1.00  0.00    -0.036 C 
ATOM      2  H   UNL A   1      33.285  28.894  28.092  1.00  0.00     0.028 H 
ATOM      3  H   UNL A   1      33.235  28.102  26.487  1.00  0.00     0.028 H 
ENDROOT
BRANCH   1   4
ATOM      4  C   UNL A   1      32.821  30.159  26.451  1.00  0.00    -0.052 C 
ATOM      5  H   UNL A   1      33.404  30.822  27.055  1.00  0.00     0.027 H 
ATOM      6  H   UNL A   1      33.239  29.971  25.484  1.00  0.00     0.027 H 
BRANCH   4   7
ATOM      7  C   UNL A   1      31.464  30.823  26.198  1.00  0.00    -0.052 C 
ATOM      8  H   UNL A   1      31.226  30.703  25.162  1.00  0.00     0.027 H 
ATOM      9  H   UNL A   1      30.774  30.341  26.858  1.00  0.00     0.027 H 
BRANCH   7  10
ATOM     10  C   UNL A   1      31.389  32.315  26.530  1.00  0.00    -0.036 C 
ATOM     11  H   UNL A   1      31.225  32.849  25.618  1.00  0.00     0.028 H 
ATOM     12  H   UNL A   1      30.594  32.424  27.236  1.00  0.00     0.028 H 
BRANCH  10  13
ATOM     13  C   UNL A   1      32.633  32.890  27.197  1.00  0.00     0.018 C 
ATOM     14  H   UNL A   1      32.901  32.263  28.022  1.00  0.00     0.049 H 
ATOM     15  H   UNL A   1      33.410  32.926  26.463  1.00  0.00     0.049 H 
BRANCH  13  16
ATOM     16  N   UNL A   1      32.424  34.242  27.689  1.00  0.00    -0.352 N 
ATOM     17  O   UNL A   1      32.618  35.986  29.106  1.00  0.00    -0.269 OA
ATOM     18  C   UNL A   1      33.046  34.899  28.718  1.00  0.00     0.251 C 
ATOM     19  H   UNL A   1      31.736  34.761  27.213  1.00  0.00     0.163 HD
BRANCH  18  20
ATOM     20  C   UNL A   1      34.218  34.296  29.380  1.00  0.00     0.039 A 
ATOM     21  C   UNL A   1      34.064  33.438  30.476  1.00  0.00    -0.049 A 
ATOM     22  C   UNL A   1      35.491  34.573  28.878  1.00  0.00    -0.049 A 
ATOM     23  C   UNL A   1      35.186  32.950  31.137  1.00  0.00    -0.053 A 
ATOM     24  H   UNL A   1      33.119  33.169  30.792  1.00  0.00     0.063 H 
ATOM     25  C   UNL A   1      36.613  34.024  29.499  1.00  0.00    -0.053 A 
ATOM     26  H   UNL A   1      35.601  35.180  28.051  1.00  0.00     0.063 H 
ATOM     27  C   UNL A   1      36.471  33.227  30.647  1.00  0.00    -0.014 A 
ATOM     28  H   UNL A   1      35.073  32.381  31.991  1.00  0.00     0.063 H 
ATOM     29  H   UNL A   1      37.554  34.206  29.113  1.00  0.00     0.063 H 
BRANCH  27  30
ATOM     30  C   UNL A   1      37.668  32.643  31.297  1.00  0.00     0.031 A 
ATOM     31  C   UNL A   1      38.413  31.513  30.651  1.00  0.00     0.074 A 
ATOM     32  C   UNL A   1      38.049  33.104  32.503  1.00  0.00     0.049 A 
ATOM     33  N   UNL A   1      39.405  30.798  31.121  1.00  0.00    -0.248 NA
ATOM     34  C   UNL A   1      37.978  31.125  29.302  1.00  0.00    -0.034 C 
ATOM     35  C   UNL A   1      37.400  34.199  33.226  1.00  0.00    -0.036 A 
ATOM     36  N   UNL A   1      39.056  32.700  33.340  1.00  0.00    -0.354 N 
ATOM     37  C   UNL A   1      39.695  29.861  30.139  1.00  0.00     0.074 A 
ATOM     38  C   UNL A   1      38.757  30.082  29.056  1.00  0.00    -0.034 C 
ATOM     39  H   UNL A   1      37.255  31.553  28.703  1.00  0.00     0.065 H 
ATOM     40  C   UNL A   1      38.022  34.377  34.399  1.00  0.00    -0.036 A 
ATOM     41  H   UNL A   1      36.592  34.744  32.887  1.00  0.00     0.065 H 
ATOM     42  C   UNL A   1      39.070  33.371  34.538  1.00  0.00     0.049 A 
ATOM     43  H   UNL A   1      39.704  31.997  33.107  1.00  0.00     0.167 HD
ATOM     44  C   UNL A   1      40.657  28.906  30.143  1.00  0.00     0.037 A 
ATOM     45  H   UNL A   1      38.704  29.502  28.205  1.00  0.00     0.065 H 
ATOM     46  H   UNL A   1      37.798  35.109  35.093  1.00  0.00     0.065 H 
ATOM     47  C   UNL A   1      39.813  33.172  35.643  1.00  0.00     0.037 A 
ATOM     48  C   UNL A   1      41.583  28.699  31.228  1.00  0.00     0.049 A 
ATOM     49  C   UNL A   1      40.843  32.079  35.646  1.00  0.00     0.074 A 
ATOM     50  C   UNL A   1      42.622  27.790  31.315  1.00  0.00    -0.036 A 
ATOM     51  N   UNL A   1      41.568  29.404  32.425  1.00  0.00    -0.354 N 
ATOM     52  N   UNL A   1      41.138  31.223  34.699  1.00  0.00    -0.248 NA
ATOM     53  C   UNL A   1      41.644  31.925  36.867  1.00  0.00    -0.034 C 
ATOM     54  C   UNL A   1      43.193  27.899  32.587  1.00  0.00    -0.036 A 
ATOM     55  H   UNL A   1      42.923  27.143  30.570  1.00  0.00     0.065 H 
ATOM     56  C   UNL A   1      42.559  28.926  33.268  1.00  0.00     0.049 A 
ATOM     57  H   UNL A   1      40.946  30.135  32.643  1.00  0.00     0.167 HD
ATOM     58  C   UNL A   1      42.177  30.448  35.195  1.00  0.00     0.074 A 
ATOM     59  C   UNL A   1      42.461  30.936  36.528  1.00  0.00    -0.034 C 
ATOM     60  H   UNL A   1      41.585  32.448  37.755  1.00  0.00     0.065 H 
ATOM     61  H   UNL A   1      43.958  27.313  32.957  1.00  0.00     0.065 H 
ATOM     62  C   UNL A   1      42.839  29.430  34.591  1.00  0.00     0.037 A 
ATOM     63  H   UNL A   1      43.204  30.562  37.139  1.00  0.00     0.065 H 
BRANCH  44  64
ATOM     64  C   UNL A   1      40.729  27.988  28.954  1.00  0.00     0.064 A 
ATOM     65  C   UNL A   1      41.572  28.247  27.863  1.00  0.00     0.173 A 
ATOM     66  C   UNL A   1      39.946  26.824  28.911  1.00  0.00     0.173 A 
ATOM     67  F   UNL A   1      42.338  29.348  27.847  1.00  0.00    -0.203 F 
ATOM     68  C   UNL A   1      41.595  27.401  26.756  1.00  0.00     0.198 A 
ATOM     69  C   UNL A   1      39.997  25.961  27.820  1.00  0.00     0.198 A 
ATOM     70  F   UNL A   1      39.131  26.518  29.932  1.00  0.00    -0.203 F 
ATOM     71  F   UNL A   1      42.361  27.704  25.698  1.00  0.00    -0.200 F 
ATOM     72  C   UNL A   1      40.811  26.257  26.737  1.00  0.00     0.200 A 
ATOM     73  F   UNL A   1      39.253  24.846  27.812  1.00  0.00    -0.200 F 
ATOM     74  F   UNL A   1      40.835  25.443  25.672  1.00  0.00    -0.200 F 
ENDBRANCH  44  64
BRANCH  47  75
ATOM     75  C   UNL A   1      39.585  34.034  36.829  1.00  0.00     0.064 A 
ATOM     76  C   UNL A   1      38.801  33.594  37.902  1.00  0.00     0.173 A 
ATOM     77  C   UNL A   1      40.199  35.293  36.940  1.00  0.00     0.173 A 
ATOM     78  F   UNL A   1      38.184  32.404  37.836  1.00  0.00    -0.203 F 
ATOM     79  C   UNL A   1      38.636  34.380  39.041  1.00  0.00     0.198 A 
ATOM     80  C   UNL A   1      40.056  36.064  38.090  1.00  0.00     0.198 A 
ATOM     81  F   UNL A   1      40.967  35.754  35.942  1.00  0.00    -0.203 F 
ATOM     82  F   UNL A   1      37.860  33.945  40.044  1.00  0.00    -0.200 F 
ATOM     83  C   UNL A   1      39.272  35.608  39.138  1.00  0.00     0.200 A 
ATOM     84  F   UNL A   1      40.689  37.241  38.188  1.00  0.00    -0.200 F 
ATOM     85  F   UNL A   1      39.129  36.353  40.243  1.00  0.00    -0.200 F 
ENDBRANCH  47  75
BRANCH  62  86
ATOM     86  C   UNL A   1      43.979  28.802  35.340  1.00  0.00     0.064 A 
ATOM     87  C   UNL A   1      43.797  27.691  36.175  1.00  0.00     0.173 A 
ATOM     88  C   UNL A   1      45.288  29.275  35.151  1.00  0.00     0.173 A 
ATOM     89  F   UNL A   1      42.564  27.212  36.402  1.00  0.00    -0.203 F 
ATOM     90  C   UNL A   1      44.881  27.082  36.800  1.00  0.00     0.198 A 
ATOM     91  C   UNL A   1      46.372  28.645  35.753  1.00  0.00     0.198 A 
ATOM     92  F   UNL A   1      45.515  30.334  34.358  1.00  0.00    -0.203 F 
ATOM     93  F   UNL A   1      44.682  26.040  37.620  1.00  0.00    -0.200 F 
ATOM     94  C   UNL A   1      46.168  27.551  36.579  1.00  0.00     0.200 A 
ATOM     95  F   UNL A   1      47.615  29.091  35.526  1.00  0.00    -0.200 F 
ATOM     96  F   UNL A   1      47.213  26.948  37.164  1.00  0.00    -0.200 F 
ENDBRANCH  62  86
ENDBRANCH  27  30
ENDBRANCH  18  20
ENDBRANCH  13  16
ENDBRANCH  10  13
ENDBRANCH   7  10
ENDBRANCH   4   7
ENDBRANCH   1   4
BRANCH   1  97
ATOM     97  C   UNL A   1      31.376  28.256  27.436  1.00  0.00     0.018 C 
ATOM     98  H   UNL A   1      30.658  28.903  26.975  1.00  0.00     0.049 H 
ATOM     99  H   UNL A   1      31.245  28.220  28.497  1.00  0.00     0.049 H 
BRANCH  97 100
ATOM    100  N   UNL A   1      31.191  26.910  26.918  1.00  0.00    -0.352 N 
ATOM    101  C   UNL A   1      30.986  26.505  25.624  1.00  0.00     0.253 C 
ATOM    102  H   UNL A   1      31.217  26.191  27.590  1.00  0.00     0.163 HD
ATOM    103  O   UNL A   1      30.770  25.322  25.378  1.00  0.00    -0.269 OA
BRANCH 101 104
ATOM    104  C   UNL A   1      31.002  27.486  24.519  1.00  0.00     0.063 A 
ATOM    105  C   UNL A   1      29.826  28.224  24.319  1.00  0.00    -0.047 A 
ATOM    106  C   UNL A   1      32.119  27.662  23.680  1.00  0.00     0.054 A 
ATOM    107  C   UNL A   1      29.766  29.188  23.313  1.00  0.00    -0.061 A 
ATOM    108  H   UNL A   1      29.003  28.054  24.917  1.00  0.00     0.063 H 
ATOM    109  C   UNL A   1      32.048  28.674  22.707  1.00  0.00    -0.038 A 
ATOM    110  C   UNL A   1      30.883  29.421  22.518  1.00  0.00    -0.060 A 
ATOM    111  H   UNL A   1      28.899  29.724  23.160  1.00  0.00     0.062 H 
ATOM    112  H   UNL A   1      32.874  28.869  22.121  1.00  0.00     0.064 H 
ATOM    113  H   UNL A   1      30.851  30.150  21.787  1.00  0.00     0.062 H 
BRANCH 106 114
ATOM    114  N   UNL A   1      33.269  26.866  23.806  1.00  0.00    -0.323 N 
ATOM    115  H   UNL A   1      33.997  27.263  24.336  1.00  0.00     0.170 HD
BRANCH 114 116
ATOM    116  C   UNL A   1      33.532  25.601  23.296  1.00  0.00     0.233 A 
ATOM    117  N   UNL A   1      33.191  25.312  22.051  1.00  0.00    -0.182 NA
ATOM    118  N   UNL A   1      34.125  24.749  24.122  1.00  0.00    -0.176 NA
ATOM    119  C   UNL A   1      33.499  24.081  21.688  1.00  0.00     0.228 A 
ATOM    120  C   UNL A   1      34.313  23.513  23.667  1.00  0.00     0.233 A 
ATOM    121  Cl  UNL A   1      33.093  23.646  20.086  1.00  0.00    -0.041 Cl
ATOM    122  N   UNL A   1      34.048  23.137  22.427  1.00  0.00    -0.182 NA
BRANCH 120 123
ATOM    123  N   UNL A   1      34.690  22.573  24.623  1.00  0.00    -0.324 N 
ATOM    124  H   UNL A   1      33.952  22.092  25.063  1.00  0.00     0.170 HD
BRANCH 123 125
ATOM    125  C   UNL A   1      35.976  22.222  25.039  1.00  0.00     0.041 A 
ATOM    126  C   UNL A   1      36.463  20.938  24.777  1.00  0.00    -0.036 A 
ATOM    127  C   UNL A   1      36.836  23.157  25.617  1.00  0.00    -0.036 A 
ATOM    128  C   UNL A   1      37.788  20.597  25.080  1.00  0.00    -0.036 A 
ATOM    129  H   UNL A   1      35.840  20.232  24.356  1.00  0.00     0.065 H 
ATOM    130  C   UNL A   1      38.138  22.804  25.976  1.00  0.00    -0.036 A 
ATOM    131  H   UNL A   1      36.505  24.120  25.782  1.00  0.00     0.065 H 
ATOM    132  C   UNL A   1      38.631  21.525  25.698  1.00  0.00     0.044 A 
ATOM    133  H   UNL A   1      38.142  19.657  24.846  1.00  0.00     0.065 H 
ATOM    134  H   UNL A   1      38.742  23.493  26.450  1.00  0.00     0.065 H 
BRANCH 132 135
ATOM    135  N   UNL A   1      39.983  21.194  26.000  1.00  0.00    -0.308 N 
ATOM    136  C   UNL A   1      40.805  22.251  26.602  1.00  0.00     0.049 C 
ATOM    137  C   UNL A   1      40.396  19.857  26.036  1.00  0.00     0.253 C 
ATOM    138  C   UNL A   1      42.285  21.896  26.677  1.00  0.00     0.065 C 
ATOM    139  H   UNL A   1      40.449  22.433  27.594  1.00  0.00     0.052 H 
ATOM    140  H   UNL A   1      40.717  23.114  25.977  1.00  0.00     0.052 H 
ATOM    141  C   UNL A   1      41.832  19.619  26.530  1.00  0.00     0.126 C 
ATOM    142  O   UNL A   1      39.730  18.909  25.614  1.00  0.00    -0.272 OA
ATOM    143  O   UNL A   1      42.438  20.632  27.316  1.00  0.00    -0.370 OA
ATOM    144  H   UNL A   1      42.802  22.645  27.238  1.00  0.00     0.059 H 
ATOM    145  H   UNL A   1      42.690  21.846  25.688  1.00  0.00     0.059 H 
ATOM    146  H   UNL A   1      41.822  18.723  27.115  1.00  0.00     0.067 H 
ATOM    147  H   UNL A   1      42.420  19.582  25.638  1.00  0.00     0.067 H 
ENDBRANCH 132 135
ENDBRANCH 123 125
ENDBRANCH 120 123
ENDBRANCH 114 116
ENDBRANCH 106 114
ENDBRANCH 101 104
ENDBRANCH  97 100
ENDBRANCH   1  97
TORSDOF 18
ENDMDL
MODEL 2
REMARK VINA RESULT:     -12.9      2.232      5.429
REMARK SMILES O=C(NCCCCCCNC(=O)c1ccccc1Nc1nc(Cl)nc(Nc2ccc(N3CCOCC3=O)cc2)n1)c1ccc(-c2c3nc(c(-c4c(F)c(F)c(F)c(F)c4F)c4ccc([nH]4)c(-c4c(F)c(F)c(F)c(F)c4F)c4nc(c(-c5c(F)c(F)c(F)c(F)c5F)c5ccc2[nH]5)C=C4)C=C3)cc1
REMARK SMILES IDX 8 1 7 4 6 7 5 10 4 13 3 16 1 17 2 18 41 20 42 21 103 22
REMARK SMILES IDX 43 23 102 25 44 27 45 30 46 31 96 32 47 33 101 34 95 35
REMARK SMILES IDX 97 36 48 37 100 38 94 40 93 42 49 44 81 47 61 48 80 49 62 50
REMARK SMILES IDX 65 51 79 52 98 53 63 54 64 56 78 58 99 59 66 62 50 64 51 65
REMARK SMILES IDX 59 66 52 67 53 68 57 69 60 70 54 71 55 72 58 73 56 74 82 75
REMARK SMILES IDX 83 76 91 77 84 78 85 79 89 80 92 81 86 82 87 83 90 84 88 85
REMARK SMILES IDX 67 86 68 87 76 88 69 89 70 90 74 91 77 92 71 93 72 94 75 95
REMARK SMILES IDX 73 96 9 97 10 100 11 101 12 103 13 104 14 105 18 106 15 107
REMARK SMILES IDX 17 109 16 110 19 114 20 116 21 117 40 118 22 119 25 120
REMARK SMILES IDX 23 121 24 122 26 123 27 125 28 126 39 127 29 128 38 130
REMARK SMILES IDX 30 132 31 135 32 136 36 137 33 138 35 141 37 142 34 143
REMARK H PARENT 8 2 8 3 7 5 7 6 6 8 6 9 5 11 5 12 4 14 4 15 3 19 42 24 103 26
REMARK H PARENT 43 28 102 29 101 39 95 41 97 43 100 45 94 46 62 55 65 57 98 60
REMARK H PARENT 63 61 99 63 9 98 9 99 10 102 14 108 15 111 17 112 16 113
REMARK H PARENT 19 115 26 124 28 129 39 131 29 133 38 134 32 139 32 140 33 144
REMARK H PARENT 33 145 35 146 35 147
REMARK Flexibility Score: inf
ROOT
ATOM      1  C   UNL A   1      33.910  27.051  25.507  1.00  0.00    -0.036 C 
ATOM      2  H   UNL A   1      34.636  27.588  24.932  1.00  0.00     0.028 H 
ATOM      3  H   UNL A   1      32.945  27.009  25.047  1.00  0.00     0.028 H 
ENDROOT
BRANCH   1   4
ATOM      4  C   UNL A   1      33.716  27.790  26.835  1.00  0.00    -0.052 C 
ATOM      5  H   UNL A   1      34.135  27.185  27.612  1.00  0.00     0.027 H 
ATOM      6  H   UNL A   1      34.199  28.737  26.714  1.00  0.00     0.027 H 
BRANCH   4   7
ATOM      7  C   UNL A   1      32.266  28.107  27.215  1.00  0.00    -0.052 C 
ATOM      8  H   UNL A   1      31.634  27.395  26.727  1.00  0.00     0.027 H 
ATOM      9  H   UNL A   1      32.225  28.058  28.284  1.00  0.00     0.027 H 
BRANCH   7  10
ATOM     10  C   UNL A   1      31.777  29.507  26.840  1.00  0.00    -0.036 C 
ATOM     11  H   UNL A   1      31.006  29.403  26.105  1.00  0.00     0.028 H 
ATOM     12  H   UNL A   1      31.441  29.959  27.749  1.00  0.00     0.028 H 
BRANCH  10  13
ATOM     13  C   UNL A   1      32.848  30.433  26.274  1.00  0.00     0.018 C 
ATOM     14  H   UNL A   1      33.788  30.185  26.722  1.00  0.00     0.049 H 
ATOM     15  H   UNL A   1      32.870  30.296  25.213  1.00  0.00     0.049 H 
BRANCH  13  16
ATOM     16  N   UNL A   1      32.563  31.834  26.534  1.00  0.00    -0.352 N 
ATOM     17  O   UNL A   1      32.675  33.805  27.626  1.00  0.00    -0.269 OA
ATOM     18  C   UNL A   1      33.162  32.695  27.415  1.00  0.00     0.251 C 
ATOM     19  H   UNL A   1      31.834  32.222  25.997  1.00  0.00     0.163 HD
BRANCH  18  20
ATOM     20  C   UNL A   1      34.384  32.285  28.135  1.00  0.00     0.039 A 
ATOM     21  C   UNL A   1      35.513  33.111  28.164  1.00  0.00    -0.049 A 
ATOM     22  C   UNL A   1      34.388  31.065  28.813  1.00  0.00    -0.049 A 
ATOM     23  C   UNL A   1      36.682  32.667  28.774  1.00  0.00    -0.053 A 
ATOM     24  H   UNL A   1      35.480  34.047  27.732  1.00  0.00     0.063 H 
ATOM     25  C   UNL A   1      35.537  30.652  29.487  1.00  0.00    -0.053 A 
ATOM     26  H   UNL A   1      33.544  30.471  28.818  1.00  0.00     0.063 H 
ATOM     27  C   UNL A   1      36.700  31.439  29.454  1.00  0.00    -0.014 A 
ATOM     28  H   UNL A   1      37.537  33.242  28.729  1.00  0.00     0.063 H 
ATOM     29  H   UNL A   1      35.534  29.764  30.012  1.00  0.00     0.063 H 
BRANCH  27  30
ATOM     30  C   UNL A   1      37.916  30.997  30.177  1.00  0.00     0.031 A 
ATOM     31  C   UNL A   1      38.878  30.039  29.539  1.00  0.00     0.074 A 
ATOM     32  C   UNL A   1      38.122  31.425  31.436  1.00  0.00     0.049 A 
ATOM     33  N   UNL A   1      39.927  29.450  30.056  1.00  0.00    -0.248 NA
ATOM     34  C   UNL A   1      38.620  29.686  28.135  1.00  0.00    -0.034 C 
ATOM     35  C   UNL A   1      37.254  32.356  32.158  1.00  0.00    -0.036 A 
ATOM     36  N   UNL A   1      39.107  31.117  32.338  1.00  0.00    -0.354 N 
ATOM     37  C   UNL A   1      40.438  28.637  29.053  1.00  0.00     0.074 A 
ATOM     38  C   UNL A   1      39.569  28.791  27.903  1.00  0.00    -0.034 C 
ATOM     39  H   UNL A   1      37.890  30.042  27.498  1.00  0.00     0.065 H 
ATOM     40  C   UNL A   1      37.743  32.543  33.392  1.00  0.00    -0.036 A 
ATOM     41  H   UNL A   1      36.402  32.798  31.779  1.00  0.00     0.065 H 
ATOM     42  C   UNL A   1      38.920  31.698  33.568  1.00  0.00     0.049 A 
ATOM     43  H   UNL A   1      39.874  30.538  32.125  1.00  0.00     0.167 HD
ATOM     44  C   UNL A   1      41.533  27.840  29.090  1.00  0.00     0.037 A 
ATOM     45  H   UNL A   1      39.675  28.270  27.019  1.00  0.00     0.065 H 
ATOM     46  H   UNL A   1      37.352  33.183  34.102  1.00  0.00     0.065 H 
ATOM     47  C   UNL A   1      39.592  31.536  34.723  1.00  0.00     0.037 A 
ATOM     48  C   UNL A   1      42.388  27.698  30.242  1.00  0.00     0.049 A 
ATOM     49  C   UNL A   1      40.775  30.611  34.758  1.00  0.00     0.074 A 
ATOM     50  C   UNL A   1      43.544  26.950  30.372  1.00  0.00    -0.036 A 
ATOM     51  N   UNL A   1      42.166  28.307  31.471  1.00  0.00    -0.354 N 
ATOM     52  N   UNL A   1      41.275  29.877  33.796  1.00  0.00    -0.248 NA
ATOM     53  C   UNL A   1      41.487  30.494  36.037  1.00  0.00    -0.034 C 
ATOM     54  C   UNL A   1      43.986  27.054  31.695  1.00  0.00    -0.036 A 
ATOM     55  H   UNL A   1      44.002  26.409  29.622  1.00  0.00     0.065 H 
ATOM     56  C   UNL A   1      43.147  27.925  32.373  1.00  0.00     0.049 A 
ATOM     57  H   UNL A   1      41.423  28.919  31.672  1.00  0.00     0.167 HD
ATOM     58  C   UNL A   1      42.378  29.233  34.339  1.00  0.00     0.074 A 
ATOM     59  C   UNL A   1      42.472  29.664  35.719  1.00  0.00    -0.034 C 
ATOM     60  H   UNL A   1      41.276  30.939  36.944  1.00  0.00     0.065 H 
ATOM     61  H   UNL A   1      44.800  26.564  32.099  1.00  0.00     0.065 H 
ATOM     62  C   UNL A   1      43.236  28.371  33.742  1.00  0.00     0.037 A 
ATOM     63  H   UNL A   1      43.213  29.364  36.372  1.00  0.00     0.065 H 
BRANCH  44  64
ATOM     64  C   UNL A   1      41.843  27.028  27.863  1.00  0.00     0.064 A 
ATOM     65  C   UNL A   1      41.448  25.687  27.737  1.00  0.00     0.173 A 
ATOM     66  C   UNL A   1      42.539  27.606  26.790  1.00  0.00     0.173 A 
ATOM     67  F   UNL A   1      40.785  25.082  28.735  1.00  0.00    -0.203 F 
ATOM     68  C   UNL A   1      41.777  24.944  26.606  1.00  0.00     0.198 A 
ATOM     69  C   UNL A   1      42.835  26.871  25.644  1.00  0.00     0.198 A 
ATOM     70  F   UNL A   1      42.930  28.888  26.847  1.00  0.00    -0.203 F 
ATOM     71  F   UNL A   1      41.445  23.647  26.538  1.00  0.00    -0.200 F 
ATOM     72  C   UNL A   1      42.466  25.537  25.559  1.00  0.00     0.200 A 
ATOM     73  F   UNL A   1      43.485  27.452  24.626  1.00  0.00    -0.200 F 
ATOM     74  F   UNL A   1      42.782  24.822  24.470  1.00  0.00    -0.200 F 
ENDBRANCH  44  64
BRANCH  47  75
ATOM     75  C   UNL A   1      39.137  32.269  35.931  1.00  0.00     0.064 A 
ATOM     76  C   UNL A   1      38.270  31.672  36.854  1.00  0.00     0.173 A 
ATOM     77  C   UNL A   1      39.609  33.560  36.216  1.00  0.00     0.173 A 
ATOM     78  F   UNL A   1      37.782  30.445  36.618  1.00  0.00    -0.203 F 
ATOM     79  C   UNL A   1      37.891  32.339  38.017  1.00  0.00     0.198 A 
ATOM     80  C   UNL A   1      39.251  34.213  37.393  1.00  0.00     0.198 A 
ATOM     81  F   UNL A   1      40.448  34.170  35.366  1.00  0.00    -0.203 F 
ATOM     82  F   UNL A   1      37.041  31.754  38.874  1.00  0.00    -0.200 F 
ATOM     83  C   UNL A   1      38.390  33.604  38.290  1.00  0.00     0.200 A 
ATOM     84  F   UNL A   1      39.753  35.427  37.662  1.00  0.00    -0.200 F 
ATOM     85  F   UNL A   1      38.040  34.234  39.419  1.00  0.00    -0.200 F 
ENDBRANCH  47  75
BRANCH  62  86
ATOM     86  C   UNL A   1      44.396  27.870  34.555  1.00  0.00     0.064 A 
ATOM     87  C   UNL A   1      45.609  28.568  34.626  1.00  0.00     0.173 A 
ATOM     88  C   UNL A   1      44.256  26.712  35.337  1.00  0.00     0.173 A 
ATOM     89  F   UNL A   1      45.799  29.670  33.885  1.00  0.00    -0.203 F 
ATOM     90  C   UNL A   1      46.643  28.121  35.444  1.00  0.00     0.198 A 
ATOM     91  C   UNL A   1      45.280  26.286  36.177  1.00  0.00     0.198 A 
ATOM     92  F   UNL A   1      43.113  26.010  35.306  1.00  0.00    -0.203 F 
ATOM     93  F   UNL A   1      47.807  28.786  35.475  1.00  0.00    -0.200 F 
ATOM     94  C   UNL A   1      46.473  26.989  36.228  1.00  0.00     0.200 A 
ATOM     95  F   UNL A   1      45.107  25.200  36.943  1.00  0.00    -0.200 F 
ATOM     96  F   UNL A   1      47.462  26.574  37.032  1.00  0.00    -0.200 F 
ENDBRANCH  62  86
ENDBRANCH  27  30
ENDBRANCH  18  20
ENDBRANCH  13  16
ENDBRANCH  10  13
ENDBRANCH   7  10
ENDBRANCH   4   7
ENDBRANCH   1   4
BRANCH   1  97
ATOM     97  C   UNL A   1      34.383  25.604  25.630  1.00  0.00     0.018 C 
ATOM     98  H   UNL A   1      33.762  25.098  26.339  1.00  0.00     0.049 H 
ATOM     99  H   UNL A   1      35.405  25.620  25.946  1.00  0.00     0.049 H 
BRANCH  97 100
ATOM    100  N   UNL A   1      34.321  24.893  24.363  1.00  0.00    -0.352 N 
ATOM    101  C   UNL A   1      35.150  23.911  23.885  1.00  0.00     0.253 C 
ATOM    102  H   UNL A   1      33.582  25.153  23.767  1.00  0.00     0.163 HD
ATOM    103  O   UNL A   1      34.993  23.474  22.748  1.00  0.00    -0.269 OA
BRANCH 101 104
ATOM    104  C   UNL A   1      36.250  23.384  24.720  1.00  0.00     0.063 A 
ATOM    105  C   UNL A   1      37.103  24.333  25.303  1.00  0.00    -0.047 A 
ATOM    106  C   UNL A   1      36.466  22.006  24.905  1.00  0.00     0.054 A 
ATOM    107  C   UNL A   1      38.151  23.921  26.125  1.00  0.00    -0.061 A 
ATOM    108  H   UNL A   1      36.956  25.338  25.124  1.00  0.00     0.063 H 
ATOM    109  C   UNL A   1      37.498  21.621  25.778  1.00  0.00    -0.038 A 
ATOM    110  C   UNL A   1      38.338  22.565  26.373  1.00  0.00    -0.060 A 
ATOM    111  H   UNL A   1      38.784  24.617  26.547  1.00  0.00     0.062 H 
ATOM    112  H   UNL A   1      37.638  20.620  25.983  1.00  0.00     0.064 H 
ATOM    113  H   UNL A   1      39.098  22.256  26.999  1.00  0.00     0.062 H 
BRANCH 106 114
ATOM    114  N   UNL A   1      35.680  21.041  24.252  1.00  0.00    -0.323 N 
ATOM    115  H   UNL A   1      36.027  20.739  23.382  1.00  0.00     0.170 HD
BRANCH 114 116
ATOM    116  C   UNL A   1      34.489  20.451  24.652  1.00  0.00     0.233 A 
ATOM    117  N   UNL A   1      34.326  19.145  24.516  1.00  0.00    -0.182 NA
ATOM    118  N   UNL A   1      33.571  21.266  25.157  1.00  0.00    -0.176 NA
ATOM    119  C   UNL A   1      33.153  18.710  24.937  1.00  0.00     0.228 A 
ATOM    120  C   UNL A   1      32.400  20.722  25.472  1.00  0.00     0.233 A 
ATOM    121  Cl  UNL A   1      32.882  17.028  24.798  1.00  0.00    -0.041 Cl
ATOM    122  N   UNL A   1      32.153  19.423  25.416  1.00  0.00    -0.182 NA
BRANCH 120 123
ATOM    123  N   UNL A   1      31.375  21.622  25.749  1.00  0.00    -0.324 N 
ATOM    124  H   UNL A   1      30.685  21.304  26.377  1.00  0.00     0.170 HD
BRANCH 123 125
ATOM    125  C   UNL A   1      31.194  22.915  25.255  1.00  0.00     0.041 A 
ATOM    126  C   UNL A   1      31.154  23.130  23.874  1.00  0.00    -0.036 A 
ATOM    127  C   UNL A   1      30.942  23.992  26.106  1.00  0.00    -0.036 A 
ATOM    128  C   UNL A   1      30.860  24.397  23.353  1.00  0.00    -0.036 A 
ATOM    129  H   UNL A   1      31.345  22.347  23.230  1.00  0.00     0.065 H 
ATOM    130  C   UNL A   1      30.708  25.269  25.592  1.00  0.00    -0.036 A 
ATOM    131  H   UNL A   1      30.930  23.844  27.127  1.00  0.00     0.065 H 
ATOM    132  C   UNL A   1      30.651  25.480  24.211  1.00  0.00     0.044 A 
ATOM    133  H   UNL A   1      30.797  24.530  22.332  1.00  0.00     0.065 H 
ATOM    134  H   UNL A   1      30.575  26.063  26.237  1.00  0.00     0.065 H 
BRANCH 132 135
ATOM    135  N   UNL A   1      30.338  26.771  23.694  1.00  0.00    -0.308 N 
ATOM    136  C   UNL A   1      31.433  27.511  23.057  1.00  0.00     0.049 C 
ATOM    137  C   UNL A   1      29.006  27.156  23.501  1.00  0.00     0.253 C 
ATOM    138  C   UNL A   1      31.080  28.960  22.743  1.00  0.00     0.065 C 
ATOM    139  H   UNL A   1      31.690  27.019  22.143  1.00  0.00     0.052 H 
ATOM    140  H   UNL A   1      32.249  27.527  23.749  1.00  0.00     0.052 H 
ATOM    141  C   UNL A   1      28.801  28.502  22.789  1.00  0.00     0.126 C 
ATOM    142  O   UNL A   1      28.031  26.544  23.945  1.00  0.00    -0.272 OA
ATOM    143  O   UNL A   1      29.867  29.002  21.999  1.00  0.00    -0.370 OA
ATOM    144  H   UNL A   1      31.867  29.402  22.169  1.00  0.00     0.059 H 
ATOM    145  H   UNL A   1      30.957  29.502  23.657  1.00  0.00     0.059 H 
ATOM    146  H   UNL A   1      27.950  28.396  22.148  1.00  0.00     0.067 H 
ATOM    147  H   UNL A   1      28.696  29.212  23.581  1.00  0.00     0.067 H 
ENDBRANCH 132 135
ENDBRANCH 123 125
ENDBRANCH 120 123
ENDBRANCH 114 116
ENDBRANCH 106 114
ENDBRANCH 101 104
ENDBRANCH  97 100
ENDBRANCH   1  97
TORSDOF 18
ENDMDL
MODEL 3
REMARK VINA RESULT:     -12.9      1.578      3.106
REMARK SMILES O=C(NCCCCCCNC(=O)c1ccccc1Nc1nc(Cl)nc(Nc2ccc(N3CCOCC3=O)cc2)n1)c1ccc(-c2c3nc(c(-c4c(F)c(F)c(F)c(F)c4F)c4ccc([nH]4)c(-c4c(F)c(F)c(F)c(F)c4F)c4nc(c(-c5c(F)c(F)c(F)c(F)c5F)c5ccc2[nH]5)C=C4)C=C3)cc1
REMARK SMILES IDX 8 1 7 4 6 7 5 10 4 13 3 16 1 17 2 18 41 20 42 21 103 22
REMARK SMILES IDX 43 23 102 25 44 27 45 30 46 31 96 32 47 33 101 34 95 35
REMARK SMILES IDX 97 36 48 37 100 38 94 40 93 42 49 44 81 47 61 48 80 49 62 50
REMARK SMILES IDX 65 51 79 52 98 53 63 54 64 56 78 58 99 59 66 62 50 64 51 65
REMARK SMILES IDX 59 66 52 67 53 68 57 69 60 70 54 71 55 72 58 73 56 74 82 75
REMARK SMILES IDX 83 76 91 77 84 78 85 79 89 80 92 81 86 82 87 83 90 84 88 85
REMARK SMILES IDX 67 86 68 87 76 88 69 89 70 90 74 91 77 92 71 93 72 94 75 95
REMARK SMILES IDX 73 96 9 97 10 100 11 101 12 103 13 104 14 105 18 106 15 107
REMARK SMILES IDX 17 109 16 110 19 114 20 116 21 117 40 118 22 119 25 120
REMARK SMILES IDX 23 121 24 122 26 123 27 125 28 126 39 127 29 128 38 130
REMARK SMILES IDX 30 132 31 135 32 136 36 137 33 138 35 141 37 142 34 143
REMARK H PARENT 8 2 8 3 7 5 7 6 6 8 6 9 5 11 5 12 4 14 4 15 3 19 42 24 103 26
REMARK H PARENT 43 28 102 29 101 39 95 41 97 43 100 45 94 46 62 55 65 57 98 60
REMARK H PARENT 63 61 99 63 9 98 9 99 10 102 14 108 15 111 17 112 16 113
REMARK H PARENT 19 115 26 124 28 129 39 131 29 133 38 134 32 139 32 140 33 144
REMARK H PARENT 33 145 35 146 35 147
REMARK Flexibility Score: inf
ROOT
ATOM      1  C   UNL A   1      32.875  29.249  24.601  1.00  0.00    -0.036 C 
ATOM      2  H   UNL A   1      32.985  29.891  23.752  1.00  0.00     0.028 H 
ATOM      3  H   UNL A   1      31.978  28.666  24.584  1.00  0.00     0.028 H 
ENDROOT
BRANCH   1   4
ATOM      4  C   UNL A   1      32.785  30.130  25.853  1.00  0.00    -0.052 C 
ATOM      5  H   UNL A   1      33.125  29.552  26.686  1.00  0.00     0.027 H 
ATOM      6  H   UNL A   1      33.386  30.991  25.646  1.00  0.00     0.027 H 
BRANCH   4   7
ATOM      7  C   UNL A   1      31.391  30.667  26.190  1.00  0.00    -0.052 C 
ATOM      8  H   UNL A   1      30.751  30.471  25.355  1.00  0.00     0.027 H 
ATOM      9  H   UNL A   1      31.093  30.168  27.088  1.00  0.00     0.027 H 
BRANCH   7  10
ATOM     10  C   UNL A   1      31.318  32.164  26.498  1.00  0.00    -0.036 C 
ATOM     11  H   UNL A   1      31.178  32.686  25.574  1.00  0.00     0.028 H 
ATOM     12  H   UNL A   1      30.507  32.288  27.184  1.00  0.00     0.028 H 
BRANCH  10  13
ATOM     13  C   UNL A   1      32.550  32.741  27.185  1.00  0.00     0.018 C 
ATOM     14  H   UNL A   1      32.796  32.124  28.024  1.00  0.00     0.049 H 
ATOM     15  H   UNL A   1      33.343  32.765  26.467  1.00  0.00     0.049 H 
BRANCH  13  16
ATOM     16  N   UNL A   1      32.337  34.101  27.655  1.00  0.00    -0.352 N 
ATOM     17  O   UNL A   1      32.572  35.885  29.014  1.00  0.00    -0.269 OA
ATOM     18  C   UNL A   1      33.002  34.798  28.628  1.00  0.00     0.251 C 
ATOM     19  H   UNL A   1      31.610  34.591  27.207  1.00  0.00     0.163 HD
BRANCH  18  20
ATOM     20  C   UNL A   1      34.225  34.239  29.236  1.00  0.00     0.039 A 
ATOM     21  C   UNL A   1      35.493  34.605  28.768  1.00  0.00    -0.049 A 
ATOM     22  C   UNL A   1      34.099  33.354  30.308  1.00  0.00    -0.049 A 
ATOM     23  C   UNL A   1      36.628  34.000  29.298  1.00  0.00    -0.053 A 
ATOM     24  H   UNL A   1      35.584  35.321  28.031  1.00  0.00     0.063 H 
ATOM     25  C   UNL A   1      35.243  32.803  30.887  1.00  0.00    -0.053 A 
ATOM     26  H   UNL A   1      33.165  33.110  30.672  1.00  0.00     0.063 H 
ATOM     27  C   UNL A   1      36.515  33.104  30.372  1.00  0.00    -0.014 A 
ATOM     28  H   UNL A   1      37.557  34.211  28.901  1.00  0.00     0.063 H 
ATOM     29  H   UNL A   1      35.154  32.170  31.698  1.00  0.00     0.063 H 
BRANCH  27  30
ATOM     30  C   UNL A   1      37.725  32.518  30.995  1.00  0.00     0.031 A 
ATOM     31  C   UNL A   1      38.483  31.420  30.309  1.00  0.00     0.074 A 
ATOM     32  C   UNL A   1      38.108  32.948  32.212  1.00  0.00     0.049 A 
ATOM     33  N   UNL A   1      39.488  30.707  30.750  1.00  0.00    -0.248 NA
ATOM     34  C   UNL A   1      38.043  31.068  28.951  1.00  0.00    -0.034 C 
ATOM     35  C   UNL A   1      37.448  34.009  32.974  1.00  0.00    -0.036 A 
ATOM     36  N   UNL A   1      39.127  32.532  33.029  1.00  0.00    -0.354 N 
ATOM     37  C   UNL A   1      39.785  29.805  29.736  1.00  0.00     0.074 A 
ATOM     38  C   UNL A   1      38.837  30.045  28.668  1.00  0.00    -0.034 C 
ATOM     39  H   UNL A   1      37.309  31.504  28.371  1.00  0.00     0.065 H 
ATOM     40  C   UNL A   1      38.076  34.160  34.148  1.00  0.00    -0.036 A 
ATOM     41  H   UNL A   1      36.629  34.552  32.658  1.00  0.00     0.065 H 
ATOM     42  C   UNL A   1      39.140  33.167  34.248  1.00  0.00     0.049 A 
ATOM     43  H   UNL A   1      39.784  31.848  32.770  1.00  0.00     0.167 HD
ATOM     44  C   UNL A   1      40.762  28.866  29.704  1.00  0.00     0.037 A 
ATOM     45  H   UNL A   1      38.785  29.491  27.800  1.00  0.00     0.065 H 
ATOM     46  H   UNL A   1      37.846  34.866  34.865  1.00  0.00     0.065 H 
ATOM     47  C   UNL A   1      39.894  32.945  35.340  1.00  0.00     0.037 A 
ATOM     48  C   UNL A   1      41.698  28.639  30.776  1.00  0.00     0.049 A 
ATOM     49  C   UNL A   1      40.940  31.868  35.302  1.00  0.00     0.074 A 
ATOM     50  C   UNL A   1      42.752  27.744  30.827  1.00  0.00    -0.036 A 
ATOM     51  N   UNL A   1      41.682  29.306  31.994  1.00  0.00    -0.354 N 
ATOM     52  N   UNL A   1      41.241  31.046  34.327  1.00  0.00    -0.248 NA
ATOM     53  C   UNL A   1      41.752  31.688  36.513  1.00  0.00    -0.034 C 
ATOM     54  C   UNL A   1      43.331  27.822  32.098  1.00  0.00    -0.036 A 
ATOM     55  H   UNL A   1      43.057  27.125  30.060  1.00  0.00     0.065 H 
ATOM     56  C   UNL A   1      42.686  28.818  32.815  1.00  0.00     0.049 A 
ATOM     57  H   UNL A   1      41.051  30.020  32.239  1.00  0.00     0.167 HD
ATOM     58  C   UNL A   1      42.295  30.272  34.791  1.00  0.00     0.074 A 
ATOM     59  C   UNL A   1      42.581  30.723  36.137  1.00  0.00    -0.034 C 
ATOM     60  H   UNL A   1      41.692  32.183  37.416  1.00  0.00     0.065 H 
ATOM     61  H   UNL A   1      44.107  27.236  32.444  1.00  0.00     0.065 H 
ATOM     62  C   UNL A   1      42.968  29.284  34.151  1.00  0.00     0.037 A 
ATOM     63  H   UNL A   1      43.335  30.342  36.730  1.00  0.00     0.065 H 
BRANCH  44  64
ATOM     64  C   UNL A   1      40.839  27.986  28.486  1.00  0.00     0.064 A 
ATOM     65  C   UNL A   1      41.675  28.288  27.401  1.00  0.00     0.173 A 
ATOM     66  C   UNL A   1      40.068  26.816  28.410  1.00  0.00     0.173 A 
ATOM     67  F   UNL A   1      42.429  29.398  27.417  1.00  0.00    -0.203 F 
ATOM     68  C   UNL A   1      41.702  27.478  26.268  1.00  0.00     0.198 A 
ATOM     69  C   UNL A   1      40.124  25.988  27.292  1.00  0.00     0.198 A 
ATOM     70  F   UNL A   1      39.260  26.469  29.423  1.00  0.00    -0.203 F 
ATOM     71  F   UNL A   1      42.461  27.822  25.218  1.00  0.00    -0.200 F 
ATOM     72  C   UNL A   1      40.931  26.327  26.216  1.00  0.00     0.200 A 
ATOM     73  F   UNL A   1      39.392  24.866  27.252  1.00  0.00    -0.200 F 
ATOM     74  F   UNL A   1      40.959  25.547  25.126  1.00  0.00    -0.200 F 
ENDBRANCH  44  64
BRANCH  47  75
ATOM     75  C   UNL A   1      39.662  33.766  36.555  1.00  0.00     0.064 A 
ATOM     76  C   UNL A   1      40.226  35.040  36.684  1.00  0.00     0.173 A 
ATOM     77  C   UNL A   1      38.821  33.314  37.585  1.00  0.00     0.173 A 
ATOM     78  F   UNL A   1      41.047  35.509  35.732  1.00  0.00    -0.203 F 
ATOM     79  C   UNL A   1      39.959  35.834  37.798  1.00  0.00     0.198 A 
ATOM     80  C   UNL A   1      38.533  34.120  38.684  1.00  0.00     0.198 A 
ATOM     81  F   UNL A   1      38.250  32.103  37.503  1.00  0.00    -0.203 F 
ATOM     82  F   UNL A   1      40.530  37.042  37.908  1.00  0.00    -0.200 F 
ATOM     83  C   UNL A   1      39.105  35.377  38.791  1.00  0.00     0.200 A 
ATOM     84  F   UNL A   1      37.691  33.683  39.630  1.00  0.00    -0.200 F 
ATOM     85  F   UNL A   1      38.834  36.150  39.851  1.00  0.00    -0.200 F 
ENDBRANCH  47  75
BRANCH  62  86
ATOM     86  C   UNL A   1      44.123  28.651  34.872  1.00  0.00     0.064 A 
ATOM     87  C   UNL A   1      45.424  29.167  34.788  1.00  0.00     0.173 A 
ATOM     88  C   UNL A   1      43.904  27.556  35.724  1.00  0.00     0.173 A 
ATOM     89  F   UNL A   1      45.689  30.201  33.974  1.00  0.00    -0.203 F 
ATOM     90  C   UNL A   1      46.464  28.606  35.523  1.00  0.00     0.198 A 
ATOM     91  C   UNL A   1      44.940  27.017  36.481  1.00  0.00     0.198 A 
ATOM     92  F   UNL A   1      42.677  27.027  35.842  1.00  0.00    -0.203 F 
ATOM     93  F   UNL A   1      47.707  29.095  35.405  1.00  0.00    -0.200 F 
ATOM     94  C   UNL A   1      46.219  27.541  36.378  1.00  0.00     0.200 A 
ATOM     95  F   UNL A   1      44.697  25.998  37.316  1.00  0.00    -0.200 F 
ATOM     96  F   UNL A   1      47.218  27.017  37.102  1.00  0.00    -0.200 F 
ENDBRANCH  62  86
ENDBRANCH  27  30
ENDBRANCH  18  20
ENDBRANCH  13  16
ENDBRANCH  10  13
ENDBRANCH   7  10
ENDBRANCH   4   7
ENDBRANCH   1   4
BRANCH   1  97
ATOM     97  C   UNL A   1      34.030  28.251  24.590  1.00  0.00     0.018 C 
ATOM     98  H   UNL A   1      33.981  27.658  25.479  1.00  0.00     0.049 H 
ATOM     99  H   UNL A   1      34.942  28.807  24.540  1.00  0.00     0.049 H 
BRANCH  97 100
ATOM    100  N   UNL A   1      33.985  27.368  23.436  1.00  0.00    -0.352 N 
ATOM    101  C   UNL A   1      33.565  26.064  23.364  1.00  0.00     0.253 C 
ATOM    102  H   UNL A   1      34.298  27.760  22.589  1.00  0.00     0.163 HD
ATOM    103  O   UNL A   1      33.672  25.441  22.312  1.00  0.00    -0.269 OA
BRANCH 101 104
ATOM    104  C   UNL A   1      33.003  25.390  24.554  1.00  0.00     0.063 A 
ATOM    105  C   UNL A   1      31.697  25.750  24.921  1.00  0.00    -0.047 A 
ATOM    106  C   UNL A   1      33.736  24.456  25.311  1.00  0.00     0.054 A 
ATOM    107  C   UNL A   1      31.085  25.143  26.016  1.00  0.00    -0.061 A 
ATOM    108  H   UNL A   1      31.189  26.466  24.379  1.00  0.00     0.063 H 
ATOM    109  C   UNL A   1      33.076  23.824  26.379  1.00  0.00    -0.038 A 
ATOM    110  C   UNL A   1      31.770  24.170  26.735  1.00  0.00    -0.060 A 
ATOM    111  H   UNL A   1      30.128  25.414  26.291  1.00  0.00     0.062 H 
ATOM    112  H   UNL A   1      33.567  23.090  26.911  1.00  0.00     0.064 H 
ATOM    113  H   UNL A   1      31.312  23.701  27.532  1.00  0.00     0.062 H 
BRANCH 106 114
ATOM    114  N   UNL A   1      35.075  24.155  25.015  1.00  0.00    -0.323 N 
ATOM    115  H   UNL A   1      35.600  24.902  24.648  1.00  0.00     0.170 HD
BRANCH 114 116
ATOM    116  C   UNL A   1      35.769  22.961  25.164  1.00  0.00     0.233 A 
ATOM    117  N   UNL A   1      35.185  21.818  24.845  1.00  0.00    -0.182 NA
ATOM    118  N   UNL A   1      37.008  23.059  25.630  1.00  0.00    -0.176 NA
ATOM    119  C   UNL A   1      35.953  20.760  25.029  1.00  0.00     0.228 A 
ATOM    120  C   UNL A   1      37.654  21.917  25.847  1.00  0.00     0.233 A 
ATOM    121  Cl  UNL A   1      35.260  19.251  24.627  1.00  0.00    -0.041 Cl
ATOM    122  N   UNL A   1      37.176  20.728  25.521  1.00  0.00    -0.182 NA
BRANCH 120 123
ATOM    123  N   UNL A   1      38.837  22.025  26.574  1.00  0.00    -0.324 N 
ATOM    124  H   UNL A   1      38.765  22.487  27.441  1.00  0.00     0.170 HD
BRANCH 123 125
ATOM    125  C   UNL A   1      40.111  21.566  26.236  1.00  0.00     0.041 A 
ATOM    126  C   UNL A   1      41.150  22.482  26.042  1.00  0.00    -0.036 A 
ATOM    127  C   UNL A   1      40.408  20.203  26.192  1.00  0.00    -0.036 A 
ATOM    128  C   UNL A   1      42.461  22.044  25.816  1.00  0.00    -0.036 A 
ATOM    129  H   UNL A   1      40.949  23.494  26.064  1.00  0.00     0.065 H 
ATOM    130  C   UNL A   1      41.701  19.761  25.908  1.00  0.00    -0.036 A 
ATOM    131  H   UNL A   1      39.662  19.513  26.371  1.00  0.00     0.065 H 
ATOM    132  C   UNL A   1      42.743  20.677  25.732  1.00  0.00     0.044 A 
ATOM    133  H   UNL A   1      43.222  22.733  25.713  1.00  0.00     0.065 H 
ATOM    134  H   UNL A   1      41.890  18.750  25.828  1.00  0.00     0.065 H 
BRANCH 132 135
ATOM    135  N   UNL A   1      44.074  20.219  25.515  1.00  0.00    -0.308 N 
ATOM    136  C   UNL A   1      44.279  18.767  25.488  1.00  0.00     0.049 C 
ATOM    137  C   UNL A   1      45.053  21.090  25.021  1.00  0.00     0.253 C 
ATOM    138  C   UNL A   1      45.748  18.363  25.487  1.00  0.00     0.065 C 
ATOM    139  H   UNL A   1      43.819  18.375  24.605  1.00  0.00     0.052 H 
ATOM    140  H   UNL A   1      43.842  18.369  26.381  1.00  0.00     0.052 H 
ATOM    141  C   UNL A   1      46.404  20.443  24.677  1.00  0.00     0.126 C 
ATOM    142  O   UNL A   1      44.926  22.314  24.946  1.00  0.00    -0.272 OA
ATOM    143  O   UNL A   1      46.426  19.045  24.436  1.00  0.00    -0.370 OA
ATOM    144  H   UNL A   1      45.827  17.307  25.337  1.00  0.00     0.059 H 
ATOM    145  H   UNL A   1      46.190  18.626  26.425  1.00  0.00     0.059 H 
ATOM    146  H   UNL A   1      46.773  20.925  23.795  1.00  0.00     0.067 H 
ATOM    147  H   UNL A   1      46.997  20.574  25.557  1.00  0.00     0.067 H 
ENDBRANCH 132 135
ENDBRANCH 123 125
ENDBRANCH 120 123
ENDBRANCH 114 116
ENDBRANCH 106 114
ENDBRANCH 101 104
ENDBRANCH  97 100
ENDBRANCH   1  97
TORSDOF 18
ENDMDL
MODEL 4
REMARK VINA RESULT:     -12.7      1.686      7.080
REMARK SMILES O=C(NCCCCCCNC(=O)c1ccccc1Nc1nc(Cl)nc(Nc2ccc(N3CCOCC3=O)cc2)n1)c1ccc(-c2c3nc(c(-c4c(F)c(F)c(F)c(F)c4F)c4ccc([nH]4)c(-c4c(F)c(F)c(F)c(F)c4F)c4nc(c(-c5c(F)c(F)c(F)c(F)c5F)c5ccc2[nH]5)C=C4)C=C3)cc1
REMARK SMILES IDX 8 1 7 4 6 7 5 10 4 13 3 16 1 17 2 18 41 20 42 21 103 22
REMARK SMILES IDX 43 23 102 25 44 27 45 30 46 31 96 32 47 33 101 34 95 35
REMARK SMILES IDX 97 36 48 37 100 38 94 40 93 42 49 44 81 47 61 48 80 49 62 50
REMARK SMILES IDX 65 51 79 52 98 53 63 54 64 56 78 58 99 59 66 62 50 64 51 65
REMARK SMILES IDX 59 66 52 67 53 68 57 69 60 70 54 71 55 72 58 73 56 74 82 75
REMARK SMILES IDX 83 76 91 77 84 78 85 79 89 80 92 81 86 82 87 83 90 84 88 85
REMARK SMILES IDX 67 86 68 87 76 88 69 89 70 90 74 91 77 92 71 93 72 94 75 95
REMARK SMILES IDX 73 96 9 97 10 100 11 101 12 103 13 104 14 105 18 106 15 107
REMARK SMILES IDX 17 109 16 110 19 114 20 116 21 117 40 118 22 119 25 120
REMARK SMILES IDX 23 121 24 122 26 123 27 125 28 126 39 127 29 128 38 130
REMARK SMILES IDX 30 132 31 135 32 136 36 137 33 138 35 141 37 142 34 143
REMARK H PARENT 8 2 8 3 7 5 7 6 6 8 6 9 5 11 5 12 4 14 4 15 3 19 42 24 103 26
REMARK H PARENT 43 28 102 29 101 39 95 41 97 43 100 45 94 46 62 55 65 57 98 60
REMARK H PARENT 63 61 99 63 9 98 9 99 10 102 14 108 15 111 17 112 16 113
REMARK H PARENT 19 115 26 124 28 129 39 131 29 133 38 134 32 139 32 140 33 144
REMARK H PARENT 33 145 35 146 35 147
REMARK Flexibility Score: inf
ROOT
ATOM      1  C   UNL A   1      33.491  31.853  27.600  1.00  0.00    -0.036 C 
ATOM      2  H   UNL A   1      33.482  32.567  26.803  1.00  0.00     0.028 H 
ATOM      3  H   UNL A   1      32.577  31.819  28.154  1.00  0.00     0.028 H 
ENDROOT
BRANCH   1   4
ATOM      4  C   UNL A   1      34.579  32.268  28.596  1.00  0.00    -0.052 C 
ATOM      5  H   UNL A   1      34.403  31.743  29.512  1.00  0.00     0.027 H 
ATOM      6  H   UNL A   1      35.509  32.025  28.128  1.00  0.00     0.027 H 
BRANCH   4   7
ATOM      7  C   UNL A   1      34.651  33.763  28.918  1.00  0.00    -0.052 C 
ATOM      8  H   UNL A   1      35.095  33.872  29.886  1.00  0.00     0.027 H 
ATOM      9  H   UNL A   1      35.223  34.206  28.129  1.00  0.00     0.027 H 
BRANCH   7  10
ATOM     10  C   UNL A   1      33.310  34.500  28.929  1.00  0.00    -0.036 C 
ATOM     11  H   UNL A   1      32.886  34.431  27.949  1.00  0.00     0.028 H 
ATOM     12  H   UNL A   1      32.717  34.030  29.685  1.00  0.00     0.028 H 
BRANCH  10  13
ATOM     13  C   UNL A   1      33.389  35.975  29.306  1.00  0.00     0.018 C 
ATOM     14  H   UNL A   1      34.407  36.218  29.531  1.00  0.00     0.049 H 
ATOM     15  H   UNL A   1      33.022  36.544  28.477  1.00  0.00     0.049 H 
BRANCH  13  16
ATOM     16  N   UNL A   1      32.568  36.297  30.462  1.00  0.00    -0.352 N 
ATOM     17  O   UNL A   1      31.768  36.086  32.560  1.00  0.00    -0.269 OA
ATOM     18  C   UNL A   1      32.659  35.836  31.749  1.00  0.00     0.251 C 
ATOM     19  H   UNL A   1      31.841  36.940  30.296  1.00  0.00     0.163 HD
BRANCH  18  20
ATOM     20  C   UNL A   1      33.816  35.019  32.162  1.00  0.00     0.039 A 
ATOM     21  C   UNL A   1      33.647  33.698  32.594  1.00  0.00    -0.049 A 
ATOM     22  C   UNL A   1      35.094  35.577  32.090  1.00  0.00    -0.049 A 
ATOM     23  C   UNL A   1      34.741  32.976  33.060  1.00  0.00    -0.053 A 
ATOM     24  H   UNL A   1      32.713  33.262  32.568  1.00  0.00     0.063 H 
ATOM     25  C   UNL A   1      36.199  34.827  32.490  1.00  0.00    -0.053 A 
ATOM     26  H   UNL A   1      35.220  36.540  31.741  1.00  0.00     0.063 H 
ATOM     27  C   UNL A   1      36.030  33.529  32.999  1.00  0.00    -0.014 A 
ATOM     28  H   UNL A   1      34.605  32.031  33.451  1.00  0.00     0.063 H 
ATOM     29  H   UNL A   1      37.148  35.227  32.411  1.00  0.00     0.063 H 
BRANCH  27  30
ATOM     30  C   UNL A   1      37.210  32.735  33.416  1.00  0.00     0.031 A 
ATOM     31  C   UNL A   1      37.918  33.040  34.703  1.00  0.00     0.074 A 
ATOM     32  C   UNL A   1      37.672  31.770  32.601  1.00  0.00     0.049 A 
ATOM     33  N   UNL A   1      39.031  32.537  35.176  1.00  0.00    -0.248 NA
ATOM     34  C   UNL A   1      37.300  34.054  35.569  1.00  0.00    -0.034 C 
ATOM     35  C   UNL A   1      37.065  31.387  31.325  1.00  0.00    -0.036 A 
ATOM     36  N   UNL A   1      38.768  30.953  32.709  1.00  0.00    -0.354 N 
ATOM     37  C   UNL A   1      39.261  33.190  36.379  1.00  0.00     0.074 A 
ATOM     38  C   UNL A   1      38.185  34.144  36.552  1.00  0.00    -0.034 C 
ATOM     39  H   UNL A   1      36.411  34.563  35.444  1.00  0.00     0.065 H 
ATOM     40  C   UNL A   1      37.796  30.411  30.768  1.00  0.00    -0.036 A 
ATOM     41  H   UNL A   1      36.211  31.801  30.920  1.00  0.00     0.065 H 
ATOM     42  C   UNL A   1      38.955  30.146  31.614  1.00  0.00     0.049 A 
ATOM     43  H   UNL A   1      39.361  30.945  33.494  1.00  0.00     0.167 HD
ATOM     44  C   UNL A   1      40.278  33.007  37.256  1.00  0.00     0.037 A 
ATOM     45  H   UNL A   1      38.116  34.808  37.338  1.00  0.00     0.065 H 
ATOM     46  H   UNL A   1      37.575  29.925  29.885  1.00  0.00     0.065 H 
ATOM     47  C   UNL A   1      39.969  29.317  31.302  1.00  0.00     0.037 A 
ATOM     48  C   UNL A   1      41.342  32.053  37.070  1.00  0.00     0.049 A 
ATOM     49  C   UNL A   1      41.111  29.162  32.266  1.00  0.00     0.074 A 
ATOM     50  C   UNL A   1      42.395  31.758  37.916  1.00  0.00    -0.036 A 
ATOM     51  N   UNL A   1      41.495  31.249  35.947  1.00  0.00    -0.354 N 
ATOM     52  N   UNL A   1      41.302  29.754  33.419  1.00  0.00    -0.248 NA
ATOM     53  C   UNL A   1      42.175  28.224  31.887  1.00  0.00    -0.034 C 
ATOM     54  C   UNL A   1      43.220  30.825  37.279  1.00  0.00    -0.036 A 
ATOM     55  H   UNL A   1      42.546  32.157  38.856  1.00  0.00     0.065 H 
ATOM     56  C   UNL A   1      42.644  30.484  36.066  1.00  0.00     0.049 A 
ATOM     57  H   UNL A   1      40.879  31.227  35.180  1.00  0.00     0.167 HD
ATOM     58  C   UNL A   1      42.489  29.241  33.920  1.00  0.00     0.074 A 
ATOM     59  C   UNL A   1      42.976  28.288  32.944  1.00  0.00    -0.034 C 
ATOM     60  H   UNL A   1      42.275  27.664  31.027  1.00  0.00     0.065 H 
ATOM     61  H   UNL A   1      44.110  30.455  37.650  1.00  0.00     0.065 H 
ATOM     62  C   UNL A   1      43.112  29.529  35.090  1.00  0.00     0.037 A 
ATOM     63  H   UNL A   1      43.837  27.730  33.055  1.00  0.00     0.065 H 
BRANCH  44  64
ATOM     64  C   UNL A   1      40.308  33.885  38.477  1.00  0.00     0.064 A 
ATOM     65  C   UNL A   1      41.059  35.070  38.523  1.00  0.00     0.173 A 
ATOM     66  C   UNL A   1      39.564  33.540  39.616  1.00  0.00     0.173 A 
ATOM     67  F   UNL A   1      41.793  35.446  37.465  1.00  0.00    -0.203 F 
ATOM     68  C   UNL A   1      41.100  35.850  39.677  1.00  0.00     0.198 A 
ATOM     69  C   UNL A   1      39.578  34.340  40.755  1.00  0.00     0.198 A 
ATOM     70  F   UNL A   1      38.817  32.426  39.625  1.00  0.00    -0.203 F 
ATOM     71  F   UNL A   1      41.876  36.942  39.718  1.00  0.00    -0.200 F 
ATOM     72  C   UNL A   1      40.358  35.487  40.790  1.00  0.00     0.200 A 
ATOM     73  F   UNL A   1      38.845  33.996  41.823  1.00  0.00    -0.200 F 
ATOM     74  F   UNL A   1      40.397  36.238  41.900  1.00  0.00    -0.200 F 
ENDBRANCH  44  64
BRANCH  47  75
ATOM     75  C   UNL A   1      39.933  28.589  30.010  1.00  0.00     0.064 A 
ATOM     76  C   UNL A   1      40.511  29.134  28.857  1.00  0.00     0.173 A 
ATOM     77  C   UNL A   1      39.373  27.304  29.917  1.00  0.00     0.173 A 
ATOM     78  F   UNL A   1      41.046  30.364  28.894  1.00  0.00    -0.203 F 
ATOM     79  C   UNL A   1      40.528  28.423  27.658  1.00  0.00     0.198 A 
ATOM     80  C   UNL A   1      39.417  26.585  28.726  1.00  0.00     0.198 A 
ATOM     81  F   UNL A   1      38.816  26.736  30.997  1.00  0.00    -0.203 F 
ATOM     82  F   UNL A   1      41.067  28.977  26.563  1.00  0.00    -0.200 F 
ATOM     83  C   UNL A   1      39.991  27.146  27.597  1.00  0.00     0.200 A 
ATOM     84  F   UNL A   1      38.916  25.343  28.677  1.00  0.00    -0.200 F 
ATOM     85  F   UNL A   1      40.029  26.457  26.449  1.00  0.00    -0.200 F 
ENDBRANCH  47  75
BRANCH  62  86
ATOM     86  C   UNL A   1      44.365  28.769  35.416  1.00  0.00     0.064 A 
ATOM     87  C   UNL A   1      44.334  27.540  36.089  1.00  0.00     0.173 A 
ATOM     88  C   UNL A   1      45.610  29.245  34.974  1.00  0.00     0.173 A 
ATOM     89  F   UNL A   1      43.171  27.051  36.548  1.00  0.00    -0.203 F 
ATOM     90  C   UNL A   1      45.503  26.819  36.315  1.00  0.00     0.198 A 
ATOM     91  C   UNL A   1      46.773  28.507  35.174  1.00  0.00     0.198 A 
ATOM     92  F   UNL A   1      45.693  30.415  34.321  1.00  0.00    -0.203 F 
ATOM     93  F   UNL A   1      45.456  25.661  36.989  1.00  0.00    -0.200 F 
ATOM     94  C   UNL A   1      46.718  27.297  35.847  1.00  0.00     0.200 A 
ATOM     95  F   UNL A   1      47.943  28.964  34.708  1.00  0.00    -0.200 F 
ATOM     96  F   UNL A   1      47.840  26.590  36.046  1.00  0.00    -0.200 F 
ENDBRANCH  62  86
ENDBRANCH  27  30
ENDBRANCH  18  20
ENDBRANCH  13  16
ENDBRANCH  10  13
ENDBRANCH   7  10
ENDBRANCH   4   7
ENDBRANCH   1   4
BRANCH   1  97
ATOM     97  C   UNL A   1      33.664  30.465  26.986  1.00  0.00     0.018 C 
ATOM     98  H   UNL A   1      34.686  30.167  27.093  1.00  0.00     0.049 H 
ATOM     99  H   UNL A   1      33.379  30.525  25.957  1.00  0.00     0.049 H 
BRANCH  97 100
ATOM    100  N   UNL A   1      32.818  29.470  27.624  1.00  0.00    -0.352 N 
ATOM    101  C   UNL A   1      31.942  28.586  27.047  1.00  0.00     0.253 C 
ATOM    102  H   UNL A   1      32.884  29.424  28.605  1.00  0.00     0.163 HD
ATOM    103  O   UNL A   1      31.244  27.864  27.753  1.00  0.00    -0.269 OA
BRANCH 101 104
ATOM    104  C   UNL A   1      31.812  28.509  25.577  1.00  0.00     0.063 A 
ATOM    105  C   UNL A   1      31.055  29.517  24.961  1.00  0.00    -0.047 A 
ATOM    106  C   UNL A   1      32.385  27.470  24.820  1.00  0.00     0.054 A 
ATOM    107  C   UNL A   1      30.904  29.531  23.575  1.00  0.00    -0.061 A 
ATOM    108  H   UNL A   1      30.607  30.249  25.534  1.00  0.00     0.063 H 
ATOM    109  C   UNL A   1      32.259  27.537  23.422  1.00  0.00    -0.038 A 
ATOM    110  C   UNL A   1      31.519  28.549  22.807  1.00  0.00    -0.060 A 
ATOM    111  H   UNL A   1      30.339  30.267  23.123  1.00  0.00     0.062 H 
ATOM    112  H   UNL A   1      32.722  26.824  22.839  1.00  0.00     0.064 H 
ATOM    113  H   UNL A   1      31.429  28.569  21.778  1.00  0.00     0.062 H 
BRANCH 106 114
ATOM    114  N   UNL A   1      33.065  26.402  25.430  1.00  0.00    -0.323 N 
ATOM    115  H   UNL A   1      33.865  26.656  25.945  1.00  0.00     0.170 HD
BRANCH 114 116
ATOM    116  C   UNL A   1      32.778  25.044  25.415  1.00  0.00     0.233 A 
ATOM    117  N   UNL A   1      31.705  24.594  26.044  1.00  0.00    -0.182 NA
ATOM    118  N   UNL A   1      33.627  24.272  24.749  1.00  0.00    -0.176 NA
ATOM    119  C   UNL A   1      31.543  23.287  25.950  1.00  0.00     0.228 A 
ATOM    120  C   UNL A   1      33.402  22.962  24.792  1.00  0.00     0.233 A 
ATOM    121  Cl  UNL A   1      30.169  22.642  26.734  1.00  0.00    -0.041 Cl
ATOM    122  N   UNL A   1      32.336  22.418  25.355  1.00  0.00    -0.182 NA
BRANCH 120 123
ATOM    123  N   UNL A   1      34.434  22.159  24.316  1.00  0.00    -0.324 N 
ATOM    124  H   UNL A   1      34.237  21.649  23.497  1.00  0.00     0.170 HD
BRANCH 123 125
ATOM    125  C   UNL A   1      35.713  21.981  24.846  1.00  0.00     0.041 A 
ATOM    126  C   UNL A   1      36.266  20.698  24.908  1.00  0.00    -0.036 A 
ATOM    127  C   UNL A   1      36.506  23.068  25.220  1.00  0.00    -0.036 A 
ATOM    128  C   UNL A   1      37.589  20.506  25.327  1.00  0.00    -0.036 A 
ATOM    129  H   UNL A   1      35.693  19.882  24.642  1.00  0.00     0.065 H 
ATOM    130  C   UNL A   1      37.805  22.875  25.695  1.00  0.00    -0.036 A 
ATOM    131  H   UNL A   1      36.128  24.025  25.145  1.00  0.00     0.065 H 
ATOM    132  C   UNL A   1      38.363  21.594  25.740  1.00  0.00     0.044 A 
ATOM    133  H   UNL A   1      37.993  19.556  25.330  1.00  0.00     0.065 H 
ATOM    134  H   UNL A   1      38.357  23.685  26.015  1.00  0.00     0.065 H 
BRANCH 132 135
ATOM    135  N   UNL A   1      39.714  21.412  26.156  1.00  0.00    -0.308 N 
ATOM    136  C   UNL A   1      40.321  22.503  26.926  1.00  0.00     0.049 C 
ATOM    137  C   UNL A   1      40.301  20.142  26.127  1.00  0.00     0.253 C 
ATOM    138  C   UNL A   1      41.822  22.336  27.130  1.00  0.00     0.065 C 
ATOM    139  H   UNL A   1      39.852  22.544  27.887  1.00  0.00     0.052 H 
ATOM    140  H   UNL A   1      40.176  23.404  26.368  1.00  0.00     0.052 H 
ATOM    141  C   UNL A   1      41.702  20.044  26.750  1.00  0.00     0.126 C 
ATOM    142  O   UNL A   1      39.814  19.160  25.561  1.00  0.00    -0.272 OA
ATOM    143  O   UNL A   1      42.086  21.047  27.676  1.00  0.00    -0.370 OA
ATOM    144  H   UNL A   1      42.177  23.089  27.802  1.00  0.00     0.059 H 
ATOM    145  H   UNL A   1      42.322  22.432  26.189  1.00  0.00     0.059 H 
ATOM    146  H   UNL A   1      41.760  19.102  27.257  1.00  0.00     0.067 H 
ATOM    147  H   UNL A   1      42.372  20.167  25.926  1.00  0.00     0.067 H 
ENDBRANCH 132 135
ENDBRANCH 123 125
ENDBRANCH 120 123
ENDBRANCH 114 116
ENDBRANCH 106 114
ENDBRANCH 101 104
ENDBRANCH  97 100
ENDBRANCH   1  97
TORSDOF 18
ENDMDL
MODEL 5
REMARK VINA RESULT:     -12.6      4.802     11.384
REMARK SMILES O=C(NCCCCCCNC(=O)c1ccccc1Nc1nc(Cl)nc(Nc2ccc(N3CCOCC3=O)cc2)n1)c1ccc(-c2c3nc(c(-c4c(F)c(F)c(F)c(F)c4F)c4ccc([nH]4)c(-c4c(F)c(F)c(F)c(F)c4F)c4nc(c(-c5c(F)c(F)c(F)c(F)c5F)c5ccc2[nH]5)C=C4)C=C3)cc1
REMARK SMILES IDX 8 1 7 4 6 7 5 10 4 13 3 16 1 17 2 18 41 20 42 21 103 22
REMARK SMILES IDX 43 23 102 25 44 27 45 30 46 31 96 32 47 33 101 34 95 35
REMARK SMILES IDX 97 36 48 37 100 38 94 40 93 42 49 44 81 47 61 48 80 49 62 50
REMARK SMILES IDX 65 51 79 52 98 53 63 54 64 56 78 58 99 59 66 62 50 64 51 65
REMARK SMILES IDX 59 66 52 67 53 68 57 69 60 70 54 71 55 72 58 73 56 74 82 75
REMARK SMILES IDX 83 76 91 77 84 78 85 79 89 80 92 81 86 82 87 83 90 84 88 85
REMARK SMILES IDX 67 86 68 87 76 88 69 89 70 90 74 91 77 92 71 93 72 94 75 95
REMARK SMILES IDX 73 96 9 97 10 100 11 101 12 103 13 104 14 105 18 106 15 107
REMARK SMILES IDX 17 109 16 110 19 114 20 116 21 117 40 118 22 119 25 120
REMARK SMILES IDX 23 121 24 122 26 123 27 125 28 126 39 127 29 128 38 130
REMARK SMILES IDX 30 132 31 135 32 136 36 137 33 138 35 141 37 142 34 143
REMARK H PARENT 8 2 8 3 7 5 7 6 6 8 6 9 5 11 5 12 4 14 4 15 3 19 42 24 103 26
REMARK H PARENT 43 28 102 29 101 39 95 41 97 43 100 45 94 46 62 55 65 57 98 60
REMARK H PARENT 63 61 99 63 9 98 9 99 10 102 14 108 15 111 17 112 16 113
REMARK H PARENT 19 115 26 124 28 129 39 131 29 133 38 134 32 139 32 140 33 144
REMARK H PARENT 33 145 35 146 35 147
REMARK Flexibility Score: inf
ROOT
ATOM      1  C   UNL A   1      37.282  22.780  25.586  1.00  0.00    -0.036 C 
ATOM      2  H   UNL A   1      37.995  23.545  25.359  1.00  0.00     0.028 H 
ATOM      3  H   UNL A   1      37.458  22.294  26.522  1.00  0.00     0.028 H 
ENDROOT
BRANCH   1   4
ATOM      4  C   UNL A   1      37.399  21.691  24.513  1.00  0.00    -0.052 C 
ATOM      5  H   UNL A   1      36.648  21.877  23.774  1.00  0.00     0.027 H 
ATOM      6  H   UNL A   1      38.399  21.755  24.141  1.00  0.00     0.027 H 
BRANCH   4   7
ATOM      7  C   UNL A   1      37.228  20.251  25.005  1.00  0.00    -0.052 C 
ATOM      8  H   UNL A   1      36.882  20.287  26.017  1.00  0.00     0.027 H 
ATOM      9  H   UNL A   1      36.538  19.790  24.330  1.00  0.00     0.027 H 
BRANCH   7  10
ATOM     10  C   UNL A   1      38.491  19.388  24.969  1.00  0.00    -0.036 C 
ATOM     11  H   UNL A   1      38.206  18.375  25.165  1.00  0.00     0.028 H 
ATOM     12  H   UNL A   1      38.921  19.530  24.000  1.00  0.00     0.028 H 
BRANCH  10  13
ATOM     13  C   UNL A   1      39.567  19.779  25.975  1.00  0.00     0.018 C 
ATOM     14  H   UNL A   1      39.898  20.773  25.755  1.00  0.00     0.049 H 
ATOM     15  H   UNL A   1      39.138  19.716  26.953  1.00  0.00     0.049 H 
BRANCH  13  16
ATOM     16  N   UNL A   1      40.714  18.887  25.936  1.00  0.00    -0.352 N 
ATOM     17  O   UNL A   1      42.890  18.313  25.790  1.00  0.00    -0.269 OA
ATOM     18  C   UNL A   1      42.049  19.182  26.016  1.00  0.00     0.251 C 
ATOM     19  H   UNL A   1      40.500  17.931  25.838  1.00  0.00     0.163 HD
BRANCH  18  20
ATOM     20  C   UNL A   1      42.485  20.552  26.352  1.00  0.00     0.039 A 
ATOM     21  C   UNL A   1      42.879  21.448  25.351  1.00  0.00    -0.049 A 
ATOM     22  C   UNL A   1      42.473  20.952  27.689  1.00  0.00    -0.049 A 
ATOM     23  C   UNL A   1      43.367  22.703  25.698  1.00  0.00    -0.053 A 
ATOM     24  H   UNL A   1      42.808  21.177  24.358  1.00  0.00     0.063 H 
ATOM     25  C   UNL A   1      42.895  22.237  28.029  1.00  0.00    -0.053 A 
ATOM     26  H   UNL A   1      42.152  20.301  28.423  1.00  0.00     0.063 H 
ATOM     27  C   UNL A   1      43.367  23.115  27.039  1.00  0.00    -0.014 A 
ATOM     28  H   UNL A   1      43.730  23.335  24.967  1.00  0.00     0.063 H 
ATOM     29  H   UNL A   1      42.861  22.545  29.015  1.00  0.00     0.063 H 
BRANCH  27  30
ATOM     30  C   UNL A   1      43.808  24.481  27.408  1.00  0.00     0.031 A 
ATOM     31  C   UNL A   1      42.815  25.505  27.874  1.00  0.00     0.074 A 
ATOM     32  C   UNL A   1      45.106  24.810  27.271  1.00  0.00     0.049 A 
ATOM     33  N   UNL A   1      42.994  26.778  28.125  1.00  0.00    -0.248 NA
ATOM     34  C   UNL A   1      41.435  25.039  28.071  1.00  0.00    -0.034 C 
ATOM     35  C   UNL A   1      46.160  23.897  26.826  1.00  0.00    -0.036 A 
ATOM     36  N   UNL A   1      45.755  26.001  27.468  1.00  0.00    -0.354 N 
ATOM     37  C   UNL A   1      41.746  27.271  28.484  1.00  0.00     0.074 A 
ATOM     38  C   UNL A   1      40.815  26.165  28.394  1.00  0.00    -0.034 C 
ATOM     39  H   UNL A   1      41.051  24.086  27.981  1.00  0.00     0.065 H 
ATOM     40  C   UNL A   1      47.324  24.561  26.782  1.00  0.00    -0.036 A 
ATOM     41  H   UNL A   1      46.029  22.902  26.585  1.00  0.00     0.065 H 
ATOM     42  C   UNL A   1      47.086  25.957  27.132  1.00  0.00     0.049 A 
ATOM     43  H   UNL A   1      45.311  26.808  27.815  1.00  0.00     0.167 HD
ATOM     44  C   UNL A   1      41.414  28.531  28.856  1.00  0.00     0.037 A 
ATOM     45  H   UNL A   1      39.800  26.244  28.559  1.00  0.00     0.065 H 
ATOM     46  H   UNL A   1      48.240  24.151  26.541  1.00  0.00     0.065 H 
ATOM     47  C   UNL A   1      48.004  26.940  27.070  1.00  0.00     0.037 A 
ATOM     48  C   UNL A   1      42.353  29.621  28.941  1.00  0.00     0.049 A 
ATOM     49  C   UNL A   1      47.606  28.339  27.441  1.00  0.00     0.074 A 
ATOM     50  C   UNL A   1      42.129  30.924  29.348  1.00  0.00    -0.036 A 
ATOM     51  N   UNL A   1      43.696  29.536  28.597  1.00  0.00    -0.354 N 
ATOM     52  N   UNL A   1      46.435  28.790  27.816  1.00  0.00    -0.248 NA
ATOM     53  C   UNL A   1      48.655  29.365  27.381  1.00  0.00    -0.034 C 
ATOM     54  C   UNL A   1      43.318  31.643  29.188  1.00  0.00    -0.036 A 
ATOM     55  H   UNL A   1      41.238  31.301  29.707  1.00  0.00     0.065 H 
ATOM     56  C   UNL A   1      44.304  30.772  28.750  1.00  0.00     0.049 A 
ATOM     57  H   UNL A   1      44.150  28.719  28.289  1.00  0.00     0.167 HD
ATOM     58  C   UNL A   1      46.609  30.143  28.068  1.00  0.00     0.074 A 
ATOM     59  C   UNL A   1      48.000  30.441  27.801  1.00  0.00    -0.034 C 
ATOM     60  H   UNL A   1      49.640  29.274  27.089  1.00  0.00     0.065 H 
ATOM     61  H   UNL A   1      43.441  32.652  29.364  1.00  0.00     0.065 H 
ATOM     62  C   UNL A   1      45.695  31.052  28.491  1.00  0.00     0.037 A 
ATOM     63  H   UNL A   1      48.430  31.372  27.922  1.00  0.00     0.065 H 
BRANCH  44  64
ATOM     64  C   UNL A   1      39.966  28.806  29.158  1.00  0.00     0.064 A 
ATOM     65  C   UNL A   1      39.446  28.713  30.458  1.00  0.00     0.173 A 
ATOM     66  C   UNL A   1      39.088  29.178  28.129  1.00  0.00     0.173 A 
ATOM     67  F   UNL A   1      40.240  28.356  31.479  1.00  0.00    -0.203 F 
ATOM     68  C   UNL A   1      38.094  28.937  30.709  1.00  0.00     0.198 A 
ATOM     69  C   UNL A   1      37.744  29.437  28.388  1.00  0.00     0.198 A 
ATOM     70  F   UNL A   1      39.531  29.296  26.869  1.00  0.00    -0.203 F 
ATOM     71  F   UNL A   1      37.609  28.779  31.948  1.00  0.00    -0.200 F 
ATOM     72  C   UNL A   1      37.246  29.303  29.675  1.00  0.00     0.200 A 
ATOM     73  F   UNL A   1      36.930  29.809  27.390  1.00  0.00    -0.200 F 
ATOM     74  F   UNL A   1      35.945  29.520  29.917  1.00  0.00    -0.200 F 
ENDBRANCH  44  64
BRANCH  47  75
ATOM     75  C   UNL A   1      49.382  26.611  26.626  1.00  0.00     0.064 A 
ATOM     76  C   UNL A   1      49.757  26.732  25.283  1.00  0.00     0.173 A 
ATOM     77  C   UNL A   1      50.369  26.227  27.549  1.00  0.00     0.173 A 
ATOM     78  F   UNL A   1      48.845  27.082  24.362  1.00  0.00    -0.203 F 
ATOM     79  C   UNL A   1      51.066  26.480  24.877  1.00  0.00     0.198 A 
ATOM     80  C   UNL A   1      51.683  26.004  27.146  1.00  0.00     0.198 A 
ATOM     81  F   UNL A   1      50.061  26.107  28.849  1.00  0.00    -0.203 F 
ATOM     82  F   UNL A   1      51.393  26.580  23.581  1.00  0.00    -0.200 F 
ATOM     83  C   UNL A   1      52.029  26.127  25.810  1.00  0.00     0.200 A 
ATOM     84  F   UNL A   1      52.614  25.684  28.054  1.00  0.00    -0.200 F 
ATOM     85  F   UNL A   1      53.292  25.906  25.421  1.00  0.00    -0.200 F 
ENDBRANCH  47  75
BRANCH  62  86
ATOM     86  C   UNL A   1      46.175  32.451  28.750  1.00  0.00     0.064 A 
ATOM     87  C   UNL A   1      46.708  32.836  29.988  1.00  0.00     0.173 A 
ATOM     88  C   UNL A   1      46.174  33.397  27.712  1.00  0.00     0.173 A 
ATOM     89  F   UNL A   1      46.716  31.975  31.017  1.00  0.00    -0.203 F 
ATOM     90  C   UNL A   1      47.214  34.119  30.181  1.00  0.00     0.198 A 
ATOM     91  C   UNL A   1      46.709  34.668  27.899  1.00  0.00     0.198 A 
ATOM     92  F   UNL A   1      45.679  33.077  26.507  1.00  0.00    -0.203 F 
ATOM     93  F   UNL A   1      47.690  34.477  31.381  1.00  0.00    -0.200 F 
ATOM     94  C   UNL A   1      47.226  35.028  29.133  1.00  0.00     0.200 A 
ATOM     95  F   UNL A   1      46.732  35.539  26.881  1.00  0.00    -0.200 F 
ATOM     96  F   UNL A   1      47.734  36.256  29.315  1.00  0.00    -0.200 F 
ENDBRANCH  62  86
ENDBRANCH  27  30
ENDBRANCH  18  20
ENDBRANCH  13  16
ENDBRANCH  10  13
ENDBRANCH   7  10
ENDBRANCH   4   7
ENDBRANCH   1   4
BRANCH   1  97
ATOM     97  C   UNL A   1      35.908  23.436  25.701  1.00  0.00     0.018 C 
ATOM     98  H   UNL A   1      35.309  23.129  24.869  1.00  0.00     0.049 H 
ATOM     99  H   UNL A   1      36.052  24.496  25.710  1.00  0.00     0.049 H 
BRANCH  97 100
ATOM    100  N   UNL A   1      35.223  23.070  26.930  1.00  0.00    -0.352 N 
ATOM    101  C   UNL A   1      34.112  22.283  27.096  1.00  0.00     0.253 C 
ATOM    102  H   UNL A   1      35.610  23.439  27.757  1.00  0.00     0.163 HD
ATOM    103  O   UNL A   1      33.619  22.144  28.212  1.00  0.00    -0.269 OA
BRANCH 101 104
ATOM    104  C   UNL A   1      33.487  21.613  25.936  1.00  0.00     0.063 A 
ATOM    105  C   UNL A   1      34.086  20.421  25.503  1.00  0.00    -0.047 A 
ATOM    106  C   UNL A   1      32.367  22.145  25.269  1.00  0.00     0.054 A 
ATOM    107  C   UNL A   1      33.543  19.714  24.431  1.00  0.00    -0.061 A 
ATOM    108  H   UNL A   1      34.930  20.066  25.978  1.00  0.00     0.063 H 
ATOM    109  C   UNL A   1      31.812  21.386  24.225  1.00  0.00    -0.038 A 
ATOM    110  C   UNL A   1      32.398  20.191  23.803  1.00  0.00    -0.060 A 
ATOM    111  H   UNL A   1      33.988  18.842  24.106  1.00  0.00     0.062 H 
ATOM    112  H   UNL A   1      30.954  21.720  23.760  1.00  0.00     0.064 H 
ATOM    113  H   UNL A   1      31.979  19.659  23.024  1.00  0.00     0.062 H 
BRANCH 106 114
ATOM    114  N   UNL A   1      31.814  23.385  25.630  1.00  0.00    -0.323 N 
ATOM    115  H   UNL A   1      31.209  23.362  26.406  1.00  0.00     0.170 HD
BRANCH 114 116
ATOM    116  C   UNL A   1      31.994  24.636  25.057  1.00  0.00     0.233 A 
ATOM    117  N   UNL A   1      32.738  24.759  23.970  1.00  0.00    -0.182 NA
ATOM    118  N   UNL A   1      31.386  25.650  25.661  1.00  0.00    -0.176 NA
ATOM    119  C   UNL A   1      32.826  25.999  23.524  1.00  0.00     0.228 A 
ATOM    120  C   UNL A   1      31.614  26.862  25.163  1.00  0.00     0.233 A 
ATOM    121  Cl  UNL A   1      33.766  26.225  22.116  1.00  0.00    -0.041 Cl
ATOM    122  N   UNL A   1      32.304  27.086  24.058  1.00  0.00    -0.182 NA
BRANCH 120 123
ATOM    123  N   UNL A   1      31.188  27.925  25.955  1.00  0.00    -0.324 N 
ATOM    124  H   UNL A   1      30.249  27.889  26.250  1.00  0.00     0.170 HD
BRANCH 123 125
ATOM    125  C   UNL A   1      31.916  29.036  26.386  1.00  0.00     0.041 A 
ATOM    126  C   UNL A   1      31.429  30.323  26.137  1.00  0.00    -0.036 A 
ATOM    127  C   UNL A   1      33.069  28.897  27.160  1.00  0.00    -0.036 A 
ATOM    128  C   UNL A   1      32.079  31.449  26.658  1.00  0.00    -0.036 A 
ATOM    129  H   UNL A   1      30.582  30.446  25.562  1.00  0.00     0.065 H 
ATOM    130  C   UNL A   1      33.754  30.019  27.631  1.00  0.00    -0.036 A 
ATOM    131  H   UNL A   1      33.421  27.953  27.386  1.00  0.00     0.065 H 
ATOM    132  C   UNL A   1      33.258  31.305  27.396  1.00  0.00     0.044 A 
ATOM    133  H   UNL A   1      31.686  32.389  26.497  1.00  0.00     0.065 H 
ATOM    134  H   UNL A   1      34.633  29.897  28.156  1.00  0.00     0.065 H 
BRANCH 132 135
ATOM    135  N   UNL A   1      33.921  32.442  27.942  1.00  0.00    -0.308 N 
ATOM    136  C   UNL A   1      35.371  32.333  28.136  1.00  0.00     0.049 C 
ATOM    137  C   UNL A   1      33.287  33.690  27.967  1.00  0.00     0.253 C 
ATOM    138  C   UNL A   1      35.963  33.489  28.932  1.00  0.00     0.065 C 
ATOM    139  H   UNL A   1      35.841  32.306  27.175  1.00  0.00     0.052 H 
ATOM    140  H   UNL A   1      35.549  31.439  28.697  1.00  0.00     0.052 H 
ATOM    141  C   UNL A   1      34.158  34.868  28.429  1.00  0.00     0.126 C 
ATOM    142  O   UNL A   1      32.087  33.868  27.744  1.00  0.00    -0.272 OA
ATOM    143  O   UNL A   1      35.566  34.724  28.341  1.00  0.00    -0.370 OA
ATOM    144  H   UNL A   1      37.030  33.417  28.926  1.00  0.00     0.059 H 
ATOM    145  H   UNL A   1      35.607  33.447  29.940  1.00  0.00     0.059 H 
ATOM    146  H   UNL A   1      33.887  35.717  27.834  1.00  0.00     0.067 H 
ATOM    147  H   UNL A   1      33.961  34.955  29.476  1.00  0.00     0.067 H 
ENDBRANCH 132 135
ENDBRANCH 123 125
ENDBRANCH 120 123
ENDBRANCH 114 116
ENDBRANCH 106 114
ENDBRANCH 101 104
ENDBRANCH  97 100
ENDBRANCH   1  97
TORSDOF 18
ENDMDL
MODEL 6
REMARK VINA RESULT:     -12.6      5.198     11.084
REMARK SMILES O=C(NCCCCCCNC(=O)c1ccccc1Nc1nc(Cl)nc(Nc2ccc(N3CCOCC3=O)cc2)n1)c1ccc(-c2c3nc(c(-c4c(F)c(F)c(F)c(F)c4F)c4ccc([nH]4)c(-c4c(F)c(F)c(F)c(F)c4F)c4nc(c(-c5c(F)c(F)c(F)c(F)c5F)c5ccc2[nH]5)C=C4)C=C3)cc1
REMARK SMILES IDX 8 1 7 4 6 7 5 10 4 13 3 16 1 17 2 18 41 20 42 21 103 22
REMARK SMILES IDX 43 23 102 25 44 27 45 30 46 31 96 32 47 33 101 34 95 35
REMARK SMILES IDX 97 36 48 37 100 38 94 40 93 42 49 44 81 47 61 48 80 49 62 50
REMARK SMILES IDX 65 51 79 52 98 53 63 54 64 56 78 58 99 59 66 62 50 64 51 65
REMARK SMILES IDX 59 66 52 67 53 68 57 69 60 70 54 71 55 72 58 73 56 74 82 75
REMARK SMILES IDX 83 76 91 77 84 78 85 79 89 80 92 81 86 82 87 83 90 84 88 85
REMARK SMILES IDX 67 86 68 87 76 88 69 89 70 90 74 91 77 92 71 93 72 94 75 95
REMARK SMILES IDX 73 96 9 97 10 100 11 101 12 103 13 104 14 105 18 106 15 107
REMARK SMILES IDX 17 109 16 110 19 114 20 116 21 117 40 118 22 119 25 120
REMARK SMILES IDX 23 121 24 122 26 123 27 125 28 126 39 127 29 128 38 130
REMARK SMILES IDX 30 132 31 135 32 136 36 137 33 138 35 141 37 142 34 143
REMARK H PARENT 8 2 8 3 7 5 7 6 6 8 6 9 5 11 5 12 4 14 4 15 3 19 42 24 103 26
REMARK H PARENT 43 28 102 29 101 39 95 41 97 43 100 45 94 46 62 55 65 57 98 60
REMARK H PARENT 63 61 99 63 9 98 9 99 10 102 14 108 15 111 17 112 16 113
REMARK H PARENT 19 115 26 124 28 129 39 131 29 133 38 134 32 139 32 140 33 144
REMARK H PARENT 33 145 35 146 35 147
REMARK Flexibility Score: inf
ROOT
ATOM      1  C   UNL A   1      39.375  22.748  26.457  1.00  0.00    -0.036 C 
ATOM      2  H   UNL A   1      39.396  23.746  26.071  1.00  0.00     0.028 H 
ATOM      3  H   UNL A   1      39.267  22.703  27.520  1.00  0.00     0.028 H 
ENDROOT
BRANCH   1   4
ATOM      4  C   UNL A   1      40.722  22.089  26.138  1.00  0.00    -0.052 C 
ATOM      5  H   UNL A   1      40.740  21.867  25.092  1.00  0.00     0.027 H 
ATOM      6  H   UNL A   1      41.469  22.791  26.446  1.00  0.00     0.027 H 
BRANCH   4   7
ATOM      7  C   UNL A   1      41.026  20.795  26.899  1.00  0.00    -0.052 C 
ATOM      8  H   UNL A   1      41.797  21.005  27.612  1.00  0.00     0.027 H 
ATOM      9  H   UNL A   1      40.101  20.490  27.342  1.00  0.00     0.027 H 
BRANCH   7  10
ATOM     10  C   UNL A   1      41.489  19.618  26.039  1.00  0.00    -0.036 C 
ATOM     11  H   UNL A   1      40.741  18.854  26.093  1.00  0.00     0.028 H 
ATOM     12  H   UNL A   1      41.630  20.007  25.052  1.00  0.00     0.028 H 
BRANCH  10  13
ATOM     13  C   UNL A   1      42.822  19.004  26.449  1.00  0.00     0.018 C 
ATOM     14  H   UNL A   1      43.344  19.701  27.072  1.00  0.00     0.049 H 
ATOM     15  H   UNL A   1      42.615  18.091  26.968  1.00  0.00     0.049 H 
BRANCH  13  16
ATOM     16  N   UNL A   1      43.661  18.683  25.306  1.00  0.00    -0.352 N 
ATOM     17  O   UNL A   1      44.914  19.089  23.475  1.00  0.00    -0.269 OA
ATOM     18  C   UNL A   1      44.399  19.516  24.508  1.00  0.00     0.251 C 
ATOM     19  H   UNL A   1      43.705  17.728  25.072  1.00  0.00     0.163 HD
BRANCH  18  20
ATOM     20  C   UNL A   1      44.563  20.937  24.873  1.00  0.00     0.039 A 
ATOM     21  C   UNL A   1      44.069  21.954  24.047  1.00  0.00    -0.049 A 
ATOM     22  C   UNL A   1      45.198  21.254  26.075  1.00  0.00    -0.049 A 
ATOM     23  C   UNL A   1      44.310  23.286  24.368  1.00  0.00    -0.053 A 
ATOM     24  H   UNL A   1      43.528  21.715  23.202  1.00  0.00     0.063 H 
ATOM     25  C   UNL A   1      45.375  22.591  26.431  1.00  0.00    -0.053 A 
ATOM     26  H   UNL A   1      45.533  20.503  26.698  1.00  0.00     0.063 H 
ATOM     27  C   UNL A   1      44.953  23.617  25.570  1.00  0.00    -0.014 A 
ATOM     28  H   UNL A   1      44.014  24.033  23.721  1.00  0.00     0.063 H 
ATOM     29  H   UNL A   1      45.820  22.828  27.333  1.00  0.00     0.063 H 
BRANCH  27  30
ATOM     30  C   UNL A   1      45.140  25.035  25.958  1.00  0.00     0.031 A 
ATOM     31  C   UNL A   1      46.498  25.670  25.899  1.00  0.00     0.074 A 
ATOM     32  C   UNL A   1      44.085  25.734  26.415  1.00  0.00     0.049 A 
ATOM     33  N   UNL A   1      46.877  26.855  26.309  1.00  0.00    -0.248 NA
ATOM     34  C   UNL A   1      47.577  24.861  25.314  1.00  0.00    -0.034 C 
ATOM     35  C   UNL A   1      42.718  25.221  26.517  1.00  0.00    -0.036 A 
ATOM     36  N   UNL A   1      43.999  27.014  26.899  1.00  0.00    -0.354 N 
ATOM     37  C   UNL A   1      48.241  26.924  26.056  1.00  0.00     0.074 A 
ATOM     38  C   UNL A   1      48.627  25.652  25.480  1.00  0.00    -0.034 C 
ATOM     39  H   UNL A   1      47.529  23.923  24.887  1.00  0.00     0.065 H 
ATOM     40  C   UNL A   1      41.930  26.173  27.032  1.00  0.00    -0.036 A 
ATOM     41  H   UNL A   1      42.411  24.276  26.236  1.00  0.00     0.065 H 
ATOM     42  C   UNL A   1      42.745  27.339  27.357  1.00  0.00     0.049 A 
ATOM     43  H   UNL A   1      44.760  27.638  26.917  1.00  0.00     0.167 HD
ATOM     44  C   UNL A   1      49.088  27.957  26.283  1.00  0.00     0.037 A 
ATOM     45  H   UNL A   1      49.595  25.395  25.231  1.00  0.00     0.065 H 
ATOM     46  H   UNL A   1      40.910  26.096  27.176  1.00  0.00     0.065 H 
ATOM     47  C   UNL A   1      42.309  28.435  28.005  1.00  0.00     0.037 A 
ATOM     48  C   UNL A   1      48.688  29.217  26.856  1.00  0.00     0.049 A 
ATOM     49  C   UNL A   1      43.273  29.551  28.289  1.00  0.00     0.074 A 
ATOM     50  C   UNL A   1      49.457  30.343  27.089  1.00  0.00    -0.036 A 
ATOM     51  N   UNL A   1      47.406  29.511  27.304  1.00  0.00    -0.354 N 
ATOM     52  N   UNL A   1      44.551  29.625  28.013  1.00  0.00    -0.248 NA
ATOM     53  C   UNL A   1      42.736  30.734  28.974  1.00  0.00    -0.034 C 
ATOM     54  C   UNL A   1      48.659  31.293  27.735  1.00  0.00    -0.036 A 
ATOM     55  H   UNL A   1      50.449  30.462  26.830  1.00  0.00     0.065 H 
ATOM     56  C   UNL A   1      47.373  30.788  27.841  1.00  0.00     0.049 A 
ATOM     57  H   UNL A   1      46.635  28.902  27.248  1.00  0.00     0.167 HD
ATOM     58  C   UNL A   1      44.968  30.871  28.459  1.00  0.00     0.074 A 
ATOM     59  C   UNL A   1      43.804  31.519  29.027  1.00  0.00    -0.034 C 
ATOM     60  H   UNL A   1      41.781  30.907  29.323  1.00  0.00     0.065 H 
ATOM     61  H   UNL A   1      48.975  32.214  28.077  1.00  0.00     0.065 H 
ATOM     62  C   UNL A   1      46.203  31.427  28.394  1.00  0.00     0.037 A 
ATOM     63  H   UNL A   1      43.805  32.473  29.423  1.00  0.00     0.065 H 
BRANCH  44  64
ATOM     64  C   UNL A   1      50.540  27.750  25.948  1.00  0.00     0.064 A 
ATOM     65  C   UNL A   1      51.035  27.920  24.646  1.00  0.00     0.173 A 
ATOM     66  C   UNL A   1      51.452  27.385  26.950  1.00  0.00     0.173 A 
ATOM     67  F   UNL A   1      50.208  28.263  23.647  1.00  0.00    -0.203 F 
ATOM     68  C   UNL A   1      52.378  27.687  24.352  1.00  0.00     0.198 A 
ATOM     69  C   UNL A   1      52.800  27.188  26.661  1.00  0.00     0.198 A 
ATOM     70  F   UNL A   1      51.038  27.221  28.215  1.00  0.00    -0.203 F 
ATOM     71  F   UNL A   1      52.813  27.793  23.089  1.00  0.00    -0.200 F 
ATOM     72  C   UNL A   1      53.259  27.326  25.359  1.00  0.00     0.200 A 
ATOM     73  F   UNL A   1      53.653  26.857  27.640  1.00  0.00    -0.200 F 
ATOM     74  F   UNL A   1      54.550  27.104  25.076  1.00  0.00    -0.200 F 
ENDBRANCH  44  64
BRANCH  47  75
ATOM     75  C   UNL A   1      40.888  28.504  28.428  1.00  0.00     0.064 A 
ATOM     76  C   UNL A   1      40.499  28.126  29.718  1.00  0.00     0.173 A 
ATOM     77  C   UNL A   1      39.899  29.008  27.567  1.00  0.00     0.173 A 
ATOM     78  F   UNL A   1      41.406  27.626  30.571  1.00  0.00    -0.203 F 
ATOM     79  C   UNL A   1      39.174  28.247  30.133  1.00  0.00     0.198 A 
ATOM     80  C   UNL A   1      38.581  29.155  27.993  1.00  0.00     0.198 A 
ATOM     81  F   UNL A   1      40.224  29.392  26.324  1.00  0.00    -0.203 F 
ATOM     82  F   UNL A   1      38.823  27.855  31.366  1.00  0.00    -0.200 F 
ATOM     83  C   UNL A   1      38.219  28.771  29.274  1.00  0.00     0.200 A 
ATOM     84  F   UNL A   1      37.667  29.682  27.167  1.00  0.00    -0.200 F 
ATOM     85  F   UNL A   1      36.951  28.906  29.682  1.00  0.00    -0.200 F 
ENDBRANCH  47  75
BRANCH  62  86
ATOM     86  C   UNL A   1      46.360  32.832  28.899  1.00  0.00     0.064 A 
ATOM     87  C   UNL A   1      46.747  33.108  30.218  1.00  0.00     0.173 A 
ATOM     88  C   UNL A   1      46.197  33.916  28.021  1.00  0.00     0.173 A 
ATOM     89  F   UNL A   1      46.898  32.109  31.101  1.00  0.00    -0.203 F 
ATOM     90  C   UNL A   1      46.957  34.418  30.642  1.00  0.00     0.198 A 
ATOM     91  C   UNL A   1      46.438  35.221  28.440  1.00  0.00     0.198 A 
ATOM     92  F   UNL A   1      45.831  33.704  26.747  1.00  0.00    -0.203 F 
ATOM     93  F   UNL A   1      47.296  34.662  31.915  1.00  0.00    -0.200 F 
ATOM     94  C   UNL A   1      46.815  35.470  29.749  1.00  0.00     0.200 A 
ATOM     95  F   UNL A   1      46.315  36.234  27.572  1.00  0.00    -0.200 F 
ATOM     96  F   UNL A   1      47.040  36.729  30.154  1.00  0.00    -0.200 F 
ENDBRANCH  62  86
ENDBRANCH  27  30
ENDBRANCH  18  20
ENDBRANCH  13  16
ENDBRANCH  10  13
ENDBRANCH   7  10
ENDBRANCH   4   7
ENDBRANCH   1   4
BRANCH   1  97
ATOM     97  C   UNL A   1      38.152  22.043  25.876  1.00  0.00     0.018 C 
ATOM     98  H   UNL A   1      37.333  22.159  26.554  1.00  0.00     0.049 H 
ATOM     99  H   UNL A   1      38.403  21.012  25.739  1.00  0.00     0.049 H 
BRANCH  97 100
ATOM    100  N   UNL A   1      37.767  22.582  24.582  1.00  0.00    -0.352 N 
ATOM    101  C   UNL A   1      36.537  22.567  23.973  1.00  0.00     0.253 C 
ATOM    102  H   UNL A   1      38.488  23.018  24.073  1.00  0.00     0.163 HD
ATOM    103  O   UNL A   1      36.411  23.004  22.833  1.00  0.00    -0.269 OA
BRANCH 101 104
ATOM    104  C   UNL A   1      35.361  22.007  24.671  1.00  0.00     0.063 A 
ATOM    105  C   UNL A   1      35.236  20.610  24.667  1.00  0.00    -0.047 A 
ATOM    106  C   UNL A   1      34.389  22.818  25.287  1.00  0.00     0.054 A 
ATOM    107  C   UNL A   1      34.169  20.000  25.324  1.00  0.00    -0.061 A 
ATOM    108  H   UNL A   1      35.935  20.031  24.176  1.00  0.00     0.063 H 
ATOM    109  C   UNL A   1      33.352  22.175  25.983  1.00  0.00    -0.038 A 
ATOM    110  C   UNL A   1      33.236  20.784  25.993  1.00  0.00    -0.060 A 
ATOM    111  H   UNL A   1      34.071  18.973  25.313  1.00  0.00     0.062 H 
ATOM    112  H   UNL A   1      32.661  22.744  26.497  1.00  0.00     0.064 H 
ATOM    113  H   UNL A   1      32.456  20.335  26.501  1.00  0.00     0.062 H 
BRANCH 106 114
ATOM    114  N   UNL A   1      34.448  24.220  25.219  1.00  0.00    -0.323 N 
ATOM    115  H   UNL A   1      35.161  24.635  25.756  1.00  0.00     0.170 HD
BRANCH 114 116
ATOM    116  C   UNL A   1      33.653  25.107  24.505  1.00  0.00     0.233 A 
ATOM    117  N   UNL A   1      33.657  25.074  23.183  1.00  0.00    -0.182 NA
ATOM    118  N   UNL A   1      32.924  25.950  25.226  1.00  0.00    -0.176 NA
ATOM    119  C   UNL A   1      32.857  25.964  22.627  1.00  0.00     0.228 A 
ATOM    120  C   UNL A   1      32.217  26.853  24.551  1.00  0.00     0.233 A 
ATOM    121  Cl  UNL A   1      32.808  25.967  20.919  1.00  0.00    -0.041 Cl
ATOM    122  N   UNL A   1      32.120  26.875  23.232  1.00  0.00    -0.182 NA
BRANCH 120 123
ATOM    123  N   UNL A   1      31.674  27.882  25.315  1.00  0.00    -0.324 N 
ATOM    124  H   UNL A   1      30.695  27.858  25.429  1.00  0.00     0.170 HD
BRANCH 123 125
ATOM    125  C   UNL A   1      32.331  28.943  25.940  1.00  0.00     0.041 A 
ATOM    126  C   UNL A   1      31.630  30.117  26.233  1.00  0.00    -0.036 A 
ATOM    127  C   UNL A   1      33.649  28.825  26.384  1.00  0.00    -0.036 A 
ATOM    128  C   UNL A   1      32.233  31.150  26.962  1.00  0.00    -0.036 A 
ATOM    129  H   UNL A   1      30.657  30.225  25.907  1.00  0.00     0.065 H 
ATOM    130  C   UNL A   1      34.273  29.876  27.059  1.00  0.00    -0.036 A 
ATOM    131  H   UNL A   1      34.169  27.950  26.211  1.00  0.00     0.065 H 
ATOM    132  C   UNL A   1      33.566  31.042  27.366  1.00  0.00     0.044 A 
ATOM    133  H   UNL A   1      31.689  31.994  27.201  1.00  0.00     0.065 H 
ATOM    134  H   UNL A   1      35.264  29.790  27.333  1.00  0.00     0.065 H 
BRANCH 132 135
ATOM    135  N   UNL A   1      34.186  32.081  28.119  1.00  0.00    -0.308 N 
ATOM    136  C   UNL A   1      35.554  31.832  28.589  1.00  0.00     0.049 C 
ATOM    137  C   UNL A   1      33.655  33.377  28.113  1.00  0.00     0.253 C 
ATOM    138  C   UNL A   1      36.054  32.882  29.574  1.00  0.00     0.065 C 
ATOM    139  H   UNL A   1      36.208  31.823  27.743  1.00  0.00     0.052 H 
ATOM    140  H   UNL A   1      35.545  30.894  29.104  1.00  0.00     0.052 H 
ATOM    141  C   UNL A   1      34.499  34.443  28.828  1.00  0.00     0.126 C 
ATOM    142  O   UNL A   1      32.543  33.674  27.669  1.00  0.00    -0.272 OA
ATOM    143  O   UNL A   1      35.881  34.180  29.013  1.00  0.00    -0.370 OA
ATOM    144  H   UNL A   1      37.091  32.716  29.775  1.00  0.00     0.059 H 
ATOM    145  H   UNL A   1      35.497  32.811  30.485  1.00  0.00     0.059 H 
ATOM    146  H   UNL A   1      34.420  35.347  28.259  1.00  0.00     0.067 H 
ATOM    147  H   UNL A   1      34.098  34.484  29.819  1.00  0.00     0.067 H 
ENDBRANCH 132 135
ENDBRANCH 123 125
ENDBRANCH 120 123
ENDBRANCH 114 116
ENDBRANCH 106 114
ENDBRANCH 101 104
ENDBRANCH  97 100
ENDBRANCH   1  97
TORSDOF 18
ENDMDL
MODEL 7
REMARK VINA RESULT:     -12.5      5.216     11.810
REMARK SMILES O=C(NCCCCCCNC(=O)c1ccccc1Nc1nc(Cl)nc(Nc2ccc(N3CCOCC3=O)cc2)n1)c1ccc(-c2c3nc(c(-c4c(F)c(F)c(F)c(F)c4F)c4ccc([nH]4)c(-c4c(F)c(F)c(F)c(F)c4F)c4nc(c(-c5c(F)c(F)c(F)c(F)c5F)c5ccc2[nH]5)C=C4)C=C3)cc1
REMARK SMILES IDX 8 1 7 4 6 7 5 10 4 13 3 16 1 17 2 18 41 20 42 21 103 22
REMARK SMILES IDX 43 23 102 25 44 27 45 30 46 31 96 32 47 33 101 34 95 35
REMARK SMILES IDX 97 36 48 37 100 38 94 40 93 42 49 44 81 47 61 48 80 49 62 50
REMARK SMILES IDX 65 51 79 52 98 53 63 54 64 56 78 58 99 59 66 62 50 64 51 65
REMARK SMILES IDX 59 66 52 67 53 68 57 69 60 70 54 71 55 72 58 73 56 74 82 75
REMARK SMILES IDX 83 76 91 77 84 78 85 79 89 80 92 81 86 82 87 83 90 84 88 85
REMARK SMILES IDX 67 86 68 87 76 88 69 89 70 90 74 91 77 92 71 93 72 94 75 95
REMARK SMILES IDX 73 96 9 97 10 100 11 101 12 103 13 104 14 105 18 106 15 107
REMARK SMILES IDX 17 109 16 110 19 114 20 116 21 117 40 118 22 119 25 120
REMARK SMILES IDX 23 121 24 122 26 123 27 125 28 126 39 127 29 128 38 130
REMARK SMILES IDX 30 132 31 135 32 136 36 137 33 138 35 141 37 142 34 143
REMARK H PARENT 8 2 8 3 7 5 7 6 6 8 6 9 5 11 5 12 4 14 4 15 3 19 42 24 103 26
REMARK H PARENT 43 28 102 29 101 39 95 41 97 43 100 45 94 46 62 55 65 57 98 60
REMARK H PARENT 63 61 99 63 9 98 9 99 10 102 14 108 15 111 17 112 16 113
REMARK H PARENT 19 115 26 124 28 129 39 131 29 133 38 134 32 139 32 140 33 144
REMARK H PARENT 33 145 35 146 35 147
REMARK Flexibility Score: inf
ROOT
ATOM      1  C   UNL A   1      36.639  23.056  24.531  1.00  0.00    -0.036 C 
ATOM      2  H   UNL A   1      36.836  23.819  23.806  1.00  0.00     0.028 H 
ATOM      3  H   UNL A   1      36.994  23.295  25.511  1.00  0.00     0.028 H 
ENDROOT
BRANCH   1   4
ATOM      4  C   UNL A   1      37.392  21.791  24.103  1.00  0.00    -0.052 C 
ATOM      5  H   UNL A   1      36.892  21.386  23.248  1.00  0.00     0.027 H 
ATOM      6  H   UNL A   1      38.397  22.101  23.913  1.00  0.00     0.027 H 
BRANCH   4   7
ATOM      7  C   UNL A   1      37.488  20.686  25.159  1.00  0.00    -0.052 C 
ATOM      8  H   UNL A   1      37.573  21.152  26.119  1.00  0.00     0.027 H 
ATOM      9  H   UNL A   1      36.606  20.092  25.044  1.00  0.00     0.027 H 
BRANCH   7  10
ATOM     10  C   UNL A   1      38.666  19.723  24.999  1.00  0.00    -0.036 C 
ATOM     11  H   UNL A   1      38.274  18.732  24.900  1.00  0.00     0.028 H 
ATOM     12  H   UNL A   1      39.207  20.054  24.138  1.00  0.00     0.028 H 
BRANCH  10  13
ATOM     13  C   UNL A   1      39.661  19.724  26.154  1.00  0.00     0.018 C 
ATOM     14  H   UNL A   1      39.991  20.728  26.321  1.00  0.00     0.049 H 
ATOM     15  H   UNL A   1      39.164  19.324  27.013  1.00  0.00     0.049 H 
BRANCH  13  16
ATOM     16  N   UNL A   1      40.822  18.891  25.886  1.00  0.00    -0.352 N 
ATOM     17  O   UNL A   1      42.976  18.431  25.400  1.00  0.00    -0.269 OA
ATOM     18  C   UNL A   1      42.144  19.240  25.808  1.00  0.00     0.251 C 
ATOM     19  H   UNL A   1      40.630  17.936  25.741  1.00  0.00     0.163 HD
BRANCH  18  20
ATOM     20  C   UNL A   1      42.574  20.599  26.192  1.00  0.00     0.039 A 
ATOM     21  C   UNL A   1      42.657  20.975  27.538  1.00  0.00    -0.049 A 
ATOM     22  C   UNL A   1      42.926  21.502  25.187  1.00  0.00    -0.049 A 
ATOM     23  C   UNL A   1      42.981  22.285  27.874  1.00  0.00    -0.053 A 
ATOM     24  H   UNL A   1      42.476  20.281  28.280  1.00  0.00     0.063 H 
ATOM     25  C   UNL A   1      43.321  22.796  25.528  1.00  0.00    -0.053 A 
ATOM     26  H   UNL A   1      42.896  21.214  24.197  1.00  0.00     0.063 H 
ATOM     27  C   UNL A   1      43.330  23.204  26.872  1.00  0.00    -0.014 A 
ATOM     28  H   UNL A   1      42.966  22.583  28.861  1.00  0.00     0.063 H 
ATOM     29  H   UNL A   1      43.609  23.457  24.789  1.00  0.00     0.063 H 
BRANCH  27  30
ATOM     30  C   UNL A   1      43.756  24.579  27.227  1.00  0.00     0.031 A 
ATOM     31  C   UNL A   1      42.763  25.577  27.745  1.00  0.00     0.074 A 
ATOM     32  C   UNL A   1      45.038  24.939  27.030  1.00  0.00     0.049 A 
ATOM     33  N   UNL A   1      42.923  26.852  27.994  1.00  0.00    -0.248 NA
ATOM     34  C   UNL A   1      41.405  25.078  28.004  1.00  0.00    -0.034 C 
ATOM     35  C   UNL A   1      46.091  24.053  26.531  1.00  0.00    -0.036 A 
ATOM     36  N   UNL A   1      45.668  26.144  27.202  1.00  0.00    -0.354 N 
ATOM     37  C   UNL A   1      41.683  27.314  28.414  1.00  0.00     0.074 A 
ATOM     38  C   UNL A   1      40.774  26.187  28.362  1.00  0.00    -0.034 C 
ATOM     39  H   UNL A   1      41.039  24.116  27.928  1.00  0.00     0.065 H 
ATOM     40  C   UNL A   1      47.235  24.744  26.436  1.00  0.00    -0.036 A 
ATOM     41  H   UNL A   1      45.972  23.056  26.292  1.00  0.00     0.065 H 
ATOM     42  C   UNL A   1      46.982  26.133  26.804  1.00  0.00     0.049 A 
ATOM     43  H   UNL A   1      45.222  26.939  27.574  1.00  0.00     0.167 HD
ATOM     44  C   UNL A   1      41.339  28.565  28.808  1.00  0.00     0.037 A 
ATOM     45  H   UNL A   1      39.767  26.241  28.576  1.00  0.00     0.065 H 
ATOM     46  H   UNL A   1      48.148  24.357  26.149  1.00  0.00     0.065 H 
ATOM     47  C   UNL A   1      47.873  27.138  26.703  1.00  0.00     0.037 A 
ATOM     48  C   UNL A   1      42.255  29.676  28.854  1.00  0.00     0.049 A 
ATOM     49  C   UNL A   1      47.459  28.526  27.100  1.00  0.00     0.074 A 
ATOM     50  C   UNL A   1      42.020  30.972  29.278  1.00  0.00    -0.036 A 
ATOM     51  N   UNL A   1      43.582  29.624  28.446  1.00  0.00    -0.354 N 
ATOM     52  N   UNL A   1      46.297  28.947  27.533  1.00  0.00    -0.248 NA
ATOM     53  C   UNL A   1      48.480  29.577  26.996  1.00  0.00    -0.034 C 
ATOM     54  C   UNL A   1      43.183  31.719  29.065  1.00  0.00    -0.036 A 
ATOM     55  H   UNL A   1      41.139  31.326  29.681  1.00  0.00     0.065 H 
ATOM     56  C   UNL A   1      44.167  30.874  28.577  1.00  0.00     0.049 A 
ATOM     57  H   UNL A   1      44.040  28.820  28.112  1.00  0.00     0.167 HD
ATOM     58  C   UNL A   1      46.451  30.303  27.783  1.00  0.00     0.074 A 
ATOM     59  C   UNL A   1      47.821  30.635  27.452  1.00  0.00    -0.034 C 
ATOM     60  H   UNL A   1      49.452  29.510  26.657  1.00  0.00     0.065 H 
ATOM     61  H   UNL A   1      43.290  32.731  29.241  1.00  0.00     0.065 H 
ATOM     62  C   UNL A   1      45.538  31.188  28.254  1.00  0.00     0.037 A 
ATOM     63  H   UNL A   1      48.234  31.575  27.557  1.00  0.00     0.065 H 
BRANCH  44  64
ATOM     64  C   UNL A   1      39.901  28.804  29.180  1.00  0.00     0.064 A 
ATOM     65  C   UNL A   1      39.432  28.632  30.491  1.00  0.00     0.173 A 
ATOM     66  C   UNL A   1      38.980  29.223  28.207  1.00  0.00     0.173 A 
ATOM     67  F   UNL A   1      40.268  28.227  31.460  1.00  0.00    -0.203 F 
ATOM     68  C   UNL A   1      38.089  28.825  30.805  1.00  0.00     0.198 A 
ATOM     69  C   UNL A   1      37.645  29.450  28.531  1.00  0.00     0.198 A 
ATOM     70  F   UNL A   1      39.373  29.417  26.940  1.00  0.00    -0.203 F 
ATOM     71  F   UNL A   1      37.653  28.591  32.051  1.00  0.00    -0.200 F 
ATOM     72  C   UNL A   1      37.197  29.237  29.827  1.00  0.00     0.200 A 
ATOM     73  F   UNL A   1      36.789  29.867  27.587  1.00  0.00    -0.200 F 
ATOM     74  F   UNL A   1      35.905  29.424  30.129  1.00  0.00    -0.200 F 
ENDBRANCH  44  64
BRANCH  47  75
ATOM     75  C   UNL A   1      49.235  26.844  26.193  1.00  0.00     0.064 A 
ATOM     76  C   UNL A   1      50.235  26.357  27.043  1.00  0.00     0.173 A 
ATOM     77  C   UNL A   1      49.546  26.987  24.831  1.00  0.00     0.173 A 
ATOM     78  F   UNL A   1      49.989  26.217  28.355  1.00  0.00    -0.203 F 
ATOM     79  C   UNL A   1      51.496  26.026  26.552  1.00  0.00     0.198 A 
ATOM     80  C   UNL A   1      50.798  26.628  24.337  1.00  0.00     0.198 A 
ATOM     81  F   UNL A   1      48.619  27.441  23.975  1.00  0.00    -0.203 F 
ATOM     82  F   UNL A   1      52.444  25.583  27.391  1.00  0.00    -0.200 F 
ATOM     83  C   UNL A   1      51.773  26.151  25.199  1.00  0.00     0.200 A 
ATOM     84  F   UNL A   1      51.053  26.732  23.026  1.00  0.00    -0.200 F 
ATOM     85  F   UNL A   1      52.979  25.812  24.725  1.00  0.00    -0.200 F 
ENDBRANCH  47  75
BRANCH  62  86
ATOM     86  C   UNL A   1      45.997  32.597  28.497  1.00  0.00     0.064 A 
ATOM     87  C   UNL A   1      46.591  32.986  29.705  1.00  0.00     0.173 A 
ATOM     88  C   UNL A   1      45.911  33.551  27.470  1.00  0.00     0.173 A 
ATOM     89  F   UNL A   1      46.681  32.118  30.724  1.00  0.00    -0.203 F 
ATOM     90  C   UNL A   1      47.075  34.280  29.880  1.00  0.00     0.198 A 
ATOM     91  C   UNL A   1      46.423  34.834  27.637  1.00  0.00     0.198 A 
ATOM     92  F   UNL A   1      45.353  33.227  26.293  1.00  0.00    -0.203 F 
ATOM     93  F   UNL A   1      47.611  34.641  31.053  1.00  0.00    -0.200 F 
ATOM     94  C   UNL A   1      47.002  35.197  28.842  1.00  0.00     0.200 A 
ATOM     95  F   UNL A   1      46.364  35.713  26.627  1.00  0.00    -0.200 F 
ATOM     96  F   UNL A   1      47.489  36.436  29.004  1.00  0.00    -0.200 F 
ENDBRANCH  62  86
ENDBRANCH  27  30
ENDBRANCH  18  20
ENDBRANCH  13  16
ENDBRANCH  10  13
ENDBRANCH   7  10
ENDBRANCH   4   7
ENDBRANCH   1   4
BRANCH   1  97
ATOM     97  C   UNL A   1      35.125  22.903  24.654  1.00  0.00     0.018 C 
ATOM     98  H   UNL A   1      34.794  22.173  23.946  1.00  0.00     0.049 H 
ATOM     99  H   UNL A   1      34.684  23.860  24.465  1.00  0.00     0.049 H 
BRANCH  97 100
ATOM    100  N   UNL A   1      34.719  22.482  25.985  1.00  0.00    -0.352 N 
ATOM    101  C   UNL A   1      34.037  21.353  26.360  1.00  0.00     0.253 C 
ATOM    102  H   UNL A   1      34.968  23.091  26.717  1.00  0.00     0.163 HD
ATOM    103  O   UNL A   1      33.706  21.196  27.532  1.00  0.00    -0.269 OA
BRANCH 101 104
ATOM    104  C   UNL A   1      33.674  20.327  25.360  1.00  0.00     0.063 A 
ATOM    105  C   UNL A   1      34.577  19.267  25.191  1.00  0.00    -0.047 A 
ATOM    106  C   UNL A   1      32.502  20.410  24.583  1.00  0.00     0.054 A 
ATOM    107  C   UNL A   1      34.297  18.246  24.286  1.00  0.00    -0.061 A 
ATOM    108  H   UNL A   1      35.451  19.244  25.739  1.00  0.00     0.063 H 
ATOM    109  C   UNL A   1      32.221  19.341  23.715  1.00  0.00    -0.038 A 
ATOM    110  C   UNL A   1      33.112  18.277  23.559  1.00  0.00    -0.060 A 
ATOM    111  H   UNL A   1      34.966  17.471  24.155  1.00  0.00     0.062 H 
ATOM    112  H   UNL A   1      31.339  19.344  23.181  1.00  0.00     0.064 H 
ATOM    113  H   UNL A   1      32.890  17.511  22.903  1.00  0.00     0.062 H 
BRANCH 106 114
ATOM    114  N   UNL A   1      31.635  21.511  24.671  1.00  0.00    -0.323 N 
ATOM    115  H   UNL A   1      30.961  21.458  25.386  1.00  0.00     0.170 HD
BRANCH 114 116
ATOM    116  C   UNL A   1      31.588  22.666  23.900  1.00  0.00     0.233 A 
ATOM    117  N   UNL A   1      32.404  22.799  22.868  1.00  0.00    -0.182 NA
ATOM    118  N   UNL A   1      30.698  23.579  24.268  1.00  0.00    -0.176 NA
ATOM    119  C   UNL A   1      32.256  23.938  22.218  1.00  0.00     0.228 A 
ATOM    120  C   UNL A   1      30.697  24.719  23.582  1.00  0.00     0.233 A 
ATOM    121  Cl  UNL A   1      33.275  24.169  20.866  1.00  0.00    -0.041 Cl
ATOM    122  N   UNL A   1      31.441  24.933  22.510  1.00  0.00    -0.182 NA
BRANCH 120 123
ATOM    123  N   UNL A   1      29.951  25.754  24.139  1.00  0.00    -0.324 N 
ATOM    124  H   UNL A   1      29.544  25.563  25.016  1.00  0.00     0.170 HD
BRANCH 123 125
ATOM    125  C   UNL A   1      29.702  27.025  23.620  1.00  0.00     0.041 A 
ATOM    126  C   UNL A   1      28.385  27.481  23.501  1.00  0.00    -0.036 A 
ATOM    127  C   UNL A   1      30.742  27.905  23.314  1.00  0.00    -0.036 A 
ATOM    128  C   UNL A   1      28.114  28.793  23.092  1.00  0.00    -0.036 A 
ATOM    129  H   UNL A   1      27.604  26.843  23.716  1.00  0.00     0.065 H 
ATOM    130  C   UNL A   1      30.475  29.194  22.849  1.00  0.00    -0.036 A 
ATOM    131  H   UNL A   1      31.721  27.598  23.432  1.00  0.00     0.065 H 
ATOM    132  C   UNL A   1      29.159  29.655  22.747  1.00  0.00     0.044 A 
ATOM    133  H   UNL A   1      27.138  29.124  23.047  1.00  0.00     0.065 H 
ATOM    134  H   UNL A   1      31.256  29.811  22.579  1.00  0.00     0.065 H 
BRANCH 132 135
ATOM    135  N   UNL A   1      28.896  30.995  22.342  1.00  0.00    -0.308 N 
ATOM    136  C   UNL A   1      28.183  31.175  21.072  1.00  0.00     0.049 C 
ATOM    137  C   UNL A   1      29.006  32.049  23.257  1.00  0.00     0.253 C 
ATOM    138  C   UNL A   1      28.147  32.623  20.599  1.00  0.00     0.065 C 
ATOM    139  H   UNL A   1      27.176  30.834  21.197  1.00  0.00     0.052 H 
ATOM    140  H   UNL A   1      28.710  30.612  20.331  1.00  0.00     0.052 H 
ATOM    141  C   UNL A   1      28.542  33.422  22.747  1.00  0.00     0.126 C 
ATOM    142  O   UNL A   1      29.528  31.955  24.371  1.00  0.00    -0.272 OA
ATOM    143  O   UNL A   1      27.650  33.452  21.645  1.00  0.00    -0.370 OA
ATOM    144  H   UNL A   1      27.508  32.703  19.745  1.00  0.00     0.059 H 
ATOM    145  H   UNL A   1      29.136  32.935  20.336  1.00  0.00     0.059 H 
ATOM    146  H   UNL A   1      28.058  33.917  23.564  1.00  0.00     0.067 H 
ATOM    147  H   UNL A   1      29.433  33.890  22.386  1.00  0.00     0.067 H 
ENDBRANCH 132 135
ENDBRANCH 123 125
ENDBRANCH 120 123
ENDBRANCH 114 116
ENDBRANCH 106 114
ENDBRANCH 101 104
ENDBRANCH  97 100
ENDBRANCH   1  97
TORSDOF 18
ENDMDL
MODEL 8
REMARK VINA RESULT:     -12.4      0.843      2.234
REMARK SMILES O=C(NCCCCCCNC(=O)c1ccccc1Nc1nc(Cl)nc(Nc2ccc(N3CCOCC3=O)cc2)n1)c1ccc(-c2c3nc(c(-c4c(F)c(F)c(F)c(F)c4F)c4ccc([nH]4)c(-c4c(F)c(F)c(F)c(F)c4F)c4nc(c(-c5c(F)c(F)c(F)c(F)c5F)c5ccc2[nH]5)C=C4)C=C3)cc1
REMARK SMILES IDX 8 1 7 4 6 7 5 10 4 13 3 16 1 17 2 18 41 20 42 21 103 22
REMARK SMILES IDX 43 23 102 25 44 27 45 30 46 31 96 32 47 33 101 34 95 35
REMARK SMILES IDX 97 36 48 37 100 38 94 40 93 42 49 44 81 47 61 48 80 49 62 50
REMARK SMILES IDX 65 51 79 52 98 53 63 54 64 56 78 58 99 59 66 62 50 64 51 65
REMARK SMILES IDX 59 66 52 67 53 68 57 69 60 70 54 71 55 72 58 73 56 74 82 75
REMARK SMILES IDX 83 76 91 77 84 78 85 79 89 80 92 81 86 82 87 83 90 84 88 85
REMARK SMILES IDX 67 86 68 87 76 88 69 89 70 90 74 91 77 92 71 93 72 94 75 95
REMARK SMILES IDX 73 96 9 97 10 100 11 101 12 103 13 104 14 105 18 106 15 107
REMARK SMILES IDX 17 109 16 110 19 114 20 116 21 117 40 118 22 119 25 120
REMARK SMILES IDX 23 121 24 122 26 123 27 125 28 126 39 127 29 128 38 130
REMARK SMILES IDX 30 132 31 135 32 136 36 137 33 138 35 141 37 142 34 143
REMARK H PARENT 8 2 8 3 7 5 7 6 6 8 6 9 5 11 5 12 4 14 4 15 3 19 42 24 103 26
REMARK H PARENT 43 28 102 29 101 39 95 41 97 43 100 45 94 46 62 55 65 57 98 60
REMARK H PARENT 63 61 99 63 9 98 9 99 10 102 14 108 15 111 17 112 16 113
REMARK H PARENT 19 115 26 124 28 129 39 131 29 133 38 134 32 139 32 140 33 144
REMARK H PARENT 33 145 35 146 35 147
REMARK Flexibility Score: inf
ROOT
ATOM      1  C   UNL A   1      33.039  29.594  26.945  1.00  0.00    -0.036 C 
ATOM      2  H   UNL A   1      32.435  29.758  27.813  1.00  0.00     0.028 H 
ATOM      3  H   UNL A   1      33.310  28.570  26.800  1.00  0.00     0.028 H 
ENDROOT
BRANCH   1   4
ATOM      4  C   UNL A   1      34.355  30.358  27.133  1.00  0.00    -0.052 C 
ATOM      5  H   UNL A   1      35.085  29.669  27.502  1.00  0.00     0.027 H 
ATOM      6  H   UNL A   1      34.591  30.770  26.174  1.00  0.00     0.027 H 
BRANCH   4   7
ATOM      7  C   UNL A   1      34.302  31.548  28.096  1.00  0.00    -0.052 C 
ATOM      8  H   UNL A   1      34.461  31.177  29.087  1.00  0.00     0.027 H 
ATOM      9  H   UNL A   1      35.057  32.229  27.763  1.00  0.00     0.027 H 
BRANCH   7  10
ATOM     10  C   UNL A   1      32.992  32.339  28.094  1.00  0.00    -0.036 C 
ATOM     11  H   UNL A   1      32.225  31.709  27.696  1.00  0.00     0.028 H 
ATOM     12  H   UNL A   1      32.820  32.633  29.108  1.00  0.00     0.028 H 
BRANCH  10  13
ATOM     13  C   UNL A   1      33.019  33.626  27.276  1.00  0.00     0.018 C 
ATOM     14  H   UNL A   1      34.013  33.781  26.912  1.00  0.00     0.049 H 
ATOM     15  H   UNL A   1      32.318  33.517  26.475  1.00  0.00     0.049 H 
BRANCH  13  16
ATOM     16  N   UNL A   1      32.623  34.787  28.056  1.00  0.00    -0.352 N 
ATOM     17  O   UNL A   1      32.535  36.143  29.856  1.00  0.00    -0.269 OA
ATOM     18  C   UNL A   1      33.109  35.236  29.256  1.00  0.00     0.251 C 
ATOM     19  H   UNL A   1      31.901  35.330  27.665  1.00  0.00     0.163 HD
BRANCH  18  20
ATOM     20  C   UNL A   1      34.313  34.617  29.844  1.00  0.00     0.039 A 
ATOM     21  C   UNL A   1      35.570  34.783  29.252  1.00  0.00    -0.049 A 
ATOM     22  C   UNL A   1      34.183  33.882  31.024  1.00  0.00    -0.049 A 
ATOM     23  C   UNL A   1      36.676  34.121  29.775  1.00  0.00    -0.053 A 
ATOM     24  H   UNL A   1      35.676  35.395  28.428  1.00  0.00     0.063 H 
ATOM     25  C   UNL A   1      35.306  33.277  31.588  1.00  0.00    -0.053 A 
ATOM     26  H   UNL A   1      33.261  33.787  31.477  1.00  0.00     0.063 H 
ATOM     27  C   UNL A   1      36.557  33.373  30.957  1.00  0.00    -0.014 A 
ATOM     28  H   UNL A   1      37.587  34.180  29.295  1.00  0.00     0.063 H 
ATOM     29  H   UNL A   1      35.217  32.756  32.475  1.00  0.00     0.063 H 
BRANCH  27  30
ATOM     30  C   UNL A   1      37.746  32.732  31.566  1.00  0.00     0.031 A 
ATOM     31  C   UNL A   1      38.413  31.566  30.897  1.00  0.00     0.074 A 
ATOM     32  C   UNL A   1      38.192  33.175  32.756  1.00  0.00     0.049 A 
ATOM     33  N   UNL A   1      39.385  30.805  31.333  1.00  0.00    -0.248 NA
ATOM     34  C   UNL A   1      37.912  31.199  29.564  1.00  0.00    -0.034 C 
ATOM     35  C   UNL A   1      37.623  34.300  33.499  1.00  0.00    -0.036 A 
ATOM     36  N   UNL A   1      39.207  32.723  33.558  1.00  0.00    -0.354 N 
ATOM     37  C   UNL A   1      39.594  29.854  30.343  1.00  0.00     0.074 A 
ATOM     38  C   UNL A   1      38.630  30.120  29.294  1.00  0.00    -0.034 C 
ATOM     39  H   UNL A   1      37.189  31.662  28.990  1.00  0.00     0.065 H 
ATOM     40  C   UNL A   1      38.295  34.449  34.649  1.00  0.00    -0.036 A 
ATOM     41  H   UNL A   1      36.831  34.884  33.188  1.00  0.00     0.065 H 
ATOM     42  C   UNL A   1      39.297  33.394  34.753  1.00  0.00     0.049 A 
ATOM     43  H   UNL A   1      39.812  31.989  33.304  1.00  0.00     0.167 HD
ATOM     44  C   UNL A   1      40.509  28.854  30.315  1.00  0.00     0.037 A 
ATOM     45  H   UNL A   1      38.518  29.542  28.447  1.00  0.00     0.065 H 
ATOM     46  H   UNL A   1      38.131  35.191  35.348  1.00  0.00     0.065 H 
ATOM     47  C   UNL A   1      40.068  33.159  35.831  1.00  0.00     0.037 A 
ATOM     48  C   UNL A   1      41.461  28.603  31.367  1.00  0.00     0.049 A 
ATOM     49  C   UNL A   1      41.043  32.018  35.800  1.00  0.00     0.074 A 
ATOM     50  C   UNL A   1      42.457  27.645  31.420  1.00  0.00    -0.036 A 
ATOM     51  N   UNL A   1      41.523  29.309  32.563  1.00  0.00    -0.354 N 
ATOM     52  N   UNL A   1      41.262  31.147  34.846  1.00  0.00    -0.248 NA
ATOM     53  C   UNL A   1      41.878  31.826  36.993  1.00  0.00    -0.034 C 
ATOM     54  C   UNL A   1      43.078  27.727  32.670  1.00  0.00    -0.036 A 
ATOM     55  H   UNL A   1      42.700  26.983  30.666  1.00  0.00     0.065 H 
ATOM     56  C   UNL A   1      42.519  28.784  33.371  1.00  0.00     0.049 A 
ATOM     57  H   UNL A   1      40.945  30.069  32.800  1.00  0.00     0.167 HD
ATOM     58  C   UNL A   1      42.279  30.323  35.306  1.00  0.00     0.074 A 
ATOM     59  C   UNL A   1      42.634  30.798  36.628  1.00  0.00    -0.034 C 
ATOM     60  H   UNL A   1      41.877  32.352  37.881  1.00  0.00     0.065 H 
ATOM     61  H   UNL A   1      43.826  27.104  33.014  1.00  0.00     0.065 H 
ATOM     62  C   UNL A   1      42.869  29.274  34.682  1.00  0.00     0.037 A 
ATOM     63  H   UNL A   1      43.380  30.389  37.212  1.00  0.00     0.065 H 
BRANCH  44  64
ATOM     64  C   UNL A   1      40.493  27.933  29.127  1.00  0.00     0.064 A 
ATOM     65  C   UNL A   1      39.669  26.798  29.075  1.00  0.00     0.173 A 
ATOM     66  C   UNL A   1      41.311  28.196  28.017  1.00  0.00     0.173 A 
ATOM     67  F   UNL A   1      38.870  26.495  30.110  1.00  0.00    -0.203 F 
ATOM     68  C   UNL A   1      39.698  25.939  27.978  1.00  0.00     0.198 A 
ATOM     69  C   UNL A   1      41.311  27.355  26.907  1.00  0.00     0.198 A 
ATOM     70  F   UNL A   1      42.110  29.273  28.005  1.00  0.00    -0.203 F 
ATOM     71  F   UNL A   1      38.949  24.827  27.980  1.00  0.00    -0.200 F 
ATOM     72  C   UNL A   1      40.515  26.220  26.894  1.00  0.00     0.200 A 
ATOM     73  F   UNL A   1      42.089  27.639  25.852  1.00  0.00    -0.200 F 
ATOM     74  F   UNL A   1      40.541  25.393  25.839  1.00  0.00    -0.200 F 
ENDBRANCH  44  64
BRANCH  47  75
ATOM     75  C   UNL A   1      39.924  34.032  37.023  1.00  0.00     0.064 A 
ATOM     76  C   UNL A   1      40.608  35.251  37.113  1.00  0.00     0.173 A 
ATOM     77  C   UNL A   1      39.052  33.692  38.070  1.00  0.00     0.173 A 
ATOM     78  F   UNL A   1      41.462  35.612  36.144  1.00  0.00    -0.203 F 
ATOM     79  C   UNL A   1      40.427  36.097  38.205  1.00  0.00     0.198 A 
ATOM     80  C   UNL A   1      38.851  34.552  39.147  1.00  0.00     0.198 A 
ATOM     81  F   UNL A   1      38.368  32.539  38.026  1.00  0.00    -0.203 F 
ATOM     82  F   UNL A   1      41.111  37.247  38.278  1.00  0.00    -0.200 F 
ATOM     83  C   UNL A   1      39.541  35.751  39.215  1.00  0.00     0.200 A 
ATOM     84  F   UNL A   1      37.979  34.223  40.109  1.00  0.00    -0.200 F 
ATOM     85  F   UNL A   1      39.353  36.576  40.254  1.00  0.00    -0.200 F 
ENDBRANCH  47  75
BRANCH  62  86
ATOM     86  C   UNL A   1      44.004  28.592  35.391  1.00  0.00     0.064 A 
ATOM     87  C   UNL A   1      45.336  28.988  35.212  1.00  0.00     0.173 A 
ATOM     88  C   UNL A   1      43.739  27.578  36.326  1.00  0.00     0.173 A 
ATOM     89  F   UNL A   1      45.644  29.941  34.318  1.00  0.00    -0.203 F 
ATOM     90  C   UNL A   1      46.364  28.389  35.936  1.00  0.00     0.198 A 
ATOM     91  C   UNL A   1      44.765  27.003  37.070  1.00  0.00     0.198 A 
ATOM     92  F   UNL A   1      42.480  27.165  36.536  1.00  0.00    -0.203 F 
ATOM     93  F   UNL A   1      47.634  28.761  35.728  1.00  0.00    -0.200 F 
ATOM     94  C   UNL A   1      46.075  27.407  36.873  1.00  0.00     0.200 A 
ATOM     95  F   UNL A   1      44.482  26.065  37.984  1.00  0.00    -0.200 F 
ATOM     96  F   UNL A   1      47.064  26.847  37.585  1.00  0.00    -0.200 F 
ENDBRANCH  62  86
ENDBRANCH  27  30
ENDBRANCH  18  20
ENDBRANCH  13  16
ENDBRANCH  10  13
ENDBRANCH   7  10
ENDBRANCH   4   7
ENDBRANCH   1   4
BRANCH   1  97
ATOM     97  C   UNL A   1      32.222  29.995  25.719  1.00  0.00     0.018 C 
ATOM     98  H   UNL A   1      32.068  31.054  25.740  1.00  0.00     0.049 H 
ATOM     99  H   UNL A   1      31.294  29.464  25.757  1.00  0.00     0.049 H 
BRANCH  97 100
ATOM    100  N   UNL A   1      32.885  29.643  24.475  1.00  0.00    -0.352 N 
ATOM    101  C   UNL A   1      32.421  28.873  23.438  1.00  0.00     0.253 C 
ATOM    102  H   UNL A   1      33.792  30.008  24.360  1.00  0.00     0.163 HD
ATOM    103  O   UNL A   1      33.156  28.613  22.490  1.00  0.00    -0.269 OA
BRANCH 101 104
ATOM    104  C   UNL A   1      31.046  28.332  23.463  1.00  0.00     0.063 A 
ATOM    105  C   UNL A   1      30.021  29.205  23.069  1.00  0.00    -0.047 A 
ATOM    106  C   UNL A   1      30.757  27.021  23.885  1.00  0.00     0.054 A 
ATOM    107  C   UNL A   1      28.699  28.765  23.040  1.00  0.00    -0.061 A 
ATOM    108  H   UNL A   1      30.246  30.176  22.801  1.00  0.00     0.063 H 
ATOM    109  C   UNL A   1      29.423  26.589  23.799  1.00  0.00    -0.038 A 
ATOM    110  C   UNL A   1      28.403  27.453  23.391  1.00  0.00    -0.060 A 
ATOM    111  H   UNL A   1      27.944  29.410  22.760  1.00  0.00     0.062 H 
ATOM    112  H   UNL A   1      29.191  25.614  24.041  1.00  0.00     0.064 H 
ATOM    113  H   UNL A   1      27.428  27.116  23.349  1.00  0.00     0.062 H 
BRANCH 106 114
ATOM    114  N   UNL A   1      31.759  26.165  24.372  1.00  0.00    -0.323 N 
ATOM    115  H   UNL A   1      31.977  26.276  25.326  1.00  0.00     0.170 HD
BRANCH 114 116
ATOM    116  C   UNL A   1      32.486  25.184  23.710  1.00  0.00     0.233 A 
ATOM    117  N   UNL A   1      32.429  25.103  22.391  1.00  0.00    -0.182 NA
ATOM    118  N   UNL A   1      33.209  24.375  24.474  1.00  0.00    -0.176 NA
ATOM    119  C   UNL A   1      33.168  24.133  21.886  1.00  0.00     0.228 A 
ATOM    120  C   UNL A   1      33.849  23.386  23.856  1.00  0.00     0.233 A 
ATOM    121  Cl  UNL A   1      33.146  23.980  20.184  1.00  0.00    -0.041 Cl
ATOM    122  N   UNL A   1      33.891  23.246  22.541  1.00  0.00    -0.182 NA
BRANCH 120 123
ATOM    123  N   UNL A   1      34.380  22.404  24.686  1.00  0.00    -0.324 N 
ATOM    124  H   UNL A   1      33.723  21.837  25.153  1.00  0.00     0.170 HD
BRANCH 123 125
ATOM    125  C   UNL A   1      35.721  22.114  24.945  1.00  0.00     0.041 A 
ATOM    126  C   UNL A   1      36.594  23.142  25.316  1.00  0.00    -0.036 A 
ATOM    127  C   UNL A   1      36.197  20.802  24.949  1.00  0.00    -0.036 A 
ATOM    128  C   UNL A   1      37.914  22.862  25.692  1.00  0.00    -0.036 A 
ATOM    129  H   UNL A   1      36.262  24.119  25.313  1.00  0.00     0.065 H 
ATOM    130  C   UNL A   1      37.528  20.524  25.265  1.00  0.00    -0.036 A 
ATOM    131  H   UNL A   1      35.557  20.027  24.714  1.00  0.00     0.065 H 
ATOM    132  C   UNL A   1      38.395  21.550  25.653  1.00  0.00     0.044 A 
ATOM    133  H   UNL A   1      38.533  23.628  26.000  1.00  0.00     0.065 H 
ATOM    134  H   UNL A   1      37.874  19.554  25.211  1.00  0.00     0.065 H 
BRANCH 132 135
ATOM    135  N   UNL A   1      39.732  21.252  26.045  1.00  0.00    -0.308 N 
ATOM    136  C   UNL A   1      40.452  22.293  26.786  1.00  0.00     0.049 C 
ATOM    137  C   UNL A   1      40.201  19.933  26.023  1.00  0.00     0.253 C 
ATOM    138  C   UNL A   1      41.936  21.993  26.962  1.00  0.00     0.065 C 
ATOM    139  H   UNL A   1      40.009  22.389  27.755  1.00  0.00     0.052 H 
ATOM    140  H   UNL A   1      40.377  23.196  26.217  1.00  0.00     0.052 H 
ATOM    141  C   UNL A   1      41.601  19.717  26.619  1.00  0.00     0.126 C 
ATOM    142  O   UNL A   1      39.616  18.992  25.482  1.00  0.00    -0.272 OA
ATOM    143  O   UNL A   1      42.094  20.693  27.523  1.00  0.00    -0.370 OA
ATOM    144  H   UNL A   1      42.371  22.719  27.616  1.00  0.00     0.059 H 
ATOM    145  H   UNL A   1      42.422  22.031  26.010  1.00  0.00     0.059 H 
ATOM    146  H   UNL A   1      41.584  18.780  27.139  1.00  0.00     0.067 H 
ATOM    147  H   UNL A   1      42.262  19.768  25.780  1.00  0.00     0.067 H 
ENDBRANCH 132 135
ENDBRANCH 123 125
ENDBRANCH 120 123
ENDBRANCH 114 116
ENDBRANCH 106 114
ENDBRANCH 101 104
ENDBRANCH  97 100
ENDBRANCH   1  97
TORSDOF 18
ENDMDL
MODEL 9
REMARK VINA RESULT:     -12.4      4.536      8.616
REMARK SMILES O=C(NCCCCCCNC(=O)c1ccccc1Nc1nc(Cl)nc(Nc2ccc(N3CCOCC3=O)cc2)n1)c1ccc(-c2c3nc(c(-c4c(F)c(F)c(F)c(F)c4F)c4ccc([nH]4)c(-c4c(F)c(F)c(F)c(F)c4F)c4nc(c(-c5c(F)c(F)c(F)c(F)c5F)c5ccc2[nH]5)C=C4)C=C3)cc1
REMARK SMILES IDX 8 1 7 4 6 7 5 10 4 13 3 16 1 17 2 18 41 20 42 21 103 22
REMARK SMILES IDX 43 23 102 25 44 27 45 30 46 31 96 32 47 33 101 34 95 35
REMARK SMILES IDX 97 36 48 37 100 38 94 40 93 42 49 44 81 47 61 48 80 49 62 50
REMARK SMILES IDX 65 51 79 52 98 53 63 54 64 56 78 58 99 59 66 62 50 64 51 65
REMARK SMILES IDX 59 66 52 67 53 68 57 69 60 70 54 71 55 72 58 73 56 74 82 75
REMARK SMILES IDX 83 76 91 77 84 78 85 79 89 80 92 81 86 82 87 83 90 84 88 85
REMARK SMILES IDX 67 86 68 87 76 88 69 89 70 90 74 91 77 92 71 93 72 94 75 95
REMARK SMILES IDX 73 96 9 97 10 100 11 101 12 103 13 104 14 105 18 106 15 107
REMARK SMILES IDX 17 109 16 110 19 114 20 116 21 117 40 118 22 119 25 120
REMARK SMILES IDX 23 121 24 122 26 123 27 125 28 126 39 127 29 128 38 130
REMARK SMILES IDX 30 132 31 135 32 136 36 137 33 138 35 141 37 142 34 143
REMARK H PARENT 8 2 8 3 7 5 7 6 6 8 6 9 5 11 5 12 4 14 4 15 3 19 42 24 103 26
REMARK H PARENT 43 28 102 29 101 39 95 41 97 43 100 45 94 46 62 55 65 57 98 60
REMARK H PARENT 63 61 99 63 9 98 9 99 10 102 14 108 15 111 17 112 16 113
REMARK H PARENT 19 115 26 124 28 129 39 131 29 133 38 134 32 139 32 140 33 144
REMARK H PARENT 33 145 35 146 35 147
REMARK Flexibility Score: inf
ROOT
ATOM      1  C   UNL A   1      34.777  24.544  25.449  1.00  0.00    -0.036 C 
ATOM      2  H   UNL A   1      35.309  24.598  26.376  1.00  0.00     0.028 H 
ATOM      3  H   UNL A   1      33.993  23.817  25.447  1.00  0.00     0.028 H 
ENDROOT
BRANCH   1   4
ATOM      4  C   UNL A   1      35.765  24.110  24.361  1.00  0.00    -0.052 C 
ATOM      5  H   UNL A   1      35.627  24.753  23.517  1.00  0.00     0.027 H 
ATOM      6  H   UNL A   1      36.735  24.177  24.805  1.00  0.00     0.027 H 
BRANCH   4   7
ATOM      7  C   UNL A   1      35.627  22.663  23.876  1.00  0.00    -0.052 C 
ATOM      8  H   UNL A   1      34.763  22.240  24.343  1.00  0.00     0.027 H 
ATOM      9  H   UNL A   1      35.559  22.716  22.810  1.00  0.00     0.027 H 
BRANCH   7  10
ATOM     10  C   UNL A   1      36.819  21.752  24.177  1.00  0.00    -0.036 C 
ATOM     11  H   UNL A   1      36.612  20.788  23.762  1.00  0.00     0.028 H 
ATOM     12  H   UNL A   1      37.674  22.227  23.745  1.00  0.00     0.028 H 
BRANCH  10  13
ATOM     13  C   UNL A   1      37.135  21.571  25.657  1.00  0.00     0.018 C 
ATOM     14  H   UNL A   1      37.447  22.513  26.059  1.00  0.00     0.049 H 
ATOM     15  H   UNL A   1      36.249  21.213  26.139  1.00  0.00     0.049 H 
BRANCH  13  16
ATOM     16  N   UNL A   1      38.188  20.596  25.885  1.00  0.00    -0.352 N 
ATOM     17  O   UNL A   1      40.301  19.844  26.127  1.00  0.00    -0.269 OA
ATOM     18  C   UNL A   1      39.521  20.796  26.130  1.00  0.00     0.251 C 
ATOM     19  H   UNL A   1      37.901  19.654  25.859  1.00  0.00     0.163 HD
BRANCH  18  20
ATOM     20  C   UNL A   1      40.031  22.158  26.378  1.00  0.00     0.039 A 
ATOM     21  C   UNL A   1      39.236  23.282  26.125  1.00  0.00    -0.049 A 
ATOM     22  C   UNL A   1      41.318  22.310  26.898  1.00  0.00    -0.049 A 
ATOM     23  C   UNL A   1      39.768  24.557  26.285  1.00  0.00    -0.053 A 
ATOM     24  H   UNL A   1      38.257  23.164  25.821  1.00  0.00     0.063 H 
ATOM     25  C   UNL A   1      41.825  23.589  27.125  1.00  0.00    -0.053 A 
ATOM     26  H   UNL A   1      41.892  21.480  27.113  1.00  0.00     0.063 H 
ATOM     27  C   UNL A   1      41.062  24.723  26.800  1.00  0.00    -0.014 A 
ATOM     28  H   UNL A   1      39.208  25.384  26.025  1.00  0.00     0.063 H 
ATOM     29  H   UNL A   1      42.766  23.704  27.535  1.00  0.00     0.063 H 
BRANCH  27  30
ATOM     30  C   UNL A   1      41.605  26.079  27.050  1.00  0.00     0.031 A 
ATOM     31  C   UNL A   1      42.996  26.437  26.615  1.00  0.00     0.074 A 
ATOM     32  C   UNL A   1      40.854  26.973  27.720  1.00  0.00     0.049 A 
ATOM     33  N   UNL A   1      43.683  27.527  26.850  1.00  0.00    -0.248 NA
ATOM     34  C   UNL A   1      43.716  25.431  25.822  1.00  0.00    -0.034 C 
ATOM     35  C   UNL A   1      39.489  26.736  28.192  1.00  0.00    -0.036 A 
ATOM     36  N   UNL A   1      41.137  28.247  28.140  1.00  0.00    -0.354 N 
ATOM     37  C   UNL A   1      44.923  27.328  26.257  1.00  0.00     0.074 A 
ATOM     38  C   UNL A   1      44.902  26.002  25.673  1.00  0.00    -0.034 C 
ATOM     39  H   UNL A   1      43.384  24.518  25.472  1.00  0.00     0.065 H 
ATOM     40  C   UNL A   1      39.054  27.826  28.837  1.00  0.00    -0.036 A 
ATOM     41  H   UNL A   1      38.949  25.868  28.050  1.00  0.00     0.065 H 
ATOM     42  C   UNL A   1      40.129  28.812  28.881  1.00  0.00     0.049 A 
ATOM     43  H   UNL A   1      41.980  28.710  27.931  1.00  0.00     0.167 HD
ATOM     44  C   UNL A   1      45.978  28.177  26.206  1.00  0.00     0.037 A 
ATOM     45  H   UNL A   1      45.706  25.561  25.202  1.00  0.00     0.065 H 
ATOM     46  H   UNL A   1      38.110  27.950  29.238  1.00  0.00     0.065 H 
ATOM     47  C   UNL A   1      40.088  29.975  29.557  1.00  0.00     0.037 A 
ATOM     48  C   UNL A   1      45.983  29.493  26.793  1.00  0.00     0.049 A 
ATOM     49  C   UNL A   1      41.284  30.882  29.528  1.00  0.00     0.074 A 
ATOM     50  C   UNL A   1      46.983  30.449  26.762  1.00  0.00    -0.036 A 
ATOM     51  N   UNL A   1      44.939  30.033  27.533  1.00  0.00    -0.354 N 
ATOM     52  N   UNL A   1      42.438  30.705  28.933  1.00  0.00    -0.248 NA
ATOM     53  C   UNL A   1      41.174  32.150  30.260  1.00  0.00    -0.034 C 
ATOM     54  C   UNL A   1      46.571  31.538  27.536  1.00  0.00    -0.036 A 
ATOM     55  H   UNL A   1      47.878  30.371  26.254  1.00  0.00     0.065 H 
ATOM     56  C   UNL A   1      45.285  31.294  27.991  1.00  0.00     0.049 A 
ATOM     57  H   UNL A   1      44.079  29.586  27.707  1.00  0.00     0.167 HD
ATOM     58  C   UNL A   1      43.181  31.847  29.191  1.00  0.00     0.074 A 
ATOM     59  C   UNL A   1      42.347  32.713  29.999  1.00  0.00    -0.034 C 
ATOM     60  H   UNL A   1      40.391  32.508  30.829  1.00  0.00     0.065 H 
ATOM     61  H   UNL A   1      47.132  32.382  27.736  1.00  0.00     0.065 H 
ATOM     62  C   UNL A   1      44.439  32.151  28.786  1.00  0.00     0.037 A 
ATOM     63  H   UNL A   1      42.628  33.649  30.329  1.00  0.00     0.065 H 
BRANCH  44  64
ATOM     64  C   UNL A   1      47.228  27.689  25.527  1.00  0.00     0.064 A 
ATOM     65  C   UNL A   1      48.275  27.085  26.239  1.00  0.00     0.173 A 
ATOM     66  C   UNL A   1      47.376  27.822  24.137  1.00  0.00     0.173 A 
ATOM     67  F   UNL A   1      48.190  26.937  27.570  1.00  0.00    -0.203 F 
ATOM     68  C   UNL A   1      49.440  26.673  25.594  1.00  0.00     0.198 A 
ATOM     69  C   UNL A   1      48.525  27.377  23.490  1.00  0.00     0.198 A 
ATOM     70  F   UNL A   1      46.402  28.380  23.403  1.00  0.00    -0.203 F 
ATOM     71  F   UNL A   1      50.451  26.157  26.305  1.00  0.00    -0.200 F 
ATOM     72  C   UNL A   1      49.562  26.816  24.221  1.00  0.00     0.200 A 
ATOM     73  F   UNL A   1      48.634  27.499  22.159  1.00  0.00    -0.200 F 
ATOM     74  F   UNL A   1      50.682  26.419  23.600  1.00  0.00    -0.200 F 
ENDBRANCH  44  64
BRANCH  47  75
ATOM     75  C   UNL A   1      38.863  30.322  30.321  1.00  0.00     0.064 A 
ATOM     76  C   UNL A   1      38.779  30.083  31.698  1.00  0.00     0.173 A 
ATOM     77  C   UNL A   1      37.775  30.954  29.698  1.00  0.00     0.173 A 
ATOM     78  F   UNL A   1      39.788  29.469  32.334  1.00  0.00    -0.203 F 
ATOM     79  C   UNL A   1      37.653  30.463  32.425  1.00  0.00     0.198 A 
ATOM     80  C   UNL A   1      36.662  31.358  30.431  1.00  0.00     0.198 A 
ATOM     81  F   UNL A   1      37.812  31.212  28.383  1.00  0.00    -0.203 F 
ATOM     82  F   UNL A   1      37.587  30.203  33.738  1.00  0.00    -0.200 F 
ATOM     83  C   UNL A   1      36.600  31.109  31.793  1.00  0.00     0.200 A 
ATOM     84  F   UNL A   1      35.658  32.001  29.820  1.00  0.00    -0.200 F 
ATOM     85  F   UNL A   1      35.528  31.492  32.497  1.00  0.00    -0.200 F 
ENDBRANCH  47  75
BRANCH  62  86
ATOM     86  C   UNL A   1      44.981  33.501  29.157  1.00  0.00     0.064 A 
ATOM     87  C   UNL A   1      45.785  33.693  30.290  1.00  0.00     0.173 A 
ATOM     88  C   UNL A   1      44.756  34.604  28.317  1.00  0.00     0.173 A 
ATOM     89  F   UNL A   1      46.016  32.675  31.134  1.00  0.00    -0.203 F 
ATOM     90  C   UNL A   1      46.337  34.939  30.572  1.00  0.00     0.198 A 
ATOM     91  C   UNL A   1      45.334  35.841  28.586  1.00  0.00     0.198 A 
ATOM     92  F   UNL A   1      43.997  34.472  27.219  1.00  0.00    -0.203 F 
ATOM     93  F   UNL A   1      47.076  35.109  31.677  1.00  0.00    -0.200 F 
ATOM     94  C   UNL A   1      46.121  36.008  29.714  1.00  0.00     0.200 A 
ATOM     95  F   UNL A   1      45.136  36.867  27.748  1.00  0.00    -0.200 F 
ATOM     96  F   UNL A   1      46.672  37.202  29.977  1.00  0.00    -0.200 F 
ENDBRANCH  62  86
ENDBRANCH  27  30
ENDBRANCH  18  20
ENDBRANCH  13  16
ENDBRANCH  10  13
ENDBRANCH   7  10
ENDBRANCH   4   7
ENDBRANCH   1   4
BRANCH   1  97
ATOM     97  C   UNL A   1      34.102  25.894  25.215  1.00  0.00     0.018 C 
ATOM     98  H   UNL A   1      34.039  26.069  24.162  1.00  0.00     0.049 H 
ATOM     99  H   UNL A   1      34.693  26.643  25.701  1.00  0.00     0.049 H 
BRANCH  97 100
ATOM    100  N   UNL A   1      32.764  25.948  25.780  1.00  0.00    -0.352 N 
ATOM    101  C   UNL A   1      32.160  26.966  26.473  1.00  0.00     0.253 C 
ATOM    102  H   UNL A   1      32.215  25.141  25.645  1.00  0.00     0.163 HD
ATOM    103  O   UNL A   1      31.040  26.806  26.949  1.00  0.00    -0.269 OA
BRANCH 101 104
ATOM    104  C   UNL A   1      32.858  28.254  26.673  1.00  0.00     0.063 A 
ATOM    105  C   UNL A   1      34.095  28.202  27.332  1.00  0.00    -0.047 A 
ATOM    106  C   UNL A   1      32.310  29.483  26.257  1.00  0.00     0.054 A 
ATOM    107  C   UNL A   1      34.828  29.369  27.538  1.00  0.00    -0.061 A 
ATOM    108  H   UNL A   1      34.463  27.298  27.667  1.00  0.00     0.063 H 
ATOM    109  C   UNL A   1      33.093  30.636  26.434  1.00  0.00    -0.038 A 
ATOM    110  C   UNL A   1      34.333  30.583  27.076  1.00  0.00    -0.060 A 
ATOM    111  H   UNL A   1      35.733  29.333  28.032  1.00  0.00     0.062 H 
ATOM    112  H   UNL A   1      32.745  31.541  26.081  1.00  0.00     0.064 H 
ATOM    113  H   UNL A   1      34.883  31.447  27.205  1.00  0.00     0.062 H 
BRANCH 106 114
ATOM    114  N   UNL A   1      31.031  29.564  25.681  1.00  0.00    -0.323 N 
ATOM    115  H   UNL A   1      30.291  29.676  26.320  1.00  0.00     0.170 HD
BRANCH 114 116
ATOM    116  C   UNL A   1      30.656  29.510  24.346  1.00  0.00     0.233 A 
ATOM    117  N   UNL A   1      29.792  30.392  23.871  1.00  0.00    -0.182 NA
ATOM    118  N   UNL A   1      31.210  28.546  23.620  1.00  0.00    -0.176 NA
ATOM    119  C   UNL A   1      29.523  30.235  22.588  1.00  0.00     0.228 A 
ATOM    120  C   UNL A   1      30.800  28.441  22.359  1.00  0.00     0.233 A 
ATOM    121  Cl  UNL A   1      28.420  31.349  21.910  1.00  0.00    -0.041 Cl
ATOM    122  N   UNL A   1      29.977  29.297  21.779  1.00  0.00    -0.182 NA
BRANCH 120 123
ATOM    123  N   UNL A   1      31.189  27.279  21.697  1.00  0.00    -0.324 N 
ATOM    124  H   UNL A   1      31.306  27.361  20.723  1.00  0.00     0.170 HD
BRANCH 123 125
ATOM    125  C   UNL A   1      31.435  26.013  22.232  1.00  0.00     0.041 A 
ATOM    126  C   UNL A   1      30.483  25.415  23.065  1.00  0.00    -0.036 A 
ATOM    127  C   UNL A   1      32.563  25.275  21.871  1.00  0.00    -0.036 A 
ATOM    128  C   UNL A   1      30.653  24.102  23.521  1.00  0.00    -0.036 A 
ATOM    129  H   UNL A   1      29.646  25.948  23.348  1.00  0.00     0.065 H 
ATOM    130  C   UNL A   1      32.765  23.987  22.371  1.00  0.00    -0.036 A 
ATOM    131  H   UNL A   1      33.256  25.686  21.227  1.00  0.00     0.065 H 
ATOM    132  C   UNL A   1      31.805  23.383  23.189  1.00  0.00     0.044 A 
ATOM    133  H   UNL A   1      29.923  23.663  24.103  1.00  0.00     0.065 H 
ATOM    134  H   UNL A   1      33.630  23.477  22.134  1.00  0.00     0.065 H 
BRANCH 132 135
ATOM    135  N   UNL A   1      31.983  22.042  23.637  1.00  0.00    -0.308 N 
ATOM    136  C   UNL A   1      32.207  21.024  22.604  1.00  0.00     0.049 C 
ATOM    137  C   UNL A   1      32.266  21.774  24.981  1.00  0.00     0.253 C 
ATOM    138  C   UNL A   1      32.153  19.599  23.140  1.00  0.00     0.065 C 
ATOM    139  H   UNL A   1      33.171  21.187  22.170  1.00  0.00     0.052 H 
ATOM    140  H   UNL A   1      31.419  21.123  21.887  1.00  0.00     0.052 H 
ATOM    141  C   UNL A   1      32.595  20.309  25.310  1.00  0.00     0.126 C 
ATOM    142  O   UNL A   1      32.170  22.598  25.894  1.00  0.00    -0.272 OA
ATOM    143  O   UNL A   1      33.037  19.476  24.251  1.00  0.00    -0.370 OA
ATOM    144  H   UNL A   1      32.450  18.918  22.370  1.00  0.00     0.059 H 
ATOM    145  H   UNL A   1      31.155  19.373  23.452  1.00  0.00     0.059 H 
ATOM    146  H   UNL A   1      33.366  20.316  26.054  1.00  0.00     0.067 H 
ATOM    147  H   UNL A   1      31.662  19.886  25.615  1.00  0.00     0.067 H 
ENDBRANCH 132 135
ENDBRANCH 123 125
ENDBRANCH 120 123
ENDBRANCH 114 116
ENDBRANCH 106 114
ENDBRANCH 101 104
ENDBRANCH  97 100
ENDBRANCH   1  97
TORSDOF 18
ENDMDL
MODEL 10
REMARK VINA RESULT:     -12.3      1.685      2.822
REMARK SMILES O=C(NCCCCCCNC(=O)c1ccccc1Nc1nc(Cl)nc(Nc2ccc(N3CCOCC3=O)cc2)n1)c1ccc(-c2c3nc(c(-c4c(F)c(F)c(F)c(F)c4F)c4ccc([nH]4)c(-c4c(F)c(F)c(F)c(F)c4F)c4nc(c(-c5c(F)c(F)c(F)c(F)c5F)c5ccc2[nH]5)C=C4)C=C3)cc1
REMARK SMILES IDX 8 1 7 4 6 7 5 10 4 13 3 16 1 17 2 18 41 20 42 21 103 22
REMARK SMILES IDX 43 23 102 25 44 27 45 30 46 31 96 32 47 33 101 34 95 35
REMARK SMILES IDX 97 36 48 37 100 38 94 40 93 42 49 44 81 47 61 48 80 49 62 50
REMARK SMILES IDX 65 51 79 52 98 53 63 54 64 56 78 58 99 59 66 62 50 64 51 65
REMARK SMILES IDX 59 66 52 67 53 68 57 69 60 70 54 71 55 72 58 73 56 74 82 75
REMARK SMILES IDX 83 76 91 77 84 78 85 79 89 80 92 81 86 82 87 83 90 84 88 85
REMARK SMILES IDX 67 86 68 87 76 88 69 89 70 90 74 91 77 92 71 93 72 94 75 95
REMARK SMILES IDX 73 96 9 97 10 100 11 101 12 103 13 104 14 105 18 106 15 107
REMARK SMILES IDX 17 109 16 110 19 114 20 116 21 117 40 118 22 119 25 120
REMARK SMILES IDX 23 121 24 122 26 123 27 125 28 126 39 127 29 128 38 130
REMARK SMILES IDX 30 132 31 135 32 136 36 137 33 138 35 141 37 142 34 143
REMARK H PARENT 8 2 8 3 7 5 7 6 6 8 6 9 5 11 5 12 4 14 4 15 3 19 42 24 103 26
REMARK H PARENT 43 28 102 29 101 39 95 41 97 43 100 45 94 46 62 55 65 57 98 60
REMARK H PARENT 63 61 99 63 9 98 9 99 10 102 14 108 15 111 17 112 16 113
REMARK H PARENT 19 115 26 124 28 129 39 131 29 133 38 134 32 139 32 140 33 144
REMARK H PARENT 33 145 35 146 35 147
REMARK Flexibility Score: inf
ROOT
ATOM      1  C   UNL A   1      33.437  31.577  27.576  1.00  0.00    -0.036 C 
ATOM      2  H   UNL A   1      33.368  32.242  26.741  1.00  0.00     0.028 H 
ATOM      3  H   UNL A   1      32.553  31.551  28.177  1.00  0.00     0.028 H 
ENDROOT
BRANCH   1   4
ATOM      4  C   UNL A   1      34.559  32.080  28.490  1.00  0.00    -0.052 C 
ATOM      5  H   UNL A   1      34.392  31.678  29.468  1.00  0.00     0.027 H 
ATOM      6  H   UNL A   1      35.472  31.755  28.037  1.00  0.00     0.027 H 
BRANCH   4   7
ATOM      7  C   UNL A   1      34.678  33.601  28.623  1.00  0.00    -0.052 C 
ATOM      8  H   UNL A   1      35.184  33.814  29.541  1.00  0.00     0.027 H 
ATOM      9  H   UNL A   1      35.206  33.932  27.753  1.00  0.00     0.027 H 
BRANCH   7  10
ATOM     10  C   UNL A   1      33.354  34.368  28.625  1.00  0.00    -0.036 C 
ATOM     11  H   UNL A   1      33.041  34.492  27.609  1.00  0.00     0.028 H 
ATOM     12  H   UNL A   1      32.674  33.787  29.212  1.00  0.00     0.028 H 
BRANCH  10  13
ATOM     13  C   UNL A   1      33.408  35.746  29.275  1.00  0.00     0.018 C 
ATOM     14  H   UNL A   1      34.415  35.941  29.581  1.00  0.00     0.049 H 
ATOM     15  H   UNL A   1      33.071  36.460  28.553  1.00  0.00     0.049 H 
BRANCH  13  16
ATOM     16  N   UNL A   1      32.540  35.846  30.437  1.00  0.00    -0.352 N 
ATOM     17  O   UNL A   1      31.773  35.355  32.500  1.00  0.00    -0.269 OA
ATOM     18  C   UNL A   1      32.697  35.311  31.688  1.00  0.00     0.251 C 
ATOM     19  H   UNL A   1      31.720  36.375  30.305  1.00  0.00     0.163 HD
BRANCH  18  20
ATOM     20  C   UNL A   1      33.968  34.660  32.061  1.00  0.00     0.039 A 
ATOM     21  C   UNL A   1      34.027  33.283  32.306  1.00  0.00    -0.049 A 
ATOM     22  C   UNL A   1      35.124  35.438  32.139  1.00  0.00    -0.049 A 
ATOM     23  C   UNL A   1      35.216  32.706  32.739  1.00  0.00    -0.053 A 
ATOM     24  H   UNL A   1      33.189  32.698  32.166  1.00  0.00     0.063 H 
ATOM     25  C   UNL A   1      36.333  34.845  32.504  1.00  0.00    -0.053 A 
ATOM     26  H   UNL A   1      35.086  36.447  31.927  1.00  0.00     0.063 H 
ATOM     27  C   UNL A   1      36.384  33.479  32.829  1.00  0.00    -0.014 A 
ATOM     28  H   UNL A   1      35.241  31.707  32.995  1.00  0.00     0.063 H 
ATOM     29  H   UNL A   1      37.195  35.413  32.536  1.00  0.00     0.063 H 
BRANCH  27  30
ATOM     30  C   UNL A   1      37.673  32.855  33.210  1.00  0.00     0.031 A 
ATOM     31  C   UNL A   1      38.299  31.805  32.341  1.00  0.00     0.074 A 
ATOM     32  C   UNL A   1      38.251  33.205  34.374  1.00  0.00     0.049 A 
ATOM     33  N   UNL A   1      39.356  31.065  32.567  1.00  0.00    -0.248 NA
ATOM     34  C   UNL A   1      37.644  31.542  31.052  1.00  0.00    -0.034 C 
ATOM     35  C   UNL A   1      37.733  34.213  35.299  1.00  0.00    -0.036 A 
ATOM     36  N   UNL A   1      39.384  32.738  34.988  1.00  0.00    -0.354 N 
ATOM     37  C   UNL A   1      39.477  30.231  31.463  1.00  0.00     0.074 A 
ATOM     38  C   UNL A   1      38.371  30.540  30.579  1.00  0.00    -0.034 C 
ATOM     39  H   UNL A   1      36.830  32.014  30.627  1.00  0.00     0.065 H 
ATOM     40  C   UNL A   1      38.543  34.289  36.363  1.00  0.00    -0.036 A 
ATOM     41  H   UNL A   1      36.880  34.776  35.155  1.00  0.00     0.065 H 
ATOM     42  C   UNL A   1      39.599  33.291  36.226  1.00  0.00     0.049 A 
ATOM     43  H   UNL A   1      39.984  32.072  34.582  1.00  0.00     0.167 HD
ATOM     44  C   UNL A   1      40.426  29.297  31.213  1.00  0.00     0.037 A 
ATOM     45  H   UNL A   1      38.175  30.044  29.697  1.00  0.00     0.065 H 
ATOM     46  H   UNL A   1      38.438  34.946  37.153  1.00  0.00     0.065 H 
ATOM     47  C   UNL A   1      40.517  32.999  37.166  1.00  0.00     0.037 A 
ATOM     48  C   UNL A   1      41.521  29.001  32.103  1.00  0.00     0.049 A 
ATOM     49  C   UNL A   1      41.533  31.928  36.891  1.00  0.00     0.074 A 
ATOM     50  C   UNL A   1      42.559  28.105  31.926  1.00  0.00    -0.036 A 
ATOM     51  N   UNL A   1      41.707  29.587  33.349  1.00  0.00    -0.354 N 
ATOM     52  N   UNL A   1      41.665  31.171  35.829  1.00  0.00    -0.248 NA
ATOM     53  C   UNL A   1      42.527  31.670  37.940  1.00  0.00    -0.034 C 
ATOM     54  C   UNL A   1      43.336  28.101  33.089  1.00  0.00    -0.036 A 
ATOM     55  H   UNL A   1      42.731  27.537  31.082  1.00  0.00     0.065 H 
ATOM     56  C   UNL A   1      42.825  29.047  33.964  1.00  0.00     0.049 A 
ATOM     57  H   UNL A   1      41.131  30.283  33.738  1.00  0.00     0.167 HD
ATOM     58  C   UNL A   1      42.772  30.369  36.066  1.00  0.00     0.074 A 
ATOM     59  C   UNL A   1      43.276  30.732  37.375  1.00  0.00    -0.034 C 
ATOM     60  H   UNL A   1      42.619  32.104  38.872  1.00  0.00     0.065 H 
ATOM     61  H   UNL A   1      44.152  27.494  33.267  1.00  0.00     0.065 H 
ATOM     62  C   UNL A   1      43.323  29.425  35.264  1.00  0.00     0.037 A 
ATOM     63  H   UNL A   1      44.111  30.313  37.813  1.00  0.00     0.065 H 
BRANCH  44  64
ATOM     64  C   UNL A   1      40.297  28.498  29.945  1.00  0.00     0.064 A 
ATOM     65  C   UNL A   1      39.565  27.302  29.889  1.00  0.00     0.173 A 
ATOM     66  C   UNL A   1      40.909  28.944  28.763  1.00  0.00     0.173 A 
ATOM     67  F   UNL A   1      38.964  26.826  30.990  1.00  0.00    -0.203 F 
ATOM     68  C   UNL A   1      39.489  26.561  28.712  1.00  0.00     0.198 A 
ATOM     69  C   UNL A   1      40.801  28.220  27.579  1.00  0.00     0.198 A 
ATOM     70  F   UNL A   1      41.610  30.087  28.753  1.00  0.00    -0.203 F 
ATOM     71  F   UNL A   1      38.838  25.389  28.701  1.00  0.00    -0.200 F 
ATOM     72  C   UNL A   1      40.103  27.021  27.558  1.00  0.00     0.200 A 
ATOM     73  F   UNL A   1      41.380  28.677  26.460  1.00  0.00    -0.200 F 
ATOM     74  F   UNL A   1      40.028  26.308  26.425  1.00  0.00    -0.200 F 
ENDBRANCH  44  64
BRANCH  47  75
ATOM     75  C   UNL A   1      40.492  33.739  38.453  1.00  0.00     0.064 A 
ATOM     76  C   UNL A   1      41.313  34.853  38.662  1.00  0.00     0.173 A 
ATOM     77  C   UNL A   1      39.600  33.381  39.478  1.00  0.00     0.173 A 
ATOM     78  F   UNL A   1      42.191  35.224  37.717  1.00  0.00    -0.203 F 
ATOM     79  C   UNL A   1      41.246  35.582  39.847  1.00  0.00     0.198 A 
ATOM     80  C   UNL A   1      39.515  34.128  40.650  1.00  0.00     0.198 A 
ATOM     81  F   UNL A   1      38.787  32.326  39.321  1.00  0.00    -0.203 F 
ATOM     82  F   UNL A   1      42.060  36.631  40.032  1.00  0.00    -0.200 F 
ATOM     83  C   UNL A   1      40.340  35.225  40.835  1.00  0.00     0.200 A 
ATOM     84  F   UNL A   1      38.623  33.792  41.592  1.00  0.00    -0.200 F 
ATOM     85  F   UNL A   1      40.262  35.940  41.965  1.00  0.00    -0.200 F 
ENDBRANCH  47  75
BRANCH  62  86
ATOM     86  C   UNL A   1      44.573  28.747  35.746  1.00  0.00     0.064 A 
ATOM     87  C   UNL A   1      45.848  29.265  35.482  1.00  0.00     0.173 A 
ATOM     88  C   UNL A   1      44.483  27.603  36.555  1.00  0.00     0.173 A 
ATOM     89  F   UNL A   1      45.989  30.347  34.699  1.00  0.00    -0.203 F 
ATOM     90  C   UNL A   1      46.989  28.659  36.002  1.00  0.00     0.198 A 
ATOM     91  C   UNL A   1      45.623  27.017  37.099  1.00  0.00     0.198 A 
ATOM     92  F   UNL A   1      43.285  27.070  36.841  1.00  0.00    -0.203 F 
ATOM     93  F   UNL A   1      48.200  29.151  35.712  1.00  0.00    -0.200 F 
ATOM     94  C   UNL A   1      46.873  27.544  36.820  1.00  0.00     0.200 A 
ATOM     95  F   UNL A   1      45.507  25.949  37.900  1.00  0.00    -0.200 F 
ATOM     96  F   UNL A   1      47.971  26.974  37.338  1.00  0.00    -0.200 F 
ENDBRANCH  62  86
ENDBRANCH  27  30
ENDBRANCH  18  20
ENDBRANCH  13  16
ENDBRANCH  10  13
ENDBRANCH   7  10
ENDBRANCH   4   7
ENDBRANCH   1   4
BRANCH   1  97
ATOM     97  C   UNL A   1      33.622  30.160  27.036  1.00  0.00     0.018 C 
ATOM     98  H   UNL A   1      34.620  29.838  27.252  1.00  0.00     0.049 H 
ATOM     99  H   UNL A   1      33.439  30.186  25.982  1.00  0.00     0.049 H 
BRANCH  97 100
ATOM    100  N   UNL A   1      32.688  29.217  27.627  1.00  0.00    -0.352 N 
ATOM    101  C   UNL A   1      31.808  28.370  27.002  1.00  0.00     0.253 C 
ATOM    102  H   UNL A   1      32.686  29.182  28.611  1.00  0.00     0.163 HD
ATOM    103  O   UNL A   1      31.029  27.693  27.668  1.00  0.00    -0.269 OA
BRANCH 101 104
ATOM    104  C   UNL A   1      31.772  28.279  25.527  1.00  0.00     0.063 A 
ATOM    105  C   UNL A   1      31.054  29.279  24.855  1.00  0.00    -0.047 A 
ATOM    106  C   UNL A   1      32.393  27.232  24.819  1.00  0.00     0.054 A 
ATOM    107  C   UNL A   1      30.992  29.280  23.462  1.00  0.00    -0.061 A 
ATOM    108  H   UNL A   1      30.571  30.016  25.391  1.00  0.00     0.063 H 
ATOM    109  C   UNL A   1      32.355  27.286  23.415  1.00  0.00    -0.038 A 
ATOM    110  C   UNL A   1      31.655  28.291  22.744  1.00  0.00    -0.060 A 
ATOM    111  H   UNL A   1      30.457  30.010  22.967  1.00  0.00     0.062 H 
ATOM    112  H   UNL A   1      32.856  26.568  22.870  1.00  0.00     0.064 H 
ATOM    113  H   UNL A   1      31.631  28.301  21.712  1.00  0.00     0.062 H 
BRANCH 106 114
ATOM    114  N   UNL A   1      33.034  26.172  25.481  1.00  0.00    -0.323 N 
ATOM    115  H   UNL A   1      33.895  26.400  25.899  1.00  0.00     0.170 HD
BRANCH 114 116
ATOM    116  C   UNL A   1      32.632  24.851  25.635  1.00  0.00     0.233 A 
ATOM    117  N   UNL A   1      31.532  24.575  26.315  1.00  0.00    -0.182 NA
ATOM    118  N   UNL A   1      33.407  23.934  25.069  1.00  0.00    -0.176 NA
ATOM    119  C   UNL A   1      31.260  23.285  26.384  1.00  0.00     0.228 A 
ATOM    120  C   UNL A   1      33.073  22.664  25.274  1.00  0.00     0.233 A 
ATOM    121  Cl  UNL A   1      29.845  22.861  27.242  1.00  0.00    -0.041 Cl
ATOM    122  N   UNL A   1      31.971  22.285  25.901  1.00  0.00    -0.182 NA
BRANCH 120 123
ATOM    123  N   UNL A   1      34.029  21.723  24.902  1.00  0.00    -0.324 N 
ATOM    124  H   UNL A   1      33.689  20.936  24.418  1.00  0.00     0.170 HD
BRANCH 123 125
ATOM    125  C   UNL A   1      35.407  21.749  25.123  1.00  0.00     0.041 A 
ATOM    126  C   UNL A   1      35.988  22.852  25.756  1.00  0.00    -0.036 A 
ATOM    127  C   UNL A   1      36.215  20.650  24.825  1.00  0.00    -0.036 A 
ATOM    128  C   UNL A   1      37.348  22.853  26.093  1.00  0.00    -0.036 A 
ATOM    129  H   UNL A   1      35.409  23.677  25.978  1.00  0.00     0.065 H 
ATOM    130  C   UNL A   1      37.582  20.670  25.105  1.00  0.00    -0.036 A 
ATOM    131  H   UNL A   1      35.796  19.812  24.393  1.00  0.00     0.065 H 
ATOM    132  C   UNL A   1      38.159  21.766  25.754  1.00  0.00     0.044 A 
ATOM    133  H   UNL A   1      37.752  23.660  26.594  1.00  0.00     0.065 H 
ATOM    134  H   UNL A   1      38.172  19.870  24.830  1.00  0.00     0.065 H 
BRANCH 132 135
ATOM    135  N   UNL A   1      39.540  21.751  26.102  1.00  0.00    -0.308 N 
ATOM    136  C   UNL A   1      40.082  22.967  26.718  1.00  0.00     0.049 C 
ATOM    137  C   UNL A   1      40.243  20.541  26.167  1.00  0.00     0.253 C 
ATOM    138  C   UNL A   1      41.600  22.957  26.844  1.00  0.00     0.065 C 
ATOM    139  H   UNL A   1      39.661  23.069  27.696  1.00  0.00     0.052 H 
ATOM    140  H   UNL A   1      39.823  23.787  26.080  1.00  0.00     0.052 H 
ATOM    141  C   UNL A   1      41.678  20.636  26.709  1.00  0.00     0.126 C 
ATOM    142  O   UNL A   1      39.823  19.465  25.736  1.00  0.00    -0.272 OA
ATOM    143  O   UNL A   1      42.013  21.763  27.502  1.00  0.00    -0.370 OA
ATOM    144  H   UNL A   1      41.916  23.806  27.413  1.00  0.00     0.059 H 
ATOM    145  H   UNL A   1      42.039  22.995  25.869  1.00  0.00     0.059 H 
ATOM    146  H   UNL A   1      41.851  19.763  27.304  1.00  0.00     0.067 H 
ATOM    147  H   UNL A   1      42.289  20.729  25.836  1.00  0.00     0.067 H 
ENDBRANCH 132 135
ENDBRANCH 123 125
ENDBRANCH 120 123
ENDBRANCH 114 116
ENDBRANCH 106 114
ENDBRANCH 101 104
ENDBRANCH  97 100
ENDBRANCH   1  97
TORSDOF 18
ENDMDL
