MODEL 1
REMARK VINA RESULT:     -11.4      0.000      0.000
REMARK SMILES CC(C)Cc1ccc([C@H](CF)C(=O)NCCCCCCNC(=O)c2ccc(-c3c4nc(c(-c5c(F)c(F)c(F)c(F)c5F)c5ccc([nH]5)c(-c5c(F)c(F)c(F)c(F)c5F)c5nc(c(-c6c(F)c(F)c(F)c(F)c6F)c6ccc3[nH]6)C=C5)C=C4)cc2)cc1
REMARK SMILES IDX 16 1 15 4 14 7 12 8 13 9 9 11 8 13 5 14 6 15 88 16 7 17
REMARK SMILES IDX 87 19 4 23 2 26 1 28 3 32 10 36 11 37 17 40 18 43 19 46
REMARK SMILES IDX 20 49 21 52 22 53 23 55 24 56 25 57 86 58 26 59 85 61 27 63
REMARK SMILES IDX 28 66 29 67 79 68 30 69 84 70 78 71 80 72 31 73 83 74 77 76
REMARK SMILES IDX 76 78 32 80 64 83 44 84 63 85 45 86 48 87 62 88 81 89 46 90
REMARK SMILES IDX 47 92 61 94 82 95 49 98 33 100 34 101 42 102 35 103 36 104
REMARK SMILES IDX 40 105 43 106 37 107 38 108 41 109 39 110 65 111 66 112
REMARK SMILES IDX 74 113 67 114 68 115 72 116 75 117 69 118 70 119 73 120
REMARK SMILES IDX 71 121 50 122 51 123 59 124 52 125 53 126 57 127 60 128
REMARK SMILES IDX 54 129 55 130 58 131 56 132
REMARK H PARENT 16 2 16 3 15 5 15 6 14 10 9 12 6 18 88 20 7 21 87 22 4 24 4 25
REMARK H PARENT 2 27 1 29 1 30 1 31 3 33 3 34 3 35 10 38 10 39 17 41 17 42
REMARK H PARENT 18 44 18 45 19 47 19 48 20 50 20 51 21 54 25 60 86 62 26 64
REMARK H PARENT 85 65 84 75 78 77 80 79 83 81 77 82 45 91 48 93 81 96 46 97
REMARK H PARENT 82 99
REMARK Flexibility Score: inf
ROOT
ATOM      1  C   UNL A   1      32.120  28.992  27.235  1.00  0.00    -0.036 C 
ATOM      2  H   UNL A   1      32.648  29.238  28.132  1.00  0.00     0.028 H 
ATOM      3  H   UNL A   1      31.057  29.023  27.352  1.00  0.00     0.028 H 
ENDROOT
BRANCH   1   4
ATOM      4  C   UNL A   1      32.472  27.557  26.853  1.00  0.00     0.017 C 
ATOM      5  H   UNL A   1      32.784  27.537  25.829  1.00  0.00     0.049 H 
ATOM      6  H   UNL A   1      33.257  27.222  27.499  1.00  0.00     0.049 H 
BRANCH   4   7
ATOM      7  N   UNL A   1      31.338  26.667  27.018  1.00  0.00    -0.355 N 
ATOM      8  C   UNL A   1      30.722  25.844  26.122  1.00  0.00     0.230 C 
ATOM      9  O   UNL A   1      29.801  25.136  26.543  1.00  0.00    -0.274 OA
ATOM     10  H   UNL A   1      30.952  26.654  27.923  1.00  0.00     0.163 HD
BRANCH   8  11
ATOM     11  C   UNL A   1      31.123  25.799  24.646  1.00  0.00     0.091 C 
ATOM     12  H   UNL A   1      32.161  26.011  24.497  1.00  0.00     0.048 H 
BRANCH  11  13
ATOM     13  C   UNL A   1      30.494  26.938  23.852  1.00  0.00    -0.033 A 
ATOM     14  C   UNL A   1      29.451  29.241  22.589  1.00  0.00    -0.048 A 
ATOM     15  C   UNL A   1      30.832  29.037  22.658  1.00  0.00    -0.059 A 
ATOM     16  C   UNL A   1      28.596  28.252  23.087  1.00  0.00    -0.059 A 
ATOM     17  C   UNL A   1      31.345  27.901  23.283  1.00  0.00    -0.058 A 
ATOM     18  H   UNL A   1      31.474  29.731  22.244  1.00  0.00     0.063 H 
ATOM     19  C   UNL A   1      29.112  27.102  23.693  1.00  0.00    -0.058 A 
ATOM     20  H   UNL A   1      27.574  28.372  23.007  1.00  0.00     0.063 H 
ATOM     21  H   UNL A   1      32.367  27.766  23.329  1.00  0.00     0.063 H 
ATOM     22  H   UNL A   1      28.468  26.367  24.028  1.00  0.00     0.063 H 
BRANCH  14  23
ATOM     23  C   UNL A   1      28.897  30.530  22.031  1.00  0.00    -0.026 C 
ATOM     24  H   UNL A   1      29.566  30.890  21.278  1.00  0.00     0.032 H 
ATOM     25  H   UNL A   1      27.926  30.317  21.635  1.00  0.00     0.032 H 
BRANCH  23  26
ATOM     26  C   UNL A   1      28.727  31.628  23.103  1.00  0.00    -0.043 C 
ATOM     27  H   UNL A   1      29.520  31.502  23.811  1.00  0.00     0.030 H 
BRANCH  26  28
ATOM     28  C   UNL A   1      28.849  33.040  22.519  1.00  0.00    -0.062 C 
ATOM     29  H   UNL A   1      29.700  33.087  21.872  1.00  0.00     0.023 H 
ATOM     30  H   UNL A   1      28.966  33.746  23.315  1.00  0.00     0.023 H 
ATOM     31  H   UNL A   1      27.965  33.274  21.963  1.00  0.00     0.023 H 
ENDBRANCH  26  28
BRANCH  26  32
ATOM     32  C   UNL A   1      27.370  31.477  23.792  1.00  0.00    -0.062 C 
ATOM     33  H   UNL A   1      26.699  32.226  23.428  1.00  0.00     0.023 H 
ATOM     34  H   UNL A   1      27.493  31.591  24.849  1.00  0.00     0.023 H 
ATOM     35  H   UNL A   1      26.970  30.507  23.583  1.00  0.00     0.023 H 
ENDBRANCH  26  32
ENDBRANCH  23  26
ENDBRANCH  14  23
ENDBRANCH  11  13
BRANCH  11  36
ATOM     36  C   UNL A   1      30.952  24.369  24.142  1.00  0.00     0.105 C 
ATOM     37  F   UNL A   1      30.784  24.376  22.790  1.00  0.00    -0.250 F 
ATOM     38  H   UNL A   1      30.093  23.928  24.605  1.00  0.00     0.064 H 
ATOM     39  H   UNL A   1      31.824  23.798  24.388  1.00  0.00     0.064 H 
ENDBRANCH  11  36
ENDBRANCH   8  11
ENDBRANCH   4   7
ENDBRANCH   1   4
BRANCH   1  40
ATOM     40  C   UNL A   1      32.469  30.039  26.173  1.00  0.00    -0.052 C 
ATOM     41  H   UNL A   1      32.844  29.525  25.314  1.00  0.00     0.027 H 
ATOM     42  H   UNL A   1      33.183  30.694  26.628  1.00  0.00     0.027 H 
BRANCH  40  43
ATOM     43  C   UNL A   1      31.307  30.931  25.720  1.00  0.00    -0.052 C 
ATOM     44  H   UNL A   1      30.398  30.382  25.859  1.00  0.00     0.027 H 
ATOM     45  H   UNL A   1      31.512  31.181  24.700  1.00  0.00     0.027 H 
BRANCH  43  46
ATOM     46  C   UNL A   1      31.168  32.266  26.458  1.00  0.00    -0.036 C 
ATOM     47  H   UNL A   1      30.421  32.148  27.215  1.00  0.00     0.028 H 
ATOM     48  H   UNL A   1      30.914  32.989  25.712  1.00  0.00     0.028 H 
BRANCH  46  49
ATOM     49  C   UNL A   1      32.440  32.779  27.128  1.00  0.00     0.018 C 
ATOM     50  H   UNL A   1      33.245  32.720  26.425  1.00  0.00     0.049 H 
ATOM     51  H   UNL A   1      32.620  32.170  27.988  1.00  0.00     0.049 H 
BRANCH  49  52
ATOM     52  N   UNL A   1      32.317  34.155  27.580  1.00  0.00    -0.352 N 
ATOM     53  C   UNL A   1      33.023  34.825  28.544  1.00  0.00     0.251 C 
ATOM     54  H   UNL A   1      31.623  34.684  27.125  1.00  0.00     0.163 HD
ATOM     55  O   UNL A   1      32.669  35.954  28.888  1.00  0.00    -0.269 OA
BRANCH  53  56
ATOM     56  C   UNL A   1      34.193  34.199  29.195  1.00  0.00     0.039 A 
ATOM     57  C   UNL A   1      33.975  33.322  30.263  1.00  0.00    -0.049 A 
ATOM     58  C   UNL A   1      35.499  34.492  28.788  1.00  0.00    -0.049 A 
ATOM     59  C   UNL A   1      35.058  32.699  30.885  1.00  0.00    -0.053 A 
ATOM     60  H   UNL A   1      33.014  33.137  30.591  1.00  0.00     0.063 H 
ATOM     61  C   UNL A   1      36.575  33.823  29.368  1.00  0.00    -0.053 A 
ATOM     62  H   UNL A   1      35.665  35.202  28.058  1.00  0.00     0.063 H 
ATOM     63  C   UNL A   1      36.366  32.922  30.424  1.00  0.00    -0.014 A 
ATOM     64  H   UNL A   1      34.897  32.070  31.687  1.00  0.00     0.063 H 
ATOM     65  H   UNL A   1      37.531  33.989  29.018  1.00  0.00     0.063 H 
BRANCH  63  66
ATOM     66  C   UNL A   1      37.519  32.217  31.038  1.00  0.00     0.031 A 
ATOM     67  C   UNL A   1      37.995  32.587  32.414  1.00  0.00     0.074 A 
ATOM     68  C   UNL A   1      38.174  31.276  30.330  1.00  0.00     0.049 A 
ATOM     69  N   UNL A   1      39.005  32.109  33.097  1.00  0.00    -0.248 NA
ATOM     70  C   UNL A   1      37.255  33.655  33.103  1.00  0.00    -0.034 C 
ATOM     71  C   UNL A   1      37.844  30.866  28.964  1.00  0.00    -0.036 A 
ATOM     72  N   UNL A   1      39.258  30.501  30.659  1.00  0.00    -0.354 N 
ATOM     73  C   UNL A   1      39.029  32.827  34.287  1.00  0.00     0.074 A 
ATOM     74  C   UNL A   1      37.964  33.803  34.212  1.00  0.00    -0.034 C 
ATOM     75  H   UNL A   1      36.407  34.159  32.801  1.00  0.00     0.065 H 
ATOM     76  C   UNL A   1      38.695  29.902  28.579  1.00  0.00    -0.036 A 
ATOM     77  H   UNL A   1      37.081  31.256  28.390  1.00  0.00     0.065 H 
ATOM     78  C   UNL A   1      39.645  29.645  29.657  1.00  0.00     0.049 A 
ATOM     79  H   UNL A   1      39.715  30.555  31.529  1.00  0.00     0.167 HD
ATOM     80  C   UNL A   1      39.853  32.669  35.351  1.00  0.00     0.037 A 
ATOM     81  H   UNL A   1      37.781  34.522  34.930  1.00  0.00     0.065 H 
ATOM     82  H   UNL A   1      38.680  29.421  27.666  1.00  0.00     0.065 H 
ATOM     83  C   UNL A   1      40.653  28.753  29.614  1.00  0.00     0.037 A 
ATOM     84  C   UNL A   1      40.892  31.677  35.436  1.00  0.00     0.049 A 
ATOM     85  C   UNL A   1      41.537  28.582  30.817  1.00  0.00     0.074 A 
ATOM     86  C   UNL A   1      41.730  31.391  36.500  1.00  0.00    -0.036 A 
ATOM     87  N   UNL A   1      41.238  30.807  34.411  1.00  0.00    -0.354 N 
ATOM     88  N   UNL A   1      41.502  29.214  31.965  1.00  0.00    -0.248 NA
ATOM     89  C   UNL A   1      42.593  27.565  30.723  1.00  0.00    -0.034 C 
ATOM     90  C   UNL A   1      42.608  30.375  36.106  1.00  0.00    -0.036 A 
ATOM     91  H   UNL A   1      41.709  31.848  37.425  1.00  0.00     0.065 H 
ATOM     92  C   UNL A   1      42.289  29.999  34.810  1.00  0.00     0.049 A 
ATOM     93  H   UNL A   1      40.801  30.770  33.530  1.00  0.00     0.167 HD
ATOM     94  C   UNL A   1      42.515  28.658  32.736  1.00  0.00     0.074 A 
ATOM     95  C   UNL A   1      43.135  27.626  31.931  1.00  0.00    -0.034 C 
ATOM     96  H   UNL A   1      42.847  26.961  29.925  1.00  0.00     0.065 H 
ATOM     97  H   UNL A   1      43.365  29.975  36.682  1.00  0.00     0.065 H 
ATOM     98  C   UNL A   1      42.897  28.977  33.998  1.00  0.00     0.037 A 
ATOM     99  H   UNL A   1      43.900  27.016  32.257  1.00  0.00     0.065 H 
BRANCH  80 100
ATOM    100  C   UNL A   1      39.660  33.595  36.517  1.00  0.00     0.064 A 
ATOM    101  C   UNL A   1      40.277  34.854  36.567  1.00  0.00     0.173 A 
ATOM    102  C   UNL A   1      38.824  33.232  37.584  1.00  0.00     0.173 A 
ATOM    103  F   UNL A   1      41.095  35.245  35.578  1.00  0.00    -0.203 F 
ATOM    104  C   UNL A   1      40.089  35.702  37.655  1.00  0.00     0.198 A 
ATOM    105  C   UNL A   1      38.615  34.094  38.657  1.00  0.00     0.198 A 
ATOM    106  F   UNL A   1      38.205  32.042  37.584  1.00  0.00    -0.203 F 
ATOM    107  F   UNL A   1      40.729  36.879  37.704  1.00  0.00    -0.200 F 
ATOM    108  C   UNL A   1      39.254  35.325  38.696  1.00  0.00     0.200 A 
ATOM    109  F   UNL A   1      37.799  33.733  39.657  1.00  0.00    -0.200 F 
ATOM    110  F   UNL A   1      39.071  36.144  39.741  1.00  0.00    -0.200 F 
ENDBRANCH  80 100
BRANCH  83 111
ATOM    111  C   UNL A   1      40.855  27.931  28.394  1.00  0.00     0.064 A 
ATOM    112  C   UNL A   1      40.260  26.668  28.274  1.00  0.00     0.173 A 
ATOM    113  C   UNL A   1      41.635  28.391  27.325  1.00  0.00     0.173 A 
ATOM    114  F   UNL A   1      39.522  26.177  29.282  1.00  0.00    -0.203 F 
ATOM    115  C   UNL A   1      40.448  25.889  27.135  1.00  0.00     0.198 A 
ATOM    116  C   UNL A   1      41.802  27.622  26.175  1.00  0.00     0.198 A 
ATOM    117  F   UNL A   1      42.221  29.596  27.389  1.00  0.00    -0.203 F 
ATOM    118  F   UNL A   1      39.898  24.670  27.061  1.00  0.00    -0.200 F 
ATOM    119  C   UNL A   1      41.215  26.370  26.084  1.00  0.00     0.200 A 
ATOM    120  F   UNL A   1      42.532  28.095  25.155  1.00  0.00    -0.200 F 
ATOM    121  F   UNL A   1      41.390  25.623  24.985  1.00  0.00    -0.200 F 
ENDBRANCH  83 111
BRANCH  98 122
ATOM    122  C   UNL A   1      44.026  28.185  34.590  1.00  0.00     0.064 A 
ATOM    123  C   UNL A   1      43.800  26.979  35.267  1.00  0.00     0.173 A 
ATOM    124  C   UNL A   1      45.351  28.626  34.453  1.00  0.00     0.173 A 
ATOM    125  F   UNL A   1      42.549  26.525  35.438  1.00  0.00    -0.203 F 
ATOM    126  C   UNL A   1      44.857  26.255  35.811  1.00  0.00     0.198 A 
ATOM    127  C   UNL A   1      46.409  27.886  34.974  1.00  0.00     0.198 A 
ATOM    128  F   UNL A   1      45.621  29.771  33.808  1.00  0.00    -0.203 F 
ATOM    129  F   UNL A   1      44.615  25.129  36.496  1.00  0.00    -0.200 F 
ATOM    130  C   UNL A   1      46.161  26.705  35.658  1.00  0.00     0.200 A 
ATOM    131  F   UNL A   1      47.668  28.317  34.816  1.00  0.00    -0.200 F 
ATOM    132  F   UNL A   1      47.178  26.006  36.180  1.00  0.00    -0.200 F 
ENDBRANCH  98 122
ENDBRANCH  63  66
ENDBRANCH  53  56
ENDBRANCH  49  52
ENDBRANCH  46  49
ENDBRANCH  43  46
ENDBRANCH  40  43
ENDBRANCH   1  40
TORSDOF 19
ENDMDL
MODEL 2
REMARK VINA RESULT:     -11.3      0.581      7.381
REMARK SMILES CC(C)Cc1ccc([C@H](CF)C(=O)NCCCCCCNC(=O)c2ccc(-c3c4nc(c(-c5c(F)c(F)c(F)c(F)c5F)c5ccc([nH]5)c(-c5c(F)c(F)c(F)c(F)c5F)c5nc(c(-c6c(F)c(F)c(F)c(F)c6F)c6ccc3[nH]6)C=C5)C=C4)cc2)cc1
REMARK SMILES IDX 16 1 15 4 14 7 12 8 13 9 9 11 8 13 5 14 6 15 88 16 7 17
REMARK SMILES IDX 87 19 4 23 2 26 1 28 3 32 10 36 11 37 17 40 18 43 19 46
REMARK SMILES IDX 20 49 21 52 22 53 23 55 24 56 25 57 86 58 26 59 85 61 27 63
REMARK SMILES IDX 28 66 29 67 79 68 30 69 84 70 78 71 80 72 31 73 83 74 77 76
REMARK SMILES IDX 76 78 32 80 64 83 44 84 63 85 45 86 48 87 62 88 81 89 46 90
REMARK SMILES IDX 47 92 61 94 82 95 49 98 33 100 34 101 42 102 35 103 36 104
REMARK SMILES IDX 40 105 43 106 37 107 38 108 41 109 39 110 65 111 66 112
REMARK SMILES IDX 74 113 67 114 68 115 72 116 75 117 69 118 70 119 73 120
REMARK SMILES IDX 71 121 50 122 51 123 59 124 52 125 53 126 57 127 60 128
REMARK SMILES IDX 54 129 55 130 58 131 56 132
REMARK H PARENT 16 2 16 3 15 5 15 6 14 10 9 12 6 18 88 20 7 21 87 22 4 24 4 25
REMARK H PARENT 2 27 1 29 1 30 1 31 3 33 3 34 3 35 10 38 10 39 17 41 17 42
REMARK H PARENT 18 44 18 45 19 47 19 48 20 50 20 51 21 54 25 60 86 62 26 64
REMARK H PARENT 85 65 84 75 78 77 80 79 83 81 77 82 45 91 48 93 81 96 46 97
REMARK H PARENT 82 99
REMARK Flexibility Score: inf
ROOT
ATOM      1  C   UNL A   1      32.009  28.926  27.263  1.00  0.00    -0.036 C 
ATOM      2  H   UNL A   1      32.403  29.121  28.238  1.00  0.00     0.028 H 
ATOM      3  H   UNL A   1      30.940  28.919  27.235  1.00  0.00     0.028 H 
ENDROOT
BRANCH   1   4
ATOM      4  C   UNL A   1      32.461  27.532  26.836  1.00  0.00     0.017 C 
ATOM      5  H   UNL A   1      32.753  27.561  25.807  1.00  0.00     0.049 H 
ATOM      6  H   UNL A   1      33.283  27.242  27.458  1.00  0.00     0.049 H 
BRANCH   4   7
ATOM      7  N   UNL A   1      31.402  26.553  26.998  1.00  0.00    -0.355 N 
ATOM      8  C   UNL A   1      30.797  25.744  26.082  1.00  0.00     0.230 C 
ATOM      9  O   UNL A   1      29.951  24.948  26.501  1.00  0.00    -0.274 OA
ATOM     10  H   UNL A   1      31.067  26.457  27.918  1.00  0.00     0.163 HD
BRANCH   8  11
ATOM     11  C   UNL A   1      31.121  25.820  24.587  1.00  0.00     0.091 C 
ATOM     12  H   UNL A   1      32.156  26.019  24.402  1.00  0.00     0.048 H 
BRANCH  11  13
ATOM     13  C   UNL A   1      30.484  27.038  23.929  1.00  0.00    -0.033 A 
ATOM     14  C   UNL A   1      29.186  29.101  22.498  1.00  0.00    -0.048 A 
ATOM     15  C   UNL A   1      28.440  28.106  23.135  1.00  0.00    -0.059 A 
ATOM     16  C   UNL A   1      30.578  29.101  22.644  1.00  0.00    -0.059 A 
ATOM     17  C   UNL A   1      29.082  27.087  23.839  1.00  0.00    -0.058 A 
ATOM     18  H   UNL A   1      27.410  28.125  23.084  1.00  0.00     0.063 H 
ATOM     19  C   UNL A   1      31.219  28.091  23.370  1.00  0.00    -0.058 A 
ATOM     20  H   UNL A   1      31.138  29.852  22.211  1.00  0.00     0.063 H 
ATOM     21  H   UNL A   1      28.518  26.357  24.302  1.00  0.00     0.063 H 
ATOM     22  H   UNL A   1      32.243  28.122  23.494  1.00  0.00     0.063 H 
BRANCH  14  23
ATOM     23  C   UNL A   1      28.502  30.128  21.627  1.00  0.00    -0.026 C 
ATOM     24  H   UNL A   1      29.002  30.159  20.682  1.00  0.00     0.032 H 
ATOM     25  H   UNL A   1      27.478  29.833  21.529  1.00  0.00     0.032 H 
BRANCH  23  26
ATOM     26  C   UNL A   1      28.519  31.545  22.238  1.00  0.00    -0.043 C 
ATOM     27  H   UNL A   1      29.536  31.772  22.480  1.00  0.00     0.030 H 
BRANCH  26  28
ATOM     28  C   UNL A   1      28.028  32.613  21.255  1.00  0.00    -0.062 C 
ATOM     29  H   UNL A   1      27.209  33.148  21.688  1.00  0.00     0.023 H 
ATOM     30  H   UNL A   1      27.709  32.143  20.348  1.00  0.00     0.023 H 
ATOM     31  H   UNL A   1      28.826  33.295  21.041  1.00  0.00     0.023 H 
ENDBRANCH  26  28
BRANCH  26  32
ATOM     32  C   UNL A   1      27.654  31.578  23.500  1.00  0.00    -0.062 C 
ATOM     33  H   UNL A   1      28.160  31.068  24.293  1.00  0.00     0.023 H 
ATOM     34  H   UNL A   1      26.719  31.094  23.304  1.00  0.00     0.023 H 
ATOM     35  H   UNL A   1      27.476  32.594  23.784  1.00  0.00     0.023 H 
ENDBRANCH  26  32
ENDBRANCH  23  26
ENDBRANCH  14  23
ENDBRANCH  11  13
BRANCH  11  36
ATOM     36  C   UNL A   1      30.885  24.444  23.972  1.00  0.00     0.105 C 
ATOM     37  F   UNL A   1      30.923  24.536  22.613  1.00  0.00    -0.250 F 
ATOM     38  H   UNL A   1      29.926  24.077  24.277  1.00  0.00     0.064 H 
ATOM     39  H   UNL A   1      31.648  23.770  24.303  1.00  0.00     0.064 H 
ENDBRANCH  11  36
ENDBRANCH   8  11
ENDBRANCH   4   7
ENDBRANCH   1   4
BRANCH   1  40
ATOM     40  C   UNL A   1      32.458  30.055  26.331  1.00  0.00    -0.052 C 
ATOM     41  H   UNL A   1      32.972  29.615  25.502  1.00  0.00     0.027 H 
ATOM     42  H   UNL A   1      33.074  30.700  26.925  1.00  0.00     0.027 H 
BRANCH  40  43
ATOM     43  C   UNL A   1      31.335  30.938  25.777  1.00  0.00    -0.052 C 
ATOM     44  H   UNL A   1      30.419  30.388  25.848  1.00  0.00     0.027 H 
ATOM     45  H   UNL A   1      31.620  31.177  24.773  1.00  0.00     0.027 H 
BRANCH  43  46
ATOM     46  C   UNL A   1      31.134  32.281  26.485  1.00  0.00    -0.036 C 
ATOM     47  H   UNL A   1      30.329  32.170  27.180  1.00  0.00     0.028 H 
ATOM     48  H   UNL A   1      30.940  32.995  25.712  1.00  0.00     0.028 H 
BRANCH  46  49
ATOM     49  C   UNL A   1      32.347  32.805  27.249  1.00  0.00     0.018 C 
ATOM     50  H   UNL A   1      33.214  32.698  26.631  1.00  0.00     0.049 H 
ATOM     51  H   UNL A   1      32.432  32.237  28.151  1.00  0.00     0.049 H 
BRANCH  49  52
ATOM     52  N   UNL A   1      32.211  34.204  27.621  1.00  0.00    -0.352 N 
ATOM     53  C   UNL A   1      32.902  34.932  28.553  1.00  0.00     0.251 C 
ATOM     54  H   UNL A   1      31.519  34.702  27.129  1.00  0.00     0.163 HD
ATOM     55  O   UNL A   1      32.538  36.076  28.830  1.00  0.00    -0.269 OA
BRANCH  53  56
ATOM     56  C   UNL A   1      34.068  34.351  29.252  1.00  0.00     0.039 A 
ATOM     57  C   UNL A   1      33.853  33.646  30.441  1.00  0.00    -0.049 A 
ATOM     58  C   UNL A   1      35.369  34.522  28.767  1.00  0.00    -0.049 A 
ATOM     59  C   UNL A   1      34.932  33.068  31.112  1.00  0.00    -0.053 A 
ATOM     60  H   UNL A   1      32.899  33.554  30.821  1.00  0.00     0.063 H 
ATOM     61  C   UNL A   1      36.438  33.893  29.405  1.00  0.00    -0.053 A 
ATOM     62  H   UNL A   1      35.537  35.112  27.938  1.00  0.00     0.063 H 
ATOM     63  C   UNL A   1      36.231  33.163  30.585  1.00  0.00    -0.014 A 
ATOM     64  H   UNL A   1      34.775  32.568  32.001  1.00  0.00     0.063 H 
ATOM     65  H   UNL A   1      37.386  33.963  29.005  1.00  0.00     0.063 H 
BRANCH  63  66
ATOM     66  C   UNL A   1      37.375  32.499  31.258  1.00  0.00     0.031 A 
ATOM     67  C   UNL A   1      38.092  31.357  30.594  1.00  0.00     0.074 A 
ATOM     68  C   UNL A   1      37.735  32.890  32.495  1.00  0.00     0.049 A 
ATOM     69  N   UNL A   1      39.086  30.632  31.040  1.00  0.00    -0.248 NA
ATOM     70  C   UNL A   1      37.609  30.959  29.263  1.00  0.00    -0.034 C 
ATOM     71  C   UNL A   1      37.084  33.949  33.268  1.00  0.00    -0.036 A 
ATOM     72  N   UNL A   1      38.732  32.438  33.323  1.00  0.00    -0.354 N 
ATOM     73  C   UNL A   1      39.338  29.686  30.054  1.00  0.00     0.074 A 
ATOM     74  C   UNL A   1      38.362  29.899  29.007  1.00  0.00    -0.034 C 
ATOM     75  H   UNL A   1      36.876  31.392  28.680  1.00  0.00     0.065 H 
ATOM     76  C   UNL A   1      37.709  34.077  34.449  1.00  0.00    -0.036 A 
ATOM     77  H   UNL A   1      36.273  34.506  32.955  1.00  0.00     0.065 H 
ATOM     78  C   UNL A   1      38.785  33.095  34.528  1.00  0.00     0.049 A 
ATOM     79  H   UNL A   1      39.349  31.711  33.076  1.00  0.00     0.167 HD
ATOM     80  C   UNL A   1      40.308  28.740  30.018  1.00  0.00     0.037 A 
ATOM     81  H   UNL A   1      38.264  29.302  28.171  1.00  0.00     0.065 H 
ATOM     82  H   UNL A   1      37.466  34.760  35.183  1.00  0.00     0.065 H 
ATOM     83  C   UNL A   1      39.612  32.924  35.577  1.00  0.00     0.037 A 
ATOM     84  C   UNL A   1      41.296  28.550  31.046  1.00  0.00     0.049 A 
ATOM     85  C   UNL A   1      40.694  31.884  35.501  1.00  0.00     0.074 A 
ATOM     86  C   UNL A   1      42.364  27.669  31.066  1.00  0.00    -0.036 A 
ATOM     87  N   UNL A   1      41.337  29.254  32.241  1.00  0.00    -0.354 N 
ATOM     88  N   UNL A   1      40.970  31.047  34.531  1.00  0.00    -0.248 NA
ATOM     89  C   UNL A   1      41.589  31.774  36.662  1.00  0.00    -0.034 C 
ATOM     90  C   UNL A   1      43.027  27.812  32.291  1.00  0.00    -0.036 A 
ATOM     91  H   UNL A   1      42.625  27.019  30.309  1.00  0.00     0.065 H 
ATOM     92  C   UNL A   1      42.398  28.812  33.015  1.00  0.00     0.049 A 
ATOM     93  H   UNL A   1      40.705  29.962  32.502  1.00  0.00     0.167 HD
ATOM     94  C   UNL A   1      42.079  30.326  34.953  1.00  0.00     0.074 A 
ATOM     95  C   UNL A   1      42.436  30.837  36.261  1.00  0.00    -0.034 C 
ATOM     96  H   UNL A   1      41.563  32.290  37.555  1.00  0.00     0.065 H 
ATOM     97  H   UNL A   1      43.844  27.264  32.601  1.00  0.00     0.065 H 
ATOM     98  C   UNL A   1      42.740  29.329  34.315  1.00  0.00     0.037 A 
ATOM     99  H   UNL A   1      43.247  30.513  36.810  1.00  0.00     0.065 H 
BRANCH  80 100
ATOM    100  C   UNL A   1      40.347  27.838  28.819  1.00  0.00     0.064 A 
ATOM    101  C   UNL A   1      41.106  28.156  27.683  1.00  0.00     0.173 A 
ATOM    102  C   UNL A   1      39.641  26.625  28.818  1.00  0.00     0.173 A 
ATOM    103  F   UNL A   1      41.790  29.309  27.629  1.00  0.00    -0.203 F 
ATOM    104  C   UNL A   1      41.132  27.310  26.578  1.00  0.00     0.198 A 
ATOM    105  C   UNL A   1      39.693  25.767  27.722  1.00  0.00     0.198 A 
ATOM    106  F   UNL A   1      38.905  26.269  29.881  1.00  0.00    -0.203 F 
ATOM    107  F   UNL A   1      41.825  27.659  25.484  1.00  0.00    -0.200 F 
ATOM    108  C   UNL A   1      40.432  26.113  26.600  1.00  0.00     0.200 A 
ATOM    109  F   UNL A   1      39.024  24.606  27.750  1.00  0.00    -0.200 F 
ATOM    110  F   UNL A   1      40.461  25.298  25.537  1.00  0.00    -0.200 F 
ENDBRANCH  80 100
BRANCH  83 111
ATOM    111  C   UNL A   1      39.463  33.786  36.777  1.00  0.00     0.064 A 
ATOM    112  C   UNL A   1      40.086  35.039  36.842  1.00  0.00     0.173 A 
ATOM    113  C   UNL A   1      38.691  33.381  37.874  1.00  0.00     0.173 A 
ATOM    114  F   UNL A   1      40.852  35.459  35.824  1.00  0.00    -0.203 F 
ATOM    115  C   UNL A   1      39.954  35.851  37.966  1.00  0.00     0.198 A 
ATOM    116  C   UNL A   1      38.539  34.204  38.988  1.00  0.00     0.198 A 
ATOM    117  F   UNL A   1      38.070  32.192  37.858  1.00  0.00    -0.203 F 
ATOM    118  F   UNL A   1      40.591  37.028  38.019  1.00  0.00    -0.200 F 
ATOM    119  C   UNL A   1      39.176  35.435  39.036  1.00  0.00     0.200 A 
ATOM    120  F   UNL A   1      37.775  33.805  40.015  1.00  0.00    -0.200 F 
ATOM    121  F   UNL A   1      39.043  36.219  40.115  1.00  0.00    -0.200 F 
ENDBRANCH  83 111
BRANCH  98 122
ATOM    122  C   UNL A   1      43.929  28.740  35.016  1.00  0.00     0.064 A 
ATOM    123  C   UNL A   1      43.806  27.628  35.861  1.00  0.00     0.173 A 
ATOM    124  C   UNL A   1      45.209  29.279  34.817  1.00  0.00     0.173 A 
ATOM    125  F   UNL A   1      42.601  27.089  36.096  1.00  0.00    -0.203 F 
ATOM    126  C   UNL A   1      44.919  27.093  36.504  1.00  0.00     0.198 A 
ATOM    127  C   UNL A   1      46.324  28.724  35.441  1.00  0.00     0.198 A 
ATOM    128  F   UNL A   1      45.381  30.339  34.014  1.00  0.00    -0.203 F 
ATOM    129  F   UNL A   1      44.772  26.059  37.345  1.00  0.00    -0.200 F 
ATOM    130  C   UNL A   1      46.177  27.637  36.289  1.00  0.00     0.200 A 
ATOM    131  F   UNL A   1      47.539  29.244  35.223  1.00  0.00    -0.200 F 
ATOM    132  F   UNL A   1      47.247  27.118  36.906  1.00  0.00    -0.200 F 
ENDBRANCH  98 122
ENDBRANCH  63  66
ENDBRANCH  53  56
ENDBRANCH  49  52
ENDBRANCH  46  49
ENDBRANCH  43  46
ENDBRANCH  40  43
ENDBRANCH   1  40
TORSDOF 19
ENDMDL
MODEL 3
REMARK VINA RESULT:     -11.2      0.435      7.542
REMARK SMILES CC(C)Cc1ccc([C@H](CF)C(=O)NCCCCCCNC(=O)c2ccc(-c3c4nc(c(-c5c(F)c(F)c(F)c(F)c5F)c5ccc([nH]5)c(-c5c(F)c(F)c(F)c(F)c5F)c5nc(c(-c6c(F)c(F)c(F)c(F)c6F)c6ccc3[nH]6)C=C5)C=C4)cc2)cc1
REMARK SMILES IDX 16 1 15 4 14 7 12 8 13 9 9 11 8 13 5 14 6 15 88 16 7 17
REMARK SMILES IDX 87 19 4 23 2 26 1 28 3 32 10 36 11 37 17 40 18 43 19 46
REMARK SMILES IDX 20 49 21 52 22 53 23 55 24 56 25 57 86 58 26 59 85 61 27 63
REMARK SMILES IDX 28 66 29 67 79 68 30 69 84 70 78 71 80 72 31 73 83 74 77 76
REMARK SMILES IDX 76 78 32 80 64 83 44 84 63 85 45 86 48 87 62 88 81 89 46 90
REMARK SMILES IDX 47 92 61 94 82 95 49 98 33 100 34 101 42 102 35 103 36 104
REMARK SMILES IDX 40 105 43 106 37 107 38 108 41 109 39 110 65 111 66 112
REMARK SMILES IDX 74 113 67 114 68 115 72 116 75 117 69 118 70 119 73 120
REMARK SMILES IDX 71 121 50 122 51 123 59 124 52 125 53 126 57 127 60 128
REMARK SMILES IDX 54 129 55 130 58 131 56 132
REMARK H PARENT 16 2 16 3 15 5 15 6 14 10 9 12 6 18 88 20 7 21 87 22 4 24 4 25
REMARK H PARENT 2 27 1 29 1 30 1 31 3 33 3 34 3 35 10 38 10 39 17 41 17 42
REMARK H PARENT 18 44 18 45 19 47 19 48 20 50 20 51 21 54 25 60 86 62 26 64
REMARK H PARENT 85 65 84 75 78 77 80 79 83 81 77 82 45 91 48 93 81 96 46 97
REMARK H PARENT 82 99
REMARK Flexibility Score: inf
ROOT
ATOM      1  C   UNL A   1      31.938  28.971  27.211  1.00  0.00    -0.036 C 
ATOM      2  H   UNL A   1      32.431  29.211  28.129  1.00  0.00     0.028 H 
ATOM      3  H   UNL A   1      30.872  28.950  27.300  1.00  0.00     0.028 H 
ENDROOT
BRANCH   1   4
ATOM      4  C   UNL A   1      32.364  27.566  26.794  1.00  0.00     0.017 C 
ATOM      5  H   UNL A   1      32.647  27.581  25.762  1.00  0.00     0.049 H 
ATOM      6  H   UNL A   1      33.185  27.268  27.412  1.00  0.00     0.049 H 
BRANCH   4   7
ATOM      7  N   UNL A   1      31.291  26.606  26.974  1.00  0.00    -0.355 N 
ATOM      8  C   UNL A   1      30.712  25.748  26.085  1.00  0.00     0.230 C 
ATOM      9  O   UNL A   1      29.844  24.984  26.518  1.00  0.00    -0.274 OA
ATOM     10  H   UNL A   1      30.920  26.567  27.885  1.00  0.00     0.163 HD
BRANCH   8  11
ATOM     11  C   UNL A   1      31.092  25.732  24.602  1.00  0.00     0.091 C 
ATOM     12  H   UNL A   1      32.131  25.931  24.443  1.00  0.00     0.048 H 
BRANCH  11  13
ATOM     13  C   UNL A   1      30.470  26.900  23.844  1.00  0.00    -0.033 A 
ATOM     14  C   UNL A   1      29.444  29.249  22.655  1.00  0.00    -0.048 A 
ATOM     15  C   UNL A   1      30.823  29.032  22.713  1.00  0.00    -0.059 A 
ATOM     16  C   UNL A   1      28.582  28.253  23.126  1.00  0.00    -0.059 A 
ATOM     17  C   UNL A   1      31.329  27.873  23.303  1.00  0.00    -0.058 A 
ATOM     18  H   UNL A   1      31.471  29.732  22.319  1.00  0.00     0.063 H 
ATOM     19  C   UNL A   1      29.089  27.082  23.696  1.00  0.00    -0.058 A 
ATOM     20  H   UNL A   1      27.561  28.385  23.053  1.00  0.00     0.063 H 
ATOM     21  H   UNL A   1      32.349  27.727  23.341  1.00  0.00     0.063 H 
ATOM     22  H   UNL A   1      28.440  26.342  24.010  1.00  0.00     0.063 H 
BRANCH  14  23
ATOM     23  C   UNL A   1      28.900  30.560  22.138  1.00  0.00    -0.026 C 
ATOM     24  H   UNL A   1      29.601  30.967  21.439  1.00  0.00     0.032 H 
ATOM     25  H   UNL A   1      27.954  30.356  21.682  1.00  0.00     0.032 H 
BRANCH  23  26
ATOM     26  C   UNL A   1      28.661  31.597  23.255  1.00  0.00    -0.043 C 
ATOM     27  H   UNL A   1      29.425  31.450  23.991  1.00  0.00     0.030 H 
BRANCH  26  28
ATOM     28  C   UNL A   1      28.778  33.040  22.750  1.00  0.00    -0.062 C 
ATOM     29  H   UNL A   1      29.369  33.059  21.858  1.00  0.00     0.023 H 
ATOM     30  H   UNL A   1      29.245  33.643  23.500  1.00  0.00     0.023 H 
ATOM     31  H   UNL A   1      27.802  33.424  22.540  1.00  0.00     0.023 H 
ENDBRANCH  26  28
BRANCH  26  32
ATOM     32  C   UNL A   1      27.279  31.385  23.875  1.00  0.00    -0.062 C 
ATOM     33  H   UNL A   1      26.794  32.331  23.999  1.00  0.00     0.023 H 
ATOM     34  H   UNL A   1      27.385  30.910  24.829  1.00  0.00     0.023 H 
ATOM     35  H   UNL A   1      26.691  30.764  23.232  1.00  0.00     0.023 H 
ENDBRANCH  26  32
ENDBRANCH  23  26
ENDBRANCH  14  23
ENDBRANCH  11  13
BRANCH  11  36
ATOM     36  C   UNL A   1      30.889  24.318  24.067  1.00  0.00     0.105 C 
ATOM     37  F   UNL A   1      30.769  24.353  22.710  1.00  0.00    -0.250 F 
ATOM     38  H   UNL A   1      30.000  23.900  24.493  1.00  0.00     0.064 H 
ATOM     39  H   UNL A   1      31.732  23.713  24.333  1.00  0.00     0.064 H 
ENDBRANCH  11  36
ENDBRANCH   8  11
ENDBRANCH   4   7
ENDBRANCH   1   4
BRANCH   1  40
ATOM     40  C   UNL A   1      32.265  30.066  26.192  1.00  0.00    -0.052 C 
ATOM     41  H   UNL A   1      32.621  29.592  25.301  1.00  0.00     0.027 H 
ATOM     42  H   UNL A   1      32.991  30.698  26.662  1.00  0.00     0.027 H 
BRANCH  40  43
ATOM     43  C   UNL A   1      31.096  30.980  25.807  1.00  0.00    -0.052 C 
ATOM     44  H   UNL A   1      30.188  30.479  26.073  1.00  0.00     0.027 H 
ATOM     45  H   UNL A   1      31.201  31.161  24.758  1.00  0.00     0.027 H 
BRANCH  43  46
ATOM     46  C   UNL A   1      31.086  32.360  26.471  1.00  0.00    -0.036 C 
ATOM     47  H   UNL A   1      30.350  32.347  27.247  1.00  0.00     0.028 H 
ATOM     48  H   UNL A   1      30.875  33.060  25.690  1.00  0.00     0.028 H 
BRANCH  46  49
ATOM     49  C   UNL A   1      32.411  32.801  27.086  1.00  0.00     0.018 C 
ATOM     50  H   UNL A   1      33.172  32.746  26.335  1.00  0.00     0.049 H 
ATOM     51  H   UNL A   1      32.619  32.148  27.907  1.00  0.00     0.049 H 
BRANCH  49  52
ATOM     52  N   UNL A   1      32.363  34.158  27.603  1.00  0.00    -0.352 N 
ATOM     53  C   UNL A   1      33.103  34.741  28.598  1.00  0.00     0.251 C 
ATOM     54  H   UNL A   1      31.701  34.746  27.174  1.00  0.00     0.163 HD
ATOM     55  O   UNL A   1      32.811  35.870  28.996  1.00  0.00    -0.269 OA
BRANCH  53  56
ATOM     56  C   UNL A   1      34.235  34.022  29.219  1.00  0.00     0.039 A 
ATOM     57  C   UNL A   1      35.536  34.432  28.914  1.00  0.00    -0.049 A 
ATOM     58  C   UNL A   1      34.028  32.931  30.070  1.00  0.00    -0.049 A 
ATOM     59  C   UNL A   1      36.626  33.786  29.501  1.00  0.00    -0.053 A 
ATOM     60  H   UNL A   1      35.692  35.210  28.254  1.00  0.00     0.063 H 
ATOM     61  C   UNL A   1      35.113  32.327  30.703  1.00  0.00    -0.053 A 
ATOM     62  H   UNL A   1      33.073  32.574  30.229  1.00  0.00     0.063 H 
ATOM     63  C   UNL A   1      36.423  32.746  30.423  1.00  0.00    -0.014 A 
ATOM     64  H   UNL A   1      37.586  34.074  29.257  1.00  0.00     0.063 H 
ATOM     65  H   UNL A   1      34.952  31.568  31.384  1.00  0.00     0.063 H 
BRANCH  63  66
ATOM     66  C   UNL A   1      37.572  32.094  31.101  1.00  0.00     0.031 A 
ATOM     67  C   UNL A   1      38.373  31.037  30.395  1.00  0.00     0.074 A 
ATOM     68  C   UNL A   1      37.860  32.418  32.376  1.00  0.00     0.049 A 
ATOM     69  N   UNL A   1      39.385  30.333  30.836  1.00  0.00    -0.248 NA
ATOM     70  C   UNL A   1      37.966  30.707  29.021  1.00  0.00    -0.034 C 
ATOM     71  C   UNL A   1      37.124  33.389  33.187  1.00  0.00    -0.036 A 
ATOM     72  N   UNL A   1      38.845  31.960  33.215  1.00  0.00    -0.354 N 
ATOM     73  C   UNL A   1      39.725  29.469  29.802  1.00  0.00     0.074 A 
ATOM     74  C   UNL A   1      38.782  29.705  28.729  1.00  0.00    -0.034 C 
ATOM     75  H   UNL A   1      37.236  31.142  28.436  1.00  0.00     0.065 H 
ATOM     76  C   UNL A   1      37.693  33.467  34.400  1.00  0.00    -0.036 A 
ATOM     77  H   UNL A   1      36.299  33.925  32.876  1.00  0.00     0.065 H 
ATOM     78  C   UNL A   1      38.815  32.536  34.462  1.00  0.00     0.049 A 
ATOM     79  H   UNL A   1      39.508  31.283  32.949  1.00  0.00     0.167 HD
ATOM     80  C   UNL A   1      40.743  28.577  29.746  1.00  0.00     0.037 A 
ATOM     81  H   UNL A   1      38.750  29.162  27.852  1.00  0.00     0.065 H 
ATOM     82  H   UNL A   1      37.385  34.086  35.167  1.00  0.00     0.065 H 
ATOM     83  C   UNL A   1      39.606  32.335  35.533  1.00  0.00     0.037 A 
ATOM     84  C   UNL A   1      41.698  28.366  30.803  1.00  0.00     0.049 A 
ATOM     85  C   UNL A   1      40.743  31.357  35.437  1.00  0.00     0.074 A 
ATOM     86  C   UNL A   1      42.808  27.539  30.812  1.00  0.00    -0.036 A 
ATOM     87  N   UNL A   1      41.653  28.989  32.042  1.00  0.00    -0.354 N 
ATOM     88  N   UNL A   1      41.101  30.602  34.426  1.00  0.00    -0.248 NA
ATOM     89  C   UNL A   1      41.594  31.212  36.626  1.00  0.00    -0.034 C 
ATOM     90  C   UNL A   1      43.412  27.631  32.071  1.00  0.00    -0.036 A 
ATOM     91  H   UNL A   1      43.133  26.956  30.025  1.00  0.00     0.065 H 
ATOM     92  C   UNL A   1      42.703  28.548  32.831  1.00  0.00     0.049 A 
ATOM     93  H   UNL A   1      40.975  29.645  32.321  1.00  0.00     0.167 HD
ATOM     94  C   UNL A   1      42.228  29.909  34.849  1.00  0.00     0.074 A 
ATOM     95  C   UNL A   1      42.504  30.347  36.202  1.00  0.00    -0.034 C 
ATOM     96  H   UNL A   1      41.505  31.664  37.549  1.00  0.00     0.065 H 
ATOM     97  H   UNL A   1      44.244  27.104  32.381  1.00  0.00     0.065 H 
ATOM     98  C   UNL A   1      42.965  28.991  34.176  1.00  0.00     0.037 A 
ATOM     99  H   UNL A   1      43.308  30.026  36.763  1.00  0.00     0.065 H 
BRANCH  80 100
ATOM    100  C   UNL A   1      40.878  27.761  28.494  1.00  0.00     0.064 A 
ATOM    101  C   UNL A   1      40.227  26.527  28.346  1.00  0.00     0.173 A 
ATOM    102  C   UNL A   1      41.645  28.231  27.417  1.00  0.00     0.173 A 
ATOM    103  F   UNL A   1      39.491  26.027  29.351  1.00  0.00    -0.203 F 
ATOM    104  C   UNL A   1      40.362  25.780  27.180  1.00  0.00     0.198 A 
ATOM    105  C   UNL A   1      41.755  27.495  26.240  1.00  0.00     0.198 A 
ATOM    106  F   UNL A   1      42.284  29.407  27.503  1.00  0.00    -0.203 F 
ATOM    107  F   UNL A   1      39.770  24.581  27.081  1.00  0.00    -0.200 F 
ATOM    108  C   UNL A   1      41.120  26.267  26.125  1.00  0.00     0.200 A 
ATOM    109  F   UNL A   1      42.478  27.971  25.218  1.00  0.00    -0.200 F 
ATOM    110  F   UNL A   1      41.246  25.548  25.001  1.00  0.00    -0.200 F 
ENDBRANCH  80 100
BRANCH  83 111
ATOM    111  C   UNL A   1      39.364  33.104  36.779  1.00  0.00     0.064 A 
ATOM    112  C   UNL A   1      40.037  34.310  37.021  1.00  0.00     0.173 A 
ATOM    113  C   UNL A   1      38.452  32.659  37.746  1.00  0.00     0.173 A 
ATOM    114  F   UNL A   1      40.935  34.764  36.133  1.00  0.00    -0.203 F 
ATOM    115  C   UNL A   1      39.818  35.035  38.189  1.00  0.00     0.198 A 
ATOM    116  C   UNL A   1      38.215  33.398  38.904  1.00  0.00     0.198 A 
ATOM    117  F   UNL A   1      37.779  31.515  37.559  1.00  0.00    -0.203 F 
ATOM    118  F   UNL A   1      40.503  36.165  38.413  1.00  0.00    -0.200 F 
ATOM    119  C   UNL A   1      38.903  34.581  39.127  1.00  0.00     0.200 A 
ATOM    120  F   UNL A   1      37.320  32.964  39.801  1.00  0.00    -0.200 F 
ATOM    121  F   UNL A   1      38.687  35.282  40.248  1.00  0.00    -0.200 F 
ENDBRANCH  83 111
BRANCH  98 122
ATOM    122  C   UNL A   1      44.154  28.415  34.889  1.00  0.00     0.064 A 
ATOM    123  C   UNL A   1      45.409  29.039  34.844  1.00  0.00     0.173 A 
ATOM    124  C   UNL A   1      44.027  27.241  35.646  1.00  0.00     0.173 A 
ATOM    125  F   UNL A   1      45.583  30.154  34.120  1.00  0.00    -0.203 F 
ATOM    126  C   UNL A   1      46.502  28.493  35.511  1.00  0.00     0.198 A 
ATOM    127  C   UNL A   1      45.116  26.713  36.334  1.00  0.00     0.198 A 
ATOM    128  F   UNL A   1      42.846  26.610  35.725  1.00  0.00    -0.203 F 
ATOM    129  F   UNL A   1      47.704  29.079  35.416  1.00  0.00    -0.200 F 
ATOM    130  C   UNL A   1      46.354  27.334  36.260  1.00  0.00     0.200 A 
ATOM    131  F   UNL A   1      44.969  25.600  37.065  1.00  0.00    -0.200 F 
ATOM    132  F   UNL A   1      47.407  26.812  36.903  1.00  0.00    -0.200 F 
ENDBRANCH  98 122
ENDBRANCH  63  66
ENDBRANCH  53  56
ENDBRANCH  49  52
ENDBRANCH  46  49
ENDBRANCH  43  46
ENDBRANCH  40  43
ENDBRANCH   1  40
TORSDOF 19
ENDMDL
MODEL 4
REMARK VINA RESULT:     -11.1      6.067     10.426
REMARK SMILES CC(C)Cc1ccc([C@H](CF)C(=O)NCCCCCCNC(=O)c2ccc(-c3c4nc(c(-c5c(F)c(F)c(F)c(F)c5F)c5ccc([nH]5)c(-c5c(F)c(F)c(F)c(F)c5F)c5nc(c(-c6c(F)c(F)c(F)c(F)c6F)c6ccc3[nH]6)C=C5)C=C4)cc2)cc1
REMARK SMILES IDX 16 1 15 4 14 7 12 8 13 9 9 11 8 13 5 14 6 15 88 16 7 17
REMARK SMILES IDX 87 19 4 23 2 26 1 28 3 32 10 36 11 37 17 40 18 43 19 46
REMARK SMILES IDX 20 49 21 52 22 53 23 55 24 56 25 57 86 58 26 59 85 61 27 63
REMARK SMILES IDX 28 66 29 67 79 68 30 69 84 70 78 71 80 72 31 73 83 74 77 76
REMARK SMILES IDX 76 78 32 80 64 83 44 84 63 85 45 86 48 87 62 88 81 89 46 90
REMARK SMILES IDX 47 92 61 94 82 95 49 98 33 100 34 101 42 102 35 103 36 104
REMARK SMILES IDX 40 105 43 106 37 107 38 108 41 109 39 110 65 111 66 112
REMARK SMILES IDX 74 113 67 114 68 115 72 116 75 117 69 118 70 119 73 120
REMARK SMILES IDX 71 121 50 122 51 123 59 124 52 125 53 126 57 127 60 128
REMARK SMILES IDX 54 129 55 130 58 131 56 132
REMARK H PARENT 16 2 16 3 15 5 15 6 14 10 9 12 6 18 88 20 7 21 87 22 4 24 4 25
REMARK H PARENT 2 27 1 29 1 30 1 31 3 33 3 34 3 35 10 38 10 39 17 41 17 42
REMARK H PARENT 18 44 18 45 19 47 19 48 20 50 20 51 21 54 25 60 86 62 26 64
REMARK H PARENT 85 65 84 75 78 77 80 79 83 81 77 82 45 91 48 93 81 96 46 97
REMARK H PARENT 82 99
REMARK Flexibility Score: inf
ROOT
ATOM      1  C   UNL A   1      36.784  23.112  25.024  1.00  0.00    -0.036 C 
ATOM      2  H   UNL A   1      36.906  22.852  26.054  1.00  0.00     0.028 H 
ATOM      3  H   UNL A   1      37.496  23.836  24.686  1.00  0.00     0.028 H 
ENDROOT
BRANCH   1   4
ATOM      4  C   UNL A   1      35.407  23.747  24.852  1.00  0.00     0.017 C 
ATOM      5  H   UNL A   1      34.703  23.221  25.463  1.00  0.00     0.049 H 
ATOM      6  H   UNL A   1      35.474  24.775  25.145  1.00  0.00     0.049 H 
BRANCH   4   7
ATOM      7  N   UNL A   1      34.963  23.697  23.472  1.00  0.00    -0.355 N 
ATOM      8  C   UNL A   1      33.772  23.298  22.939  1.00  0.00     0.230 C 
ATOM      9  O   UNL A   1      33.632  23.413  21.718  1.00  0.00    -0.274 OA
ATOM     10  H   UNL A   1      35.628  24.000  22.813  1.00  0.00     0.163 HD
BRANCH   8  11
ATOM     11  C   UNL A   1      32.651  22.709  23.799  1.00  0.00     0.091 C 
ATOM     12  H   UNL A   1      32.785  22.910  24.841  1.00  0.00     0.048 H 
BRANCH  11  13
ATOM     13  C   UNL A   1      32.683  21.185  23.807  1.00  0.00    -0.033 A 
ATOM     14  C   UNL A   1      33.053  18.383  23.827  1.00  0.00    -0.048 A 
ATOM     15  C   UNL A   1      33.450  19.155  24.921  1.00  0.00    -0.059 A 
ATOM     16  C   UNL A   1      32.403  19.009  22.758  1.00  0.00    -0.059 A 
ATOM     17  C   UNL A   1      33.269  20.538  24.909  1.00  0.00    -0.058 A 
ATOM     18  H   UNL A   1      33.879  18.700  25.742  1.00  0.00     0.063 H 
ATOM     19  C   UNL A   1      32.202  20.393  22.757  1.00  0.00    -0.058 A 
ATOM     20  H   UNL A   1      32.070  18.444  21.960  1.00  0.00     0.063 H 
ATOM     21  H   UNL A   1      33.570  21.096  25.724  1.00  0.00     0.063 H 
ATOM     22  H   UNL A   1      31.693  20.836  21.975  1.00  0.00     0.063 H 
BRANCH  14  23
ATOM     23  C   UNL A   1      33.366  16.906  23.781  1.00  0.00    -0.026 C 
ATOM     24  H   UNL A   1      32.524  16.392  23.368  1.00  0.00     0.032 H 
ATOM     25  H   UNL A   1      34.244  16.784  23.182  1.00  0.00     0.032 H 
BRANCH  23  26
ATOM     26  C   UNL A   1      33.670  16.310  25.172  1.00  0.00    -0.043 C 
ATOM     27  H   UNL A   1      33.531  17.094  25.888  1.00  0.00     0.030 H 
BRANCH  26  28
ATOM     28  C   UNL A   1      32.714  15.171  25.544  1.00  0.00    -0.062 C 
ATOM     29  H   UNL A   1      33.139  14.237  25.241  1.00  0.00     0.023 H 
ATOM     30  H   UNL A   1      31.778  15.315  25.047  1.00  0.00     0.023 H 
ATOM     31  H   UNL A   1      32.559  15.166  26.603  1.00  0.00     0.023 H 
ENDBRANCH  26  28
BRANCH  26  32
ATOM     32  C   UNL A   1      35.112  15.801  25.216  1.00  0.00    -0.062 C 
ATOM     33  H   UNL A   1      35.744  16.473  24.675  1.00  0.00     0.023 H 
ATOM     34  H   UNL A   1      35.160  14.829  24.771  1.00  0.00     0.023 H 
ATOM     35  H   UNL A   1      35.439  15.744  26.234  1.00  0.00     0.023 H 
ENDBRANCH  26  32
ENDBRANCH  23  26
ENDBRANCH  14  23
ENDBRANCH  11  13
BRANCH  11  36
ATOM     36  C   UNL A   1      31.347  23.415  23.441  1.00  0.00     0.105 C 
ATOM     37  F   UNL A   1      30.486  23.350  24.496  1.00  0.00    -0.250 F 
ATOM     38  H   UNL A   1      30.905  22.938  22.591  1.00  0.00     0.064 H 
ATOM     39  H   UNL A   1      31.549  24.441  23.211  1.00  0.00     0.064 H 
ENDBRANCH  11  36
ENDBRANCH   8  11
ENDBRANCH   4   7
ENDBRANCH   1   4
BRANCH   1  40
ATOM     40  C   UNL A   1      37.016  21.853  24.183  1.00  0.00    -0.052 C 
ATOM     41  H   UNL A   1      38.000  21.911  23.767  1.00  0.00     0.027 H 
ATOM     42  H   UNL A   1      36.238  21.842  23.448  1.00  0.00     0.027 H 
BRANCH  40  43
ATOM     43  C   UNL A   1      36.901  20.525  24.940  1.00  0.00    -0.052 C 
ATOM     44  H   UNL A   1      36.084  19.976  24.518  1.00  0.00     0.027 H 
ATOM     45  H   UNL A   1      36.762  20.786  25.968  1.00  0.00     0.027 H 
BRANCH  43  46
ATOM     46  C   UNL A   1      38.142  19.629  24.900  1.00  0.00    -0.036 C 
ATOM     47  H   UNL A   1      38.585  19.721  23.930  1.00  0.00     0.028 H 
ATOM     48  H   UNL A   1      37.798  18.640  25.124  1.00  0.00     0.028 H 
BRANCH  46  49
ATOM     49  C   UNL A   1      39.213  19.948  25.940  1.00  0.00     0.018 C 
ATOM     50  H   UNL A   1      38.764  19.933  26.911  1.00  0.00     0.049 H 
ATOM     51  H   UNL A   1      39.614  20.911  25.704  1.00  0.00     0.049 H 
BRANCH  49  52
ATOM     52  N   UNL A   1      40.312  18.996  25.920  1.00  0.00    -0.352 N 
ATOM     53  C   UNL A   1      41.659  19.214  26.037  1.00  0.00     0.251 C 
ATOM     54  H   UNL A   1      40.048  18.055  25.806  1.00  0.00     0.163 HD
ATOM     55  O   UNL A   1      42.448  18.287  25.847  1.00  0.00    -0.269 OA
BRANCH  53  56
ATOM     56  C   UNL A   1      42.182  20.556  26.367  1.00  0.00     0.039 A 
ATOM     57  C   UNL A   1      42.560  21.403  25.320  1.00  0.00    -0.049 A 
ATOM     58  C   UNL A   1      42.332  20.976  27.693  1.00  0.00    -0.049 A 
ATOM     59  C   UNL A   1      43.037  22.685  25.599  1.00  0.00    -0.053 A 
ATOM     60  H   UNL A   1      42.487  21.080  24.343  1.00  0.00     0.063 H 
ATOM     61  C   UNL A   1      42.750  22.277  27.968  1.00  0.00    -0.053 A 
ATOM     62  H   UNL A   1      42.133  20.323  28.467  1.00  0.00     0.063 H 
ATOM     63  C   UNL A   1      43.110  23.144  26.925  1.00  0.00    -0.014 A 
ATOM     64  H   UNL A   1      43.337  23.301  24.826  1.00  0.00     0.063 H 
ATOM     65  H   UNL A   1      42.794  22.606  28.945  1.00  0.00     0.063 H 
BRANCH  63  66
ATOM     66  C   UNL A   1      43.556  24.527  27.228  1.00  0.00     0.031 A 
ATOM     67  C   UNL A   1      42.590  25.534  27.784  1.00  0.00     0.074 A 
ATOM     68  C   UNL A   1      44.822  24.891  26.950  1.00  0.00     0.049 A 
ATOM     69  N   UNL A   1      42.787  26.796  28.076  1.00  0.00    -0.248 NA
ATOM     70  C   UNL A   1      41.214  25.071  28.017  1.00  0.00    -0.034 C 
ATOM     71  C   UNL A   1      45.839  24.021  26.358  1.00  0.00    -0.036 A 
ATOM     72  N   UNL A   1      45.467  26.090  27.121  1.00  0.00    -0.354 N 
ATOM     73  C   UNL A   1      41.559  27.278  28.513  1.00  0.00     0.074 A 
ATOM     74  C   UNL A   1      40.614  26.188  28.402  1.00  0.00    -0.034 C 
ATOM     75  H   UNL A   1      40.818  24.124  27.909  1.00  0.00     0.065 H 
ATOM     76  C   UNL A   1      46.985  24.709  26.232  1.00  0.00    -0.036 A 
ATOM     77  H   UNL A   1      45.698  23.037  26.080  1.00  0.00     0.065 H 
ATOM     78  C   UNL A   1      46.777  26.073  26.708  1.00  0.00     0.049 A 
ATOM     79  H   UNL A   1      45.032  26.887  27.502  1.00  0.00     0.167 HD
ATOM     80  C   UNL A   1      41.255  28.513  28.982  1.00  0.00     0.037 A 
ATOM     81  H   UNL A   1      39.604  26.270  28.597  1.00  0.00     0.065 H 
ATOM     82  H   UNL A   1      47.871  24.334  25.857  1.00  0.00     0.065 H 
ATOM     83  C   UNL A   1      47.706  27.048  26.715  1.00  0.00     0.037 A 
ATOM     84  C   UNL A   1      42.203  29.587  29.119  1.00  0.00     0.049 A 
ATOM     85  C   UNL A   1      47.349  28.402  27.263  1.00  0.00     0.074 A 
ATOM     86  C   UNL A   1      42.008  30.849  29.653  1.00  0.00    -0.036 A 
ATOM     87  N   UNL A   1      43.530  29.524  28.717  1.00  0.00    -0.354 N 
ATOM     88  N   UNL A   1      46.204  28.824  27.744  1.00  0.00    -0.248 NA
ATOM     89  C   UNL A   1      48.416  29.411  27.280  1.00  0.00    -0.034 C 
ATOM     90  C   UNL A   1      43.206  31.564  29.537  1.00  0.00    -0.036 A 
ATOM     91  H   UNL A   1      41.130  31.201  30.065  1.00  0.00     0.065 H 
ATOM     92  C   UNL A   1      44.159  30.732  28.971  1.00  0.00     0.049 A 
ATOM     93  H   UNL A   1      43.960  28.738  28.311  1.00  0.00     0.167 HD
ATOM     94  C   UNL A   1      46.418  30.137  28.139  1.00  0.00     0.074 A 
ATOM     95  C   UNL A   1      47.807  30.437  27.858  1.00  0.00    -0.034 C 
ATOM     96  H   UNL A   1      49.386  29.340  26.933  1.00  0.00     0.065 H 
ATOM     97  H   UNL A   1      43.353  32.544  29.824  1.00  0.00     0.065 H 
ATOM     98  C   UNL A   1      45.542  31.016  28.684  1.00  0.00     0.037 A 
ATOM     99  H   UNL A   1      48.265  31.335  28.080  1.00  0.00     0.065 H 
BRANCH  80 100
ATOM    100  C   UNL A   1      39.832  28.767  29.385  1.00  0.00     0.064 A 
ATOM    101  C   UNL A   1      39.388  28.547  30.697  1.00  0.00     0.173 A 
ATOM    102  C   UNL A   1      38.906  29.264  28.454  1.00  0.00     0.173 A 
ATOM    103  F   UNL A   1      40.230  28.061  31.622  1.00  0.00    -0.203 F 
ATOM    104  C   UNL A   1      38.064  28.786  31.057  1.00  0.00     0.198 A 
ATOM    105  C   UNL A   1      37.590  29.529  28.824  1.00  0.00     0.198 A 
ATOM    106  F   UNL A   1      39.279  29.498  27.187  1.00  0.00    -0.203 F 
ATOM    107  F   UNL A   1      37.652  28.521  32.304  1.00  0.00    -0.200 F 
ATOM    108  C   UNL A   1      37.168  29.283  30.122  1.00  0.00     0.200 A 
ATOM    109  F   UNL A   1      36.728  30.020  27.923  1.00  0.00    -0.200 F 
ATOM    110  F   UNL A   1      35.895  29.516  30.471  1.00  0.00    -0.200 F 
ENDBRANCH  80 100
BRANCH  83 111
ATOM    111  C   UNL A   1      49.074  26.764  26.214  1.00  0.00     0.064 A 
ATOM    112  C   UNL A   1      50.038  26.184  27.050  1.00  0.00     0.173 A 
ATOM    113  C   UNL A   1      49.442  27.054  24.893  1.00  0.00     0.173 A 
ATOM    114  F   UNL A   1      49.737  25.909  28.328  1.00  0.00    -0.203 F 
ATOM    115  C   UNL A   1      51.325  25.919  26.587  1.00  0.00     0.198 A 
ATOM    116  C   UNL A   1      50.722  26.765  24.424  1.00  0.00     0.198 A 
ATOM    117  F   UNL A   1      48.553  27.604  24.053  1.00  0.00    -0.203 F 
ATOM    118  F   UNL A   1      52.239  25.399  27.417  1.00  0.00    -0.200 F 
ATOM    119  C   UNL A   1      51.663  26.204  25.273  1.00  0.00     0.200 A 
ATOM    120  F   UNL A   1      51.042  27.029  23.150  1.00  0.00    -0.200 F 
ATOM    121  F   UNL A   1      52.899  25.941  24.826  1.00  0.00    -0.200 F 
ENDBRANCH  83 111
BRANCH  98 122
ATOM    122  C   UNL A   1      46.066  32.379  29.030  1.00  0.00     0.064 A 
ATOM    123  C   UNL A   1      46.665  32.641  30.271  1.00  0.00     0.173 A 
ATOM    124  C   UNL A   1      45.994  33.425  28.099  1.00  0.00     0.173 A 
ATOM    125  F   UNL A   1      46.743  31.676  31.200  1.00  0.00    -0.203 F 
ATOM    126  C   UNL A   1      47.148  33.910  30.577  1.00  0.00     0.198 A 
ATOM    127  C   UNL A   1      46.502  34.686  28.399  1.00  0.00     0.198 A 
ATOM    128  F   UNL A   1      45.435  33.224  26.896  1.00  0.00    -0.203 F 
ATOM    129  F   UNL A   1      47.674  34.151  31.786  1.00  0.00    -0.200 F 
ATOM    130  C   UNL A   1      47.072  34.930  29.639  1.00  0.00     0.200 A 
ATOM    131  F   UNL A   1      46.438  35.667  27.488  1.00  0.00    -0.200 F 
ATOM    132  F   UNL A   1      47.540  36.150  29.935  1.00  0.00    -0.200 F 
ENDBRANCH  98 122
ENDBRANCH  63  66
ENDBRANCH  53  56
ENDBRANCH  49  52
ENDBRANCH  46  49
ENDBRANCH  43  46
ENDBRANCH  40  43
ENDBRANCH   1  40
TORSDOF 19
ENDMDL
MODEL 5
REMARK VINA RESULT:     -10.6      5.908     11.497
REMARK SMILES CC(C)Cc1ccc([C@H](CF)C(=O)NCCCCCCNC(=O)c2ccc(-c3c4nc(c(-c5c(F)c(F)c(F)c(F)c5F)c5ccc([nH]5)c(-c5c(F)c(F)c(F)c(F)c5F)c5nc(c(-c6c(F)c(F)c(F)c(F)c6F)c6ccc3[nH]6)C=C5)C=C4)cc2)cc1
REMARK SMILES IDX 16 1 15 4 14 7 12 8 13 9 9 11 8 13 5 14 6 15 88 16 7 17
REMARK SMILES IDX 87 19 4 23 2 26 1 28 3 32 10 36 11 37 17 40 18 43 19 46
REMARK SMILES IDX 20 49 21 52 22 53 23 55 24 56 25 57 86 58 26 59 85 61 27 63
REMARK SMILES IDX 28 66 29 67 79 68 30 69 84 70 78 71 80 72 31 73 83 74 77 76
REMARK SMILES IDX 76 78 32 80 64 83 44 84 63 85 45 86 48 87 62 88 81 89 46 90
REMARK SMILES IDX 47 92 61 94 82 95 49 98 33 100 34 101 42 102 35 103 36 104
REMARK SMILES IDX 40 105 43 106 37 107 38 108 41 109 39 110 65 111 66 112
REMARK SMILES IDX 74 113 67 114 68 115 72 116 75 117 69 118 70 119 73 120
REMARK SMILES IDX 71 121 50 122 51 123 59 124 52 125 53 126 57 127 60 128
REMARK SMILES IDX 54 129 55 130 58 131 56 132
REMARK H PARENT 16 2 16 3 15 5 15 6 14 10 9 12 6 18 88 20 7 21 87 22 4 24 4 25
REMARK H PARENT 2 27 1 29 1 30 1 31 3 33 3 34 3 35 10 38 10 39 17 41 17 42
REMARK H PARENT 18 44 18 45 19 47 19 48 20 50 20 51 21 54 25 60 86 62 26 64
REMARK H PARENT 85 65 84 75 78 77 80 79 83 81 77 82 45 91 48 93 81 96 46 97
REMARK H PARENT 82 99
REMARK Flexibility Score: inf
ROOT
ATOM      1  C   UNL A   1      36.649  22.642  23.531  1.00  0.00    -0.036 C 
ATOM      2  H   UNL A   1      37.267  23.510  23.436  1.00  0.00     0.028 H 
ATOM      3  H   UNL A   1      36.801  21.931  22.745  1.00  0.00     0.028 H 
ENDROOT
BRANCH   1   4
ATOM      4  C   UNL A   1      35.191  23.083  23.439  1.00  0.00     0.017 C 
ATOM      5  H   UNL A   1      35.090  23.782  22.634  1.00  0.00     0.049 H 
ATOM      6  H   UNL A   1      34.589  22.215  23.270  1.00  0.00     0.049 H 
BRANCH   4   7
ATOM      7  N   UNL A   1      34.745  23.712  24.668  1.00  0.00    -0.355 N 
ATOM      8  C   UNL A   1      33.545  23.641  25.313  1.00  0.00     0.230 C 
ATOM      9  O   UNL A   1      33.446  24.236  26.391  1.00  0.00    -0.274 OA
ATOM     10  H   UNL A   1      35.416  24.281  25.108  1.00  0.00     0.163 HD
BRANCH   8  11
ATOM     11  C   UNL A   1      32.350  22.879  24.732  1.00  0.00     0.091 C 
ATOM     12  H   UNL A   1      31.522  22.840  25.408  1.00  0.00     0.048 H 
BRANCH  11  13
ATOM     13  C   UNL A   1      32.648  21.393  24.574  1.00  0.00    -0.033 A 
ATOM     14  C   UNL A   1      32.898  18.601  24.215  1.00  0.00    -0.048 A 
ATOM     15  C   UNL A   1      32.541  19.422  23.141  1.00  0.00    -0.059 A 
ATOM     16  C   UNL A   1      33.201  19.191  25.446  1.00  0.00    -0.059 A 
ATOM     17  C   UNL A   1      32.416  20.799  23.320  1.00  0.00    -0.058 A 
ATOM     18  H   UNL A   1      32.370  19.006  22.212  1.00  0.00     0.063 H 
ATOM     19  C   UNL A   1      33.097  20.575  25.618  1.00  0.00    -0.058 A 
ATOM     20  H   UNL A   1      33.503  18.600  26.236  1.00  0.00     0.063 H 
ATOM     21  H   UNL A   1      32.150  21.393  22.519  1.00  0.00     0.063 H 
ATOM     22  H   UNL A   1      33.355  20.999  26.524  1.00  0.00     0.063 H 
BRANCH  14  23
ATOM     23  C   UNL A   1      32.906  17.099  24.057  1.00  0.00    -0.026 C 
ATOM     24  H   UNL A   1      31.913  16.777  23.819  1.00  0.00     0.032 H 
ATOM     25  H   UNL A   1      33.601  16.862  23.278  1.00  0.00     0.032 H 
BRANCH  23  26
ATOM     26  C   UNL A   1      33.369  16.360  25.330  1.00  0.00    -0.043 C 
ATOM     27  H   UNL A   1      33.260  17.042  26.148  1.00  0.00     0.030 H 
BRANCH  26  28
ATOM     28  C   UNL A   1      32.512  15.128  25.638  1.00  0.00    -0.062 C 
ATOM     29  H   UNL A   1      33.112  14.246  25.557  1.00  0.00     0.023 H 
ATOM     30  H   UNL A   1      31.701  15.075  24.942  1.00  0.00     0.023 H 
ATOM     31  H   UNL A   1      32.123  15.204  26.633  1.00  0.00     0.023 H 
ENDBRANCH  26  28
BRANCH  26  32
ATOM     32  C   UNL A   1      34.833  15.939  25.183  1.00  0.00    -0.062 C 
ATOM     33  H   UNL A   1      35.118  15.342  26.024  1.00  0.00     0.023 H 
ATOM     34  H   UNL A   1      35.452  16.811  25.138  1.00  0.00     0.023 H 
ATOM     35  H   UNL A   1      34.952  15.370  24.285  1.00  0.00     0.023 H 
ENDBRANCH  26  32
ENDBRANCH  23  26
ENDBRANCH  14  23
ENDBRANCH  11  13
BRANCH  11  36
ATOM     36  C   UNL A   1      31.822  23.656  23.530  1.00  0.00     0.105 C 
ATOM     37  F   UNL A   1      30.551  23.255  23.247  1.00  0.00    -0.250 F 
ATOM     38  H   UNL A   1      32.450  23.472  22.683  1.00  0.00     0.064 H 
ATOM     39  H   UNL A   1      31.822  24.703  23.754  1.00  0.00     0.064 H 
ENDBRANCH  11  36
ENDBRANCH   8  11
ENDBRANCH   4   7
ENDBRANCH   1   4
BRANCH   1  40
ATOM     40  C   UNL A   1      37.021  21.931  24.835  1.00  0.00    -0.052 C 
ATOM     41  H   UNL A   1      36.474  22.393  25.630  1.00  0.00     0.027 H 
ATOM     42  H   UNL A   1      38.083  22.027  24.931  1.00  0.00     0.027 H 
BRANCH  40  43
ATOM     43  C   UNL A   1      36.729  20.427  24.872  1.00  0.00    -0.052 C 
ATOM     44  H   UNL A   1      36.210  20.171  23.971  1.00  0.00     0.027 H 
ATOM     45  H   UNL A   1      36.159  20.262  25.762  1.00  0.00     0.027 H 
BRANCH  43  46
ATOM     46  C   UNL A   1      37.954  19.515  24.986  1.00  0.00    -0.036 C 
ATOM     47  H   UNL A   1      38.324  19.334  23.998  1.00  0.00     0.028 H 
ATOM     48  H   UNL A   1      37.617  18.632  25.487  1.00  0.00     0.028 H 
BRANCH  46  49
ATOM     49  C   UNL A   1      39.103  20.065  25.826  1.00  0.00     0.018 C 
ATOM     50  H   UNL A   1      38.741  20.265  26.813  1.00  0.00     0.049 H 
ATOM     51  H   UNL A   1      39.457  20.953  25.347  1.00  0.00     0.049 H 
BRANCH  49  52
ATOM     52  N   UNL A   1      40.220  19.139  25.919  1.00  0.00    -0.352 N 
ATOM     53  C   UNL A   1      41.551  19.393  26.121  1.00  0.00     0.251 C 
ATOM     54  H   UNL A   1      39.985  18.189  25.823  1.00  0.00     0.163 HD
ATOM     55  O   UNL A   1      42.371  18.479  26.021  1.00  0.00    -0.269 OA
BRANCH  53  56
ATOM     56  C   UNL A   1      42.021  20.759  26.435  1.00  0.00     0.039 A 
ATOM     57  C   UNL A   1      42.242  21.650  25.380  1.00  0.00    -0.049 A 
ATOM     58  C   UNL A   1      42.275  21.159  27.752  1.00  0.00    -0.049 A 
ATOM     59  C   UNL A   1      42.665  22.953  25.646  1.00  0.00    -0.053 A 
ATOM     60  H   UNL A   1      42.093  21.344  24.406  1.00  0.00     0.063 H 
ATOM     61  C   UNL A   1      42.638  22.478  28.020  1.00  0.00    -0.053 A 
ATOM     62  H   UNL A   1      42.194  20.478  28.523  1.00  0.00     0.063 H 
ATOM     63  C   UNL A   1      42.840  23.387  26.971  1.00  0.00    -0.014 A 
ATOM     64  H   UNL A   1      42.850  23.603  24.866  1.00  0.00     0.063 H 
ATOM     65  H   UNL A   1      42.758  22.788  28.997  1.00  0.00     0.063 H 
BRANCH  63  66
ATOM     66  C   UNL A   1      43.229  24.789  27.267  1.00  0.00     0.031 A 
ATOM     67  C   UNL A   1      44.629  25.263  27.002  1.00  0.00     0.074 A 
ATOM     68  C   UNL A   1      42.331  25.621  27.828  1.00  0.00     0.049 A 
ATOM     69  N   UNL A   1      45.163  26.438  27.229  1.00  0.00    -0.248 NA
ATOM     70  C   UNL A   1      45.562  24.281  26.430  1.00  0.00    -0.034 C 
ATOM     71  C   UNL A   1      40.957  25.265  28.185  1.00  0.00    -0.036 A 
ATOM     72  N   UNL A   1      42.443  26.937  28.204  1.00  0.00    -0.354 N 
ATOM     73  C   UNL A   1      46.493  26.330  26.843  1.00  0.00     0.074 A 
ATOM     74  C   UNL A   1      46.697  24.964  26.411  1.00  0.00    -0.034 C 
ATOM     75  H   UNL A   1      45.381  23.312  26.124  1.00  0.00     0.065 H 
ATOM     76  C   UNL A   1      40.348  26.339  28.711  1.00  0.00    -0.036 A 
ATOM     77  H   UNL A   1      40.527  24.336  28.055  1.00  0.00     0.065 H 
ATOM     78  C   UNL A   1      41.294  27.451  28.753  1.00  0.00     0.049 A 
ATOM     79  H   UNL A   1      43.269  27.461  28.092  1.00  0.00     0.167 HD
ATOM     80  C   UNL A   1      47.449  27.290  26.830  1.00  0.00     0.037 A 
ATOM     81  H   UNL A   1      47.609  24.572  26.127  1.00  0.00     0.065 H 
ATOM     82  H   UNL A   1      39.368  26.373  29.034  1.00  0.00     0.065 H 
ATOM     83  C   UNL A   1      41.032  28.681  29.235  1.00  0.00     0.037 A 
ATOM     84  C   UNL A   1      47.236  28.655  27.231  1.00  0.00     0.049 A 
ATOM     85  C   UNL A   1      42.104  29.734  29.187  1.00  0.00     0.074 A 
ATOM     86  C   UNL A   1      48.122  29.718  27.185  1.00  0.00    -0.036 A 
ATOM     87  N   UNL A   1      46.049  29.147  27.756  1.00  0.00    -0.354 N 
ATOM     88  N   UNL A   1      43.336  29.640  28.749  1.00  0.00    -0.248 NA
ATOM     89  C   UNL A   1      41.745  31.066  29.690  1.00  0.00    -0.034 C 
ATOM     90  C   UNL A   1      47.483  30.844  27.718  1.00  0.00    -0.036 A 
ATOM     91  H   UNL A   1      49.086  29.686  26.819  1.00  0.00     0.065 H 
ATOM     92  C   UNL A   1      46.187  30.493  28.057  1.00  0.00     0.049 A 
ATOM     93  H   UNL A   1      45.231  28.619  27.895  1.00  0.00     0.167 HD
ATOM     94  C   UNL A   1      43.892  30.903  28.904  1.00  0.00     0.074 A 
ATOM     95  C   UNL A   1      42.857  31.750  29.460  1.00  0.00    -0.034 C 
ATOM     96  H   UNL A   1      40.859  31.386  30.113  1.00  0.00     0.065 H 
ATOM     97  H   UNL A   1      47.908  31.777  27.839  1.00  0.00     0.065 H 
ATOM     98  C   UNL A   1      45.148  31.322  28.612  1.00  0.00     0.037 A 
ATOM     99  H   UNL A   1      42.970  32.757  29.652  1.00  0.00     0.065 H 
BRANCH  80 100
ATOM    100  C   UNL A   1      48.820  26.893  26.364  1.00  0.00     0.064 A 
ATOM    101  C   UNL A   1      49.201  27.008  25.018  1.00  0.00     0.173 A 
ATOM    102  C   UNL A   1      49.774  26.419  27.277  1.00  0.00     0.173 A 
ATOM    103  F   UNL A   1      48.322  27.446  24.103  1.00  0.00    -0.203 F 
ATOM    104  C   UNL A   1      50.475  26.635  24.599  1.00  0.00     0.198 A 
ATOM    105  C   UNL A   1      51.056  26.074  26.859  1.00  0.00     0.198 A 
ATOM    106  F   UNL A   1      49.464  26.294  28.576  1.00  0.00    -0.203 F 
ATOM    107  F   UNL A   1      50.800  26.708  23.300  1.00  0.00    -0.200 F 
ATOM    108  C   UNL A   1      51.403  26.175  25.520  1.00  0.00     0.200 A 
ATOM    109  F   UNL A   1      51.956  25.639  27.752  1.00  0.00    -0.200 F 
ATOM    110  F   UNL A   1      52.631  25.819  25.115  1.00  0.00    -0.200 F 
ENDBRANCH  80 100
BRANCH  83 111
ATOM    111  C   UNL A   1      39.683  28.987  29.773  1.00  0.00     0.064 A 
ATOM    112  C   UNL A   1      38.678  29.501  28.942  1.00  0.00     0.173 A 
ATOM    113  C   UNL A   1      39.368  28.766  31.120  1.00  0.00     0.173 A 
ATOM    114  F   UNL A   1      38.941  29.749  27.650  1.00  0.00    -0.203 F 
ATOM    115  C   UNL A   1      37.412  29.795  29.441  1.00  0.00     0.198 A 
ATOM    116  C   UNL A   1      38.093  29.037  31.614  1.00  0.00     0.198 A 
ATOM    117  F   UNL A   1      40.293  28.271  31.955  1.00  0.00    -0.203 F 
ATOM    118  F   UNL A   1      36.481  30.320  28.634  1.00  0.00    -0.200 F 
ATOM    119  C   UNL A   1      37.119  29.557  30.776  1.00  0.00     0.200 A 
ATOM    120  F   UNL A   1      37.809  28.793  32.900  1.00  0.00    -0.200 F 
ATOM    121  F   UNL A   1      35.898  29.834  31.254  1.00  0.00    -0.200 F 
ENDBRANCH  83 111
BRANCH  98 122
ATOM    122  C   UNL A   1      45.464  32.766  28.872  1.00  0.00     0.064 A 
ATOM    123  C   UNL A   1      45.215  33.756  27.910  1.00  0.00     0.173 A 
ATOM    124  C   UNL A   1      45.995  33.166  30.107  1.00  0.00     0.173 A 
ATOM    125  F   UNL A   1      44.724  33.421  26.708  1.00  0.00    -0.203 F 
ATOM    126  C   UNL A   1      45.513  35.091  28.166  1.00  0.00     0.198 A 
ATOM    127  C   UNL A   1      46.266  34.506  30.370  1.00  0.00     0.198 A 
ATOM    128  F   UNL A   1      46.245  32.258  31.063  1.00  0.00    -0.203 F 
ATOM    129  F   UNL A   1      45.313  36.015  27.216  1.00  0.00    -0.200 F 
ATOM    130  C   UNL A   1      46.032  35.466  29.397  1.00  0.00     0.200 A 
ATOM    131  F   UNL A   1      46.757  34.867  31.563  1.00  0.00    -0.200 F 
ATOM    132  F   UNL A   1      46.315  36.753  29.642  1.00  0.00    -0.200 F 
ENDBRANCH  98 122
ENDBRANCH  63  66
ENDBRANCH  53  56
ENDBRANCH  49  52
ENDBRANCH  46  49
ENDBRANCH  43  46
ENDBRANCH  40  43
ENDBRANCH   1  40
TORSDOF 19
ENDMDL
MODEL 6
REMARK VINA RESULT:     -10.6      6.170     12.044
REMARK SMILES CC(C)Cc1ccc([C@H](CF)C(=O)NCCCCCCNC(=O)c2ccc(-c3c4nc(c(-c5c(F)c(F)c(F)c(F)c5F)c5ccc([nH]5)c(-c5c(F)c(F)c(F)c(F)c5F)c5nc(c(-c6c(F)c(F)c(F)c(F)c6F)c6ccc3[nH]6)C=C5)C=C4)cc2)cc1
REMARK SMILES IDX 16 1 15 4 14 7 12 8 13 9 9 11 8 13 5 14 6 15 88 16 7 17
REMARK SMILES IDX 87 19 4 23 2 26 1 28 3 32 10 36 11 37 17 40 18 43 19 46
REMARK SMILES IDX 20 49 21 52 22 53 23 55 24 56 25 57 86 58 26 59 85 61 27 63
REMARK SMILES IDX 28 66 29 67 79 68 30 69 84 70 78 71 80 72 31 73 83 74 77 76
REMARK SMILES IDX 76 78 32 80 64 83 44 84 63 85 45 86 48 87 62 88 81 89 46 90
REMARK SMILES IDX 47 92 61 94 82 95 49 98 33 100 34 101 42 102 35 103 36 104
REMARK SMILES IDX 40 105 43 106 37 107 38 108 41 109 39 110 65 111 66 112
REMARK SMILES IDX 74 113 67 114 68 115 72 116 75 117 69 118 70 119 73 120
REMARK SMILES IDX 71 121 50 122 51 123 59 124 52 125 53 126 57 127 60 128
REMARK SMILES IDX 54 129 55 130 58 131 56 132
REMARK H PARENT 16 2 16 3 15 5 15 6 14 10 9 12 6 18 88 20 7 21 87 22 4 24 4 25
REMARK H PARENT 2 27 1 29 1 30 1 31 3 33 3 34 3 35 10 38 10 39 17 41 17 42
REMARK H PARENT 18 44 18 45 19 47 19 48 20 50 20 51 21 54 25 60 86 62 26 64
REMARK H PARENT 85 65 84 75 78 77 80 79 83 81 77 82 45 91 48 93 81 96 46 97
REMARK H PARENT 82 99
REMARK Flexibility Score: inf
ROOT
ATOM      1  C   UNL A   1      44.149  18.776  25.742  1.00  0.00    -0.036 C 
ATOM      2  H   UNL A   1      44.563  18.872  26.723  1.00  0.00     0.028 H 
ATOM      3  H   UNL A   1      44.223  17.783  25.350  1.00  0.00     0.028 H 
ENDROOT
BRANCH   1   4
ATOM      4  C   UNL A   1      44.947  19.672  24.799  1.00  0.00     0.017 C 
ATOM      5  H   UNL A   1      45.830  20.008  25.303  1.00  0.00     0.049 H 
ATOM      6  H   UNL A   1      45.197  19.102  23.928  1.00  0.00     0.049 H 
BRANCH   4   7
ATOM      7  N   UNL A   1      44.176  20.827  24.379  1.00  0.00    -0.355 N 
ATOM      8  C   UNL A   1      44.395  22.158  24.581  1.00  0.00     0.230 C 
ATOM      9  O   UNL A   1      43.603  22.948  24.057  1.00  0.00    -0.274 OA
ATOM     10  H   UNL A   1      43.365  20.616  23.864  1.00  0.00     0.163 HD
BRANCH   8  11
ATOM     11  C   UNL A   1      45.555  22.673  25.437  1.00  0.00     0.091 C 
ATOM     12  H   UNL A   1      46.242  21.898  25.705  1.00  0.00     0.048 H 
BRANCH  11  13
ATOM     13  C   UNL A   1      45.088  23.116  26.818  1.00  0.00    -0.033 A 
ATOM     14  C   UNL A   1      44.446  23.756  29.495  1.00  0.00    -0.048 A 
ATOM     15  C   UNL A   1      45.680  24.128  28.957  1.00  0.00    -0.059 A 
ATOM     16  C   UNL A   1      43.508  23.131  28.667  1.00  0.00    -0.059 A 
ATOM     17  C   UNL A   1      45.997  23.810  27.636  1.00  0.00    -0.058 A 
ATOM     18  H   UNL A   1      46.361  24.641  29.539  1.00  0.00     0.063 H 
ATOM     19  C   UNL A   1      43.818  22.832  27.336  1.00  0.00    -0.058 A 
ATOM     20  H   UNL A   1      42.577  22.886  29.042  1.00  0.00     0.063 H 
ATOM     21  H   UNL A   1      46.914  24.088  27.253  1.00  0.00     0.063 H 
ATOM     22  H   UNL A   1      43.104  22.399  26.729  1.00  0.00     0.063 H 
BRANCH  14  23
ATOM     23  C   UNL A   1      44.153  23.983  30.959  1.00  0.00    -0.026 C 
ATOM     24  H   UNL A   1      43.092  24.010  31.093  1.00  0.00     0.032 H 
ATOM     25  H   UNL A   1      44.604  23.180  31.504  1.00  0.00     0.032 H 
BRANCH  23  26
ATOM     26  C   UNL A   1      44.750  25.300  31.498  1.00  0.00    -0.043 C 
ATOM     27  H   UNL A   1      45.638  25.497  30.935  1.00  0.00     0.030 H 
BRANCH  26  28
ATOM     28  C   UNL A   1      43.807  26.492  31.306  1.00  0.00    -0.062 C 
ATOM     29  H   UNL A   1      44.329  27.399  31.532  1.00  0.00     0.023 H 
ATOM     30  H   UNL A   1      42.967  26.392  31.961  1.00  0.00     0.023 H 
ATOM     31  H   UNL A   1      43.468  26.520  30.292  1.00  0.00     0.023 H 
ENDBRANCH  26  28
BRANCH  26  32
ATOM     32  C   UNL A   1      45.087  25.149  32.983  1.00  0.00    -0.062 C 
ATOM     33  H   UNL A   1      44.212  25.341  33.568  1.00  0.00     0.023 H 
ATOM     34  H   UNL A   1      45.854  25.847  33.247  1.00  0.00     0.023 H 
ATOM     35  H   UNL A   1      45.431  24.154  33.172  1.00  0.00     0.023 H 
ENDBRANCH  26  32
ENDBRANCH  23  26
ENDBRANCH  14  23
ENDBRANCH  11  13
BRANCH  11  36
ATOM     36  C   UNL A   1      46.383  23.640  24.596  1.00  0.00     0.105 C 
ATOM     37  F   UNL A   1      47.070  22.947  23.644  1.00  0.00    -0.250 F 
ATOM     38  H   UNL A   1      47.075  24.159  25.227  1.00  0.00     0.064 H 
ATOM     39  H   UNL A   1      45.733  24.345  24.121  1.00  0.00     0.064 H 
ENDBRANCH  11  36
ENDBRANCH   8  11
ENDBRANCH   4   7
ENDBRANCH   1   4
BRANCH   1  40
ATOM     40  C   UNL A   1      42.655  19.100  25.820  1.00  0.00    -0.052 C 
ATOM     41  H   UNL A   1      42.122  18.328  25.305  1.00  0.00     0.027 H 
ATOM     42  H   UNL A   1      42.540  20.069  25.378  1.00  0.00     0.027 H 
BRANCH  40  43
ATOM     43  C   UNL A   1      42.077  19.211  27.235  1.00  0.00    -0.052 C 
ATOM     44  H   UNL A   1      42.897  19.253  27.922  1.00  0.00     0.027 H 
ATOM     45  H   UNL A   1      41.449  18.355  27.361  1.00  0.00     0.027 H 
BRANCH  43  46
ATOM     46  C   UNL A   1      41.183  20.427  27.494  1.00  0.00    -0.036 C 
ATOM     47  H   UNL A   1      41.635  21.010  28.270  1.00  0.00     0.028 H 
ATOM     48  H   UNL A   1      40.222  20.036  27.754  1.00  0.00     0.028 H 
BRANCH  46  49
ATOM     49  C   UNL A   1      40.956  21.340  26.292  1.00  0.00     0.018 C 
ATOM     50  H   UNL A   1      41.468  20.929  25.448  1.00  0.00     0.049 H 
ATOM     51  H   UNL A   1      41.330  22.310  26.548  1.00  0.00     0.049 H 
BRANCH  49  52
ATOM     52  N   UNL A   1      39.548  21.485  25.958  1.00  0.00    -0.352 N 
ATOM     53  C   UNL A   1      38.716  22.559  26.126  1.00  0.00     0.251 C 
ATOM     54  H   UNL A   1      39.132  20.692  25.551  1.00  0.00     0.163 HD
ATOM     55  O   UNL A   1      37.509  22.437  25.915  1.00  0.00    -0.269 OA
BRANCH  53  56
ATOM     56  C   UNL A   1      39.246  23.862  26.582  1.00  0.00     0.039 A 
ATOM     57  C   UNL A   1      39.130  24.194  27.935  1.00  0.00    -0.049 A 
ATOM     58  C   UNL A   1      39.825  24.769  25.688  1.00  0.00    -0.049 A 
ATOM     59  C   UNL A   1      39.640  25.408  28.401  1.00  0.00    -0.053 A 
ATOM     60  H   UNL A   1      38.668  23.544  28.589  1.00  0.00     0.063 H 
ATOM     61  C   UNL A   1      40.388  25.952  26.163  1.00  0.00    -0.053 A 
ATOM     62  H   UNL A   1      39.835  24.561  24.677  1.00  0.00     0.063 H 
ATOM     63  C   UNL A   1      40.299  26.285  27.523  1.00  0.00    -0.014 A 
ATOM     64  H   UNL A   1      39.534  25.662  29.395  1.00  0.00     0.063 H 
ATOM     65  H   UNL A   1      40.875  26.586  25.511  1.00  0.00     0.063 H 
BRANCH  63  66
ATOM     66  C   UNL A   1      40.900  27.548  28.019  1.00  0.00     0.031 A 
ATOM     67  C   UNL A   1      42.390  27.742  28.003  1.00  0.00     0.074 A 
ATOM     68  C   UNL A   1      40.104  28.503  28.537  1.00  0.00     0.049 A 
ATOM     69  N   UNL A   1      43.098  28.759  28.426  1.00  0.00    -0.248 NA
ATOM     70  C   UNL A   1      43.193  26.634  27.464  1.00  0.00    -0.034 C 
ATOM     71  C   UNL A   1      38.648  28.412  28.659  1.00  0.00    -0.036 A 
ATOM     72  N   UNL A   1      40.407  29.733  29.064  1.00  0.00    -0.354 N 
ATOM     73  C   UNL A   1      44.426  28.408  28.219  1.00  0.00     0.074 A 
ATOM     74  C   UNL A   1      44.428  27.067  27.676  1.00  0.00    -0.034 C 
ATOM     75  H   UNL A   1      42.879  25.751  27.033  1.00  0.00     0.065 H 
ATOM     76  C   UNL A   1      38.183  29.546  29.208  1.00  0.00    -0.036 A 
ATOM     77  H   UNL A   1      38.072  27.606  28.372  1.00  0.00     0.065 H 
ATOM     78  C   UNL A   1      39.307  30.430  29.500  1.00  0.00     0.049 A 
ATOM     79  H   UNL A   1      41.325  30.082  29.124  1.00  0.00     0.167 HD
ATOM     80  C   UNL A   1      45.540  29.147  28.442  1.00  0.00     0.037 A 
ATOM     81  H   UNL A   1      45.280  26.518  27.480  1.00  0.00     0.065 H 
ATOM     82  H   UNL A   1      37.190  29.757  29.394  1.00  0.00     0.065 H 
ATOM     83  C   UNL A   1      39.215  31.647  30.070  1.00  0.00     0.037 A 
ATOM     84  C   UNL A   1      45.534  30.492  28.954  1.00  0.00     0.049 A 
ATOM     85  C   UNL A   1      40.464  32.456  30.285  1.00  0.00     0.074 A 
ATOM     86  C   UNL A   1      46.604  31.349  29.145  1.00  0.00    -0.036 A 
ATOM     87  N   UNL A   1      44.397  31.177  29.359  1.00  0.00    -0.354 N 
ATOM     88  N   UNL A   1      41.708  32.143  30.014  1.00  0.00    -0.248 NA
ATOM     89  C   UNL A   1      40.295  33.791  30.873  1.00  0.00    -0.034 C 
ATOM     90  C   UNL A   1      46.120  32.538  29.703  1.00  0.00    -0.036 A 
ATOM     91  H   UNL A   1      47.589  31.145  28.915  1.00  0.00     0.065 H 
ATOM     92  C   UNL A   1      44.743  32.437  29.819  1.00  0.00     0.049 A 
ATOM     93  H   UNL A   1      43.480  30.820  29.325  1.00  0.00     0.167 HD
ATOM     94  C   UNL A   1      42.467  33.248  30.379  1.00  0.00     0.074 A 
ATOM     95  C   UNL A   1      41.540  34.245  30.874  1.00  0.00    -0.034 C 
ATOM     96  H   UNL A   1      39.432  34.254  31.201  1.00  0.00     0.065 H 
ATOM     97  H   UNL A   1      46.692  33.350  29.981  1.00  0.00     0.065 H 
ATOM     98  C   UNL A   1      43.810  33.419  30.311  1.00  0.00     0.037 A 
ATOM     99  H   UNL A   1      41.815  35.189  31.187  1.00  0.00     0.065 H 
BRANCH  80 100
ATOM    100  C   UNL A   1      46.863  28.512  28.130  1.00  0.00     0.064 A 
ATOM    101  C   UNL A   1      47.545  27.729  29.073  1.00  0.00     0.173 A 
ATOM    102  C   UNL A   1      47.445  28.665  26.862  1.00  0.00     0.173 A 
ATOM    103  F   UNL A   1      47.037  27.561  30.304  1.00  0.00    -0.203 F 
ATOM    104  C   UNL A   1      48.773  27.147  28.770  1.00  0.00     0.198 A 
ATOM    105  C   UNL A   1      48.659  28.058  26.552  1.00  0.00     0.198 A 
ATOM    106  F   UNL A   1      46.833  29.399  25.921  1.00  0.00    -0.203 F 
ATOM    107  F   UNL A   1      49.428  26.443  29.704  1.00  0.00    -0.200 F 
ATOM    108  C   UNL A   1      49.326  27.306  27.508  1.00  0.00     0.200 A 
ATOM    109  F   UNL A   1      49.187  28.203  25.329  1.00  0.00    -0.200 F 
ATOM    110  F   UNL A   1      50.506  26.742  27.217  1.00  0.00    -0.200 F 
ENDBRANCH  80 100
BRANCH  83 111
ATOM    111  C   UNL A   1      37.884  32.184  30.446  1.00  0.00     0.064 A 
ATOM    112  C   UNL A   1      37.315  31.885  31.691  1.00  0.00     0.173 A 
ATOM    113  C   UNL A   1      37.159  33.012  29.577  1.00  0.00     0.173 A 
ATOM    114  F   UNL A   1      37.963  31.079  32.546  1.00  0.00    -0.203 F 
ATOM    115  C   UNL A   1      36.064  32.382  32.049  1.00  0.00     0.198 A 
ATOM    116  C   UNL A   1      35.919  33.529  29.946  1.00  0.00     0.198 A 
ATOM    117  F   UNL A   1      37.663  33.332  28.377  1.00  0.00    -0.203 F 
ATOM    118  F   UNL A   1      35.526  32.051  33.230  1.00  0.00    -0.200 F 
ATOM    119  C   UNL A   1      35.370  33.209  31.178  1.00  0.00     0.200 A 
ATOM    120  F   UNL A   1      35.257  34.339  29.108  1.00  0.00    -0.200 F 
ATOM    121  F   UNL A   1      34.170  33.693  31.525  1.00  0.00    -0.200 F 
ENDBRANCH  83 111
BRANCH  98 122
ATOM    122  C   UNL A   1      44.354  34.741  30.765  1.00  0.00     0.064 A 
ATOM    123  C   UNL A   1      44.765  34.949  32.090  1.00  0.00     0.173 A 
ATOM    124  C   UNL A   1      44.490  35.802  29.858  1.00  0.00     0.173 A 
ATOM    125  F   UNL A   1      44.639  33.970  32.998  1.00  0.00    -0.203 F 
ATOM    126  C   UNL A   1      45.269  36.182  32.496  1.00  0.00     0.198 A 
ATOM    127  C   UNL A   1      45.019  37.025  30.262  1.00  0.00     0.198 A 
ATOM    128  F   UNL A   1      44.116  35.652  28.578  1.00  0.00    -0.203 F 
ATOM    129  F   UNL A   1      45.611  36.374  33.778  1.00  0.00    -0.200 F 
ATOM    130  C   UNL A   1      45.401  37.217  31.581  1.00  0.00     0.200 A 
ATOM    131  F   UNL A   1      45.156  38.020  29.375  1.00  0.00    -0.200 F 
ATOM    132  F   UNL A   1      45.888  38.401  31.974  1.00  0.00    -0.200 F 
ENDBRANCH  98 122
ENDBRANCH  63  66
ENDBRANCH  53  56
ENDBRANCH  49  52
ENDBRANCH  46  49
ENDBRANCH  43  46
ENDBRANCH  40  43
ENDBRANCH   1  40
TORSDOF 19
ENDMDL
MODEL 7
REMARK VINA RESULT:     -10.5      4.213      8.627
REMARK SMILES CC(C)Cc1ccc([C@H](CF)C(=O)NCCCCCCNC(=O)c2ccc(-c3c4nc(c(-c5c(F)c(F)c(F)c(F)c5F)c5ccc([nH]5)c(-c5c(F)c(F)c(F)c(F)c5F)c5nc(c(-c6c(F)c(F)c(F)c(F)c6F)c6ccc3[nH]6)C=C5)C=C4)cc2)cc1
REMARK SMILES IDX 16 1 15 4 14 7 12 8 13 9 9 11 8 13 5 14 6 15 88 16 7 17
REMARK SMILES IDX 87 19 4 23 2 26 1 28 3 32 10 36 11 37 17 40 18 43 19 46
REMARK SMILES IDX 20 49 21 52 22 53 23 55 24 56 25 57 86 58 26 59 85 61 27 63
REMARK SMILES IDX 28 66 29 67 79 68 30 69 84 70 78 71 80 72 31 73 83 74 77 76
REMARK SMILES IDX 76 78 32 80 64 83 44 84 63 85 45 86 48 87 62 88 81 89 46 90
REMARK SMILES IDX 47 92 61 94 82 95 49 98 33 100 34 101 42 102 35 103 36 104
REMARK SMILES IDX 40 105 43 106 37 107 38 108 41 109 39 110 65 111 66 112
REMARK SMILES IDX 74 113 67 114 68 115 72 116 75 117 69 118 70 119 73 120
REMARK SMILES IDX 71 121 50 122 51 123 59 124 52 125 53 126 57 127 60 128
REMARK SMILES IDX 54 129 55 130 58 131 56 132
REMARK H PARENT 16 2 16 3 15 5 15 6 14 10 9 12 6 18 88 20 7 21 87 22 4 24 4 25
REMARK H PARENT 2 27 1 29 1 30 1 31 3 33 3 34 3 35 10 38 10 39 17 41 17 42
REMARK H PARENT 18 44 18 45 19 47 19 48 20 50 20 51 21 54 25 60 86 62 26 64
REMARK H PARENT 85 65 84 75 78 77 80 79 83 81 77 82 45 91 48 93 81 96 46 97
REMARK H PARENT 82 99
REMARK Flexibility Score: inf
ROOT
ATOM      1  C   UNL A   1      37.448  33.697  31.645  1.00  0.00    -0.036 C 
ATOM      2  H   UNL A   1      38.274  34.022  32.243  1.00  0.00     0.028 H 
ATOM      3  H   UNL A   1      36.526  34.170  31.910  1.00  0.00     0.028 H 
ENDROOT
BRANCH   1   4
ATOM      4  C   UNL A   1      37.250  32.202  31.881  1.00  0.00     0.017 C 
ATOM      5  H   UNL A   1      36.411  31.868  31.307  1.00  0.00     0.049 H 
ATOM      6  H   UNL A   1      38.144  31.695  31.581  1.00  0.00     0.049 H 
BRANCH   4   7
ATOM      7  N   UNL A   1      37.010  31.908  33.281  1.00  0.00    -0.355 N 
ATOM      8  C   UNL A   1      37.884  31.778  34.321  1.00  0.00     0.230 C 
ATOM      9  O   UNL A   1      37.405  31.582  35.442  1.00  0.00    -0.274 OA
ATOM     10  H   UNL A   1      36.064  31.784  33.520  1.00  0.00     0.163 HD
BRANCH   8  11
ATOM     11  C   UNL A   1      39.401  31.846  34.124  1.00  0.00     0.091 C 
ATOM     12  H   UNL A   1      39.673  32.121  33.127  1.00  0.00     0.048 H 
BRANCH  11  13
ATOM     13  C   UNL A   1      40.047  30.468  34.216  1.00  0.00    -0.033 A 
ATOM     14  C   UNL A   1      41.519  28.061  34.381  1.00  0.00    -0.048 A 
ATOM     15  C   UNL A   1      41.573  28.995  35.419  1.00  0.00    -0.059 A 
ATOM     16  C   UNL A   1      40.668  28.304  33.297  1.00  0.00    -0.059 A 
ATOM     17  C   UNL A   1      40.848  30.184  35.336  1.00  0.00    -0.058 A 
ATOM     18  H   UNL A   1      42.152  28.804  36.252  1.00  0.00     0.063 H 
ATOM     19  C   UNL A   1      39.924  29.486  33.225  1.00  0.00    -0.058 A 
ATOM     20  H   UNL A   1      40.589  27.604  32.542  1.00  0.00     0.063 H 
ATOM     21  H   UNL A   1      40.900  30.865  36.109  1.00  0.00     0.063 H 
ATOM     22  H   UNL A   1      39.277  29.636  32.434  1.00  0.00     0.063 H 
BRANCH  14  23
ATOM     23  C   UNL A   1      42.403  26.837  34.409  1.00  0.00    -0.026 C 
ATOM     24  H   UNL A   1      42.691  26.649  35.422  1.00  0.00     0.032 H 
ATOM     25  H   UNL A   1      41.840  26.027  33.995  1.00  0.00     0.032 H 
BRANCH  23  26
ATOM     26  C   UNL A   1      43.680  26.996  33.557  1.00  0.00    -0.043 C 
ATOM     27  H   UNL A   1      43.443  27.664  32.755  1.00  0.00     0.030 H 
BRANCH  26  28
ATOM     28  C   UNL A   1      44.839  27.613  34.347  1.00  0.00    -0.062 C 
ATOM     29  H   UNL A   1      44.465  28.041  35.254  1.00  0.00     0.023 H 
ATOM     30  H   UNL A   1      45.305  28.376  33.758  1.00  0.00     0.023 H 
ATOM     31  H   UNL A   1      45.556  26.854  34.580  1.00  0.00     0.023 H 
ENDBRANCH  26  28
BRANCH  26  32
ATOM     32  C   UNL A   1      44.108  25.635  33.003  1.00  0.00    -0.062 C 
ATOM     33  H   UNL A   1      45.169  25.624  32.865  1.00  0.00     0.023 H 
ATOM     34  H   UNL A   1      43.624  25.464  32.065  1.00  0.00     0.023 H 
ATOM     35  H   UNL A   1      43.830  24.866  33.694  1.00  0.00     0.023 H 
ENDBRANCH  26  32
ENDBRANCH  23  26
ENDBRANCH  14  23
ENDBRANCH  11  13
BRANCH  11  36
ATOM     36  C   UNL A   1      39.949  32.975  34.992  1.00  0.00     0.105 C 
ATOM     37  F   UNL A   1      40.160  34.081  34.225  1.00  0.00    -0.250 F 
ATOM     38  H   UNL A   1      40.874  32.667  35.434  1.00  0.00     0.064 H 
ATOM     39  H   UNL A   1      39.244  33.207  35.763  1.00  0.00     0.064 H 
ENDBRANCH  11  36
ENDBRANCH   8  11
ENDBRANCH   4   7
ENDBRANCH   1   4
BRANCH   1  40
ATOM     40  C   UNL A   1      37.731  34.082  30.190  1.00  0.00    -0.052 C 
ATOM     41  H   UNL A   1      38.790  34.176  30.074  1.00  0.00     0.027 H 
ATOM     42  H   UNL A   1      37.197  34.994  30.018  1.00  0.00     0.027 H 
BRANCH  40  43
ATOM     43  C   UNL A   1      37.225  33.092  29.136  1.00  0.00    -0.052 C 
ATOM     44  H   UNL A   1      37.270  32.109  29.560  1.00  0.00     0.027 H 
ATOM     45  H   UNL A   1      37.857  33.225  28.283  1.00  0.00     0.027 H 
BRANCH  43  46
ATOM     46  C   UNL A   1      35.796  33.324  28.637  1.00  0.00    -0.036 C 
ATOM     47  H   UNL A   1      35.756  33.041  27.606  1.00  0.00     0.028 H 
ATOM     48  H   UNL A   1      35.590  34.360  28.807  1.00  0.00     0.028 H 
BRANCH  46  49
ATOM     49  C   UNL A   1      34.710  32.551  29.380  1.00  0.00     0.018 C 
ATOM     50  H   UNL A   1      33.972  33.244  29.727  1.00  0.00     0.049 H 
ATOM     51  H   UNL A   1      35.178  32.034  30.191  1.00  0.00     0.049 H 
BRANCH  49  52
ATOM     52  N   UNL A   1      34.058  31.558  28.542  1.00  0.00    -0.352 N 
ATOM     53  C   UNL A   1      34.575  30.433  27.956  1.00  0.00     0.251 C 
ATOM     54  H   UNL A   1      33.102  31.718  28.370  1.00  0.00     0.163 HD
ATOM     55  O   UNL A   1      33.894  29.792  27.154  1.00  0.00    -0.269 OA
BRANCH  53  56
ATOM     56  C   UNL A   1      35.953  29.991  28.256  1.00  0.00     0.039 A 
ATOM     57  C   UNL A   1      36.921  30.088  27.252  1.00  0.00    -0.049 A 
ATOM     58  C   UNL A   1      36.292  29.453  29.502  1.00  0.00    -0.049 A 
ATOM     59  C   UNL A   1      38.236  29.698  27.511  1.00  0.00    -0.053 A 
ATOM     60  H   UNL A   1      36.663  30.447  26.319  1.00  0.00     0.063 H 
ATOM     61  C   UNL A   1      37.618  29.121  29.780  1.00  0.00    -0.053 A 
ATOM     62  H   UNL A   1      35.562  29.302  30.215  1.00  0.00     0.063 H 
ATOM     63  C   UNL A   1      38.602  29.238  28.787  1.00  0.00    -0.014 A 
ATOM     64  H   UNL A   1      38.944  29.749  26.762  1.00  0.00     0.063 H 
ATOM     65  H   UNL A   1      37.876  28.790  30.722  1.00  0.00     0.063 H 
BRANCH  63  66
ATOM     66  C   UNL A   1      40.010  28.880  29.092  1.00  0.00     0.031 A 
ATOM     67  C   UNL A   1      40.894  29.836  29.841  1.00  0.00     0.074 A 
ATOM     68  C   UNL A   1      40.509  27.712  28.644  1.00  0.00     0.049 A 
ATOM     69  N   UNL A   1      42.157  29.714  30.166  1.00  0.00    -0.248 NA
ATOM     70  C   UNL A   1      40.287  31.110  30.255  1.00  0.00    -0.034 C 
ATOM     71  C   UNL A   1      39.769  26.724  27.858  1.00  0.00    -0.036 A 
ATOM     72  N   UNL A   1      41.760  27.163  28.778  1.00  0.00    -0.354 N 
ATOM     73  C   UNL A   1      42.497  30.898  30.809  1.00  0.00     0.074 A 
ATOM     74  C   UNL A   1      41.323  31.743  30.786  1.00  0.00    -0.034 C 
ATOM     75  H   UNL A   1      39.310  31.428  30.159  1.00  0.00     0.065 H 
ATOM     76  C   UNL A   1      40.572  25.681  27.596  1.00  0.00    -0.036 A 
ATOM     77  H   UNL A   1      38.787  26.815  27.554  1.00  0.00     0.065 H 
ATOM     78  C   UNL A   1      41.889  25.937  28.170  1.00  0.00     0.049 A 
ATOM     79  H   UNL A   1      42.494  27.605  29.262  1.00  0.00     0.167 HD
ATOM     80  C   UNL A   1      43.677  31.238  31.384  1.00  0.00     0.037 A 
ATOM     81  H   UNL A   1      41.296  32.713  31.137  1.00  0.00     0.065 H 
ATOM     82  H   UNL A   1      40.302  24.834  27.072  1.00  0.00     0.065 H 
ATOM     83  C   UNL A   1      42.952  25.114  28.088  1.00  0.00     0.037 A 
ATOM     84  C   UNL A   1      44.834  30.384  31.432  1.00  0.00     0.049 A 
ATOM     85  C   UNL A   1      44.241  25.505  28.754  1.00  0.00     0.074 A 
ATOM     86  C   UNL A   1      46.049  30.609  32.056  1.00  0.00    -0.036 A 
ATOM     87  N   UNL A   1      44.919  29.137  30.830  1.00  0.00    -0.354 N 
ATOM     88  N   UNL A   1      44.528  26.594  29.425  1.00  0.00    -0.248 NA
ATOM     89  C   UNL A   1      45.351  24.546  28.663  1.00  0.00    -0.034 C 
ATOM     90  C   UNL A   1      46.884  29.516  31.797  1.00  0.00    -0.036 A 
ATOM     91  H   UNL A   1      46.296  31.441  32.615  1.00  0.00     0.065 H 
ATOM     92  C   UNL A   1      46.174  28.591  31.049  1.00  0.00     0.049 A 
ATOM     93  H   UNL A   1      44.197  28.704  30.322  1.00  0.00     0.167 HD
ATOM     94  C   UNL A   1      45.840  26.444  29.852  1.00  0.00     0.074 A 
ATOM     95  C   UNL A   1      46.288  25.150  29.379  1.00  0.00    -0.034 C 
ATOM     96  H   UNL A   1      45.390  23.641  28.169  1.00  0.00     0.065 H 
ATOM     97  H   UNL A   1      47.862  29.417  32.110  1.00  0.00     0.065 H 
ATOM     98  C   UNL A   1      46.606  27.302  30.570  1.00  0.00     0.037 A 
ATOM     99  H   UNL A   1      47.218  24.749  29.576  1.00  0.00     0.065 H 
BRANCH  80 100
ATOM    100  C   UNL A   1      43.772  32.598  32.012  1.00  0.00     0.064 A 
ATOM    101  C   UNL A   1      44.116  33.733  31.261  1.00  0.00     0.173 A 
ATOM    102  C   UNL A   1      43.487  32.775  33.375  1.00  0.00     0.173 A 
ATOM    103  F   UNL A   1      44.409  33.616  29.957  1.00  0.00    -0.203 F 
ATOM    104  C   UNL A   1      44.202  34.988  31.857  1.00  0.00     0.198 A 
ATOM    105  C   UNL A   1      43.545  34.037  33.961  1.00  0.00     0.198 A 
ATOM    106  F   UNL A   1      43.147  31.725  34.136  1.00  0.00    -0.203 F 
ATOM    107  F   UNL A   1      44.581  36.049  31.131  1.00  0.00    -0.200 F 
ATOM    108  C   UNL A   1      43.910  35.140  33.204  1.00  0.00     0.200 A 
ATOM    109  F   UNL A   1      43.252  34.184  35.260  1.00  0.00    -0.200 F 
ATOM    110  F   UNL A   1      43.989  36.350  33.776  1.00  0.00    -0.200 F 
ENDBRANCH  80 100
BRANCH  83 111
ATOM    111  C   UNL A   1      42.825  23.821  27.370  1.00  0.00     0.064 A 
ATOM    112  C   UNL A   1      42.310  22.689  28.016  1.00  0.00     0.173 A 
ATOM    113  C   UNL A   1      43.204  23.692  26.027  1.00  0.00     0.173 A 
ATOM    114  F   UNL A   1      41.954  22.760  29.308  1.00  0.00    -0.203 F 
ATOM    115  C   UNL A   1      42.192  21.471  27.350  1.00  0.00     0.198 A 
ATOM    116  C   UNL A   1      43.062  22.480  25.354  1.00  0.00     0.198 A 
ATOM    117  F   UNL A   1      43.697  24.748  25.363  1.00  0.00    -0.203 F 
ATOM    118  F   UNL A   1      41.732  20.395  28.001  1.00  0.00    -0.200 F 
ATOM    119  C   UNL A   1      42.563  21.370  26.017  1.00  0.00     0.200 A 
ATOM    120  F   UNL A   1      43.408  22.388  24.062  1.00  0.00    -0.200 F 
ATOM    121  F   UNL A   1      42.442  20.200  25.374  1.00  0.00    -0.200 F 
ENDBRANCH  83 111
BRANCH  98 122
ATOM    122  C   UNL A   1      48.000  26.859  30.904  1.00  0.00     0.064 A 
ATOM    123  C   UNL A   1      48.271  26.085  32.042  1.00  0.00     0.173 A 
ATOM    124  C   UNL A   1      49.071  27.189  30.061  1.00  0.00     0.173 A 
ATOM    125  F   UNL A   1      47.281  25.758  32.888  1.00  0.00    -0.203 F 
ATOM    126  C   UNL A   1      49.569  25.680  32.338  1.00  0.00     0.198 A 
ATOM    127  C   UNL A   1      50.365  26.759  30.346  1.00  0.00     0.198 A 
ATOM    128  F   UNL A   1      48.864  27.922  28.957  1.00  0.00    -0.203 F 
ATOM    129  F   UNL A   1      49.813  24.981  33.456  1.00  0.00    -0.200 F 
ATOM    130  C   UNL A   1      50.614  26.012  31.487  1.00  0.00     0.200 A 
ATOM    131  F   UNL A   1      51.370  27.072  29.518  1.00  0.00    -0.200 F 
ATOM    132  F   UNL A   1      51.863  25.619  31.773  1.00  0.00    -0.200 F 
ENDBRANCH  98 122
ENDBRANCH  63  66
ENDBRANCH  53  56
ENDBRANCH  49  52
ENDBRANCH  46  49
ENDBRANCH  43  46
ENDBRANCH  40  43
ENDBRANCH   1  40
TORSDOF 19
ENDMDL
MODEL 8
REMARK VINA RESULT:     -10.5      3.996      8.810
REMARK SMILES CC(C)Cc1ccc([C@H](CF)C(=O)NCCCCCCNC(=O)c2ccc(-c3c4nc(c(-c5c(F)c(F)c(F)c(F)c5F)c5ccc([nH]5)c(-c5c(F)c(F)c(F)c(F)c5F)c5nc(c(-c6c(F)c(F)c(F)c(F)c6F)c6ccc3[nH]6)C=C5)C=C4)cc2)cc1
REMARK SMILES IDX 16 1 15 4 14 7 12 8 13 9 9 11 8 13 5 14 6 15 88 16 7 17
REMARK SMILES IDX 87 19 4 23 2 26 1 28 3 32 10 36 11 37 17 40 18 43 19 46
REMARK SMILES IDX 20 49 21 52 22 53 23 55 24 56 25 57 86 58 26 59 85 61 27 63
REMARK SMILES IDX 28 66 29 67 79 68 30 69 84 70 78 71 80 72 31 73 83 74 77 76
REMARK SMILES IDX 76 78 32 80 64 83 44 84 63 85 45 86 48 87 62 88 81 89 46 90
REMARK SMILES IDX 47 92 61 94 82 95 49 98 33 100 34 101 42 102 35 103 36 104
REMARK SMILES IDX 40 105 43 106 37 107 38 108 41 109 39 110 65 111 66 112
REMARK SMILES IDX 74 113 67 114 68 115 72 116 75 117 69 118 70 119 73 120
REMARK SMILES IDX 71 121 50 122 51 123 59 124 52 125 53 126 57 127 60 128
REMARK SMILES IDX 54 129 55 130 58 131 56 132
REMARK H PARENT 16 2 16 3 15 5 15 6 14 10 9 12 6 18 88 20 7 21 87 22 4 24 4 25
REMARK H PARENT 2 27 1 29 1 30 1 31 3 33 3 34 3 35 10 38 10 39 17 41 17 42
REMARK H PARENT 18 44 18 45 19 47 19 48 20 50 20 51 21 54 25 60 86 62 26 64
REMARK H PARENT 85 65 84 75 78 77 80 79 83 81 77 82 45 91 48 93 81 96 46 97
REMARK H PARENT 82 99
REMARK Flexibility Score: inf
ROOT
ATOM      1  C   UNL A   1      33.736  20.076  24.623  1.00  0.00    -0.036 C 
ATOM      2  H   UNL A   1      33.652  20.122  23.557  1.00  0.00     0.028 H 
ATOM      3  H   UNL A   1      33.741  19.075  25.001  1.00  0.00     0.028 H 
ENDROOT
BRANCH   1   4
ATOM      4  C   UNL A   1      32.513  20.760  25.226  1.00  0.00     0.017 C 
ATOM      5  H   UNL A   1      32.174  21.522  24.555  1.00  0.00     0.049 H 
ATOM      6  H   UNL A   1      31.755  20.019  25.377  1.00  0.00     0.049 H 
BRANCH   4   7
ATOM      7  N   UNL A   1      32.817  21.364  26.510  1.00  0.00    -0.355 N 
ATOM      8  C   UNL A   1      32.349  22.511  27.082  1.00  0.00     0.230 C 
ATOM      9  O   UNL A   1      32.731  22.769  28.227  1.00  0.00    -0.274 OA
ATOM     10  H   UNL A   1      33.464  20.865  27.058  1.00  0.00     0.163 HD
BRANCH   8  11
ATOM     11  C   UNL A   1      31.407  23.465  26.342  1.00  0.00     0.091 C 
ATOM     12  H   UNL A   1      31.361  23.263  25.293  1.00  0.00     0.048 H 
BRANCH  11  13
ATOM     13  C   UNL A   1      31.944  24.891  26.325  1.00  0.00    -0.033 A 
ATOM     14  C   UNL A   1      32.742  27.590  26.057  1.00  0.00    -0.048 A 
ATOM     15  C   UNL A   1      31.438  27.274  26.449  1.00  0.00    -0.059 A 
ATOM     16  C   UNL A   1      33.662  26.552  25.873  1.00  0.00    -0.059 A 
ATOM     17  C   UNL A   1      31.045  25.942  26.579  1.00  0.00    -0.058 A 
ATOM     18  H   UNL A   1      30.763  28.031  26.644  1.00  0.00     0.063 H 
ATOM     19  C   UNL A   1      33.272  25.217  26.025  1.00  0.00    -0.058 A 
ATOM     20  H   UNL A   1      34.638  26.773  25.621  1.00  0.00     0.063 H 
ATOM     21  H   UNL A   1      30.078  25.725  26.867  1.00  0.00     0.063 H 
ATOM     22  H   UNL A   1      33.971  24.465  25.917  1.00  0.00     0.063 H 
BRANCH  14  23
ATOM     23  C   UNL A   1      33.132  29.023  25.789  1.00  0.00    -0.026 C 
ATOM     24  H   UNL A   1      34.169  29.050  25.526  1.00  0.00     0.032 H 
ATOM     25  H   UNL A   1      32.508  29.382  24.996  1.00  0.00     0.032 H 
BRANCH  23  26
ATOM     26  C   UNL A   1      32.910  29.947  27.005  1.00  0.00    -0.043 C 
ATOM     27  H   UNL A   1      32.503  29.343  27.790  1.00  0.00     0.030 H 
BRANCH  26  28
ATOM     28  C   UNL A   1      34.216  30.558  27.523  1.00  0.00    -0.062 C 
ATOM     29  H   UNL A   1      34.758  29.823  28.080  1.00  0.00     0.023 H 
ATOM     30  H   UNL A   1      33.994  31.393  28.154  1.00  0.00     0.023 H 
ATOM     31  H   UNL A   1      34.810  30.886  26.694  1.00  0.00     0.023 H 
ENDBRANCH  26  28
BRANCH  26  32
ATOM     32  C   UNL A   1      31.934  31.067  26.637  1.00  0.00    -0.062 C 
ATOM     33  H   UNL A   1      32.471  31.985  26.525  1.00  0.00     0.023 H 
ATOM     34  H   UNL A   1      31.203  31.172  27.412  1.00  0.00     0.023 H 
ATOM     35  H   UNL A   1      31.445  30.825  25.716  1.00  0.00     0.023 H 
ENDBRANCH  26  32
ENDBRANCH  23  26
ENDBRANCH  14  23
ENDBRANCH  11  13
BRANCH  11  36
ATOM     36  C   UNL A   1      29.986  23.220  26.839  1.00  0.00     0.105 C 
ATOM     37  F   UNL A   1      29.568  21.985  26.443  1.00  0.00    -0.250 F 
ATOM     38  H   UNL A   1      29.333  23.964  26.433  1.00  0.00     0.064 H 
ATOM     39  H   UNL A   1      29.968  23.274  27.908  1.00  0.00     0.064 H 
ENDBRANCH  11  36
ENDBRANCH   8  11
ENDBRANCH   4   7
ENDBRANCH   1   4
BRANCH   1  40
ATOM     40  C   UNL A   1      35.077  20.696  25.024  1.00  0.00    -0.052 C 
ATOM     41  H   UNL A   1      35.844  19.975  24.832  1.00  0.00     0.027 H 
ATOM     42  H   UNL A   1      34.984  20.959  26.057  1.00  0.00     0.027 H 
BRANCH  40  43
ATOM     43  C   UNL A   1      35.450  21.990  24.291  1.00  0.00    -0.052 C 
ATOM     44  H   UNL A   1      34.648  22.234  23.626  1.00  0.00     0.027 H 
ATOM     45  H   UNL A   1      36.378  21.788  23.797  1.00  0.00     0.027 H 
BRANCH  43  46
ATOM     46  C   UNL A   1      35.709  23.207  25.184  1.00  0.00    -0.036 C 
ATOM     47  H   UNL A   1      35.506  22.924  26.195  1.00  0.00     0.028 H 
ATOM     48  H   UNL A   1      35.069  23.982  24.817  1.00  0.00     0.028 H 
BRANCH  46  49
ATOM     49  C   UNL A   1      37.127  23.769  25.128  1.00  0.00     0.018 C 
ATOM     50  H   UNL A   1      37.195  24.595  25.806  1.00  0.00     0.049 H 
ATOM     51  H   UNL A   1      37.316  24.070  24.119  1.00  0.00     0.049 H 
BRANCH  49  52
ATOM     52  N   UNL A   1      38.134  22.785  25.491  1.00  0.00    -0.352 N 
ATOM     53  C   UNL A   1      39.303  22.945  26.184  1.00  0.00     0.251 C 
ATOM     54  H   UNL A   1      37.945  21.866  25.194  1.00  0.00     0.163 HD
ATOM     55  O   UNL A   1      40.101  22.010  26.264  1.00  0.00    -0.269 OA
BRANCH  53  56
ATOM     56  C   UNL A   1      39.634  24.238  26.820  1.00  0.00     0.039 A 
ATOM     57  C   UNL A   1      39.222  24.460  28.139  1.00  0.00    -0.049 A 
ATOM     58  C   UNL A   1      40.314  25.243  26.123  1.00  0.00    -0.049 A 
ATOM     59  C   UNL A   1      39.538  25.662  28.774  1.00  0.00    -0.053 A 
ATOM     60  H   UNL A   1      38.686  23.736  28.641  1.00  0.00     0.063 H 
ATOM     61  C   UNL A   1      40.682  26.417  26.778  1.00  0.00    -0.053 A 
ATOM     62  H   UNL A   1      40.543  25.114  25.126  1.00  0.00     0.063 H 
ATOM     63  C   UNL A   1      40.295  26.640  28.108  1.00  0.00    -0.014 A 
ATOM     64  H   UNL A   1      39.214  25.833  29.739  1.00  0.00     0.063 H 
ATOM     65  H   UNL A   1      41.243  27.126  26.282  1.00  0.00     0.063 H 
BRANCH  63  66
ATOM     66  C   UNL A   1      40.689  27.896  28.796  1.00  0.00     0.031 A 
ATOM     67  C   UNL A   1      42.087  28.073  29.316  1.00  0.00     0.074 A 
ATOM     68  C   UNL A   1      39.768  28.857  29.001  1.00  0.00     0.049 A 
ATOM     69  N   UNL A   1      42.605  29.081  29.972  1.00  0.00    -0.248 NA
ATOM     70  C   UNL A   1      43.021  26.959  29.092  1.00  0.00    -0.034 C 
ATOM     71  C   UNL A   1      38.365  28.781  28.593  1.00  0.00    -0.036 A 
ATOM     72  N   UNL A   1      39.874  30.082  29.610  1.00  0.00    -0.354 N 
ATOM     73  C   UNL A   1      43.917  28.716  30.252  1.00  0.00     0.074 A 
ATOM     74  C   UNL A   1      44.101  27.377  29.735  1.00  0.00    -0.034 C 
ATOM     75  H   UNL A   1      42.874  26.080  28.571  1.00  0.00     0.065 H 
ATOM     76  C   UNL A   1      37.744  29.917  28.947  1.00  0.00    -0.036 A 
ATOM     77  H   UNL A   1      37.923  27.982  28.112  1.00  0.00     0.065 H 
ATOM     78  C   UNL A   1      38.696  30.789  29.628  1.00  0.00     0.049 A 
ATOM     79  H   UNL A   1      40.712  30.421  29.998  1.00  0.00     0.167 HD
ATOM     80  C   UNL A   1      44.883  29.443  30.865  1.00  0.00     0.037 A 
ATOM     81  H   UNL A   1      44.962  26.820  29.854  1.00  0.00     0.065 H 
ATOM     82  H   UNL A   1      36.752  30.139  28.767  1.00  0.00     0.065 H 
ATOM     83  C   UNL A   1      38.417  32.004  30.137  1.00  0.00     0.037 A 
ATOM     84  C   UNL A   1      44.706  30.786  31.350  1.00  0.00     0.049 A 
ATOM     85  C   UNL A   1      39.513  32.799  30.790  1.00  0.00     0.074 A 
ATOM     86  C   UNL A   1      45.644  31.631  31.918  1.00  0.00    -0.036 A 
ATOM     87  N   UNL A   1      43.505  31.481  31.326  1.00  0.00    -0.354 N 
ATOM     88  N   UNL A   1      40.769  32.474  30.981  1.00  0.00    -0.248 NA
ATOM     89  C   UNL A   1      39.155  34.134  31.289  1.00  0.00    -0.034 C 
ATOM     90  C   UNL A   1      45.002  32.823  32.274  1.00  0.00    -0.036 A 
ATOM     91  H   UNL A   1      46.644  31.417  32.055  1.00  0.00     0.065 H 
ATOM     92  C   UNL A   1      43.674  32.736  31.888  1.00  0.00     0.049 A 
ATOM     93  H   UNL A   1      42.658  31.135  30.964  1.00  0.00     0.167 HD
ATOM     94  C   UNL A   1      41.355  33.569  31.601  1.00  0.00     0.074 A 
ATOM     95  C   UNL A   1      40.321  34.574  31.739  1.00  0.00    -0.034 C 
ATOM     96  H   UNL A   1      38.237  34.604  31.290  1.00  0.00     0.065 H 
ATOM     97  H   UNL A   1      45.444  33.627  32.745  1.00  0.00     0.065 H 
ATOM     98  C   UNL A   1      42.635  33.726  32.020  1.00  0.00     0.037 A 
ATOM     99  H   UNL A   1      40.474  35.514  32.137  1.00  0.00     0.065 H 
BRANCH  80 100
ATOM    100  C   UNL A   1      46.225  28.795  31.042  1.00  0.00     0.064 A 
ATOM    101  C   UNL A   1      46.543  28.067  32.199  1.00  0.00     0.173 A 
ATOM    102  C   UNL A   1      47.196  28.879  30.032  1.00  0.00     0.173 A 
ATOM    103  F   UNL A   1      45.654  27.966  33.199  1.00  0.00    -0.203 F 
ATOM    104  C   UNL A   1      47.793  27.472  32.350  1.00  0.00     0.198 A 
ATOM    105  C   UNL A   1      48.434  28.259  30.175  1.00  0.00     0.198 A 
ATOM    106  F   UNL A   1      46.941  29.558  28.904  1.00  0.00    -0.203 F 
ATOM    107  F   UNL A   1      48.091  26.823  33.485  1.00  0.00    -0.200 F 
ATOM    108  C   UNL A   1      48.735  27.563  31.337  1.00  0.00     0.200 A 
ATOM    109  F   UNL A   1      49.339  28.338  29.190  1.00  0.00    -0.200 F 
ATOM    110  F   UNL A   1      49.936  26.986  31.483  1.00  0.00    -0.200 F 
ENDBRANCH  80 100
BRANCH  83 111
ATOM    111  C   UNL A   1      37.044  32.554  30.015  1.00  0.00     0.064 A 
ATOM    112  C   UNL A   1      36.106  32.378  31.041  1.00  0.00     0.173 A 
ATOM    113  C   UNL A   1      36.644  33.272  28.880  1.00  0.00     0.173 A 
ATOM    114  F   UNL A   1      36.438  31.679  32.137  1.00  0.00    -0.203 F 
ATOM    115  C   UNL A   1      34.815  32.888  30.932  1.00  0.00     0.198 A 
ATOM    116  C   UNL A   1      35.359  33.804  28.782  1.00  0.00     0.198 A 
ATOM    117  F   UNL A   1      37.506  33.473  27.872  1.00  0.00    -0.203 F 
ATOM    118  F   UNL A   1      33.926  32.673  31.912  1.00  0.00    -0.200 F 
ATOM    119  C   UNL A   1      34.444  33.606  29.804  1.00  0.00     0.200 A 
ATOM    120  F   UNL A   1      35.008  34.508  27.697  1.00  0.00    -0.200 F 
ATOM    121  F   UNL A   1      33.204  34.102  29.702  1.00  0.00    -0.200 F 
ENDBRANCH  83 111
BRANCH  98 122
ATOM    122  C   UNL A   1      42.992  35.041  32.649  1.00  0.00     0.064 A 
ATOM    123  C   UNL A   1      43.511  36.100  31.891  1.00  0.00     0.173 A 
ATOM    124  C   UNL A   1      42.785  35.251  34.020  1.00  0.00     0.173 A 
ATOM    125  F   UNL A   1      43.743  35.941  30.579  1.00  0.00    -0.203 F 
ATOM    126  C   UNL A   1      43.837  37.314  32.488  1.00  0.00     0.198 A 
ATOM    127  C   UNL A   1      43.086  36.476  34.610  1.00  0.00     0.198 A 
ATOM    128  F   UNL A   1      42.284  34.272  34.789  1.00  0.00    -0.203 F 
ATOM    129  F   UNL A   1      44.377  38.297  31.754  1.00  0.00    -0.200 F 
ATOM    130  C   UNL A   1      43.618  37.504  33.846  1.00  0.00     0.200 A 
ATOM    131  F   UNL A   1      42.864  36.661  35.918  1.00  0.00    -0.200 F 
ATOM    132  F   UNL A   1      43.930  38.674  34.418  1.00  0.00    -0.200 F 
ENDBRANCH  98 122
ENDBRANCH  63  66
ENDBRANCH  53  56
ENDBRANCH  49  52
ENDBRANCH  46  49
ENDBRANCH  43  46
ENDBRANCH  40  43
ENDBRANCH   1  40
TORSDOF 19
ENDMDL
MODEL 9
REMARK VINA RESULT:     -10.5      5.518     11.197
REMARK SMILES CC(C)Cc1ccc([C@H](CF)C(=O)NCCCCCCNC(=O)c2ccc(-c3c4nc(c(-c5c(F)c(F)c(F)c(F)c5F)c5ccc([nH]5)c(-c5c(F)c(F)c(F)c(F)c5F)c5nc(c(-c6c(F)c(F)c(F)c(F)c6F)c6ccc3[nH]6)C=C5)C=C4)cc2)cc1
REMARK SMILES IDX 16 1 15 4 14 7 12 8 13 9 9 11 8 13 5 14 6 15 88 16 7 17
REMARK SMILES IDX 87 19 4 23 2 26 1 28 3 32 10 36 11 37 17 40 18 43 19 46
REMARK SMILES IDX 20 49 21 52 22 53 23 55 24 56 25 57 86 58 26 59 85 61 27 63
REMARK SMILES IDX 28 66 29 67 79 68 30 69 84 70 78 71 80 72 31 73 83 74 77 76
REMARK SMILES IDX 76 78 32 80 64 83 44 84 63 85 45 86 48 87 62 88 81 89 46 90
REMARK SMILES IDX 47 92 61 94 82 95 49 98 33 100 34 101 42 102 35 103 36 104
REMARK SMILES IDX 40 105 43 106 37 107 38 108 41 109 39 110 65 111 66 112
REMARK SMILES IDX 74 113 67 114 68 115 72 116 75 117 69 118 70 119 73 120
REMARK SMILES IDX 71 121 50 122 51 123 59 124 52 125 53 126 57 127 60 128
REMARK SMILES IDX 54 129 55 130 58 131 56 132
REMARK H PARENT 16 2 16 3 15 5 15 6 14 10 9 12 6 18 88 20 7 21 87 22 4 24 4 25
REMARK H PARENT 2 27 1 29 1 30 1 31 3 33 3 34 3 35 10 38 10 39 17 41 17 42
REMARK H PARENT 18 44 18 45 19 47 19 48 20 50 20 51 21 54 25 60 86 62 26 64
REMARK H PARENT 85 65 84 75 78 77 80 79 83 81 77 82 45 91 48 93 81 96 46 97
REMARK H PARENT 82 99
REMARK Flexibility Score: inf
ROOT
ATOM      1  C   UNL A   1      43.934  22.636  24.248  1.00  0.00    -0.036 C 
ATOM      2  H   UNL A   1      43.472  21.679  24.122  1.00  0.00     0.028 H 
ATOM      3  H   UNL A   1      44.002  23.192  23.337  1.00  0.00     0.028 H 
ENDROOT
BRANCH   1   4
ATOM      4  C   UNL A   1      45.366  22.414  24.727  1.00  0.00     0.017 C 
ATOM      5  H   UNL A   1      45.375  22.395  25.797  1.00  0.00     0.049 H 
ATOM      6  H   UNL A   1      45.713  21.485  24.325  1.00  0.00     0.049 H 
BRANCH   4   7
ATOM      7  N   UNL A   1      46.253  23.466  24.266  1.00  0.00    -0.355 N 
ATOM      8  C   UNL A   1      46.695  24.591  24.899  1.00  0.00     0.230 C 
ATOM      9  O   UNL A   1      47.504  25.300  24.293  1.00  0.00    -0.274 OA
ATOM     10  H   UNL A   1      46.591  23.349  23.349  1.00  0.00     0.163 HD
BRANCH   8  11
ATOM     11  C   UNL A   1      46.205  24.988  26.294  1.00  0.00     0.091 C 
ATOM     12  H   UNL A   1      45.398  24.374  26.634  1.00  0.00     0.048 H 
BRANCH  11  13
ATOM     13  C   UNL A   1      45.529  26.354  26.290  1.00  0.00    -0.033 A 
ATOM     14  C   UNL A   1      44.281  28.872  26.593  1.00  0.00    -0.048 A 
ATOM     15  C   UNL A   1      45.590  28.674  27.041  1.00  0.00    -0.059 A 
ATOM     16  C   UNL A   1      43.629  27.828  25.927  1.00  0.00    -0.059 A 
ATOM     17  C   UNL A   1      46.204  27.430  26.893  1.00  0.00    -0.058 A 
ATOM     18  H   UNL A   1      46.104  29.451  27.484  1.00  0.00     0.063 H 
ATOM     19  C   UNL A   1      44.255  26.588  25.759  1.00  0.00    -0.058 A 
ATOM     20  H   UNL A   1      42.677  27.973  25.557  1.00  0.00     0.063 H 
ATOM     21  H   UNL A   1      47.170  27.298  27.231  1.00  0.00     0.063 H 
ATOM     22  H   UNL A   1      43.772  25.838  25.238  1.00  0.00     0.063 H 
BRANCH  14  23
ATOM     23  C   UNL A   1      43.569  30.174  26.870  1.00  0.00    -0.026 C 
ATOM     24  H   UNL A   1      43.106  30.507  25.965  1.00  0.00     0.032 H 
ATOM     25  H   UNL A   1      42.851  29.988  27.642  1.00  0.00     0.032 H 
BRANCH  23  26
ATOM     26  C   UNL A   1      44.514  31.284  27.376  1.00  0.00    -0.043 C 
ATOM     27  H   UNL A   1      45.343  30.800  27.850  1.00  0.00     0.030 H 
BRANCH  26  28
ATOM     28  C   UNL A   1      45.072  32.143  26.236  1.00  0.00    -0.062 C 
ATOM     29  H   UNL A   1      45.194  31.539  25.361  1.00  0.00     0.023 H 
ATOM     30  H   UNL A   1      46.019  32.547  26.525  1.00  0.00     0.023 H 
ATOM     31  H   UNL A   1      44.392  32.942  26.025  1.00  0.00     0.023 H 
ENDBRANCH  26  28
BRANCH  26  32
ATOM     32  C   UNL A   1      43.779  32.179  28.375  1.00  0.00    -0.062 C 
ATOM     33  H   UNL A   1      44.375  33.042  28.586  1.00  0.00     0.023 H 
ATOM     34  H   UNL A   1      43.605  31.634  29.280  1.00  0.00     0.023 H 
ATOM     35  H   UNL A   1      42.842  32.485  27.958  1.00  0.00     0.023 H 
ENDBRANCH  26  32
ENDBRANCH  23  26
ENDBRANCH  14  23
ENDBRANCH  11  13
BRANCH  11  36
ATOM     36  C   UNL A   1      47.328  24.725  27.293  1.00  0.00     0.105 C 
ATOM     37  F   UNL A   1      46.826  24.737  28.560  1.00  0.00    -0.250 F 
ATOM     38  H   UNL A   1      48.074  25.487  27.198  1.00  0.00     0.064 H 
ATOM     39  H   UNL A   1      47.765  23.769  27.094  1.00  0.00     0.064 H 
ENDBRANCH  11  36
ENDBRANCH   8  11
ENDBRANCH   4   7
ENDBRANCH   1   4
BRANCH   1  40
ATOM     40  C   UNL A   1      43.064  23.465  25.197  1.00  0.00    -0.052 C 
ATOM     41  H   UNL A   1      42.103  23.584  24.744  1.00  0.00     0.027 H 
ATOM     42  H   UNL A   1      43.587  24.388  25.345  1.00  0.00     0.027 H 
BRANCH  40  43
ATOM     43  C   UNL A   1      42.859  22.868  26.594  1.00  0.00    -0.052 C 
ATOM     44  H   UNL A   1      42.303  23.575  27.175  1.00  0.00     0.027 H 
ATOM     45  H   UNL A   1      43.839  22.669  26.973  1.00  0.00     0.027 H 
BRANCH  43  46
ATOM     46  C   UNL A   1      42.114  21.531  26.641  1.00  0.00    -0.036 C 
ATOM     47  H   UNL A   1      42.717  20.836  27.188  1.00  0.00     0.028 H 
ATOM     48  H   UNL A   1      41.950  21.249  25.622  1.00  0.00     0.028 H 
BRANCH  46  49
ATOM     49  C   UNL A   1      40.735  21.573  27.293  1.00  0.00     0.018 C 
ATOM     50  H   UNL A   1      40.729  22.345  28.034  1.00  0.00     0.049 H 
ATOM     51  H   UNL A   1      40.552  20.611  27.724  1.00  0.00     0.049 H 
BRANCH  49  52
ATOM     52  N   UNL A   1      39.672  21.836  26.337  1.00  0.00    -0.352 N 
ATOM     53  C   UNL A   1      38.961  22.985  26.115  1.00  0.00     0.251 C 
ATOM     54  H   UNL A   1      39.427  21.075  25.764  1.00  0.00     0.163 HD
ATOM     55  O   UNL A   1      37.991  22.969  25.356  1.00  0.00    -0.269 OA
BRANCH  53  56
ATOM     56  C   UNL A   1      39.329  24.245  26.796  1.00  0.00     0.039 A 
ATOM     57  C   UNL A   1      38.913  24.438  28.117  1.00  0.00    -0.049 A 
ATOM     58  C   UNL A   1      40.050  25.247  26.138  1.00  0.00    -0.049 A 
ATOM     59  C   UNL A   1      39.263  25.608  28.794  1.00  0.00    -0.053 A 
ATOM     60  H   UNL A   1      38.347  23.717  28.591  1.00  0.00     0.063 H 
ATOM     61  C   UNL A   1      40.452  26.387  26.834  1.00  0.00    -0.053 A 
ATOM     62  H   UNL A   1      40.285  25.142  25.139  1.00  0.00     0.063 H 
ATOM     63  C   UNL A   1      40.060  26.580  28.167  1.00  0.00    -0.014 A 
ATOM     64  H   UNL A   1      38.936  25.759  29.761  1.00  0.00     0.063 H 
ATOM     65  H   UNL A   1      41.042  27.092  26.365  1.00  0.00     0.063 H 
BRANCH  63  66
ATOM     66  C   UNL A   1      40.490  27.798  28.898  1.00  0.00     0.031 A 
ATOM     67  C   UNL A   1      41.884  27.903  29.450  1.00  0.00     0.074 A 
ATOM     68  C   UNL A   1      39.605  28.790  29.113  1.00  0.00     0.049 A 
ATOM     69  N   UNL A   1      42.428  28.870  30.146  1.00  0.00    -0.248 NA
ATOM     70  C   UNL A   1      42.776  26.758  29.213  1.00  0.00    -0.034 C 
ATOM     71  C   UNL A   1      38.208  28.784  28.676  1.00  0.00    -0.036 A 
ATOM     72  N   UNL A   1      39.747  29.992  29.760  1.00  0.00    -0.354 N 
ATOM     73  C   UNL A   1      43.717  28.444  30.440  1.00  0.00     0.074 A 
ATOM     74  C   UNL A   1      43.858  27.114  29.889  1.00  0.00    -0.034 C 
ATOM     75  H   UNL A   1      42.604  25.902  28.664  1.00  0.00     0.065 H 
ATOM     76  C   UNL A   1      37.627  29.934  29.051  1.00  0.00    -0.036 A 
ATOM     77  H   UNL A   1      37.745  28.017  28.163  1.00  0.00     0.065 H 
ATOM     78  C   UNL A   1      38.599  30.746  29.775  1.00  0.00     0.049 A 
ATOM     79  H   UNL A   1      40.591  30.285  30.174  1.00  0.00     0.167 HD
ATOM     80  C   UNL A   1      44.699  29.112  31.093  1.00  0.00     0.037 A 
ATOM     81  H   UNL A   1      44.693  26.519  30.008  1.00  0.00     0.065 H 
ATOM     82  H   UNL A   1      36.648  30.201  28.857  1.00  0.00     0.065 H 
ATOM     83  C   UNL A   1      38.359  31.957  30.313  1.00  0.00     0.037 A 
ATOM     84  C   UNL A   1      44.567  30.447  31.614  1.00  0.00     0.049 A 
ATOM     85  C   UNL A   1      39.473  32.687  31.011  1.00  0.00     0.074 A 
ATOM     86  C   UNL A   1      45.526  31.237  32.224  1.00  0.00    -0.036 A 
ATOM     87  N   UNL A   1      43.396  31.192  31.586  1.00  0.00    -0.354 N 
ATOM     88  N   UNL A   1      40.710  32.306  31.216  1.00  0.00    -0.248 NA
ATOM     89  C   UNL A   1      39.159  34.021  31.541  1.00  0.00    -0.034 C 
ATOM     90  C   UNL A   1      44.926  32.443  32.602  1.00  0.00    -0.036 A 
ATOM     91  H   UNL A   1      46.514  30.979  32.375  1.00  0.00     0.065 H 
ATOM     92  C   UNL A   1      43.604  32.423  32.188  1.00  0.00     0.049 A 
ATOM     93  H   UNL A   1      42.544  30.891  31.197  1.00  0.00     0.167 HD
ATOM     94  C   UNL A   1      41.328  33.358  31.880  1.00  0.00     0.074 A 
ATOM     95  C   UNL A   1      40.333  34.400  32.027  1.00  0.00    -0.034 C 
ATOM     96  H   UNL A   1      38.261  34.529  31.537  1.00  0.00     0.065 H 
ATOM     97  H   UNL A   1      45.390  33.216  33.104  1.00  0.00     0.065 H 
ATOM     98  C   UNL A   1      42.604  33.450  32.328  1.00  0.00     0.037 A 
ATOM     99  H   UNL A   1      40.515  35.322  32.454  1.00  0.00     0.065 H 
BRANCH  80 100
ATOM    100  C   UNL A   1      46.010  28.405  31.278  1.00  0.00     0.064 A 
ATOM    101  C   UNL A   1      46.177  27.407  32.250  1.00  0.00     0.173 A 
ATOM    102  C   UNL A   1      47.106  28.709  30.455  1.00  0.00     0.173 A 
ATOM    103  F   UNL A   1      45.164  27.087  33.070  1.00  0.00    -0.203 F 
ATOM    104  C   UNL A   1      47.399  26.760  32.411  1.00  0.00     0.198 A 
ATOM    105  C   UNL A   1      48.318  28.040  30.600  1.00  0.00     0.198 A 
ATOM    106  F   UNL A   1      46.999  29.651  29.507  1.00  0.00    -0.203 F 
ATOM    107  F   UNL A   1      47.548  25.844  33.379  1.00  0.00    -0.200 F 
ATOM    108  C   UNL A   1      48.466  27.072  31.583  1.00  0.00     0.200 A 
ATOM    109  F   UNL A   1      49.346  28.335  29.792  1.00  0.00    -0.200 F 
ATOM    110  F   UNL A   1      49.641  26.446  31.737  1.00  0.00    -0.200 F 
ENDBRANCH  80 100
BRANCH  83 111
ATOM    111  C   UNL A   1      37.012  32.567  30.180  1.00  0.00     0.064 A 
ATOM    112  C   UNL A   1      36.660  33.287  29.030  1.00  0.00     0.173 A 
ATOM    113  C   UNL A   1      36.049  32.435  31.190  1.00  0.00     0.173 A 
ATOM    114  F   UNL A   1      37.557  33.457  28.047  1.00  0.00    -0.203 F 
ATOM    115  C   UNL A   1      35.400  33.865  28.901  1.00  0.00     0.198 A 
ATOM    116  C   UNL A   1      34.780  32.992  31.049  1.00  0.00     0.198 A 
ATOM    117  F   UNL A   1      36.336  31.750  32.307  1.00  0.00    -0.203 F 
ATOM    118  F   UNL A   1      35.102  34.580  27.808  1.00  0.00    -0.200 F 
ATOM    119  C   UNL A   1      34.459  33.711  29.908  1.00  0.00     0.200 A 
ATOM    120  F   UNL A   1      33.868  32.830  32.017  1.00  0.00    -0.200 F 
ATOM    121  F   UNL A   1      33.243  34.261  29.780  1.00  0.00    -0.200 F 
ENDBRANCH  83 111
BRANCH  98 122
ATOM    122  C   UNL A   1      43.000  34.731  33.002  1.00  0.00     0.064 A 
ATOM    123  C   UNL A   1      42.959  34.870  34.397  1.00  0.00     0.173 A 
ATOM    124  C   UNL A   1      43.452  35.821  32.244  1.00  0.00     0.173 A 
ATOM    125  F   UNL A   1      42.518  33.860  35.163  1.00  0.00    -0.203 F 
ATOM    126  C   UNL A   1      43.331  36.064  35.007  1.00  0.00     0.198 A 
ATOM    127  C   UNL A   1      43.849  37.006  32.860  1.00  0.00     0.198 A 
ATOM    128  F   UNL A   1      43.515  35.738  30.906  1.00  0.00    -0.203 F 
ATOM    129  F   UNL A   1      43.239  36.192  36.338  1.00  0.00    -0.200 F 
ATOM    130  C   UNL A   1      43.781  37.129  34.239  1.00  0.00     0.200 A 
ATOM    131  F   UNL A   1      44.293  38.029  32.117  1.00  0.00    -0.200 F 
ATOM    132  F   UNL A   1      44.140  38.277  34.829  1.00  0.00    -0.200 F 
ENDBRANCH  98 122
ENDBRANCH  63  66
ENDBRANCH  53  56
ENDBRANCH  49  52
ENDBRANCH  46  49
ENDBRANCH  43  46
ENDBRANCH  40  43
ENDBRANCH   1  40
TORSDOF 19
ENDMDL
MODEL 10
REMARK VINA RESULT:     -10.5      4.910     10.468
REMARK SMILES CC(C)Cc1ccc([C@H](CF)C(=O)NCCCCCCNC(=O)c2ccc(-c3c4nc(c(-c5c(F)c(F)c(F)c(F)c5F)c5ccc([nH]5)c(-c5c(F)c(F)c(F)c(F)c5F)c5nc(c(-c6c(F)c(F)c(F)c(F)c6F)c6ccc3[nH]6)C=C5)C=C4)cc2)cc1
REMARK SMILES IDX 16 1 15 4 14 7 12 8 13 9 9 11 8 13 5 14 6 15 88 16 7 17
REMARK SMILES IDX 87 19 4 23 2 26 1 28 3 32 10 36 11 37 17 40 18 43 19 46
REMARK SMILES IDX 20 49 21 52 22 53 23 55 24 56 25 57 86 58 26 59 85 61 27 63
REMARK SMILES IDX 28 66 29 67 79 68 30 69 84 70 78 71 80 72 31 73 83 74 77 76
REMARK SMILES IDX 76 78 32 80 64 83 44 84 63 85 45 86 48 87 62 88 81 89 46 90
REMARK SMILES IDX 47 92 61 94 82 95 49 98 33 100 34 101 42 102 35 103 36 104
REMARK SMILES IDX 40 105 43 106 37 107 38 108 41 109 39 110 65 111 66 112
REMARK SMILES IDX 74 113 67 114 68 115 72 116 75 117 69 118 70 119 73 120
REMARK SMILES IDX 71 121 50 122 51 123 59 124 52 125 53 126 57 127 60 128
REMARK SMILES IDX 54 129 55 130 58 131 56 132
REMARK H PARENT 16 2 16 3 15 5 15 6 14 10 9 12 6 18 88 20 7 21 87 22 4 24 4 25
REMARK H PARENT 2 27 1 29 1 30 1 31 3 33 3 34 3 35 10 38 10 39 17 41 17 42
REMARK H PARENT 18 44 18 45 19 47 19 48 20 50 20 51 21 54 25 60 86 62 26 64
REMARK H PARENT 85 65 84 75 78 77 80 79 83 81 77 82 45 91 48 93 81 96 46 97
REMARK H PARENT 82 99
REMARK Flexibility Score: inf
ROOT
ATOM      1  C   UNL A   1      34.518  25.013  24.630  1.00  0.00    -0.036 C 
ATOM      2  H   UNL A   1      34.187  24.418  25.454  1.00  0.00     0.028 H 
ATOM      3  H   UNL A   1      35.433  25.531  24.826  1.00  0.00     0.028 H 
ENDROOT
BRANCH   1   4
ATOM      4  C   UNL A   1      33.464  26.084  24.363  1.00  0.00     0.017 C 
ATOM      5  H   UNL A   1      33.957  27.008  24.139  1.00  0.00     0.049 H 
ATOM      6  H   UNL A   1      32.862  25.762  23.539  1.00  0.00     0.049 H 
BRANCH   4   7
ATOM      7  N   UNL A   1      32.597  26.279  25.509  1.00  0.00    -0.355 N 
ATOM      8  C   UNL A   1      31.362  25.768  25.782  1.00  0.00     0.230 C 
ATOM      9  O   UNL A   1      30.860  26.051  26.874  1.00  0.00    -0.274 OA
ATOM     10  H   UNL A   1      32.958  26.875  26.204  1.00  0.00     0.163 HD
BRANCH   8  11
ATOM     11  C   UNL A   1      30.601  24.896  24.779  1.00  0.00     0.091 C 
ATOM     12  H   UNL A   1      29.652  24.575  25.153  1.00  0.00     0.048 H 
BRANCH  11  13
ATOM     13  C   UNL A   1      31.283  23.550  24.566  1.00  0.00    -0.033 A 
ATOM     14  C   UNL A   1      32.282  20.958  24.041  1.00  0.00    -0.048 A 
ATOM     15  C   UNL A   1      31.938  21.810  22.987  1.00  0.00    -0.059 A 
ATOM     16  C   UNL A   1      32.194  21.437  25.353  1.00  0.00    -0.059 A 
ATOM     17  C   UNL A   1      31.443  23.088  23.248  1.00  0.00    -0.058 A 
ATOM     18  H   UNL A   1      32.050  21.491  22.012  1.00  0.00     0.063 H 
ATOM     19  C   UNL A   1      31.719  22.727  25.612  1.00  0.00    -0.058 A 
ATOM     20  H   UNL A   1      32.482  20.832  26.138  1.00  0.00     0.063 H 
ATOM     21  H   UNL A   1      31.190  23.704  22.460  1.00  0.00     0.063 H 
ATOM     22  H   UNL A   1      31.691  23.076  26.583  1.00  0.00     0.063 H 
BRANCH  14  23
ATOM     23  C   UNL A   1      32.692  19.532  23.766  1.00  0.00    -0.026 C 
ATOM     24  H   UNL A   1      31.821  18.974  23.493  1.00  0.00     0.032 H 
ATOM     25  H   UNL A   1      33.416  19.553  22.978  1.00  0.00     0.032 H 
BRANCH  23  26
ATOM     26  C   UNL A   1      33.352  18.848  24.982  1.00  0.00    -0.043 C 
ATOM     27  H   UNL A   1      33.396  19.575  25.767  1.00  0.00     0.030 H 
BRANCH  26  28
ATOM     28  C   UNL A   1      32.537  17.658  25.499  1.00  0.00    -0.062 C 
ATOM     29  H   UNL A   1      31.521  17.755  25.179  1.00  0.00     0.023 H 
ATOM     30  H   UNL A   1      32.574  17.638  26.568  1.00  0.00     0.023 H 
ATOM     31  H   UNL A   1      32.948  16.749  25.111  1.00  0.00     0.023 H 
ENDBRANCH  26  28
BRANCH  26  32
ATOM     32  C   UNL A   1      34.762  18.380  24.614  1.00  0.00    -0.062 C 
ATOM     33  H   UNL A   1      34.832  17.320  24.748  1.00  0.00     0.023 H 
ATOM     34  H   UNL A   1      35.475  18.867  25.244  1.00  0.00     0.023 H 
ATOM     35  H   UNL A   1      34.963  18.624  23.592  1.00  0.00     0.023 H 
ENDBRANCH  26  32
ENDBRANCH  23  26
ENDBRANCH  14  23
ENDBRANCH  11  13
BRANCH  11  36
ATOM     36  C   UNL A   1      30.259  25.748  23.561  1.00  0.00     0.105 C 
ATOM     37  F   UNL A   1      29.295  26.653  23.890  1.00  0.00    -0.250 F 
ATOM     38  H   UNL A   1      29.901  25.117  22.773  1.00  0.00     0.064 H 
ATOM     39  H   UNL A   1      31.135  26.268  23.232  1.00  0.00     0.064 H 
ENDBRANCH  11  36
ENDBRANCH   8  11
ENDBRANCH   4   7
ENDBRANCH   1   4
BRANCH   1  40
ATOM     40  C   UNL A   1      34.794  24.080  23.447  1.00  0.00    -0.052 C 
ATOM     41  H   UNL A   1      34.880  24.681  22.566  1.00  0.00     0.027 H 
ATOM     42  H   UNL A   1      33.976  23.390  23.419  1.00  0.00     0.027 H 
BRANCH  40  43
ATOM     43  C   UNL A   1      36.062  23.227  23.563  1.00  0.00    -0.052 C 
ATOM     44  H   UNL A   1      36.823  23.830  24.015  1.00  0.00     0.027 H 
ATOM     45  H   UNL A   1      36.293  22.911  22.567  1.00  0.00     0.027 H 
BRANCH  43  46
ATOM     46  C   UNL A   1      35.926  21.944  24.387  1.00  0.00    -0.036 C 
ATOM     47  H   UNL A   1      36.341  21.139  23.817  1.00  0.00     0.028 H 
ATOM     48  H   UNL A   1      34.881  21.833  24.589  1.00  0.00     0.028 H 
BRANCH  46  49
ATOM     49  C   UNL A   1      36.619  21.962  25.747  1.00  0.00     0.018 C 
ATOM     50  H   UNL A   1      35.887  21.783  26.507  1.00  0.00     0.049 H 
ATOM     51  H   UNL A   1      37.081  22.920  25.861  1.00  0.00     0.049 H 
BRANCH  49  52
ATOM     52  N   UNL A   1      37.661  20.955  25.858  1.00  0.00    -0.352 N 
ATOM     53  C   UNL A   1      38.997  21.104  26.121  1.00  0.00     0.251 C 
ATOM     54  H   UNL A   1      37.362  20.027  25.723  1.00  0.00     0.163 HD
ATOM     55  O   UNL A   1      39.752  20.135  26.027  1.00  0.00    -0.269 OA
BRANCH  53  56
ATOM     56  C   UNL A   1      39.550  22.423  26.496  1.00  0.00     0.039 A 
ATOM     57  C   UNL A   1      40.539  22.478  27.484  1.00  0.00    -0.049 A 
ATOM     58  C   UNL A   1      39.084  23.604  25.909  1.00  0.00    -0.049 A 
ATOM     59  C   UNL A   1      41.097  23.706  27.844  1.00  0.00    -0.053 A 
ATOM     60  H   UNL A   1      40.855  21.611  27.946  1.00  0.00     0.063 H 
ATOM     61  C   UNL A   1      39.684  24.822  26.225  1.00  0.00    -0.053 A 
ATOM     62  H   UNL A   1      38.297  23.573  25.243  1.00  0.00     0.063 H 
ATOM     63  C   UNL A   1      40.694  24.886  27.197  1.00  0.00    -0.014 A 
ATOM     64  H   UNL A   1      41.810  23.747  28.589  1.00  0.00     0.063 H 
ATOM     65  H   UNL A   1      39.385  25.682  25.739  1.00  0.00     0.063 H 
BRANCH  63  66
ATOM     66  C   UNL A   1      41.325  26.188  27.529  1.00  0.00     0.031 A 
ATOM     67  C   UNL A   1      42.741  26.475  27.118  1.00  0.00     0.074 A 
ATOM     68  C   UNL A   1      40.637  27.094  28.249  1.00  0.00     0.049 A 
ATOM     69  N   UNL A   1      43.471  27.537  27.349  1.00  0.00    -0.248 NA
ATOM     70  C   UNL A   1      43.440  25.416  26.374  1.00  0.00    -0.034 C 
ATOM     71  C   UNL A   1      39.275  26.913  28.754  1.00  0.00    -0.036 A 
ATOM     72  N   UNL A   1      40.992  28.345  28.689  1.00  0.00    -0.354 N 
ATOM     73  C   UNL A   1      44.716  27.269  26.792  1.00  0.00     0.074 A 
ATOM     74  C   UNL A   1      44.657  25.927  26.254  1.00  0.00    -0.034 C 
ATOM     75  H   UNL A   1      43.078  24.512  26.033  1.00  0.00     0.065 H 
ATOM     76  C   UNL A   1      38.903  28.018  29.418  1.00  0.00    -0.036 A 
ATOM     77  H   UNL A   1      38.695  26.070  28.621  1.00  0.00     0.065 H 
ATOM     78  C   UNL A   1      40.006  28.974  29.409  1.00  0.00     0.049 A 
ATOM     79  H   UNL A   1      41.869  28.751  28.506  1.00  0.00     0.167 HD
ATOM     80  C   UNL A   1      45.800  28.079  26.719  1.00  0.00     0.037 A 
ATOM     81  H   UNL A   1      45.458  25.432  25.834  1.00  0.00     0.065 H 
ATOM     82  H   UNL A   1      37.984  28.168  29.864  1.00  0.00     0.065 H 
ATOM     83  C   UNL A   1      39.994  30.186  29.995  1.00  0.00     0.037 A 
ATOM     84  C   UNL A   1      45.847  29.424  27.227  1.00  0.00     0.049 A 
ATOM     85  C   UNL A   1      41.201  31.073  29.879  1.00  0.00     0.074 A 
ATOM     86  C   UNL A   1      46.874  30.348  27.135  1.00  0.00    -0.036 A 
ATOM     87  N   UNL A   1      44.818  30.039  27.927  1.00  0.00    -0.354 N 
ATOM     88  N   UNL A   1      42.346  30.838  29.283  1.00  0.00    -0.248 NA
ATOM     89  C   UNL A   1      41.112  32.400  30.505  1.00  0.00    -0.034 C 
ATOM     90  C   UNL A   1      46.482  31.508  27.814  1.00  0.00    -0.036 A 
ATOM     91  H   UNL A   1      47.773  30.205  26.650  1.00  0.00     0.065 H 
ATOM     92  C   UNL A   1      45.194  31.321  28.291  1.00  0.00     0.049 A 
ATOM     93  H   UNL A   1      43.950  29.625  28.135  1.00  0.00     0.167 HD
ATOM     94  C   UNL A   1      43.103  31.991  29.445  1.00  0.00     0.074 A 
ATOM     95  C   UNL A   1      42.281  32.931  30.179  1.00  0.00    -0.034 C 
ATOM     96  H   UNL A   1      40.341  32.809  31.055  1.00  0.00     0.065 H 
ATOM     97  H   UNL A   1      47.056  32.356  27.938  1.00  0.00     0.065 H 
ATOM     98  C   UNL A   1      44.366  32.246  29.024  1.00  0.00     0.037 A 
ATOM     99  H   UNL A   1      42.570  33.892  30.417  1.00  0.00     0.065 H 
BRANCH  80 100
ATOM    100  C   UNL A   1      47.030  27.526  26.059  1.00  0.00     0.064 A 
ATOM    101  C   UNL A   1      47.219  27.604  24.671  1.00  0.00     0.173 A 
ATOM    102  C   UNL A   1      48.047  26.937  26.826  1.00  0.00     0.173 A 
ATOM    103  F   UNL A   1      46.272  28.148  23.890  1.00  0.00    -0.203 F 
ATOM    104  C   UNL A   1      48.364  27.087  24.072  1.00  0.00     0.198 A 
ATOM    105  C   UNL A   1      49.204  26.446  26.227  1.00  0.00     0.198 A 
ATOM    106  F   UNL A   1      47.920  26.842  28.158  1.00  0.00    -0.203 F 
ATOM    107  F   UNL A   1      48.499  27.129  22.739  1.00  0.00    -0.200 F 
ATOM    108  C   UNL A   1      49.358  26.514  24.851  1.00  0.00     0.200 A 
ATOM    109  F   UNL A   1      50.169  25.903  26.982  1.00  0.00    -0.200 F 
ATOM    110  F   UNL A   1      50.462  26.020  24.273  1.00  0.00    -0.200 F 
ENDBRANCH  80 100
BRANCH  83 111
ATOM    111  C   UNL A   1      38.779  30.641  30.718  1.00  0.00     0.064 A 
ATOM    112  C   UNL A   1      37.709  31.224  30.026  1.00  0.00     0.173 A 
ATOM    113  C   UNL A   1      38.659  30.495  32.106  1.00  0.00     0.173 A 
ATOM    114  F   UNL A   1      37.789  31.404  28.699  1.00  0.00    -0.203 F 
ATOM    115  C   UNL A   1      36.568  31.657  30.698  1.00  0.00     0.198 A 
ATOM    116  C   UNL A   1      37.507  30.905  32.775  1.00  0.00     0.198 A 
ATOM    117  F   UNL A   1      39.653  29.938  32.812  1.00  0.00    -0.203 F 
ATOM    118  F   UNL A   1      35.575  32.245  30.018  1.00  0.00    -0.200 F 
ATOM    119  C   UNL A   1      36.466  31.491  32.071  1.00  0.00     0.200 A 
ATOM    120  F   UNL A   1      37.405  30.731  34.099  1.00  0.00    -0.200 F 
ATOM    121  F   UNL A   1      35.365  31.901  32.716  1.00  0.00    -0.200 F 
ENDBRANCH  83 111
BRANCH  98 122
ATOM    122  C   UNL A   1      44.928  33.603  29.330  1.00  0.00     0.064 A 
ATOM    123  C   UNL A   1      45.667  33.844  30.498  1.00  0.00     0.173 A 
ATOM    124  C   UNL A   1      44.748  34.665  28.433  1.00  0.00     0.173 A 
ATOM    125  F   UNL A   1      45.851  32.864  31.395  1.00  0.00    -0.203 F 
ATOM    126  C   UNL A   1      46.182  35.109  30.769  1.00  0.00     0.198 A 
ATOM    127  C   UNL A   1      45.288  35.922  28.693  1.00  0.00     0.198 A 
ATOM    128  F   UNL A   1      44.054  34.484  27.299  1.00  0.00    -0.203 F 
ATOM    129  F   UNL A   1      46.844  35.330  31.913  1.00  0.00    -0.200 F 
ATOM    130  C   UNL A   1      45.998  36.145  29.864  1.00  0.00     0.200 A 
ATOM    131  F   UNL A   1      45.118  36.918  27.813  1.00  0.00    -0.200 F 
ATOM    132  F   UNL A   1      46.496  37.360  30.125  1.00  0.00    -0.200 F 
ENDBRANCH  98 122
ENDBRANCH  63  66
ENDBRANCH  53  56
ENDBRANCH  49  52
ENDBRANCH  46  49
ENDBRANCH  43  46
ENDBRANCH  40  43
ENDBRANCH   1  40
TORSDOF 19
ENDMDL
