MODEL 1
REMARK VINA RESULT:     -12.3      0.000      0.000
REMARK SMILES CC(=O)Nc1ccc(/C(=C\c2ccc(S(C)(=O)=O)cc2)C(=O)NCCCCCCNC(=O)c2ccc(-c3c4nc(c(-c5c(F)c(F)c(F)c(F)c5F)c5ccc([nH]5)c(-c5c(F)c(F)c(F)c(F)c5F)c5nc(c(-c6c(F)c(F)c(F)c(F)c6F)c6ccc3[nH]6)C=C5)C=C4)cc2)cc1
REMARK SMILES IDX 26 1 25 4 24 7 23 10 21 11 22 12 9 14 10 15 8 17 5 18 6 19
REMARK SMILES IDX 97 20 7 21 96 23 4 27 2 28 3 29 1 31 11 35 12 36 20 37 13 38
REMARK SMILES IDX 19 40 14 42 15 45 17 46 18 47 16 48 27 52 28 55 29 58 30 61
REMARK SMILES IDX 31 62 32 64 33 65 34 66 95 67 35 68 94 70 36 72 37 75 38 76
REMARK SMILES IDX 88 77 39 78 93 79 87 80 89 81 40 82 92 83 86 85 85 87 41 89
REMARK SMILES IDX 73 92 53 93 72 94 54 95 57 96 71 97 90 98 55 99 56 101
REMARK SMILES IDX 70 103 91 104 58 107 42 109 43 110 51 111 44 112 45 113
REMARK SMILES IDX 49 114 52 115 46 116 47 117 50 118 48 119 74 120 75 121
REMARK SMILES IDX 83 122 76 123 77 124 81 125 84 126 78 127 79 128 82 129
REMARK SMILES IDX 80 130 59 131 60 132 68 133 61 134 62 135 66 136 69 137
REMARK SMILES IDX 63 138 64 139 67 140 65 141
REMARK H PARENT 26 2 26 3 25 5 25 6 24 8 24 9 23 13 10 16 6 22 97 24 7 25
REMARK H PARENT 96 26 4 30 1 32 1 33 1 34 12 39 20 41 13 43 19 44 16 49 16 50
REMARK H PARENT 16 51 27 53 27 54 28 56 28 57 29 59 29 60 30 63 34 69 95 71
REMARK H PARENT 35 73 94 74 93 84 87 86 89 88 92 90 86 91 54 100 57 102 90 105
REMARK H PARENT 55 106 91 108
REMARK Flexibility Score: inf
ROOT
ATOM      1  C   UNL A   1      31.741  25.939  26.043  1.00  0.00    -0.052 C 
ATOM      2  H   UNL A   1      32.059  24.942  25.820  1.00  0.00     0.027 H 
ATOM      3  H   UNL A   1      31.297  26.036  27.012  1.00  0.00     0.027 H 
ENDROOT
BRANCH   1   4
ATOM      4  C   UNL A   1      30.653  26.330  25.029  1.00  0.00    -0.036 C 
ATOM      5  H   UNL A   1      29.730  26.456  25.554  1.00  0.00     0.028 H 
ATOM      6  H   UNL A   1      30.975  27.232  24.554  1.00  0.00     0.028 H 
BRANCH   4   7
ATOM      7  C   UNL A   1      30.445  25.288  23.926  1.00  0.00     0.018 C 
ATOM      8  H   UNL A   1      30.504  24.306  24.348  1.00  0.00     0.049 H 
ATOM      9  H   UNL A   1      29.482  25.429  23.480  1.00  0.00     0.049 H 
BRANCH   7  10
ATOM     10  N   UNL A   1      31.469  25.438  22.915  1.00  0.00    -0.352 N 
ATOM     11  C   UNL A   1      32.602  24.778  22.564  1.00  0.00     0.251 C 
ATOM     12  O   UNL A   1      33.209  25.319  21.636  1.00  0.00    -0.269 OA
ATOM     13  H   UNL A   1      31.302  26.215  22.335  1.00  0.00     0.163 HD
BRANCH  11  14
ATOM     14  C   UNL A   1      33.069  23.454  23.168  1.00  0.00     0.047 C 
ATOM     15  C   UNL A   1      32.182  22.436  23.278  1.00  0.00    -0.042 C 
ATOM     16  H   UNL A   1      31.195  22.689  23.119  1.00  0.00     0.064 H 
BRANCH  14  17
ATOM     17  C   UNL A   1      34.438  23.379  23.807  1.00  0.00    -0.013 A 
ATOM     18  C   UNL A   1      36.811  22.779  25.280  1.00  0.00     0.041 A 
ATOM     19  C   UNL A   1      36.743  22.546  23.906  1.00  0.00    -0.038 A 
ATOM     20  C   UNL A   1      35.767  23.469  25.870  1.00  0.00    -0.038 A 
ATOM     21  C   UNL A   1      35.584  22.874  23.175  1.00  0.00    -0.052 A 
ATOM     22  H   UNL A   1      37.551  22.128  23.419  1.00  0.00     0.064 H 
ATOM     23  C   UNL A   1      34.593  23.724  25.158  1.00  0.00    -0.052 A 
ATOM     24  H   UNL A   1      35.857  23.800  26.843  1.00  0.00     0.064 H 
ATOM     25  H   UNL A   1      35.579  22.740  22.152  1.00  0.00     0.063 H 
ATOM     26  H   UNL A   1      33.807  24.185  25.644  1.00  0.00     0.063 H 
BRANCH  18  27
ATOM     27  N   UNL A   1      37.927  22.296  25.984  1.00  0.00    -0.326 N 
ATOM     28  C   UNL A   1      39.022  22.931  26.502  1.00  0.00     0.221 C 
ATOM     29  O   UNL A   1      39.910  22.247  27.017  1.00  0.00    -0.275 OA
ATOM     30  H   UNL A   1      37.920  21.322  26.129  1.00  0.00     0.169 HD
BRANCH  28  31
ATOM     31  C   UNL A   1      39.133  24.433  26.501  1.00  0.00     0.015 C 
ATOM     32  H   UNL A   1      38.209  24.859  26.173  1.00  0.00     0.033 H 
ATOM     33  H   UNL A   1      39.919  24.732  25.839  1.00  0.00     0.033 H 
ATOM     34  H   UNL A   1      39.352  24.775  27.492  1.00  0.00     0.033 H 
ENDBRANCH  28  31
ENDBRANCH  18  27
ENDBRANCH  14  17
BRANCH  15  35
ATOM     35  C   UNL A   1      32.429  21.020  23.590  1.00  0.00    -0.025 A 
ATOM     36  C   UNL A   1      32.153  20.079  22.581  1.00  0.00    -0.054 A 
ATOM     37  C   UNL A   1      32.988  20.594  24.797  1.00  0.00    -0.054 A 
ATOM     38  C   UNL A   1      32.490  18.736  22.751  1.00  0.00    -0.043 A 
ATOM     39  H   UNL A   1      31.697  20.384  21.708  1.00  0.00     0.063 H 
ATOM     40  C   UNL A   1      33.329  19.247  24.972  1.00  0.00    -0.043 A 
ATOM     41  H   UNL A   1      33.148  21.271  25.560  1.00  0.00     0.063 H 
ATOM     42  C   UNL A   1      33.090  18.330  23.944  1.00  0.00     0.067 A 
ATOM     43  H   UNL A   1      32.300  18.051  22.003  1.00  0.00     0.064 H 
ATOM     44  H   UNL A   1      33.757  18.933  25.858  1.00  0.00     0.064 H 
BRANCH  42  45
ATOM     45  S   UNL A   1      33.674  16.654  24.084  1.00  0.00     0.175 S 
ATOM     46  O   UNL A   1      32.697  15.932  24.876  1.00  0.00    -0.224 OA
ATOM     47  O   UNL A   1      34.031  16.203  22.752  1.00  0.00    -0.224 OA
BRANCH  45  48
ATOM     48  C   UNL A   1      35.163  16.793  25.032  1.00  0.00     0.043 C 
ATOM     49  H   UNL A   1      34.999  16.403  26.014  1.00  0.00     0.040 H 
ATOM     50  H   UNL A   1      35.449  17.821  25.099  1.00  0.00     0.040 H 
ATOM     51  H   UNL A   1      35.944  16.236  24.554  1.00  0.00     0.040 H 
ENDBRANCH  45  48
ENDBRANCH  42  45
ENDBRANCH  15  35
ENDBRANCH  11  14
ENDBRANCH   7  10
ENDBRANCH   4   7
ENDBRANCH   1   4
BRANCH   1  52
ATOM     52  C   UNL A   1      32.978  26.844  26.045  1.00  0.00    -0.052 C 
ATOM     53  H   UNL A   1      33.847  26.221  26.101  1.00  0.00     0.027 H 
ATOM     54  H   UNL A   1      32.875  27.497  26.886  1.00  0.00     0.027 H 
BRANCH  52  55
ATOM     55  C   UNL A   1      33.116  27.743  24.815  1.00  0.00    -0.036 C 
ATOM     56  H   UNL A   1      32.139  28.070  24.525  1.00  0.00     0.028 H 
ATOM     57  H   UNL A   1      33.599  27.162  24.058  1.00  0.00     0.028 H 
BRANCH  55  58
ATOM     58  C   UNL A   1      33.984  28.976  25.042  1.00  0.00     0.018 C 
ATOM     59  H   UNL A   1      34.405  29.281  24.106  1.00  0.00     0.049 H 
ATOM     60  H   UNL A   1      34.752  28.720  25.742  1.00  0.00     0.049 H 
BRANCH  58  61
ATOM     61  N   UNL A   1      33.215  30.078  25.595  1.00  0.00    -0.352 N 
ATOM     62  C   UNL A   1      33.394  30.750  26.777  1.00  0.00     0.251 C 
ATOM     63  H   UNL A   1      32.459  30.386  25.044  1.00  0.00     0.163 HD
ATOM     64  O   UNL A   1      32.523  31.500  27.203  1.00  0.00    -0.269 OA
BRANCH  62  65
ATOM     65  C   UNL A   1      34.643  30.559  27.544  1.00  0.00     0.039 A 
ATOM     66  C   UNL A   1      35.546  31.621  27.641  1.00  0.00    -0.049 A 
ATOM     67  C   UNL A   1      34.933  29.329  28.143  1.00  0.00    -0.049 A 
ATOM     68  C   UNL A   1      36.724  31.461  28.374  1.00  0.00    -0.053 A 
ATOM     69  H   UNL A   1      35.345  32.519  27.174  1.00  0.00     0.063 H 
ATOM     70  C   UNL A   1      36.070  29.195  28.933  1.00  0.00    -0.053 A 
ATOM     71  H   UNL A   1      34.304  28.524  27.999  1.00  0.00     0.063 H 
ATOM     72  C   UNL A   1      36.984  30.254  29.044  1.00  0.00    -0.014 A 
ATOM     73  H   UNL A   1      37.406  32.233  28.424  1.00  0.00     0.063 H 
ATOM     74  H   UNL A   1      36.242  28.313  29.441  1.00  0.00     0.063 H 
BRANCH  72  75
ATOM     75  C   UNL A   1      38.224  30.065  29.835  1.00  0.00     0.031 A 
ATOM     76  C   UNL A   1      39.354  29.247  29.275  1.00  0.00     0.074 A 
ATOM     77  C   UNL A   1      38.311  30.579  31.077  1.00  0.00     0.049 A 
ATOM     78  N   UNL A   1      40.486  28.901  29.834  1.00  0.00    -0.248 NA
ATOM     79  C   UNL A   1      39.174  28.720  27.912  1.00  0.00    -0.034 C 
ATOM     80  C   UNL A   1      37.266  31.356  31.746  1.00  0.00    -0.036 A 
ATOM     81  N   UNL A   1      39.322  30.517  32.002  1.00  0.00    -0.354 N 
ATOM     82  C   UNL A   1      41.141  28.108  28.902  1.00  0.00     0.074 A 
ATOM     83  C   UNL A   1      40.258  27.975  27.764  1.00  0.00    -0.034 C 
ATOM     84  H   UNL A   1      38.404  28.889  27.245  1.00  0.00     0.065 H 
ATOM     85  C   UNL A   1      37.697  31.715  32.965  1.00  0.00    -0.036 A 
ATOM     86  H   UNL A   1      36.345  31.590  31.343  1.00  0.00     0.065 H 
ATOM     87  C   UNL A   1      39.033  31.164  33.178  1.00  0.00     0.049 A 
ATOM     88  H   UNL A   1      40.174  30.052  31.839  1.00  0.00     0.167 HD
ATOM     89  C   UNL A   1      42.378  27.560  28.977  1.00  0.00     0.037 A 
ATOM     90  H   UNL A   1      40.448  27.376  26.944  1.00  0.00     0.065 H 
ATOM     91  H   UNL A   1      37.171  32.288  33.642  1.00  0.00     0.065 H 
ATOM     92  C   UNL A   1      39.761  31.291  34.304  1.00  0.00     0.037 A 
ATOM     93  C   UNL A   1      43.264  27.722  30.100  1.00  0.00     0.049 A 
ATOM     94  C   UNL A   1      41.131  30.672  34.364  1.00  0.00     0.074 A 
ATOM     95  C   UNL A   1      44.558  27.256  30.252  1.00  0.00    -0.036 A 
ATOM     96  N   UNL A   1      42.944  28.404  31.265  1.00  0.00    -0.354 N 
ATOM     97  N   UNL A   1      41.767  29.976  33.452  1.00  0.00    -0.248 NA
ATOM     98  C   UNL A   1      41.890  30.863  35.607  1.00  0.00    -0.034 C 
ATOM     99  C   UNL A   1      45.005  27.617  31.528  1.00  0.00    -0.036 A 
ATOM    100  H   UNL A   1      45.100  26.734  29.546  1.00  0.00     0.065 H 
ATOM    101  C   UNL A   1      44.009  28.353  32.150  1.00  0.00     0.049 A 
ATOM    102  H   UNL A   1      42.087  28.856  31.438  1.00  0.00     0.167 HD
ATOM    103  C   UNL A   1      43.009  29.675  33.995  1.00  0.00     0.074 A 
ATOM    104  C   UNL A   1      43.042  30.275  35.313  1.00  0.00    -0.034 C 
ATOM    105  H   UNL A   1      41.604  31.332  36.480  1.00  0.00     0.065 H 
ATOM    106  H   UNL A   1      45.920  27.375  31.936  1.00  0.00     0.065 H 
ATOM    107  C   UNL A   1      44.029  28.967  33.453  1.00  0.00     0.037 A 
ATOM    108  H   UNL A   1      43.858  30.248  35.944  1.00  0.00     0.065 H 
BRANCH  89 109
ATOM    109  C   UNL A   1      42.847  26.738  27.811  1.00  0.00     0.064 A 
ATOM    110  C   UNL A   1      43.617  27.295  26.778  1.00  0.00     0.173 A 
ATOM    111  C   UNL A   1      42.549  25.369  27.740  1.00  0.00     0.173 A 
ATOM    112  F   UNL A   1      43.920  28.602  26.792  1.00  0.00    -0.203 F 
ATOM    113  C   UNL A   1      44.044  26.520  25.704  1.00  0.00     0.198 A 
ATOM    114  C   UNL A   1      43.005  24.590  26.679  1.00  0.00     0.198 A 
ATOM    115  F   UNL A   1      41.820  24.784  28.702  1.00  0.00    -0.203 F 
ATOM    116  F   UNL A   1      44.732  27.086  24.703  1.00  0.00    -0.200 F 
ATOM    117  C   UNL A   1      43.744  25.167  25.658  1.00  0.00     0.200 A 
ATOM    118  F   UNL A   1      42.725  23.280  26.645  1.00  0.00    -0.200 F 
ATOM    119  F   UNL A   1      44.161  24.421  24.626  1.00  0.00    -0.200 F 
ENDBRANCH  89 109
BRANCH  92 120
ATOM    120  C   UNL A   1      39.220  32.057  35.457  1.00  0.00     0.064 A 
ATOM    121  C   UNL A   1      39.482  33.428  35.597  1.00  0.00     0.173 A 
ATOM    122  C   UNL A   1      38.438  31.439  36.443  1.00  0.00     0.173 A 
ATOM    123  F   UNL A   1      40.241  34.059  34.689  1.00  0.00    -0.203 F 
ATOM    124  C   UNL A   1      39.003  34.145  36.690  1.00  0.00     0.198 A 
ATOM    125  C   UNL A   1      37.935  32.165  37.521  1.00  0.00     0.198 A 
ATOM    126  F   UNL A   1      38.153  30.132  36.353  1.00  0.00    -0.203 F 
ATOM    127  F   UNL A   1      39.308  35.442  36.824  1.00  0.00    -0.200 F 
ATOM    128  C   UNL A   1      38.225  33.514  37.649  1.00  0.00     0.200 A 
ATOM    129  F   UNL A   1      37.171  31.553  38.438  1.00  0.00    -0.200 F 
ATOM    130  F   UNL A   1      37.761  34.205  38.700  1.00  0.00    -0.200 F 
ENDBRANCH  92 120
BRANCH 107 131
ATOM    131  C   UNL A   1      45.285  28.837  34.265  1.00  0.00     0.064 A 
ATOM    132  C   UNL A   1      45.487  27.762  35.143  1.00  0.00     0.173 A 
ATOM    133  C   UNL A   1      46.317  29.778  34.129  1.00  0.00     0.173 A 
ATOM    134  F   UNL A   1      44.526  26.844  35.320  1.00  0.00    -0.203 F 
ATOM    135  C   UNL A   1      46.667  27.650  35.876  1.00  0.00     0.198 A 
ATOM    136  C   UNL A   1      47.507  29.646  34.839  1.00  0.00     0.198 A 
ATOM    137  F   UNL A   1      46.175  30.820  33.296  1.00  0.00    -0.203 F 
ATOM    138  F   UNL A   1      46.819  26.642  36.745  1.00  0.00    -0.200 F 
ATOM    139  C   UNL A   1      47.677  28.586  35.716  1.00  0.00     0.200 A 
ATOM    140  F   UNL A   1      48.488  30.543  34.672  1.00  0.00    -0.200 F 
ATOM    141  F   UNL A   1      48.815  28.471  36.415  1.00  0.00    -0.200 F 
ENDBRANCH 107 131
ENDBRANCH  72  75
ENDBRANCH  62  65
ENDBRANCH  58  61
ENDBRANCH  55  58
ENDBRANCH  52  55
ENDBRANCH   1  52
TORSDOF 19
ENDMDL
MODEL 2
REMARK VINA RESULT:     -12.3      0.151      1.533
REMARK SMILES CC(=O)Nc1ccc(/C(=C\c2ccc(S(C)(=O)=O)cc2)C(=O)NCCCCCCNC(=O)c2ccc(-c3c4nc(c(-c5c(F)c(F)c(F)c(F)c5F)c5ccc([nH]5)c(-c5c(F)c(F)c(F)c(F)c5F)c5nc(c(-c6c(F)c(F)c(F)c(F)c6F)c6ccc3[nH]6)C=C5)C=C4)cc2)cc1
REMARK SMILES IDX 26 1 25 4 24 7 23 10 21 11 22 12 9 14 10 15 8 17 5 18 6 19
REMARK SMILES IDX 97 20 7 21 96 23 4 27 2 28 3 29 1 31 11 35 12 36 20 37 13 38
REMARK SMILES IDX 19 40 14 42 15 45 17 46 18 47 16 48 27 52 28 55 29 58 30 61
REMARK SMILES IDX 31 62 32 64 33 65 34 66 95 67 35 68 94 70 36 72 37 75 38 76
REMARK SMILES IDX 88 77 39 78 93 79 87 80 89 81 40 82 92 83 86 85 85 87 41 89
REMARK SMILES IDX 73 92 53 93 72 94 54 95 57 96 71 97 90 98 55 99 56 101
REMARK SMILES IDX 70 103 91 104 58 107 42 109 43 110 51 111 44 112 45 113
REMARK SMILES IDX 49 114 52 115 46 116 47 117 50 118 48 119 74 120 75 121
REMARK SMILES IDX 83 122 76 123 77 124 81 125 84 126 78 127 79 128 82 129
REMARK SMILES IDX 80 130 59 131 60 132 68 133 61 134 62 135 66 136 69 137
REMARK SMILES IDX 63 138 64 139 67 140 65 141
REMARK H PARENT 26 2 26 3 25 5 25 6 24 8 24 9 23 13 10 16 6 22 97 24 7 25
REMARK H PARENT 96 26 4 30 1 32 1 33 1 34 12 39 20 41 13 43 19 44 16 49 16 50
REMARK H PARENT 16 51 27 53 27 54 28 56 28 57 29 59 29 60 30 63 34 69 95 71
REMARK H PARENT 35 73 94 74 93 84 87 86 89 88 92 90 86 91 54 100 57 102 90 105
REMARK H PARENT 55 106 91 108
REMARK Flexibility Score: inf
ROOT
ATOM      1  C   UNL A   1      31.483  26.479  25.972  1.00  0.00    -0.052 C 
ATOM      2  H   UNL A   1      31.495  25.435  26.209  1.00  0.00     0.027 H 
ATOM      3  H   UNL A   1      31.026  27.081  26.729  1.00  0.00     0.027 H 
ENDROOT
BRANCH   1   4
ATOM      4  C   UNL A   1      30.635  26.668  24.702  1.00  0.00    -0.036 C 
ATOM      5  H   UNL A   1      29.642  26.937  24.996  1.00  0.00     0.028 H 
ATOM      6  H   UNL A   1      31.106  27.432  24.121  1.00  0.00     0.028 H 
BRANCH   4   7
ATOM      7  C   UNL A   1      30.560  25.414  23.826  1.00  0.00     0.018 C 
ATOM      8  H   UNL A   1      30.747  24.549  24.428  1.00  0.00     0.049 H 
ATOM      9  H   UNL A   1      29.586  25.344  23.389  1.00  0.00     0.049 H 
BRANCH   7  10
ATOM     10  N   UNL A   1      31.553  25.494  22.777  1.00  0.00    -0.352 N 
ATOM     11  C   UNL A   1      32.653  24.786  22.416  1.00  0.00     0.251 C 
ATOM     12  O   UNL A   1      33.243  25.271  21.447  1.00  0.00    -0.269 OA
ATOM     13  H   UNL A   1      31.389  26.252  22.172  1.00  0.00     0.163 HD
BRANCH  11  14
ATOM     14  C   UNL A   1      33.102  23.473  23.056  1.00  0.00     0.047 C 
ATOM     15  C   UNL A   1      32.214  22.454  23.150  1.00  0.00    -0.042 C 
ATOM     16  H   UNL A   1      31.232  22.702  22.953  1.00  0.00     0.064 H 
BRANCH  14  17
ATOM     17  C   UNL A   1      34.447  23.412  23.745  1.00  0.00    -0.013 A 
ATOM     18  C   UNL A   1      36.772  22.834  25.301  1.00  0.00     0.041 A 
ATOM     19  C   UNL A   1      36.758  22.607  23.924  1.00  0.00    -0.038 A 
ATOM     20  C   UNL A   1      35.699  23.508  25.855  1.00  0.00    -0.038 A 
ATOM     21  C   UNL A   1      35.622  22.924  23.153  1.00  0.00    -0.052 A 
ATOM     22  H   UNL A   1      37.588  22.202  23.466  1.00  0.00     0.064 H 
ATOM     23  C   UNL A   1      34.548  23.751  25.102  1.00  0.00    -0.052 A 
ATOM     24  H   UNL A   1      35.749  23.835  26.833  1.00  0.00     0.064 H 
ATOM     25  H   UNL A   1      35.656  22.796  22.129  1.00  0.00     0.063 H 
ATOM     26  H   UNL A   1      33.739  24.200  25.561  1.00  0.00     0.063 H 
BRANCH  18  27
ATOM     27  N   UNL A   1      37.867  22.361  26.043  1.00  0.00    -0.326 N 
ATOM     28  C   UNL A   1      38.963  22.998  26.556  1.00  0.00     0.221 C 
ATOM     29  O   UNL A   1      39.831  22.322  27.114  1.00  0.00    -0.275 OA
ATOM     30  H   UNL A   1      37.842  21.394  26.225  1.00  0.00     0.169 HD
BRANCH  28  31
ATOM     31  C   UNL A   1      39.098  24.498  26.501  1.00  0.00     0.015 C 
ATOM     32  H   UNL A   1      38.477  24.940  27.251  1.00  0.00     0.033 H 
ATOM     33  H   UNL A   1      38.796  24.848  25.535  1.00  0.00     0.033 H 
ATOM     34  H   UNL A   1      40.118  24.771  26.675  1.00  0.00     0.033 H 
ENDBRANCH  28  31
ENDBRANCH  18  27
ENDBRANCH  14  17
BRANCH  15  35
ATOM     35  C   UNL A   1      32.453  21.044  23.493  1.00  0.00    -0.025 A 
ATOM     36  C   UNL A   1      32.153  20.081  22.511  1.00  0.00    -0.054 A 
ATOM     37  C   UNL A   1      33.026  20.642  24.701  1.00  0.00    -0.054 A 
ATOM     38  C   UNL A   1      32.481  18.739  22.708  1.00  0.00    -0.043 A 
ATOM     39  H   UNL A   1      31.686  20.370  21.638  1.00  0.00     0.063 H 
ATOM     40  C   UNL A   1      33.358  19.296  24.904  1.00  0.00    -0.043 A 
ATOM     41  H   UNL A   1      33.204  21.335  25.445  1.00  0.00     0.063 H 
ATOM     42  C   UNL A   1      33.095  18.357  23.902  1.00  0.00     0.067 A 
ATOM     43  H   UNL A   1      32.273  18.039  21.980  1.00  0.00     0.064 H 
ATOM     44  H   UNL A   1      33.797  18.999  25.790  1.00  0.00     0.064 H 
BRANCH  42  45
ATOM     45  S   UNL A   1      33.666  16.679  24.073  1.00  0.00     0.175 S 
ATOM     46  O   UNL A   1      32.680  15.978  24.872  1.00  0.00    -0.224 OA
ATOM     47  O   UNL A   1      34.027  16.203  22.752  1.00  0.00    -0.224 OA
BRANCH  45  48
ATOM     48  C   UNL A   1      35.151  16.823  25.028  1.00  0.00     0.043 C 
ATOM     49  H   UNL A   1      35.035  16.296  25.951  1.00  0.00     0.040 H 
ATOM     50  H   UNL A   1      35.347  17.856  25.228  1.00  0.00     0.040 H 
ATOM     51  H   UNL A   1      35.970  16.405  24.479  1.00  0.00     0.040 H 
ENDBRANCH  45  48
ENDBRANCH  42  45
ENDBRANCH  15  35
ENDBRANCH  11  14
ENDBRANCH   7  10
ENDBRANCH   4   7
ENDBRANCH   1   4
BRANCH   1  52
ATOM     52  C   UNL A   1      32.934  26.959  25.858  1.00  0.00    -0.052 C 
ATOM     53  H   UNL A   1      33.570  26.098  25.838  1.00  0.00     0.027 H 
ATOM     54  H   UNL A   1      33.111  27.592  26.702  1.00  0.00     0.027 H 
BRANCH  52  55
ATOM     55  C   UNL A   1      33.235  27.800  24.616  1.00  0.00    -0.036 C 
ATOM     56  H   UNL A   1      32.305  28.097  24.177  1.00  0.00     0.028 H 
ATOM     57  H   UNL A   1      33.824  27.192  23.963  1.00  0.00     0.028 H 
BRANCH  55  58
ATOM     58  C   UNL A   1      34.051  29.056  24.900  1.00  0.00     0.018 C 
ATOM     59  H   UNL A   1      34.455  29.423  23.980  1.00  0.00     0.049 H 
ATOM     60  H   UNL A   1      34.832  28.799  25.585  1.00  0.00     0.049 H 
BRANCH  58  61
ATOM     61  N   UNL A   1      33.239  30.097  25.508  1.00  0.00    -0.352 N 
ATOM     62  C   UNL A   1      33.380  30.700  26.731  1.00  0.00     0.251 C 
ATOM     63  H   UNL A   1      32.481  30.413  24.965  1.00  0.00     0.163 HD
ATOM     64  O   UNL A   1      32.479  31.394  27.189  1.00  0.00    -0.269 OA
BRANCH  62  65
ATOM     65  C   UNL A   1      34.624  30.503  27.504  1.00  0.00     0.039 A 
ATOM     66  C   UNL A   1      35.519  31.569  27.630  1.00  0.00    -0.049 A 
ATOM     67  C   UNL A   1      34.918  29.263  28.081  1.00  0.00    -0.049 A 
ATOM     68  C   UNL A   1      36.691  31.403  28.369  1.00  0.00    -0.053 A 
ATOM     69  H   UNL A   1      35.314  32.474  27.179  1.00  0.00     0.063 H 
ATOM     70  C   UNL A   1      36.049  29.121  28.877  1.00  0.00    -0.053 A 
ATOM     71  H   UNL A   1      34.297  28.456  27.915  1.00  0.00     0.063 H 
ATOM     72  C   UNL A   1      36.955  30.183  29.016  1.00  0.00    -0.014 A 
ATOM     73  H   UNL A   1      37.368  32.178  28.440  1.00  0.00     0.063 H 
ATOM     74  H   UNL A   1      36.224  28.230  29.368  1.00  0.00     0.063 H 
BRANCH  72  75
ATOM     75  C   UNL A   1      38.191  29.988  29.814  1.00  0.00     0.031 A 
ATOM     76  C   UNL A   1      39.313  29.153  29.264  1.00  0.00     0.074 A 
ATOM     77  C   UNL A   1      38.278  30.511  31.052  1.00  0.00     0.049 A 
ATOM     78  N   UNL A   1      40.439  28.799  29.830  1.00  0.00    -0.248 NA
ATOM     79  C   UNL A   1      39.132  28.616  27.905  1.00  0.00    -0.034 C 
ATOM     80  C   UNL A   1      37.240  31.305  31.710  1.00  0.00    -0.036 A 
ATOM     81  N   UNL A   1      39.286  30.445  31.981  1.00  0.00    -0.354 N 
ATOM     82  C   UNL A   1      41.089  27.990  28.907  1.00  0.00     0.074 A 
ATOM     83  C   UNL A   1      40.208  27.858  27.767  1.00  0.00    -0.034 C 
ATOM     84  H   UNL A   1      38.367  28.788  27.234  1.00  0.00     0.065 H 
ATOM     85  C   UNL A   1      37.671  31.669  32.928  1.00  0.00    -0.036 A 
ATOM     86  H   UNL A   1      36.323  31.546  31.302  1.00  0.00     0.065 H 
ATOM     87  C   UNL A   1      38.999  31.105  33.151  1.00  0.00     0.049 A 
ATOM     88  H   UNL A   1      40.133  29.969  31.824  1.00  0.00     0.167 HD
ATOM     89  C   UNL A   1      42.319  27.430  28.991  1.00  0.00     0.037 A 
ATOM     90  H   UNL A   1      40.394  27.251  26.953  1.00  0.00     0.065 H 
ATOM     91  H   UNL A   1      37.148  32.254  33.598  1.00  0.00     0.065 H 
ATOM     92  C   UNL A   1      39.725  31.234  34.278  1.00  0.00     0.037 A 
ATOM     93  C   UNL A   1      43.202  27.591  30.116  1.00  0.00     0.049 A 
ATOM     94  C   UNL A   1      41.088  30.599  34.348  1.00  0.00     0.074 A 
ATOM     95  C   UNL A   1      44.491  27.113  30.277  1.00  0.00    -0.036 A 
ATOM     96  N   UNL A   1      42.886  28.286  31.275  1.00  0.00    -0.354 N 
ATOM     97  N   UNL A   1      41.719  29.889  33.444  1.00  0.00    -0.248 NA
ATOM     98  C   UNL A   1      41.845  30.793  35.592  1.00  0.00    -0.034 C 
ATOM     99  C   UNL A   1      44.937  27.479  31.551  1.00  0.00    -0.036 A 
ATOM    100  H   UNL A   1      45.030  26.579  29.577  1.00  0.00     0.065 H 
ATOM    101  C   UNL A   1      43.948  28.231  32.163  1.00  0.00     0.049 A 
ATOM    102  H   UNL A   1      42.033  28.749  31.440  1.00  0.00     0.167 HD
ATOM    103  C   UNL A   1      42.956  29.579  33.994  1.00  0.00     0.074 A 
ATOM    104  C   UNL A   1      42.991  30.189  35.307  1.00  0.00    -0.034 C 
ATOM    105  H   UNL A   1      41.560  31.272  36.460  1.00  0.00     0.065 H 
ATOM    106  H   UNL A   1      45.849  27.230  31.964  1.00  0.00     0.065 H 
ATOM    107  C   UNL A   1      43.970  28.855  33.462  1.00  0.00     0.037 A 
ATOM    108  H   UNL A   1      43.805  30.159  35.941  1.00  0.00     0.065 H 
BRANCH  89 109
ATOM    109  C   UNL A   1      42.783  26.593  27.834  1.00  0.00     0.064 A 
ATOM    110  C   UNL A   1      42.487  25.223  27.749  1.00  0.00     0.173 A 
ATOM    111  C   UNL A   1      43.505  27.172  26.780  1.00  0.00     0.173 A 
ATOM    112  F   UNL A   1      41.809  24.616  28.736  1.00  0.00    -0.203 F 
ATOM    113  C   UNL A   1      42.924  24.460  26.670  1.00  0.00     0.198 A 
ATOM    114  C   UNL A   1      43.914  26.412  25.687  1.00  0.00     0.198 A 
ATOM    115  F   UNL A   1      43.812  28.478  26.808  1.00  0.00    -0.203 F 
ATOM    116  F   UNL A   1      42.676  23.143  26.639  1.00  0.00    -0.200 F 
ATOM    117  C   UNL A   1      43.631  25.056  25.636  1.00  0.00     0.200 A 
ATOM    118  F   UNL A   1      44.584  26.993  24.683  1.00  0.00    -0.200 F 
ATOM    119  F   UNL A   1      44.046  24.321  24.596  1.00  0.00    -0.200 F 
ENDBRANCH  89 109
BRANCH  92 120
ATOM    120  C   UNL A   1      39.189  32.015  35.422  1.00  0.00     0.064 A 
ATOM    121  C   UNL A   1      39.450  33.388  35.542  1.00  0.00     0.173 A 
ATOM    122  C   UNL A   1      38.412  31.410  36.421  1.00  0.00     0.173 A 
ATOM    123  F   UNL A   1      40.204  34.007  34.622  1.00  0.00    -0.203 F 
ATOM    124  C   UNL A   1      38.975  34.120  36.627  1.00  0.00     0.198 A 
ATOM    125  C   UNL A   1      37.913  32.150  37.491  1.00  0.00     0.198 A 
ATOM    126  F   UNL A   1      38.128  30.101  36.350  1.00  0.00    -0.203 F 
ATOM    127  F   UNL A   1      39.279  35.419  36.742  1.00  0.00    -0.200 F 
ATOM    128  C   UNL A   1      38.202  33.501  37.598  1.00  0.00     0.200 A 
ATOM    129  F   UNL A   1      37.154  31.551  38.419  1.00  0.00    -0.200 F 
ATOM    130  F   UNL A   1      37.742  34.206  38.642  1.00  0.00    -0.200 F 
ENDBRANCH  92 120
BRANCH 107 131
ATOM    131  C   UNL A   1      45.222  28.718  34.279  1.00  0.00     0.064 A 
ATOM    132  C   UNL A   1      46.259  29.658  34.201  1.00  0.00     0.173 A 
ATOM    133  C   UNL A   1      45.365  27.654  35.182  1.00  0.00     0.173 A 
ATOM    134  F   UNL A   1      46.177  30.685  33.343  1.00  0.00    -0.203 F 
ATOM    135  C   UNL A   1      47.407  29.523  34.979  1.00  0.00     0.198 A 
ATOM    136  C   UNL A   1      46.499  27.539  35.981  1.00  0.00     0.198 A 
ATOM    137  F   UNL A   1      44.398  26.732  35.299  1.00  0.00    -0.203 F 
ATOM    138  F   UNL A   1      48.406  30.406  34.853  1.00  0.00    -0.200 F 
ATOM    139  C   UNL A   1      47.521  28.469  35.873  1.00  0.00     0.200 A 
ATOM    140  F   UNL A   1      46.601  26.529  36.855  1.00  0.00    -0.200 F 
ATOM    141  F   UNL A   1      48.622  28.346  36.627  1.00  0.00    -0.200 F 
ENDBRANCH 107 131
ENDBRANCH  72  75
ENDBRANCH  62  65
ENDBRANCH  58  61
ENDBRANCH  55  58
ENDBRANCH  52  55
ENDBRANCH   1  52
TORSDOF 19
ENDMDL
MODEL 3
REMARK VINA RESULT:     -12.3      0.639      7.123
REMARK SMILES CC(=O)Nc1ccc(/C(=C\c2ccc(S(C)(=O)=O)cc2)C(=O)NCCCCCCNC(=O)c2ccc(-c3c4nc(c(-c5c(F)c(F)c(F)c(F)c5F)c5ccc([nH]5)c(-c5c(F)c(F)c(F)c(F)c5F)c5nc(c(-c6c(F)c(F)c(F)c(F)c6F)c6ccc3[nH]6)C=C5)C=C4)cc2)cc1
REMARK SMILES IDX 26 1 25 4 24 7 23 10 21 11 22 12 9 14 10 15 8 17 5 18 6 19
REMARK SMILES IDX 97 20 7 21 96 23 4 27 2 28 3 29 1 31 11 35 12 36 20 37 13 38
REMARK SMILES IDX 19 40 14 42 15 45 17 46 18 47 16 48 27 52 28 55 29 58 30 61
REMARK SMILES IDX 31 62 32 64 33 65 34 66 95 67 35 68 94 70 36 72 37 75 38 76
REMARK SMILES IDX 88 77 39 78 93 79 87 80 89 81 40 82 92 83 86 85 85 87 41 89
REMARK SMILES IDX 73 92 53 93 72 94 54 95 57 96 71 97 90 98 55 99 56 101
REMARK SMILES IDX 70 103 91 104 58 107 42 109 43 110 51 111 44 112 45 113
REMARK SMILES IDX 49 114 52 115 46 116 47 117 50 118 48 119 74 120 75 121
REMARK SMILES IDX 83 122 76 123 77 124 81 125 84 126 78 127 79 128 82 129
REMARK SMILES IDX 80 130 59 131 60 132 68 133 61 134 62 135 66 136 69 137
REMARK SMILES IDX 63 138 64 139 67 140 65 141
REMARK H PARENT 26 2 26 3 25 5 25 6 24 8 24 9 23 13 10 16 6 22 97 24 7 25
REMARK H PARENT 96 26 4 30 1 32 1 33 1 34 12 39 20 41 13 43 19 44 16 49 16 50
REMARK H PARENT 16 51 27 53 27 54 28 56 28 57 29 59 29 60 30 63 34 69 95 71
REMARK H PARENT 35 73 94 74 93 84 87 86 89 88 92 90 86 91 54 100 57 102 90 105
REMARK H PARENT 55 106 91 108
REMARK Flexibility Score: inf
ROOT
ATOM      1  C   UNL A   1      31.361  25.898  25.798  1.00  0.00    -0.052 C 
ATOM      2  H   UNL A   1      31.672  24.881  25.671  1.00  0.00     0.027 H 
ATOM      3  H   UNL A   1      30.797  26.060  26.693  1.00  0.00     0.027 H 
ENDROOT
BRANCH   1   4
ATOM      4  C   UNL A   1      30.430  26.262  24.629  1.00  0.00    -0.036 C 
ATOM      5  H   UNL A   1      29.437  26.368  25.009  1.00  0.00     0.028 H 
ATOM      6  H   UNL A   1      30.801  27.171  24.204  1.00  0.00     0.028 H 
BRANCH   4   7
ATOM      7  C   UNL A   1      30.415  25.214  23.513  1.00  0.00     0.018 C 
ATOM      8  H   UNL A   1      30.464  24.235  23.943  1.00  0.00     0.049 H 
ATOM      9  H   UNL A   1      29.512  25.311  22.946  1.00  0.00     0.049 H 
BRANCH   7  10
ATOM     10  N   UNL A   1      31.553  25.414  22.642  1.00  0.00    -0.352 N 
ATOM     11  C   UNL A   1      32.744  24.799  22.431  1.00  0.00     0.251 C 
ATOM     12  O   UNL A   1      33.443  25.373  21.593  1.00  0.00    -0.269 OA
ATOM     13  H   UNL A   1      31.433  26.193  22.052  1.00  0.00     0.163 HD
BRANCH  11  14
ATOM     14  C   UNL A   1      33.178  23.483  23.077  1.00  0.00     0.047 C 
ATOM     15  C   UNL A   1      32.284  22.468  23.160  1.00  0.00    -0.042 C 
ATOM     16  H   UNL A   1      31.306  22.722  22.952  1.00  0.00     0.064 H 
BRANCH  14  17
ATOM     17  C   UNL A   1      34.515  23.415  23.781  1.00  0.00    -0.013 A 
ATOM     18  C   UNL A   1      36.821  22.822  25.360  1.00  0.00     0.041 A 
ATOM     19  C   UNL A   1      36.823  22.606  23.980  1.00  0.00    -0.038 A 
ATOM     20  C   UNL A   1      35.742  23.492  25.906  1.00  0.00    -0.038 A 
ATOM     21  C   UNL A   1      35.697  22.931  23.199  1.00  0.00    -0.052 A 
ATOM     22  H   UNL A   1      37.658  22.204  23.529  1.00  0.00     0.064 H 
ATOM     23  C   UNL A   1      34.600  23.743  25.141  1.00  0.00    -0.052 A 
ATOM     24  H   UNL A   1      35.781  23.810  26.887  1.00  0.00     0.064 H 
ATOM     25  H   UNL A   1      35.743  22.811  22.174  1.00  0.00     0.063 H 
ATOM     26  H   UNL A   1      33.787  24.188  25.595  1.00  0.00     0.063 H 
BRANCH  18  27
ATOM     27  N   UNL A   1      37.907  22.341  26.110  1.00  0.00    -0.326 N 
ATOM     28  C   UNL A   1      39.021  22.964  26.600  1.00  0.00     0.221 C 
ATOM     29  O   UNL A   1      39.874  22.281  27.174  1.00  0.00    -0.275 OA
ATOM     30  H   UNL A   1      37.858  21.381  26.320  1.00  0.00     0.169 HD
BRANCH  28  31
ATOM     31  C   UNL A   1      39.196  24.457  26.501  1.00  0.00     0.015 C 
ATOM     32  H   UNL A   1      38.245  24.935  26.604  1.00  0.00     0.033 H 
ATOM     33  H   UNL A   1      39.618  24.705  25.549  1.00  0.00     0.033 H 
ATOM     34  H   UNL A   1      39.850  24.793  27.279  1.00  0.00     0.033 H 
ENDBRANCH  28  31
ENDBRANCH  18  27
ENDBRANCH  14  17
BRANCH  15  35
ATOM     35  C   UNL A   1      32.512  21.057  23.506  1.00  0.00    -0.025 A 
ATOM     36  C   UNL A   1      32.153  20.092  22.547  1.00  0.00    -0.054 A 
ATOM     37  C   UNL A   1      33.128  20.655  24.693  1.00  0.00    -0.054 A 
ATOM     38  C   UNL A   1      32.465  18.746  22.742  1.00  0.00    -0.043 A 
ATOM     39  H   UNL A   1      31.655  20.382  21.691  1.00  0.00     0.063 H 
ATOM     40  C   UNL A   1      33.444  19.305  24.893  1.00  0.00    -0.043 A 
ATOM     41  H   UNL A   1      33.350  21.351  25.422  1.00  0.00     0.063 H 
ATOM     42  C   UNL A   1      33.122  18.362  23.912  1.00  0.00     0.067 A 
ATOM     43  H   UNL A   1      32.214  18.043  22.029  1.00  0.00     0.064 H 
ATOM     44  H   UNL A   1      33.914  19.008  25.763  1.00  0.00     0.064 H 
BRANCH  42  45
ATOM     45  S   UNL A   1      33.669  16.676  24.074  1.00  0.00     0.175 S 
ATOM     46  O   UNL A   1      32.671  15.984  24.866  1.00  0.00    -0.224 OA
ATOM     47  O   UNL A   1      34.028  16.203  22.751  1.00  0.00    -0.224 OA
BRANCH  45  48
ATOM     48  C   UNL A   1      35.153  16.794  25.034  1.00  0.00     0.043 C 
ATOM     49  H   UNL A   1      35.937  17.199  24.431  1.00  0.00     0.040 H 
ATOM     50  H   UNL A   1      35.433  15.820  25.378  1.00  0.00     0.040 H 
ATOM     51  H   UNL A   1      34.984  17.434  25.876  1.00  0.00     0.040 H 
ENDBRANCH  45  48
ENDBRANCH  42  45
ENDBRANCH  15  35
ENDBRANCH  11  14
ENDBRANCH   7  10
ENDBRANCH   4   7
ENDBRANCH   1   4
BRANCH   1  52
ATOM     52  C   UNL A   1      32.618  26.768  25.920  1.00  0.00    -0.052 C 
ATOM     53  H   UNL A   1      33.122  26.760  24.975  1.00  0.00     0.027 H 
ATOM     54  H   UNL A   1      33.202  26.348  26.712  1.00  0.00     0.027 H 
BRANCH  52  55
ATOM     55  C   UNL A   1      32.353  28.225  26.305  1.00  0.00    -0.036 C 
ATOM     56  H   UNL A   1      32.318  28.290  27.372  1.00  0.00     0.028 H 
ATOM     57  H   UNL A   1      31.431  28.505  25.843  1.00  0.00     0.028 H 
BRANCH  55  58
ATOM     58  C   UNL A   1      33.411  29.201  25.802  1.00  0.00     0.018 C 
ATOM     59  H   UNL A   1      33.495  29.105  24.739  1.00  0.00     0.049 H 
ATOM     60  H   UNL A   1      34.338  28.966  26.281  1.00  0.00     0.049 H 
BRANCH  58  61
ATOM     61  N   UNL A   1      33.069  30.576  26.126  1.00  0.00    -0.352 N 
ATOM     62  C   UNL A   1      33.569  31.380  27.118  1.00  0.00     0.251 C 
ATOM     63  H   UNL A   1      32.382  30.987  25.553  1.00  0.00     0.163 HD
ATOM     64  O   UNL A   1      33.011  32.434  27.402  1.00  0.00    -0.269 OA
BRANCH  62  65
ATOM     65  C   UNL A   1      34.782  30.966  27.854  1.00  0.00     0.039 A 
ATOM     66  C   UNL A   1      35.829  31.879  28.001  1.00  0.00    -0.049 A 
ATOM     67  C   UNL A   1      34.895  29.673  28.374  1.00  0.00    -0.049 A 
ATOM     68  C   UNL A   1      36.975  31.508  28.705  1.00  0.00    -0.053 A 
ATOM     69  H   UNL A   1      35.755  32.823  27.591  1.00  0.00     0.063 H 
ATOM     70  C   UNL A   1      36.005  29.328  29.137  1.00  0.00    -0.053 A 
ATOM     71  H   UNL A   1      34.156  28.976  28.191  1.00  0.00     0.063 H 
ATOM     72  C   UNL A   1      37.063  30.236  29.298  1.00  0.00    -0.014 A 
ATOM     73  H   UNL A   1      37.762  32.170  28.791  1.00  0.00     0.063 H 
ATOM     74  H   UNL A   1      36.051  28.402  29.589  1.00  0.00     0.063 H 
BRANCH  72  75
ATOM     75  C   UNL A   1      38.268  29.824  30.058  1.00  0.00     0.031 A 
ATOM     76  C   UNL A   1      38.484  30.334  31.455  1.00  0.00     0.074 A 
ATOM     77  C   UNL A   1      39.194  29.040  29.471  1.00  0.00     0.049 A 
ATOM     78  N   UNL A   1      39.503  30.154  32.256  1.00  0.00    -0.248 NA
ATOM     79  C   UNL A   1      37.424  31.187  32.017  1.00  0.00    -0.034 C 
ATOM     80  C   UNL A   1      39.117  28.516  28.107  1.00  0.00    -0.036 A 
ATOM     81  N   UNL A   1      40.386  28.556  29.947  1.00  0.00    -0.354 N 
ATOM     82  C   UNL A   1      39.215  30.882  33.404  1.00  0.00     0.074 A 
ATOM     83  C   UNL A   1      37.954  31.552  33.174  1.00  0.00    -0.034 C 
ATOM     84  H   UNL A   1      36.507  31.436  31.614  1.00  0.00     0.065 H 
ATOM     85  C   UNL A   1      40.204  27.767  27.862  1.00  0.00    -0.036 A 
ATOM     86  H   UNL A   1      38.349  28.693  27.441  1.00  0.00     0.065 H 
ATOM     87  C   UNL A   1      41.071  27.788  29.037  1.00  0.00     0.049 A 
ATOM     88  H   UNL A   1      40.720  28.742  30.854  1.00  0.00     0.167 HD
ATOM     89  C   UNL A   1      39.926  30.963  34.554  1.00  0.00     0.037 A 
ATOM     90  H   UNL A   1      37.524  32.226  33.827  1.00  0.00     0.065 H 
ATOM     91  H   UNL A   1      40.395  27.258  26.986  1.00  0.00     0.065 H 
ATOM     92  C   UNL A   1      42.266  27.177  29.139  1.00  0.00     0.037 A 
ATOM     93  C   UNL A   1      41.165  30.269  34.787  1.00  0.00     0.049 A 
ATOM     94  C   UNL A   1      43.037  27.284  30.427  1.00  0.00     0.074 A 
ATOM     95  C   UNL A   1      41.934  30.239  35.937  1.00  0.00    -0.036 A 
ATOM     96  N   UNL A   1      41.817  29.482  33.849  1.00  0.00    -0.354 N 
ATOM     97  N   UNL A   1      42.725  27.923  31.528  1.00  0.00    -0.248 NA
ATOM     98  C   UNL A   1      44.323  26.577  30.489  1.00  0.00    -0.034 C 
ATOM     99  C   UNL A   1      43.075  29.471  35.679  1.00  0.00    -0.036 A 
ATOM    100  H   UNL A   1      41.706  30.703  36.830  1.00  0.00     0.065 H 
ATOM    101  C   UNL A   1      42.990  28.979  34.387  1.00  0.00     0.049 A 
ATOM    102  H   UNL A   1      41.493  29.307  32.936  1.00  0.00     0.167 HD
ATOM    103  C   UNL A   1      43.756  27.671  32.424  1.00  0.00     0.074 A 
ATOM    104  C   UNL A   1      44.698  26.808  31.740  1.00  0.00    -0.034 C 
ATOM    105  H   UNL A   1      44.808  26.041  29.753  1.00  0.00     0.065 H 
ATOM    106  H   UNL A   1      43.848  29.302  36.340  1.00  0.00     0.065 H 
ATOM    107  C   UNL A   1      43.910  28.111  33.696  1.00  0.00     0.037 A 
ATOM    108  H   UNL A   1      45.552  26.422  32.171  1.00  0.00     0.065 H 
BRANCH  89 109
ATOM    109  C   UNL A   1      39.377  31.831  35.650  1.00  0.00     0.064 A 
ATOM    110  C   UNL A   1      38.455  31.340  36.588  1.00  0.00     0.173 A 
ATOM    111  C   UNL A   1      39.801  33.162  35.784  1.00  0.00     0.173 A 
ATOM    112  F   UNL A   1      38.008  30.078  36.498  1.00  0.00    -0.203 F 
ATOM    113  C   UNL A   1      37.956  32.157  37.598  1.00  0.00     0.198 A 
ATOM    114  C   UNL A   1      39.322  33.966  36.815  1.00  0.00     0.198 A 
ATOM    115  F   UNL A   1      40.683  33.682  34.918  1.00  0.00    -0.203 F 
ATOM    116  F   UNL A   1      37.035  31.681  38.449  1.00  0.00    -0.200 F 
ATOM    117  C   UNL A   1      38.394  33.467  37.716  1.00  0.00     0.200 A 
ATOM    118  F   UNL A   1      39.758  35.228  36.935  1.00  0.00    -0.200 F 
ATOM    119  F   UNL A   1      37.916  34.250  38.692  1.00  0.00    -0.200 F 
ENDBRANCH  89 109
BRANCH  92 120
ATOM    120  C   UNL A   1      42.796  26.387  27.997  1.00  0.00     0.064 A 
ATOM    121  C   UNL A   1      43.614  26.984  27.027  1.00  0.00     0.173 A 
ATOM    122  C   UNL A   1      42.496  25.025  27.847  1.00  0.00     0.173 A 
ATOM    123  F   UNL A   1      43.914  28.288  27.117  1.00  0.00    -0.203 F 
ATOM    124  C   UNL A   1      44.091  26.257  25.939  1.00  0.00     0.198 A 
ATOM    125  C   UNL A   1      42.997  24.292  26.774  1.00  0.00     0.198 A 
ATOM    126  F   UNL A   1      41.724  24.404  28.751  1.00  0.00    -0.203 F 
ATOM    127  F   UNL A   1      44.829  26.864  25.001  1.00  0.00    -0.200 F 
ATOM    128  C   UNL A   1      43.787  24.910  25.816  1.00  0.00     0.200 A 
ATOM    129  F   UNL A   1      42.713  22.986  26.668  1.00  0.00    -0.200 F 
ATOM    130  F   UNL A   1      44.247  24.208  24.771  1.00  0.00    -0.200 F 
ENDBRANCH  92 120
BRANCH 107 131
ATOM    131  C   UNL A   1      45.118  27.635  34.449  1.00  0.00     0.064 A 
ATOM    132  C   UNL A   1      46.313  28.369  34.464  1.00  0.00     0.173 A 
ATOM    133  C   UNL A   1      45.063  26.451  35.199  1.00  0.00     0.173 A 
ATOM    134  F   UNL A   1      46.421  29.500  33.752  1.00  0.00    -0.203 F 
ATOM    135  C   UNL A   1      47.418  27.919  35.183  1.00  0.00     0.198 A 
ATOM    136  C   UNL A   1      46.159  26.021  35.941  1.00  0.00     0.198 A 
ATOM    137  F   UNL A   1      43.941  25.717  35.223  1.00  0.00    -0.203 F 
ATOM    138  F   UNL A   1      48.565  28.611  35.144  1.00  0.00    -0.200 F 
ATOM    139  C   UNL A   1      47.338  26.752  35.926  1.00  0.00     0.200 A 
ATOM    140  F   UNL A   1      46.075  24.901  36.671  1.00  0.00    -0.200 F 
ATOM    141  F   UNL A   1      48.400  26.326  36.624  1.00  0.00    -0.200 F 
ENDBRANCH 107 131
ENDBRANCH  72  75
ENDBRANCH  62  65
ENDBRANCH  58  61
ENDBRANCH  55  58
ENDBRANCH  52  55
ENDBRANCH   1  52
TORSDOF 19
ENDMDL
MODEL 4
REMARK VINA RESULT:     -12.2      4.439      9.837
REMARK SMILES CC(=O)Nc1ccc(/C(=C\c2ccc(S(C)(=O)=O)cc2)C(=O)NCCCCCCNC(=O)c2ccc(-c3c4nc(c(-c5c(F)c(F)c(F)c(F)c5F)c5ccc([nH]5)c(-c5c(F)c(F)c(F)c(F)c5F)c5nc(c(-c6c(F)c(F)c(F)c(F)c6F)c6ccc3[nH]6)C=C5)C=C4)cc2)cc1
REMARK SMILES IDX 26 1 25 4 24 7 23 10 21 11 22 12 9 14 10 15 8 17 5 18 6 19
REMARK SMILES IDX 97 20 7 21 96 23 4 27 2 28 3 29 1 31 11 35 12 36 20 37 13 38
REMARK SMILES IDX 19 40 14 42 15 45 17 46 18 47 16 48 27 52 28 55 29 58 30 61
REMARK SMILES IDX 31 62 32 64 33 65 34 66 95 67 35 68 94 70 36 72 37 75 38 76
REMARK SMILES IDX 88 77 39 78 93 79 87 80 89 81 40 82 92 83 86 85 85 87 41 89
REMARK SMILES IDX 73 92 53 93 72 94 54 95 57 96 71 97 90 98 55 99 56 101
REMARK SMILES IDX 70 103 91 104 58 107 42 109 43 110 51 111 44 112 45 113
REMARK SMILES IDX 49 114 52 115 46 116 47 117 50 118 48 119 74 120 75 121
REMARK SMILES IDX 83 122 76 123 77 124 81 125 84 126 78 127 79 128 82 129
REMARK SMILES IDX 80 130 59 131 60 132 68 133 61 134 62 135 66 136 69 137
REMARK SMILES IDX 63 138 64 139 67 140 65 141
REMARK H PARENT 26 2 26 3 25 5 25 6 24 8 24 9 23 13 10 16 6 22 97 24 7 25
REMARK H PARENT 96 26 4 30 1 32 1 33 1 34 12 39 20 41 13 43 19 44 16 49 16 50
REMARK H PARENT 16 51 27 53 27 54 28 56 28 57 29 59 29 60 30 63 34 69 95 71
REMARK H PARENT 35 73 94 74 93 84 87 86 89 88 92 90 86 91 54 100 57 102 90 105
REMARK H PARENT 55 106 91 108
REMARK Flexibility Score: inf
ROOT
ATOM      1  C   UNL A   1      36.923  21.959  24.359  1.00  0.00    -0.052 C 
ATOM      2  H   UNL A   1      37.936  22.243  24.560  1.00  0.00     0.027 H 
ATOM      3  H   UNL A   1      36.705  21.879  23.314  1.00  0.00     0.027 H 
ENDROOT
BRANCH   1   4
ATOM      4  C   UNL A   1      36.001  23.061  24.908  1.00  0.00    -0.036 C 
ATOM      5  H   UNL A   1      35.775  22.835  25.928  1.00  0.00     0.028 H 
ATOM      6  H   UNL A   1      36.524  23.989  24.804  1.00  0.00     0.028 H 
BRANCH   4   7
ATOM      7  C   UNL A   1      34.686  23.195  24.136  1.00  0.00     0.018 C 
ATOM      8  H   UNL A   1      34.546  24.216  23.845  1.00  0.00     0.049 H 
ATOM      9  H   UNL A   1      34.720  22.575  23.264  1.00  0.00     0.049 H 
BRANCH   7  10
ATOM     10  N   UNL A   1      33.584  22.780  24.976  1.00  0.00    -0.352 N 
ATOM     11  C   UNL A   1      32.458  23.356  25.468  1.00  0.00     0.251 C 
ATOM     12  O   UNL A   1      31.817  22.608  26.211  1.00  0.00    -0.269 OA
ATOM     13  H   UNL A   1      33.672  21.843  25.263  1.00  0.00     0.163 HD
BRANCH  11  14
ATOM     14  C   UNL A   1      31.952  24.751  25.100  1.00  0.00     0.047 C 
ATOM     15  C   UNL A   1      31.300  24.921  23.924  1.00  0.00    -0.042 C 
ATOM     16  H   UNL A   1      31.357  24.127  23.267  1.00  0.00     0.064 H 
BRANCH  14  17
ATOM     17  C   UNL A   1      32.364  25.932  25.950  1.00  0.00    -0.013 A 
ATOM     18  C   UNL A   1      33.079  28.459  27.073  1.00  0.00     0.041 A 
ATOM     19  C   UNL A   1      31.853  27.863  27.374  1.00  0.00    -0.038 A 
ATOM     20  C   UNL A   1      34.002  27.713  26.364  1.00  0.00    -0.038 A 
ATOM     21  C   UNL A   1      31.517  26.601  26.846  1.00  0.00    -0.052 A 
ATOM     22  H   UNL A   1      31.186  28.352  27.990  1.00  0.00     0.064 H 
ATOM     23  C   UNL A   1      33.636  26.497  25.782  1.00  0.00    -0.052 A 
ATOM     24  H   UNL A   1      34.971  28.057  26.265  1.00  0.00     0.064 H 
ATOM     25  H   UNL A   1      30.627  26.159  27.126  1.00  0.00     0.063 H 
ATOM     26  H   UNL A   1      34.329  25.995  25.205  1.00  0.00     0.063 H 
BRANCH  18  27
ATOM     27  N   UNL A   1      33.300  29.779  27.500  1.00  0.00    -0.326 N 
ATOM     28  C   UNL A   1      32.768  30.970  27.091  1.00  0.00     0.221 C 
ATOM     29  O   UNL A   1      33.199  32.012  27.591  1.00  0.00    -0.275 OA
ATOM     30  H   UNL A   1      33.959  29.862  28.227  1.00  0.00     0.169 HD
BRANCH  28  31
ATOM     31  C   UNL A   1      31.642  31.027  26.091  1.00  0.00     0.015 C 
ATOM     32  H   UNL A   1      31.116  30.095  26.093  1.00  0.00     0.033 H 
ATOM     33  H   UNL A   1      32.040  31.209  25.115  1.00  0.00     0.033 H 
ATOM     34  H   UNL A   1      30.969  31.817  26.355  1.00  0.00     0.033 H 
ENDBRANCH  28  31
ENDBRANCH  18  27
ENDBRANCH  14  17
BRANCH  15  35
ATOM     35  C   UNL A   1      30.521  26.076  23.455  1.00  0.00    -0.025 A 
ATOM     36  C   UNL A   1      29.177  26.158  23.864  1.00  0.00    -0.054 A 
ATOM     37  C   UNL A   1      31.076  27.110  22.697  1.00  0.00    -0.054 A 
ATOM     38  C   UNL A   1      28.414  27.290  23.576  1.00  0.00    -0.043 A 
ATOM     39  H   UNL A   1      28.751  25.374  24.382  1.00  0.00     0.063 H 
ATOM     40  C   UNL A   1      30.315  28.249  22.406  1.00  0.00    -0.043 A 
ATOM     41  H   UNL A   1      32.046  27.035  22.352  1.00  0.00     0.063 H 
ATOM     42  C   UNL A   1      28.994  28.337  22.857  1.00  0.00     0.067 A 
ATOM     43  H   UNL A   1      27.434  27.353  23.891  1.00  0.00     0.064 H 
ATOM     44  H   UNL A   1      30.728  29.022  21.860  1.00  0.00     0.064 H 
BRANCH  42  45
ATOM     45  S   UNL A   1      28.072  29.845  22.645  1.00  0.00     0.175 S 
ATOM     46  O   UNL A   1      28.057  30.133  21.224  1.00  0.00    -0.224 OA
ATOM     47  O   UNL A   1      26.834  29.710  23.390  1.00  0.00    -0.224 OA
BRANCH  45  48
ATOM     48  C   UNL A   1      29.062  31.074  23.449  1.00  0.00     0.043 C 
ATOM     49  H   UNL A   1      30.014  31.137  22.965  1.00  0.00     0.040 H 
ATOM     50  H   UNL A   1      29.200  30.805  24.475  1.00  0.00     0.040 H 
ATOM     51  H   UNL A   1      28.569  32.023  23.392  1.00  0.00     0.040 H 
ENDBRANCH  45  48
ENDBRANCH  42  45
ENDBRANCH  15  35
ENDBRANCH  11  14
ENDBRANCH   7  10
ENDBRANCH   4   7
ENDBRANCH   1   4
BRANCH   1  52
ATOM     52  C   UNL A   1      36.692  20.566  24.954  1.00  0.00    -0.052 C 
ATOM     53  H   UNL A   1      35.917  20.087  24.391  1.00  0.00     0.027 H 
ATOM     54  H   UNL A   1      36.434  20.714  25.982  1.00  0.00     0.027 H 
BRANCH  52  55
ATOM     55  C   UNL A   1      37.920  19.653  24.946  1.00  0.00    -0.036 C 
ATOM     56  H   UNL A   1      38.234  19.521  23.931  1.00  0.00     0.028 H 
ATOM     57  H   UNL A   1      37.628  18.736  25.411  1.00  0.00     0.028 H 
BRANCH  55  58
ATOM     58  C   UNL A   1      39.100  20.194  25.744  1.00  0.00     0.018 C 
ATOM     59  H   UNL A   1      38.766  20.446  26.730  1.00  0.00     0.049 H 
ATOM     60  H   UNL A   1      39.480  21.056  25.237  1.00  0.00     0.049 H 
BRANCH  58  61
ATOM     61  N   UNL A   1      40.172  19.218  25.844  1.00  0.00    -0.352 N 
ATOM     62  C   UNL A   1      41.512  19.424  26.052  1.00  0.00     0.251 C 
ATOM     63  H   UNL A   1      39.899  18.277  25.749  1.00  0.00     0.163 HD
ATOM     64  O   UNL A   1      42.314  18.513  25.881  1.00  0.00    -0.269 OA
BRANCH  62  65
ATOM     65  C   UNL A   1      41.990  20.757  26.478  1.00  0.00     0.039 A 
ATOM     66  C   UNL A   1      42.320  21.701  25.502  1.00  0.00    -0.049 A 
ATOM     67  C   UNL A   1      42.135  21.063  27.834  1.00  0.00    -0.049 A 
ATOM     68  C   UNL A   1      42.759  22.968  25.889  1.00  0.00    -0.053 A 
ATOM     69  H   UNL A   1      42.240  21.463  24.501  1.00  0.00     0.063 H 
ATOM     70  C   UNL A   1      42.502  22.349  28.218  1.00  0.00    -0.053 A 
ATOM     71  H   UNL A   1      41.971  20.337  28.549  1.00  0.00     0.063 H 
ATOM     72  C   UNL A   1      42.832  23.309  27.250  1.00  0.00    -0.014 A 
ATOM     73  H   UNL A   1      43.031  23.659  25.171  1.00  0.00     0.063 H 
ATOM     74  H   UNL A   1      42.530  22.598  29.219  1.00  0.00     0.063 H 
BRANCH  72  75
ATOM     75  C   UNL A   1      43.288  24.653  27.682  1.00  0.00     0.031 A 
ATOM     76  C   UNL A   1      42.278  25.705  28.049  1.00  0.00     0.074 A 
ATOM     77  C   UNL A   1      44.603  24.944  27.689  1.00  0.00     0.049 A 
ATOM     78  N   UNL A   1      42.466  26.958  28.377  1.00  0.00    -0.248 NA
ATOM     79  C   UNL A   1      40.862  25.302  28.010  1.00  0.00    -0.034 C 
ATOM     80  C   UNL A   1      45.675  24.021  27.316  1.00  0.00    -0.036 A 
ATOM     81  N   UNL A   1      45.260  26.104  28.015  1.00  0.00    -0.354 N 
ATOM     82  C   UNL A   1      41.199  27.493  28.568  1.00  0.00     0.074 A 
ATOM     83  C   UNL A   1      40.247  26.447  28.263  1.00  0.00    -0.034 C 
ATOM     84  H   UNL A   1      40.456  24.370  27.834  1.00  0.00     0.065 H 
ATOM     85  C   UNL A   1      46.857  24.643  27.452  1.00  0.00    -0.036 A 
ATOM     86  H   UNL A   1      45.544  23.048  26.999  1.00  0.00     0.065 H 
ATOM     87  C   UNL A   1      46.624  26.018  27.886  1.00  0.00     0.049 A 
ATOM     88  H   UNL A   1      44.797  26.921  28.311  1.00  0.00     0.167 HD
ATOM     89  C   UNL A   1      40.860  28.737  28.984  1.00  0.00     0.037 A 
ATOM     90  H   UNL A   1      39.224  26.577  28.244  1.00  0.00     0.065 H 
ATOM     91  H   UNL A   1      47.781  24.218  27.278  1.00  0.00     0.065 H 
ATOM     92  C   UNL A   1      47.579  26.946  28.089  1.00  0.00     0.037 A 
ATOM     93  C   UNL A   1      41.813  29.763  29.315  1.00  0.00     0.049 A 
ATOM     94  C   UNL A   1      47.176  28.321  28.549  1.00  0.00     0.074 A 
ATOM     95  C   UNL A   1      41.575  31.037  29.800  1.00  0.00    -0.036 A 
ATOM     96  N   UNL A   1      43.189  29.631  29.194  1.00  0.00    -0.354 N 
ATOM     97  N   UNL A   1      45.978  28.798  28.787  1.00  0.00    -0.248 NA
ATOM     98  C   UNL A   1      48.260  29.286  28.779  1.00  0.00    -0.034 C 
ATOM     99  C   UNL A   1      42.805  31.692  29.929  1.00  0.00    -0.036 A 
ATOM    100  H   UNL A   1      40.650  31.435  30.029  1.00  0.00     0.065 H 
ATOM    101  C   UNL A   1      43.812  30.809  29.576  1.00  0.00     0.049 A 
ATOM    102  H   UNL A   1      43.653  28.821  28.883  1.00  0.00     0.167 HD
ATOM    103  C   UNL A   1      46.164  30.103  29.224  1.00  0.00     0.074 A 
ATOM    104  C   UNL A   1      47.593  30.339  29.230  1.00  0.00    -0.034 C 
ATOM    105  H   UNL A   1      49.274  29.174  28.628  1.00  0.00     0.065 H 
ATOM    106  H   UNL A   1      42.938  32.668  30.235  1.00  0.00     0.065 H 
ATOM    107  C   UNL A   1      45.237  31.022  29.587  1.00  0.00     0.037 A 
ATOM    108  H   UNL A   1      48.036  31.216  29.546  1.00  0.00     0.065 H 
BRANCH  89 109
ATOM    109  C   UNL A   1      39.397  29.054  29.108  1.00  0.00     0.064 A 
ATOM    110  C   UNL A   1      38.732  28.996  30.342  1.00  0.00     0.173 A 
ATOM    111  C   UNL A   1      38.658  29.451  27.984  1.00  0.00     0.173 A 
ATOM    112  F   UNL A   1      39.390  28.610  31.447  1.00  0.00    -0.203 F 
ATOM    113  C   UNL A   1      37.376  29.293  30.441  1.00  0.00     0.198 A 
ATOM    114  C   UNL A   1      37.308  29.778  28.093  1.00  0.00     0.198 A 
ATOM    115  F   UNL A   1      39.244  29.528  26.780  1.00  0.00    -0.203 F 
ATOM    116  F   UNL A   1      36.750  29.177  31.621  1.00  0.00    -0.200 F 
ATOM    117  C   UNL A   1      36.666  29.690  29.318  1.00  0.00     0.200 A 
ATOM    118  F   UNL A   1      36.628  30.175  27.008  1.00  0.00    -0.200 F 
ATOM    119  F   UNL A   1      35.362  29.981  29.416  1.00  0.00    -0.200 F 
ENDBRANCH  89 109
BRANCH  92 120
ATOM    120  C   UNL A   1      49.009  26.600  27.884  1.00  0.00     0.064 A 
ATOM    121  C   UNL A   1      49.566  26.574  26.597  1.00  0.00     0.173 A 
ATOM    122  C   UNL A   1      49.847  26.283  28.963  1.00  0.00     0.173 A 
ATOM    123  F   UNL A   1      48.800  26.852  25.532  1.00  0.00    -0.203 F 
ATOM    124  C   UNL A   1      50.898  26.222  26.395  1.00  0.00     0.198 A 
ATOM    125  C   UNL A   1      51.187  25.959  28.762  1.00  0.00     0.198 A 
ATOM    126  F   UNL A   1      49.366  26.299  30.215  1.00  0.00    -0.203 F 
ATOM    127  F   UNL A   1      51.392  26.158  25.152  1.00  0.00    -0.200 F 
ATOM    128  C   UNL A   1      51.710  25.920  27.479  1.00  0.00     0.200 A 
ATOM    129  F   UNL A   1      51.971  25.683  29.814  1.00  0.00    -0.200 F 
ATOM    130  F   UNL A   1      52.993  25.584  27.286  1.00  0.00    -0.200 F 
ENDBRANCH  92 120
BRANCH 107 131
ATOM    131  C   UNL A   1      45.737  32.355  30.063  1.00  0.00     0.064 A 
ATOM    132  C   UNL A   1      45.907  33.435  29.185  1.00  0.00     0.173 A 
ATOM    133  C   UNL A   1      46.009  32.564  31.424  1.00  0.00     0.173 A 
ATOM    134  F   UNL A   1      45.675  33.282  27.873  1.00  0.00    -0.203 F 
ATOM    135  C   UNL A   1      46.358  34.669  29.649  1.00  0.00     0.198 A 
ATOM    136  C   UNL A   1      46.428  33.807  31.888  1.00  0.00     0.198 A 
ATOM    137  F   UNL A   1      45.854  31.565  32.305  1.00  0.00    -0.203 F 
ATOM    138  F   UNL A   1      46.560  35.673  28.784  1.00  0.00    -0.200 F 
ATOM    139  C   UNL A   1      46.609  34.856  31.000  1.00  0.00     0.200 A 
ATOM    140  F   UNL A   1      46.656  33.990  33.196  1.00  0.00    -0.200 F 
ATOM    141  F   UNL A   1      47.033  36.047  31.444  1.00  0.00    -0.200 F 
ENDBRANCH 107 131
ENDBRANCH  72  75
ENDBRANCH  62  65
ENDBRANCH  58  61
ENDBRANCH  55  58
ENDBRANCH  52  55
ENDBRANCH   1  52
TORSDOF 19
ENDMDL
MODEL 5
REMARK VINA RESULT:     -12.1      4.150      7.431
REMARK SMILES CC(=O)Nc1ccc(/C(=C\c2ccc(S(C)(=O)=O)cc2)C(=O)NCCCCCCNC(=O)c2ccc(-c3c4nc(c(-c5c(F)c(F)c(F)c(F)c5F)c5ccc([nH]5)c(-c5c(F)c(F)c(F)c(F)c5F)c5nc(c(-c6c(F)c(F)c(F)c(F)c6F)c6ccc3[nH]6)C=C5)C=C4)cc2)cc1
REMARK SMILES IDX 26 1 25 4 24 7 23 10 21 11 22 12 9 14 10 15 8 17 5 18 6 19
REMARK SMILES IDX 97 20 7 21 96 23 4 27 2 28 3 29 1 31 11 35 12 36 20 37 13 38
REMARK SMILES IDX 19 40 14 42 15 45 17 46 18 47 16 48 27 52 28 55 29 58 30 61
REMARK SMILES IDX 31 62 32 64 33 65 34 66 95 67 35 68 94 70 36 72 37 75 38 76
REMARK SMILES IDX 88 77 39 78 93 79 87 80 89 81 40 82 92 83 86 85 85 87 41 89
REMARK SMILES IDX 73 92 53 93 72 94 54 95 57 96 71 97 90 98 55 99 56 101
REMARK SMILES IDX 70 103 91 104 58 107 42 109 43 110 51 111 44 112 45 113
REMARK SMILES IDX 49 114 52 115 46 116 47 117 50 118 48 119 74 120 75 121
REMARK SMILES IDX 83 122 76 123 77 124 81 125 84 126 78 127 79 128 82 129
REMARK SMILES IDX 80 130 59 131 60 132 68 133 61 134 62 135 66 136 69 137
REMARK SMILES IDX 63 138 64 139 67 140 65 141
REMARK H PARENT 26 2 26 3 25 5 25 6 24 8 24 9 23 13 10 16 6 22 97 24 7 25
REMARK H PARENT 96 26 4 30 1 32 1 33 1 34 12 39 20 41 13 43 19 44 16 49 16 50
REMARK H PARENT 16 51 27 53 27 54 28 56 28 57 29 59 29 60 30 63 34 69 95 71
REMARK H PARENT 35 73 94 74 93 84 87 86 89 88 92 90 86 91 54 100 57 102 90 105
REMARK H PARENT 55 106 91 108
REMARK Flexibility Score: inf
ROOT
ATOM      1  C   UNL A   1      34.503  23.267  24.255  1.00  0.00    -0.052 C 
ATOM      2  H   UNL A   1      34.710  23.504  25.278  1.00  0.00     0.027 H 
ATOM      3  H   UNL A   1      33.896  24.000  23.765  1.00  0.00     0.027 H 
ENDROOT
BRANCH   1   4
ATOM      4  C   UNL A   1      33.704  21.954  24.222  1.00  0.00    -0.036 C 
ATOM      5  H   UNL A   1      33.899  21.463  23.292  1.00  0.00     0.028 H 
ATOM      6  H   UNL A   1      34.021  21.372  25.062  1.00  0.00     0.028 H 
BRANCH   4   7
ATOM      7  C   UNL A   1      32.192  22.157  24.358  1.00  0.00     0.018 C 
ATOM      8  H   UNL A   1      31.878  22.940  23.701  1.00  0.00     0.049 H 
ATOM      9  H   UNL A   1      31.687  21.249  24.100  1.00  0.00     0.049 H 
BRANCH   7  10
ATOM     10  N   UNL A   1      31.869  22.514  25.722  1.00  0.00    -0.352 N 
ATOM     11  C   UNL A   1      31.554  23.656  26.385  1.00  0.00     0.251 C 
ATOM     12  O   UNL A   1      31.405  23.485  27.598  1.00  0.00    -0.269 OA
ATOM     13  H   UNL A   1      31.881  21.733  26.320  1.00  0.00     0.163 HD
BRANCH  11  14
ATOM     14  C   UNL A   1      31.313  25.015  25.729  1.00  0.00     0.047 C 
ATOM     15  C   UNL A   1      30.585  25.070  24.587  1.00  0.00    -0.042 C 
ATOM     16  H   UNL A   1      30.403  24.161  24.134  1.00  0.00     0.064 H 
BRANCH  14  17
ATOM     17  C   UNL A   1      32.053  26.226  26.250  1.00  0.00    -0.013 A 
ATOM     18  C   UNL A   1      33.382  28.714  26.705  1.00  0.00     0.041 A 
ATOM     19  C   UNL A   1      32.117  28.470  27.240  1.00  0.00    -0.038 A 
ATOM     20  C   UNL A   1      34.043  27.658  26.103  1.00  0.00    -0.038 A 
ATOM     21  C   UNL A   1      31.477  27.230  27.043  1.00  0.00    -0.052 A 
ATOM     22  H   UNL A   1      31.644  29.206  27.786  1.00  0.00     0.064 H 
ATOM     23  C   UNL A   1      33.376  26.458  25.846  1.00  0.00    -0.052 A 
ATOM     24  H   UNL A   1      35.037  27.757  25.843  1.00  0.00     0.064 H 
ATOM     25  H   UNL A   1      30.565  27.056  27.494  1.00  0.00     0.063 H 
ATOM     26  H   UNL A   1      33.877  25.711  25.338  1.00  0.00     0.063 H 
BRANCH  18  27
ATOM     27  N   UNL A   1      33.907  30.013  26.801  1.00  0.00    -0.326 N 
ATOM     28  C   UNL A   1      34.924  30.531  27.555  1.00  0.00     0.221 C 
ATOM     29  O   UNL A   1      35.135  31.745  27.505  1.00  0.00    -0.275 OA
ATOM     30  H   UNL A   1      33.461  30.672  26.221  1.00  0.00     0.169 HD
BRANCH  28  31
ATOM     31  C   UNL A   1      35.812  29.647  28.392  1.00  0.00     0.015 C 
ATOM     32  H   UNL A   1      35.984  28.725  27.878  1.00  0.00     0.033 H 
ATOM     33  H   UNL A   1      35.335  29.448  29.330  1.00  0.00     0.033 H 
ATOM     34  H   UNL A   1      36.746  30.139  28.564  1.00  0.00     0.033 H 
ENDBRANCH  28  31
ENDBRANCH  18  27
ENDBRANCH  14  17
BRANCH  15  35
ATOM     35  C   UNL A   1      30.017  26.242  23.905  1.00  0.00    -0.025 A 
ATOM     36  C   UNL A   1      28.631  26.452  24.028  1.00  0.00    -0.054 A 
ATOM     37  C   UNL A   1      30.798  27.175  23.219  1.00  0.00    -0.054 A 
ATOM     38  C   UNL A   1      28.041  27.613  23.528  1.00  0.00    -0.043 A 
ATOM     39  H   UNL A   1      28.045  25.741  24.492  1.00  0.00     0.063 H 
ATOM     40  C   UNL A   1      30.211  28.343  22.716  1.00  0.00    -0.043 A 
ATOM     41  H   UNL A   1      31.807  27.004  23.082  1.00  0.00     0.063 H 
ATOM     42  C   UNL A   1      28.840  28.560  22.884  1.00  0.00     0.067 A 
ATOM     43  H   UNL A   1      27.027  27.771  23.633  1.00  0.00     0.064 H 
ATOM     44  H   UNL A   1      30.789  29.041  22.223  1.00  0.00     0.064 H 
BRANCH  42  45
ATOM     45  S   UNL A   1      28.112  30.112  22.405  1.00  0.00     0.175 S 
ATOM     46  O   UNL A   1      28.025  30.107  20.957  1.00  0.00    -0.224 OA
ATOM     47  O   UNL A   1      26.930  30.312  23.221  1.00  0.00    -0.224 OA
BRANCH  45  48
ATOM     48  C   UNL A   1      29.317  31.320  22.882  1.00  0.00     0.043 C 
ATOM     49  H   UNL A   1      29.888  30.948  23.707  1.00  0.00     0.040 H 
ATOM     50  H   UNL A   1      28.821  32.223  23.170  1.00  0.00     0.040 H 
ATOM     51  H   UNL A   1      29.969  31.519  22.057  1.00  0.00     0.040 H 
ENDBRANCH  45  48
ENDBRANCH  42  45
ENDBRANCH  15  35
ENDBRANCH  11  14
ENDBRANCH   7  10
ENDBRANCH   4   7
ENDBRANCH   1   4
BRANCH   1  52
ATOM     52  C   UNL A   1      35.834  23.234  23.495  1.00  0.00    -0.052 C 
ATOM     53  H   UNL A   1      36.269  24.211  23.542  1.00  0.00     0.027 H 
ATOM     54  H   UNL A   1      35.605  22.924  22.497  1.00  0.00     0.027 H 
BRANCH  52  55
ATOM     55  C   UNL A   1      36.855  22.231  24.035  1.00  0.00    -0.036 C 
ATOM     56  H   UNL A   1      37.759  22.334  23.472  1.00  0.00     0.028 H 
ATOM     57  H   UNL A   1      36.417  21.261  23.940  1.00  0.00     0.028 H 
BRANCH  55  58
ATOM     58  C   UNL A   1      37.188  22.420  25.511  1.00  0.00     0.018 C 
ATOM     59  H   UNL A   1      36.279  22.420  26.075  1.00  0.00     0.049 H 
ATOM     60  H   UNL A   1      37.707  23.350  25.621  1.00  0.00     0.049 H 
BRANCH  58  61
ATOM     61  N   UNL A   1      38.050  21.359  26.006  1.00  0.00    -0.352 N 
ATOM     62  C   UNL A   1      39.331  21.442  26.490  1.00  0.00     0.251 C 
ATOM     63  H   UNL A   1      37.661  20.456  25.991  1.00  0.00     0.163 HD
ATOM     64  O   UNL A   1      40.000  20.427  26.651  1.00  0.00    -0.269 OA
BRANCH  62  65
ATOM     65  C   UNL A   1      39.909  22.764  26.810  1.00  0.00     0.039 A 
ATOM     66  C   UNL A   1      40.887  22.853  27.803  1.00  0.00    -0.049 A 
ATOM     67  C   UNL A   1      39.467  23.915  26.149  1.00  0.00    -0.049 A 
ATOM     68  C   UNL A   1      41.452  24.092  28.107  1.00  0.00    -0.053 A 
ATOM     69  H   UNL A   1      41.190  22.006  28.311  1.00  0.00     0.063 H 
ATOM     70  C   UNL A   1      40.083  25.136  26.401  1.00  0.00    -0.053 A 
ATOM     71  H   UNL A   1      38.687  23.857  25.476  1.00  0.00     0.063 H 
ATOM     72  C   UNL A   1      41.069  25.240  27.393  1.00  0.00    -0.014 A 
ATOM     73  H   UNL A   1      42.154  24.166  28.860  1.00  0.00     0.063 H 
ATOM     74  H   UNL A   1      39.813  25.970  25.856  1.00  0.00     0.063 H 
BRANCH  72  75
ATOM     75  C   UNL A   1      41.663  26.566  27.693  1.00  0.00     0.031 A 
ATOM     76  C   UNL A   1      43.067  26.875  27.255  1.00  0.00     0.074 A 
ATOM     77  C   UNL A   1      40.963  27.467  28.409  1.00  0.00     0.049 A 
ATOM     78  N   UNL A   1      43.793  27.940  27.483  1.00  0.00    -0.248 NA
ATOM     79  C   UNL A   1      43.762  25.833  26.481  1.00  0.00    -0.034 C 
ATOM     80  C   UNL A   1      39.608  27.268  28.925  1.00  0.00    -0.036 A 
ATOM     81  N   UNL A   1      41.299  28.728  28.834  1.00  0.00    -0.354 N 
ATOM     82  C   UNL A   1      45.027  27.690  26.898  1.00  0.00     0.074 A 
ATOM     83  C   UNL A   1      44.973  26.351  26.353  1.00  0.00    -0.034 C 
ATOM     84  H   UNL A   1      43.398  24.934  26.128  1.00  0.00     0.065 H 
ATOM     85  C   UNL A   1      39.220  28.374  29.579  1.00  0.00    -0.036 A 
ATOM     86  H   UNL A   1      39.041  26.413  28.805  1.00  0.00     0.065 H 
ATOM     87  C   UNL A   1      40.310  29.345  29.561  1.00  0.00     0.049 A 
ATOM     88  H   UNL A   1      42.166  29.150  28.636  1.00  0.00     0.167 HD
ATOM     89  C   UNL A   1      46.099  28.512  26.801  1.00  0.00     0.037 A 
ATOM     90  H   UNL A   1      45.775  25.863  25.923  1.00  0.00     0.065 H 
ATOM     91  H   UNL A   1      38.299  28.515  30.023  1.00  0.00     0.065 H 
ATOM     92  C   UNL A   1      40.291  30.555  30.151  1.00  0.00     0.037 A 
ATOM     93  C   UNL A   1      46.136  29.854  27.318  1.00  0.00     0.049 A 
ATOM     94  C   UNL A   1      41.496  31.449  30.030  1.00  0.00     0.074 A 
ATOM     95  C   UNL A   1      47.152  30.789  27.222  1.00  0.00    -0.036 A 
ATOM     96  N   UNL A   1      45.106  30.453  28.030  1.00  0.00    -0.354 N 
ATOM     97  N   UNL A   1      42.635  31.226  29.420  1.00  0.00    -0.248 NA
ATOM     98  C   UNL A   1      41.409  32.767  30.673  1.00  0.00    -0.034 C 
ATOM     99  C   UNL A   1      46.755  31.938  27.916  1.00  0.00    -0.036 A 
ATOM    100  H   UNL A   1      48.047  30.661  26.724  1.00  0.00     0.065 H 
ATOM    101  C   UNL A   1      45.472  31.739  28.397  1.00  0.00     0.049 A 
ATOM    102  H   UNL A   1      44.245  30.028  28.242  1.00  0.00     0.167 HD
ATOM    103  C   UNL A   1      43.387  32.383  29.576  1.00  0.00     0.074 A 
ATOM    104  C   UNL A   1      42.568  33.311  30.329  1.00  0.00    -0.034 C 
ATOM    105  H   UNL A   1      40.647  33.165  31.243  1.00  0.00     0.065 H 
ATOM    106  H   UNL A   1      47.324  32.788  28.047  1.00  0.00     0.065 H 
ATOM    107  C   UNL A   1      44.639  32.653  29.137  1.00  0.00     0.037 A 
ATOM    108  H   UNL A   1      42.851  34.275  30.567  1.00  0.00     0.065 H 
BRANCH  89 109
ATOM    109  C   UNL A   1      47.321  27.981  26.106  1.00  0.00     0.064 A 
ATOM    110  C   UNL A   1      48.434  27.517  26.824  1.00  0.00     0.173 A 
ATOM    111  C   UNL A   1      47.368  27.908  24.706  1.00  0.00     0.173 A 
ATOM    112  F   UNL A   1      48.446  27.576  28.164  1.00  0.00    -0.203 F 
ATOM    113  C   UNL A   1      49.559  27.029  26.166  1.00  0.00     0.198 A 
ATOM    114  C   UNL A   1      48.484  27.390  24.052  1.00  0.00     0.198 A 
ATOM    115  F   UNL A   1      46.331  28.334  23.970  1.00  0.00    -0.203 F 
ATOM    116  F   UNL A   1      50.632  26.641  26.871  1.00  0.00    -0.200 F 
ATOM    117  C   UNL A   1      49.581  26.958  24.781  1.00  0.00     0.200 A 
ATOM    118  F   UNL A   1      48.496  27.310  22.714  1.00  0.00    -0.200 F 
ATOM    119  F   UNL A   1      50.663  26.483  24.149  1.00  0.00    -0.200 F 
ENDBRANCH  89 109
BRANCH  92 120
ATOM    120  C   UNL A   1      39.081  31.004  30.887  1.00  0.00     0.064 A 
ATOM    121  C   UNL A   1      38.920  30.716  32.251  1.00  0.00     0.173 A 
ATOM    122  C   UNL A   1      38.060  31.722  30.248  1.00  0.00     0.173 A 
ATOM    123  F   UNL A   1      39.860  30.015  32.901  1.00  0.00    -0.203 F 
ATOM    124  C   UNL A   1      37.775  31.108  32.940  1.00  0.00     0.198 A 
ATOM    125  C   UNL A   1      36.928  32.139  30.946  1.00  0.00     0.198 A 
ATOM    126  F   UNL A   1      38.167  32.029  28.947  1.00  0.00    -0.203 F 
ATOM    127  F   UNL A   1      37.625  30.778  34.229  1.00  0.00    -0.200 F 
ATOM    128  C   UNL A   1      36.782  31.824  32.289  1.00  0.00     0.200 A 
ATOM    129  F   UNL A   1      35.978  32.844  30.316  1.00  0.00    -0.200 F 
ATOM    130  F   UNL A   1      35.681  32.205  32.952  1.00  0.00    -0.200 F 
ENDBRANCH  92 120
BRANCH 107 131
ATOM    131  C   UNL A   1      45.189  34.021  29.419  1.00  0.00     0.064 A 
ATOM    132  C   UNL A   1      45.938  34.291  30.574  1.00  0.00     0.173 A 
ATOM    133  C   UNL A   1      44.999  35.064  28.500  1.00  0.00     0.173 A 
ATOM    134  F   UNL A   1      46.136  33.332  31.490  1.00  0.00    -0.203 F 
ATOM    135  C   UNL A   1      46.453  35.563  30.811  1.00  0.00     0.198 A 
ATOM    136  C   UNL A   1      45.542  36.326  28.725  1.00  0.00     0.198 A 
ATOM    137  F   UNL A   1      44.296  34.856  27.377  1.00  0.00    -0.203 F 
ATOM    138  F   UNL A   1      47.124  35.810  31.944  1.00  0.00    -0.200 F 
ATOM    139  C   UNL A   1      46.263  36.575  29.883  1.00  0.00     0.200 A 
ATOM    140  F   UNL A   1      45.370  37.299  27.820  1.00  0.00    -0.200 F 
ATOM    141  F   UNL A   1      46.767  37.796  30.109  1.00  0.00    -0.200 F 
ENDBRANCH 107 131
ENDBRANCH  72  75
ENDBRANCH  62  65
ENDBRANCH  58  61
ENDBRANCH  55  58
ENDBRANCH  52  55
ENDBRANCH   1  52
TORSDOF 19
ENDMDL
MODEL 6
REMARK VINA RESULT:     -12.1      1.824      2.917
REMARK SMILES CC(=O)Nc1ccc(/C(=C\c2ccc(S(C)(=O)=O)cc2)C(=O)NCCCCCCNC(=O)c2ccc(-c3c4nc(c(-c5c(F)c(F)c(F)c(F)c5F)c5ccc([nH]5)c(-c5c(F)c(F)c(F)c(F)c5F)c5nc(c(-c6c(F)c(F)c(F)c(F)c6F)c6ccc3[nH]6)C=C5)C=C4)cc2)cc1
REMARK SMILES IDX 26 1 25 4 24 7 23 10 21 11 22 12 9 14 10 15 8 17 5 18 6 19
REMARK SMILES IDX 97 20 7 21 96 23 4 27 2 28 3 29 1 31 11 35 12 36 20 37 13 38
REMARK SMILES IDX 19 40 14 42 15 45 17 46 18 47 16 48 27 52 28 55 29 58 30 61
REMARK SMILES IDX 31 62 32 64 33 65 34 66 95 67 35 68 94 70 36 72 37 75 38 76
REMARK SMILES IDX 88 77 39 78 93 79 87 80 89 81 40 82 92 83 86 85 85 87 41 89
REMARK SMILES IDX 73 92 53 93 72 94 54 95 57 96 71 97 90 98 55 99 56 101
REMARK SMILES IDX 70 103 91 104 58 107 42 109 43 110 51 111 44 112 45 113
REMARK SMILES IDX 49 114 52 115 46 116 47 117 50 118 48 119 74 120 75 121
REMARK SMILES IDX 83 122 76 123 77 124 81 125 84 126 78 127 79 128 82 129
REMARK SMILES IDX 80 130 59 131 60 132 68 133 61 134 62 135 66 136 69 137
REMARK SMILES IDX 63 138 64 139 67 140 65 141
REMARK H PARENT 26 2 26 3 25 5 25 6 24 8 24 9 23 13 10 16 6 22 97 24 7 25
REMARK H PARENT 96 26 4 30 1 32 1 33 1 34 12 39 20 41 13 43 19 44 16 49 16 50
REMARK H PARENT 16 51 27 53 27 54 28 56 28 57 29 59 29 60 30 63 34 69 95 71
REMARK H PARENT 35 73 94 74 93 84 87 86 89 88 92 90 86 91 54 100 57 102 90 105
REMARK H PARENT 55 106 91 108
REMARK Flexibility Score: inf
ROOT
ATOM      1  C   UNL A   1      31.820  29.409  26.796  1.00  0.00    -0.052 C 
ATOM      2  H   UNL A   1      32.117  29.836  27.732  1.00  0.00     0.027 H 
ATOM      3  H   UNL A   1      30.923  28.830  26.860  1.00  0.00     0.027 H 
ENDROOT
BRANCH   1   4
ATOM      4  C   UNL A   1      32.926  28.441  26.342  1.00  0.00    -0.036 C 
ATOM      5  H   UNL A   1      33.440  28.880  25.513  1.00  0.00     0.028 H 
ATOM      6  H   UNL A   1      33.570  28.284  27.181  1.00  0.00     0.028 H 
BRANCH   4   7
ATOM      7  C   UNL A   1      32.397  27.069  25.915  1.00  0.00     0.018 C 
ATOM      8  H   UNL A   1      33.052  26.305  26.280  1.00  0.00     0.049 H 
ATOM      9  H   UNL A   1      31.416  26.924  26.320  1.00  0.00     0.049 H 
BRANCH   7  10
ATOM     10  N   UNL A   1      32.334  26.999  24.471  1.00  0.00    -0.352 N 
ATOM     11  C   UNL A   1      32.615  26.068  23.524  1.00  0.00     0.251 C 
ATOM     12  O   UNL A   1      32.453  26.484  22.374  1.00  0.00    -0.269 OA
ATOM     13  H   UNL A   1      32.005  27.837  24.076  1.00  0.00     0.163 HD
BRANCH  11  14
ATOM     14  C   UNL A   1      33.007  24.618  23.807  1.00  0.00     0.047 C 
ATOM     15  C   UNL A   1      32.028  23.700  23.998  1.00  0.00    -0.042 C 
ATOM     16  H   UNL A   1      31.080  24.085  24.128  1.00  0.00     0.064 H 
BRANCH  14  17
ATOM     17  C   UNL A   1      34.460  24.285  24.066  1.00  0.00    -0.013 A 
ATOM     18  C   UNL A   1      36.990  23.231  24.869  1.00  0.00     0.041 A 
ATOM     19  C   UNL A   1      36.531  23.072  23.561  1.00  0.00    -0.038 A 
ATOM     20  C   UNL A   1      36.271  24.062  25.709  1.00  0.00    -0.038 A 
ATOM     21  C   UNL A   1      35.298  23.622  23.158  1.00  0.00    -0.052 A 
ATOM     22  H   UNL A   1      37.100  22.545  22.881  1.00  0.00     0.064 H 
ATOM     23  C   UNL A   1      35.015  24.541  25.328  1.00  0.00    -0.052 A 
ATOM     24  H   UNL A   1      36.665  24.330  26.624  1.00  0.00     0.064 H 
ATOM     25  H   UNL A   1      35.006  23.535  22.172  1.00  0.00     0.063 H 
ATOM     26  H   UNL A   1      34.475  25.106  26.002  1.00  0.00     0.063 H 
BRANCH  18  27
ATOM     27  N   UNL A   1      38.148  22.537  25.257  1.00  0.00    -0.326 N 
ATOM     28  C   UNL A   1      38.403  21.202  25.406  1.00  0.00     0.221 C 
ATOM     29  O   UNL A   1      39.505  20.856  25.840  1.00  0.00    -0.275 OA
ATOM     30  H   UNL A   1      38.917  23.118  25.461  1.00  0.00     0.169 HD
BRANCH  28  31
ATOM     31  C   UNL A   1      37.393  20.159  25.001  1.00  0.00     0.015 C 
ATOM     32  H   UNL A   1      37.479  19.967  23.953  1.00  0.00     0.033 H 
ATOM     33  H   UNL A   1      36.407  20.513  25.219  1.00  0.00     0.033 H 
ATOM     34  H   UNL A   1      37.576  19.255  25.545  1.00  0.00     0.033 H 
ENDBRANCH  28  31
ENDBRANCH  18  27
ENDBRANCH  14  17
BRANCH  15  35
ATOM     35  C   UNL A   1      32.128  22.234  24.044  1.00  0.00    -0.025 A 
ATOM     36  C   UNL A   1      32.128  21.548  22.815  1.00  0.00    -0.054 A 
ATOM     37  C   UNL A   1      32.296  21.520  25.233  1.00  0.00    -0.054 A 
ATOM     38  C   UNL A   1      32.358  20.173  22.769  1.00  0.00    -0.043 A 
ATOM     39  H   UNL A   1      31.957  22.066  21.940  1.00  0.00     0.063 H 
ATOM     40  C   UNL A   1      32.528  20.140  25.192  1.00  0.00    -0.043 A 
ATOM     41  H   UNL A   1      32.248  22.010  26.141  1.00  0.00     0.063 H 
ATOM     42  C   UNL A   1      32.570  19.478  23.961  1.00  0.00     0.067 A 
ATOM     43  H   UNL A   1      32.373  19.675  21.865  1.00  0.00     0.064 H 
ATOM     44  H   UNL A   1      32.668  19.613  26.069  1.00  0.00     0.064 H 
BRANCH  42  45
ATOM     45  S   UNL A   1      33.033  17.761  23.882  1.00  0.00     0.175 S 
ATOM     46  O   UNL A   1      32.342  17.087  24.964  1.00  0.00    -0.224 OA
ATOM     47  O   UNL A   1      32.867  17.325  22.508  1.00  0.00    -0.224 OA
BRANCH  45  48
ATOM     48  C   UNL A   1      34.766  17.763  24.248  1.00  0.00     0.043 C 
ATOM     49  H   UNL A   1      35.230  18.604  23.777  1.00  0.00     0.040 H 
ATOM     50  H   UNL A   1      35.209  16.861  23.884  1.00  0.00     0.040 H 
ATOM     51  H   UNL A   1      34.907  17.827  25.308  1.00  0.00     0.040 H 
ENDBRANCH  45  48
ENDBRANCH  42  45
ENDBRANCH  15  35
ENDBRANCH  11  14
ENDBRANCH   7  10
ENDBRANCH   4   7
ENDBRANCH   1   4
BRANCH   1  52
ATOM     52  C   UNL A   1      31.523  30.555  25.822  1.00  0.00    -0.052 C 
ATOM     53  H   UNL A   1      30.630  30.312  25.284  1.00  0.00     0.027 H 
ATOM     54  H   UNL A   1      32.382  30.646  25.191  1.00  0.00     0.027 H 
BRANCH  52  55
ATOM     55  C   UNL A   1      31.325  31.921  26.482  1.00  0.00    -0.036 C 
ATOM     56  H   UNL A   1      30.519  31.844  27.181  1.00  0.00     0.028 H 
ATOM     57  H   UNL A   1      31.125  32.619  25.696  1.00  0.00     0.028 H 
BRANCH  55  58
ATOM     58  C   UNL A   1      32.554  32.436  27.223  1.00  0.00     0.018 C 
ATOM     59  H   UNL A   1      33.420  32.271  26.616  1.00  0.00     0.049 H 
ATOM     60  H   UNL A   1      32.631  31.906  28.150  1.00  0.00     0.049 H 
BRANCH  58  61
ATOM     61  N   UNL A   1      32.447  33.854  27.518  1.00  0.00    -0.352 N 
ATOM     62  C   UNL A   1      33.103  34.590  28.472  1.00  0.00     0.251 C 
ATOM     63  H   UNL A   1      31.816  34.358  26.956  1.00  0.00     0.163 HD
ATOM     64  O   UNL A   1      32.731  35.727  28.743  1.00  0.00    -0.269 OA
BRANCH  62  65
ATOM     65  C   UNL A   1      34.259  34.004  29.181  1.00  0.00     0.039 A 
ATOM     66  C   UNL A   1      34.029  33.173  30.281  1.00  0.00    -0.049 A 
ATOM     67  C   UNL A   1      35.566  34.294  28.778  1.00  0.00    -0.049 A 
ATOM     68  C   UNL A   1      35.111  32.601  30.952  1.00  0.00    -0.053 A 
ATOM     69  H   UNL A   1      33.064  32.984  30.595  1.00  0.00     0.063 H 
ATOM     70  C   UNL A   1      36.639  33.666  29.401  1.00  0.00    -0.053 A 
ATOM     71  H   UNL A   1      35.734  34.974  28.019  1.00  0.00     0.063 H 
ATOM     72  C   UNL A   1      36.423  32.826  30.504  1.00  0.00    -0.014 A 
ATOM     73  H   UNL A   1      34.946  32.010  31.782  1.00  0.00     0.063 H 
ATOM     74  H   UNL A   1      37.597  33.817  29.051  1.00  0.00     0.063 H 
BRANCH  72  75
ATOM     75  C   UNL A   1      37.587  32.220  31.197  1.00  0.00     0.031 A 
ATOM     76  C   UNL A   1      38.332  31.083  30.557  1.00  0.00     0.074 A 
ATOM     77  C   UNL A   1      37.935  32.654  32.424  1.00  0.00     0.049 A 
ATOM     78  N   UNL A   1      39.323  30.370  31.028  1.00  0.00    -0.248 NA
ATOM     79  C   UNL A   1      37.883  30.670  29.217  1.00  0.00    -0.034 C 
ATOM     80  C   UNL A   1      37.264  33.722  33.165  1.00  0.00    -0.036 A 
ATOM     81  N   UNL A   1      38.936  32.241  33.267  1.00  0.00    -0.354 N 
ATOM     82  C   UNL A   1      39.602  29.420  30.054  1.00  0.00     0.074 A 
ATOM     83  C   UNL A   1      38.641  29.609  28.991  1.00  0.00    -0.034 C 
ATOM     84  H   UNL A   1      37.164  31.098  28.611  1.00  0.00     0.065 H 
ATOM     85  C   UNL A   1      37.883  33.895  34.344  1.00  0.00    -0.036 A 
ATOM     86  H   UNL A   1      36.445  34.257  32.835  1.00  0.00     0.065 H 
ATOM     87  C   UNL A   1      38.970  32.926  34.457  1.00  0.00     0.049 A 
ATOM     88  H   UNL A   1      39.569  31.522  33.041  1.00  0.00     0.167 HD
ATOM     89  C   UNL A   1      40.587  28.490  30.038  1.00  0.00     0.037 A 
ATOM     90  H   UNL A   1      38.557  28.997  28.164  1.00  0.00     0.065 H 
ATOM     91  H   UNL A   1      37.631  34.599  35.055  1.00  0.00     0.065 H 
ATOM     92  C   UNL A   1      39.783  32.784  35.520  1.00  0.00     0.037 A 
ATOM     93  C   UNL A   1      41.560  28.327  31.086  1.00  0.00     0.049 A 
ATOM     94  C   UNL A   1      40.869  31.742  35.478  1.00  0.00     0.074 A 
ATOM     95  C   UNL A   1      42.632  27.455  31.140  1.00  0.00    -0.036 A 
ATOM     96  N   UNL A   1      41.577  29.056  32.267  1.00  0.00    -0.354 N 
ATOM     97  N   UNL A   1      41.164  30.891  34.525  1.00  0.00    -0.248 NA
ATOM     98  C   UNL A   1      41.742  31.647  36.656  1.00  0.00    -0.034 C 
ATOM     99  C   UNL A   1      43.271  27.623  32.374  1.00  0.00    -0.036 A 
ATOM    100  H   UNL A   1      42.913  26.794  30.398  1.00  0.00     0.065 H 
ATOM    101  C   UNL A   1      42.629  28.637  33.065  1.00  0.00     0.049 A 
ATOM    102  H   UNL A   1      40.935  29.764  32.502  1.00  0.00     0.167 HD
ATOM    103  C   UNL A   1      42.272  30.183  34.972  1.00  0.00     0.074 A 
ATOM    104  C   UNL A   1      42.605  30.714  36.278  1.00  0.00    -0.034 C 
ATOM    105  H   UNL A   1      41.696  32.169  37.544  1.00  0.00     0.065 H 
ATOM    106  H   UNL A   1      44.082  27.082  32.711  1.00  0.00     0.065 H 
ATOM    107  C   UNL A   1      42.952  29.185  34.358  1.00  0.00     0.037 A 
ATOM    108  H   UNL A   1      43.411  30.406  36.843  1.00  0.00     0.065 H 
BRANCH  89 109
ATOM    109  C   UNL A   1      40.664  27.580  28.846  1.00  0.00     0.064 A 
ATOM    110  C   UNL A   1      41.539  27.834  27.778  1.00  0.00     0.173 A 
ATOM    111  C   UNL A   1      39.875  26.421  28.783  1.00  0.00     0.173 A 
ATOM    112  F   UNL A   1      42.307  28.935  27.783  1.00  0.00    -0.203 F 
ATOM    113  C   UNL A   1      41.599  26.981  26.680  1.00  0.00     0.198 A 
ATOM    114  C   UNL A   1      39.960  25.554  27.696  1.00  0.00     0.198 A 
ATOM    115  F   UNL A   1      39.024  26.127  29.777  1.00  0.00    -0.203 F 
ATOM    116  F   UNL A   1      42.403  27.274  25.648  1.00  0.00    -0.200 F 
ATOM    117  C   UNL A   1      40.815  25.838  26.643  1.00  0.00     0.200 A 
ATOM    118  F   UNL A   1      39.212  24.442  27.670  1.00  0.00    -0.200 F 
ATOM    119  F   UNL A   1      40.877  25.015  25.588  1.00  0.00    -0.200 F 
ENDBRANCH  89 109
BRANCH  92 120
ATOM    120  C   UNL A   1      39.620  33.665  36.705  1.00  0.00     0.064 A 
ATOM    121  C   UNL A   1      38.794  33.288  37.774  1.00  0.00     0.173 A 
ATOM    122  C   UNL A   1      40.277  34.900  36.795  1.00  0.00     0.173 A 
ATOM    123  F   UNL A   1      38.129  32.124  37.727  1.00  0.00    -0.203 F 
ATOM    124  C   UNL A   1      38.612  34.123  38.875  1.00  0.00     0.198 A 
ATOM    125  C   UNL A   1      40.119  35.721  37.910  1.00  0.00     0.198 A 
ATOM    126  F   UNL A   1      41.085  35.305  35.803  1.00  0.00    -0.203 F 
ATOM    127  F   UNL A   1      37.780  33.760  39.859  1.00  0.00    -0.200 F 
ATOM    128  C   UNL A   1      39.280  35.336  38.944  1.00  0.00     0.200 A 
ATOM    129  F   UNL A   1      40.777  36.887  37.979  1.00  0.00    -0.200 F 
ATOM    130  F   UNL A   1      39.109  36.139  40.004  1.00  0.00    -0.200 F 
ENDBRANCH  92 120
BRANCH 107 131
ATOM    131  C   UNL A   1      44.152  28.630  35.069  1.00  0.00     0.064 A 
ATOM    132  C   UNL A   1      45.419  29.218  34.947  1.00  0.00     0.173 A 
ATOM    133  C   UNL A   1      44.021  27.520  35.917  1.00  0.00     0.173 A 
ATOM    134  F   UNL A   1      45.600  30.271  34.137  1.00  0.00    -0.203 F 
ATOM    135  C   UNL A   1      46.517  28.697  35.628  1.00  0.00     0.198 A 
ATOM    136  C   UNL A   1      45.114  27.022  36.621  1.00  0.00     0.198 A 
ATOM    137  F   UNL A   1      42.828  26.926  36.074  1.00  0.00    -0.203 F 
ATOM    138  F   UNL A   1      47.728  29.245  35.458  1.00  0.00    -0.200 F 
ATOM    139  C   UNL A   1      46.362  27.607  36.470  1.00  0.00     0.200 A 
ATOM    140  F   UNL A   1      44.959  25.978  37.446  1.00  0.00    -0.200 F 
ATOM    141  F   UNL A   1      47.418  27.113  37.131  1.00  0.00    -0.200 F 
ENDBRANCH 107 131
ENDBRANCH  72  75
ENDBRANCH  62  65
ENDBRANCH  58  61
ENDBRANCH  55  58
ENDBRANCH  52  55
ENDBRANCH   1  52
TORSDOF 19
ENDMDL
MODEL 7
REMARK VINA RESULT:     -12.0      1.782      2.356
REMARK SMILES CC(=O)Nc1ccc(/C(=C\c2ccc(S(C)(=O)=O)cc2)C(=O)NCCCCCCNC(=O)c2ccc(-c3c4nc(c(-c5c(F)c(F)c(F)c(F)c5F)c5ccc([nH]5)c(-c5c(F)c(F)c(F)c(F)c5F)c5nc(c(-c6c(F)c(F)c(F)c(F)c6F)c6ccc3[nH]6)C=C5)C=C4)cc2)cc1
REMARK SMILES IDX 26 1 25 4 24 7 23 10 21 11 22 12 9 14 10 15 8 17 5 18 6 19
REMARK SMILES IDX 97 20 7 21 96 23 4 27 2 28 3 29 1 31 11 35 12 36 20 37 13 38
REMARK SMILES IDX 19 40 14 42 15 45 17 46 18 47 16 48 27 52 28 55 29 58 30 61
REMARK SMILES IDX 31 62 32 64 33 65 34 66 95 67 35 68 94 70 36 72 37 75 38 76
REMARK SMILES IDX 88 77 39 78 93 79 87 80 89 81 40 82 92 83 86 85 85 87 41 89
REMARK SMILES IDX 73 92 53 93 72 94 54 95 57 96 71 97 90 98 55 99 56 101
REMARK SMILES IDX 70 103 91 104 58 107 42 109 43 110 51 111 44 112 45 113
REMARK SMILES IDX 49 114 52 115 46 116 47 117 50 118 48 119 74 120 75 121
REMARK SMILES IDX 83 122 76 123 77 124 81 125 84 126 78 127 79 128 82 129
REMARK SMILES IDX 80 130 59 131 60 132 68 133 61 134 62 135 66 136 69 137
REMARK SMILES IDX 63 138 64 139 67 140 65 141
REMARK H PARENT 26 2 26 3 25 5 25 6 24 8 24 9 23 13 10 16 6 22 97 24 7 25
REMARK H PARENT 96 26 4 30 1 32 1 33 1 34 12 39 20 41 13 43 19 44 16 49 16 50
REMARK H PARENT 16 51 27 53 27 54 28 56 28 57 29 59 29 60 30 63 34 69 95 71
REMARK H PARENT 35 73 94 74 93 84 87 86 89 88 92 90 86 91 54 100 57 102 90 105
REMARK H PARENT 55 106 91 108
REMARK Flexibility Score: inf
ROOT
ATOM      1  C   UNL A   1      31.784  29.289  26.844  1.00  0.00    -0.052 C 
ATOM      2  H   UNL A   1      32.190  29.731  27.731  1.00  0.00     0.027 H 
ATOM      3  H   UNL A   1      30.876  28.750  27.017  1.00  0.00     0.027 H 
ENDROOT
BRANCH   1   4
ATOM      4  C   UNL A   1      32.801  28.264  26.315  1.00  0.00    -0.036 C 
ATOM      5  H   UNL A   1      33.248  28.658  25.427  1.00  0.00     0.028 H 
ATOM      6  H   UNL A   1      33.517  28.101  27.092  1.00  0.00     0.028 H 
BRANCH   4   7
ATOM      7  C   UNL A   1      32.178  26.904  25.983  1.00  0.00     0.018 C 
ATOM      8  H   UNL A   1      32.823  26.124  26.328  1.00  0.00     0.049 H 
ATOM      9  H   UNL A   1      31.225  26.822  26.465  1.00  0.00     0.049 H 
BRANCH   7  10
ATOM     10  N   UNL A   1      32.002  26.786  24.552  1.00  0.00    -0.352 N 
ATOM     11  C   UNL A   1      32.267  25.847  23.608  1.00  0.00     0.251 C 
ATOM     12  O   UNL A   1      31.983  26.217  22.466  1.00  0.00    -0.269 OA
ATOM     13  H   UNL A   1      31.585  27.588  24.164  1.00  0.00     0.163 HD
BRANCH  11  14
ATOM     14  C   UNL A   1      32.780  24.436  23.893  1.00  0.00     0.047 C 
ATOM     15  C   UNL A   1      31.882  23.442  24.098  1.00  0.00    -0.042 C 
ATOM     16  H   UNL A   1      30.907  23.748  24.237  1.00  0.00     0.064 H 
BRANCH  14  17
ATOM     17  C   UNL A   1      34.258  24.226  24.138  1.00  0.00    -0.013 A 
ATOM     18  C   UNL A   1      36.877  23.366  24.888  1.00  0.00     0.041 A 
ATOM     19  C   UNL A   1      36.432  23.241  23.571  1.00  0.00    -0.038 A 
ATOM     20  C   UNL A   1      36.084  24.076  25.772  1.00  0.00    -0.038 A 
ATOM     21  C   UNL A   1      35.153  23.697  23.196  1.00  0.00    -0.052 A 
ATOM     22  H   UNL A   1      37.047  22.810  22.864  1.00  0.00     0.064 H 
ATOM     23  C   UNL A   1      34.789  24.458  25.415  1.00  0.00    -0.052 A 
ATOM     24  H   UNL A   1      36.453  24.326  26.703  1.00  0.00     0.064 H 
ATOM     25  H   UNL A   1      34.868  23.641  22.205  1.00  0.00     0.063 H 
ATOM     26  H   UNL A   1      34.199  24.930  26.119  1.00  0.00     0.063 H 
BRANCH  18  27
ATOM     27  N   UNL A   1      38.095  22.761  25.240  1.00  0.00    -0.326 N 
ATOM     28  C   UNL A   1      38.453  21.449  25.378  1.00  0.00     0.221 C 
ATOM     29  O   UNL A   1      39.591  21.187  25.779  1.00  0.00    -0.275 OA
ATOM     30  H   UNL A   1      38.823  23.398  25.421  1.00  0.00     0.169 HD
BRANCH  28  31
ATOM     31  C   UNL A   1      37.513  20.333  25.004  1.00  0.00     0.015 C 
ATOM     32  H   UNL A   1      37.054  20.553  24.063  1.00  0.00     0.033 H 
ATOM     33  H   UNL A   1      36.757  20.235  25.755  1.00  0.00     0.033 H 
ATOM     34  H   UNL A   1      38.060  19.415  24.927  1.00  0.00     0.033 H 
ENDBRANCH  28  31
ENDBRANCH  18  27
ENDBRANCH  14  17
BRANCH  15  35
ATOM     35  C   UNL A   1      32.103  21.989  24.150  1.00  0.00    -0.025 A 
ATOM     36  C   UNL A   1      32.154  21.300  22.924  1.00  0.00    -0.054 A 
ATOM     37  C   UNL A   1      32.334  21.297  25.341  1.00  0.00    -0.054 A 
ATOM     38  C   UNL A   1      32.496  19.948  22.882  1.00  0.00    -0.043 A 
ATOM     39  H   UNL A   1      31.936  21.799  22.048  1.00  0.00     0.063 H 
ATOM     40  C   UNL A   1      32.679  19.940  25.305  1.00  0.00    -0.043 A 
ATOM     41  H   UNL A   1      32.250  21.785  26.247  1.00  0.00     0.063 H 
ATOM     42  C   UNL A   1      32.770  19.278  24.076  1.00  0.00     0.067 A 
ATOM     43  H   UNL A   1      32.548  19.450  21.980  1.00  0.00     0.064 H 
ATOM     44  H   UNL A   1      32.866  19.430  26.183  1.00  0.00     0.064 H 
BRANCH  42  45
ATOM     45  S   UNL A   1      33.373  17.605  24.001  1.00  0.00     0.175 S 
ATOM     46  O   UNL A   1      32.901  17.042  22.751  1.00  0.00    -0.224 OA
ATOM     47  O   UNL A   1      34.789  17.636  24.315  1.00  0.00    -0.224 OA
BRANCH  45  48
ATOM     48  C   UNL A   1      32.537  16.784  25.330  1.00  0.00     0.043 C 
ATOM     49  H   UNL A   1      32.511  17.425  26.185  1.00  0.00     0.040 H 
ATOM     50  H   UNL A   1      33.057  15.882  25.575  1.00  0.00     0.040 H 
ATOM     51  H   UNL A   1      31.536  16.549  25.030  1.00  0.00     0.040 H 
ENDBRANCH  45  48
ENDBRANCH  42  45
ENDBRANCH  15  35
ENDBRANCH  11  14
ENDBRANCH   7  10
ENDBRANCH   4   7
ENDBRANCH   1   4
BRANCH   1  52
ATOM     52  C   UNL A   1      31.434  30.418  25.867  1.00  0.00    -0.052 C 
ATOM     53  H   UNL A   1      30.508  30.171  25.391  1.00  0.00     0.027 H 
ATOM     54  H   UNL A   1      32.253  30.490  25.182  1.00  0.00     0.027 H 
BRANCH  52  55
ATOM     55  C   UNL A   1      31.287  31.799  26.509  1.00  0.00    -0.036 C 
ATOM     56  H   UNL A   1      30.704  31.695  27.401  1.00  0.00     0.028 H 
ATOM     57  H   UNL A   1      30.822  32.431  25.783  1.00  0.00     0.028 H 
BRANCH  55  58
ATOM     58  C   UNL A   1      32.612  32.455  26.879  1.00  0.00     0.018 C 
ATOM     59  H   UNL A   1      33.252  32.452  26.021  1.00  0.00     0.049 H 
ATOM     60  H   UNL A   1      33.048  31.900  27.683  1.00  0.00     0.049 H 
BRANCH  58  61
ATOM     61  N   UNL A   1      32.425  33.826  27.323  1.00  0.00    -0.352 N 
ATOM     62  C   UNL A   1      33.021  34.485  28.369  1.00  0.00     0.251 C 
ATOM     63  H   UNL A   1      31.781  34.357  26.801  1.00  0.00     0.163 HD
ATOM     64  O   UNL A   1      32.584  35.565  28.751  1.00  0.00    -0.269 OA
BRANCH  62  65
ATOM     65  C   UNL A   1      34.190  33.882  29.042  1.00  0.00     0.039 A 
ATOM     66  C   UNL A   1      35.466  34.371  28.750  1.00  0.00    -0.049 A 
ATOM     67  C   UNL A   1      34.029  32.821  29.938  1.00  0.00    -0.049 A 
ATOM     68  C   UNL A   1      36.579  33.822  29.388  1.00  0.00    -0.053 A 
ATOM     69  H   UNL A   1      35.585  35.135  28.066  1.00  0.00     0.063 H 
ATOM     70  C   UNL A   1      35.130  32.324  30.627  1.00  0.00    -0.053 A 
ATOM     71  H   UNL A   1      33.095  32.407  30.087  1.00  0.00     0.063 H 
ATOM     72  C   UNL A   1      36.417  32.808  30.348  1.00  0.00    -0.014 A 
ATOM     73  H   UNL A   1      37.525  34.161  29.154  1.00  0.00     0.063 H 
ATOM     74  H   UNL A   1      35.001  31.597  31.348  1.00  0.00     0.063 H 
BRANCH  72  75
ATOM     75  C   UNL A   1      37.585  32.216  31.045  1.00  0.00     0.031 A 
ATOM     76  C   UNL A   1      38.368  31.112  30.391  1.00  0.00     0.074 A 
ATOM     77  C   UNL A   1      37.905  32.629  32.287  1.00  0.00     0.049 A 
ATOM     78  N   UNL A   1      39.370  30.413  30.861  1.00  0.00    -0.248 NA
ATOM     79  C   UNL A   1      37.949  30.720  29.035  1.00  0.00    -0.034 C 
ATOM     80  C   UNL A   1      37.196  33.664  33.042  1.00  0.00    -0.036 A 
ATOM     81  N   UNL A   1      38.903  32.222  33.136  1.00  0.00    -0.354 N 
ATOM     82  C   UNL A   1      39.687  29.493  29.870  1.00  0.00     0.074 A 
ATOM     83  C   UNL A   1      38.736  29.683  28.796  1.00  0.00    -0.034 C 
ATOM     84  H   UNL A   1      37.229  31.144  28.429  1.00  0.00     0.065 H 
ATOM     85  C   UNL A   1      37.794  33.824  34.233  1.00  0.00    -0.036 A 
ATOM     86  H   UNL A   1      36.370  34.186  32.711  1.00  0.00     0.065 H 
ATOM     87  C   UNL A   1      38.903  32.881  34.341  1.00  0.00     0.049 A 
ATOM     88  H   UNL A   1      39.557  31.524  32.903  1.00  0.00     0.167 HD
ATOM     89  C   UNL A   1      40.695  28.589  29.847  1.00  0.00     0.037 A 
ATOM     90  H   UNL A   1      38.679  29.088  27.955  1.00  0.00     0.065 H 
ATOM     91  H   UNL A   1      37.514  34.505  34.956  1.00  0.00     0.065 H 
ATOM     92  C   UNL A   1      39.704  32.734  35.413  1.00  0.00     0.037 A 
ATOM     93  C   UNL A   1      41.656  28.425  30.906  1.00  0.00     0.049 A 
ATOM     94  C   UNL A   1      40.816  31.720  35.363  1.00  0.00     0.074 A 
ATOM     95  C   UNL A   1      42.749  27.578  30.957  1.00  0.00    -0.036 A 
ATOM     96  N   UNL A   1      41.637  29.127  32.103  1.00  0.00    -0.354 N 
ATOM     97  N   UNL A   1      41.145  30.899  34.396  1.00  0.00    -0.248 NA
ATOM     98  C   UNL A   1      41.673  31.620  36.552  1.00  0.00    -0.034 C 
ATOM     99  C   UNL A   1      43.365  27.734  32.204  1.00  0.00    -0.036 A 
ATOM    100  H   UNL A   1      43.057  26.942  30.204  1.00  0.00     0.065 H 
ATOM    101  C   UNL A   1      42.688  28.716  32.908  1.00  0.00     0.049 A 
ATOM    102  H   UNL A   1      40.975  29.814  32.345  1.00  0.00     0.167 HD
ATOM    103  C   UNL A   1      42.264  30.209  34.843  1.00  0.00     0.074 A 
ATOM    104  C   UNL A   1      42.565  30.717  36.166  1.00  0.00    -0.034 C 
ATOM    105  H   UNL A   1      41.601  32.120  37.451  1.00  0.00     0.065 H 
ATOM    106  H   UNL A   1      44.184  27.205  32.540  1.00  0.00     0.065 H 
ATOM    107  C   UNL A   1      42.978  29.242  34.217  1.00  0.00     0.037 A 
ATOM    108  H   UNL A   1      43.371  30.416  36.736  1.00  0.00     0.065 H 
BRANCH  89 109
ATOM    109  C   UNL A   1      40.811  27.708  28.636  1.00  0.00     0.064 A 
ATOM    110  C   UNL A   1      41.652  28.039  27.562  1.00  0.00     0.173 A 
ATOM    111  C   UNL A   1      40.097  26.502  28.561  1.00  0.00     0.173 A 
ATOM    112  F   UNL A   1      42.348  29.186  27.578  1.00  0.00    -0.203 F 
ATOM    113  C   UNL A   1      41.749  27.212  26.446  1.00  0.00     0.198 A 
ATOM    114  C   UNL A   1      40.222  25.663  27.456  1.00  0.00     0.198 A 
ATOM    115  F   UNL A   1      39.282  26.135  29.561  1.00  0.00    -0.203 F 
ATOM    116  F   UNL A   1      42.517  27.577  25.409  1.00  0.00    -0.200 F 
ATOM    117  C   UNL A   1      41.040  26.022  26.397  1.00  0.00     0.200 A 
ATOM    118  F   UNL A   1      39.546  24.506  27.418  1.00  0.00    -0.200 F 
ATOM    119  F   UNL A   1      41.139  25.225  25.324  1.00  0.00    -0.200 F 
ENDBRANCH  89 109
BRANCH  92 120
ATOM    120  C   UNL A   1      39.501  33.583  36.615  1.00  0.00     0.064 A 
ATOM    121  C   UNL A   1      40.091  34.852  36.707  1.00  0.00     0.173 A 
ATOM    122  C   UNL A   1      38.721  33.147  37.696  1.00  0.00     0.173 A 
ATOM    123  F   UNL A   1      40.861  35.306  35.707  1.00  0.00    -0.203 F 
ATOM    124  C   UNL A   1      39.929  35.641  37.844  1.00  0.00     0.198 A 
ATOM    125  C   UNL A   1      38.536  33.950  38.820  1.00  0.00     0.198 A 
ATOM    126  F   UNL A   1      38.129  31.944  37.655  1.00  0.00    -0.203 F 
ATOM    127  F   UNL A   1      40.544  36.829  37.926  1.00  0.00    -0.200 F 
ATOM    128  C   UNL A   1      39.147  35.192  38.897  1.00  0.00     0.200 A 
ATOM    129  F   UNL A   1      37.766  33.517  39.828  1.00  0.00    -0.200 F 
ATOM    130  F   UNL A   1      38.988  35.952  39.989  1.00  0.00    -0.200 F 
ENDBRANCH  92 120
BRANCH 107 131
ATOM    131  C   UNL A   1      44.181  28.700  34.934  1.00  0.00     0.064 A 
ATOM    132  C   UNL A   1      44.098  27.572  35.764  1.00  0.00     0.173 A 
ATOM    133  C   UNL A   1      45.440  29.292  34.753  1.00  0.00     0.173 A 
ATOM    134  F   UNL A   1      42.915  26.978  35.981  1.00  0.00    -0.203 F 
ATOM    135  C   UNL A   1      45.228  27.074  36.408  1.00  0.00     0.198 A 
ATOM    136  C   UNL A   1      46.572  28.773  35.373  1.00  0.00     0.198 A 
ATOM    137  F   UNL A   1      45.573  30.368  33.964  1.00  0.00    -0.203 F 
ATOM    138  F   UNL A   1      45.117  26.025  37.234  1.00  0.00    -0.200 F 
ATOM    139  C   UNL A   1      46.464  27.669  36.205  1.00  0.00     0.200 A 
ATOM    140  F   UNL A   1      47.768  29.339  35.164  1.00  0.00    -0.200 F 
ATOM    141  F   UNL A   1      47.552  27.182  36.819  1.00  0.00    -0.200 F 
ENDBRANCH 107 131
ENDBRANCH  72  75
ENDBRANCH  62  65
ENDBRANCH  58  61
ENDBRANCH  55  58
ENDBRANCH  52  55
ENDBRANCH   1  52
TORSDOF 19
ENDMDL
MODEL 8
REMARK VINA RESULT:     -12.0      4.384      8.186
REMARK SMILES CC(=O)Nc1ccc(/C(=C\c2ccc(S(C)(=O)=O)cc2)C(=O)NCCCCCCNC(=O)c2ccc(-c3c4nc(c(-c5c(F)c(F)c(F)c(F)c5F)c5ccc([nH]5)c(-c5c(F)c(F)c(F)c(F)c5F)c5nc(c(-c6c(F)c(F)c(F)c(F)c6F)c6ccc3[nH]6)C=C5)C=C4)cc2)cc1
REMARK SMILES IDX 26 1 25 4 24 7 23 10 21 11 22 12 9 14 10 15 8 17 5 18 6 19
REMARK SMILES IDX 97 20 7 21 96 23 4 27 2 28 3 29 1 31 11 35 12 36 20 37 13 38
REMARK SMILES IDX 19 40 14 42 15 45 17 46 18 47 16 48 27 52 28 55 29 58 30 61
REMARK SMILES IDX 31 62 32 64 33 65 34 66 95 67 35 68 94 70 36 72 37 75 38 76
REMARK SMILES IDX 88 77 39 78 93 79 87 80 89 81 40 82 92 83 86 85 85 87 41 89
REMARK SMILES IDX 73 92 53 93 72 94 54 95 57 96 71 97 90 98 55 99 56 101
REMARK SMILES IDX 70 103 91 104 58 107 42 109 43 110 51 111 44 112 45 113
REMARK SMILES IDX 49 114 52 115 46 116 47 117 50 118 48 119 74 120 75 121
REMARK SMILES IDX 83 122 76 123 77 124 81 125 84 126 78 127 79 128 82 129
REMARK SMILES IDX 80 130 59 131 60 132 68 133 61 134 62 135 66 136 69 137
REMARK SMILES IDX 63 138 64 139 67 140 65 141
REMARK H PARENT 26 2 26 3 25 5 25 6 24 8 24 9 23 13 10 16 6 22 97 24 7 25
REMARK H PARENT 96 26 4 30 1 32 1 33 1 34 12 39 20 41 13 43 19 44 16 49 16 50
REMARK H PARENT 16 51 27 53 27 54 28 56 28 57 29 59 29 60 30 63 34 69 95 71
REMARK H PARENT 35 73 94 74 93 84 87 86 89 88 92 90 86 91 54 100 57 102 90 105
REMARK H PARENT 55 106 91 108
REMARK Flexibility Score: inf
ROOT
ATOM      1  C   UNL A   1      36.843  21.861  24.282  1.00  0.00    -0.052 C 
ATOM      2  H   UNL A   1      37.861  22.113  24.496  1.00  0.00     0.027 H 
ATOM      3  H   UNL A   1      36.632  21.798  23.235  1.00  0.00     0.027 H 
ENDROOT
BRANCH   1   4
ATOM      4  C   UNL A   1      35.948  22.984  24.835  1.00  0.00    -0.036 C 
ATOM      5  H   UNL A   1      35.729  22.768  25.859  1.00  0.00     0.028 H 
ATOM      6  H   UNL A   1      36.487  23.900  24.719  1.00  0.00     0.028 H 
BRANCH   4   7
ATOM      7  C   UNL A   1      34.626  23.137  24.077  1.00  0.00     0.018 C 
ATOM      8  H   UNL A   1      34.500  24.159  23.785  1.00  0.00     0.049 H 
ATOM      9  H   UNL A   1      34.641  22.516  23.205  1.00  0.00     0.049 H 
BRANCH   7  10
ATOM     10  N   UNL A   1      33.527  22.741  24.929  1.00  0.00    -0.352 N 
ATOM     11  C   UNL A   1      32.419  23.337  25.438  1.00  0.00     0.251 C 
ATOM     12  O   UNL A   1      31.773  22.599  26.186  1.00  0.00    -0.269 OA
ATOM     13  H   UNL A   1      33.600  21.801  25.212  1.00  0.00     0.163 HD
BRANCH  11  14
ATOM     14  C   UNL A   1      31.935  24.742  25.080  1.00  0.00     0.047 C 
ATOM     15  C   UNL A   1      31.282  24.931  23.908  1.00  0.00    -0.042 C 
ATOM     16  H   UNL A   1      31.323  24.141  23.245  1.00  0.00     0.064 H 
BRANCH  14  17
ATOM     17  C   UNL A   1      32.370  25.911  25.936  1.00  0.00    -0.013 A 
ATOM     18  C   UNL A   1      33.122  28.421  27.074  1.00  0.00     0.041 A 
ATOM     19  C   UNL A   1      31.898  27.828  27.391  1.00  0.00    -0.038 A 
ATOM     20  C   UNL A   1      34.027  27.677  26.340  1.00  0.00    -0.038 A 
ATOM     21  C   UNL A   1      31.544  26.575  26.855  1.00  0.00    -0.052 A 
ATOM     22  H   UNL A   1      31.245  28.315  28.024  1.00  0.00     0.064 H 
ATOM     23  C   UNL A   1      33.643  26.470  25.751  1.00  0.00    -0.052 A 
ATOM     24  H   UNL A   1      34.996  28.016  26.227  1.00  0.00     0.064 H 
ATOM     25  H   UNL A   1      30.657  26.135  27.146  1.00  0.00     0.063 H 
ATOM     26  H   UNL A   1      34.322  25.970  25.155  1.00  0.00     0.063 H 
BRANCH  18  27
ATOM     27  N   UNL A   1      33.359  29.734  27.513  1.00  0.00    -0.326 N 
ATOM     28  C   UNL A   1      32.837  30.934  27.118  1.00  0.00     0.221 C 
ATOM     29  O   UNL A   1      33.282  31.967  27.626  1.00  0.00    -0.275 OA
ATOM     30  H   UNL A   1      34.024  29.803  28.236  1.00  0.00     0.169 HD
BRANCH  28  31
ATOM     31  C   UNL A   1      31.705  31.012  26.127  1.00  0.00     0.015 C 
ATOM     32  H   UNL A   1      31.907  30.362  25.302  1.00  0.00     0.033 H 
ATOM     33  H   UNL A   1      31.609  32.017  25.772  1.00  0.00     0.033 H 
ATOM     34  H   UNL A   1      30.793  30.713  26.601  1.00  0.00     0.033 H 
ENDBRANCH  28  31
ENDBRANCH  18  27
ENDBRANCH  14  17
BRANCH  15  35
ATOM     35  C   UNL A   1      30.521  26.102  23.448  1.00  0.00    -0.025 A 
ATOM     36  C   UNL A   1      29.184  26.212  23.875  1.00  0.00    -0.054 A 
ATOM     37  C   UNL A   1      31.087  27.124  22.684  1.00  0.00    -0.054 A 
ATOM     38  C   UNL A   1      28.442  27.359  23.597  1.00  0.00    -0.043 A 
ATOM     39  H   UNL A   1      28.750  25.437  24.398  1.00  0.00     0.063 H 
ATOM     40  C   UNL A   1      30.346  28.279  22.402  1.00  0.00    -0.043 A 
ATOM     41  H   UNL A   1      32.051  27.030  22.326  1.00  0.00     0.063 H 
ATOM     42  C   UNL A   1      29.033  28.394  22.871  1.00  0.00     0.067 A 
ATOM     43  H   UNL A   1      27.467  27.443  23.924  1.00  0.00     0.064 H 
ATOM     44  H   UNL A   1      30.769  29.043  21.851  1.00  0.00     0.064 H 
BRANCH  42  45
ATOM     45  S   UNL A   1      28.141  29.921  22.670  1.00  0.00     0.175 S 
ATOM     46  O   UNL A   1      28.126  30.217  21.251  1.00  0.00    -0.224 OA
ATOM     47  O   UNL A   1      26.903  29.806  23.419  1.00  0.00    -0.224 OA
BRANCH  45  48
ATOM     48  C   UNL A   1      29.158  31.126  23.477  1.00  0.00     0.043 C 
ATOM     49  H   UNL A   1      29.807  30.637  24.172  1.00  0.00     0.040 H 
ATOM     50  H   UNL A   1      28.538  31.825  23.997  1.00  0.00     0.040 H 
ATOM     51  H   UNL A   1      29.744  31.645  22.746  1.00  0.00     0.040 H 
ENDBRANCH  45  48
ENDBRANCH  42  45
ENDBRANCH  15  35
ENDBRANCH  11  14
ENDBRANCH   7  10
ENDBRANCH   4   7
ENDBRANCH   1   4
BRANCH   1  52
ATOM     52  C   UNL A   1      36.565  20.469  24.861  1.00  0.00    -0.052 C 
ATOM     53  H   UNL A   1      35.867  19.973  24.218  1.00  0.00     0.027 H 
ATOM     54  H   UNL A   1      36.189  20.621  25.851  1.00  0.00     0.027 H 
BRANCH  52  55
ATOM     55  C   UNL A   1      37.799  19.575  25.001  1.00  0.00    -0.036 C 
ATOM     56  H   UNL A   1      38.151  19.331  24.020  1.00  0.00     0.028 H 
ATOM     57  H   UNL A   1      37.497  18.714  25.558  1.00  0.00     0.028 H 
BRANCH  55  58
ATOM     58  C   UNL A   1      38.945  20.218  25.773  1.00  0.00     0.018 C 
ATOM     59  H   UNL A   1      38.586  20.529  26.733  1.00  0.00     0.049 H 
ATOM     60  H   UNL A   1      39.302  21.054  25.209  1.00  0.00     0.049 H 
BRANCH  58  61
ATOM     61  N   UNL A   1      40.051  19.293  25.961  1.00  0.00    -0.352 N 
ATOM     62  C   UNL A   1      41.383  19.565  26.142  1.00  0.00     0.251 C 
ATOM     63  H   UNL A   1      39.810  18.339  25.957  1.00  0.00     0.163 HD
ATOM     64  O   UNL A   1      42.216  18.669  26.055  1.00  0.00    -0.269 OA
BRANCH  62  65
ATOM     65  C   UNL A   1      41.815  20.947  26.436  1.00  0.00     0.039 A 
ATOM     66  C   UNL A   1      42.012  21.835  25.376  1.00  0.00    -0.049 A 
ATOM     67  C   UNL A   1      42.049  21.357  27.753  1.00  0.00    -0.049 A 
ATOM     68  C   UNL A   1      42.406  23.148  25.639  1.00  0.00    -0.053 A 
ATOM     69  H   UNL A   1      41.867  21.522  24.403  1.00  0.00     0.063 H 
ATOM     70  C   UNL A   1      42.370  22.684  28.018  1.00  0.00    -0.053 A 
ATOM     71  H   UNL A   1      41.983  20.676  28.526  1.00  0.00     0.063 H 
ATOM     72  C   UNL A   1      42.567  23.588  26.964  1.00  0.00    -0.014 A 
ATOM     73  H   UNL A   1      42.580  23.798  24.857  1.00  0.00     0.063 H 
ATOM     74  H   UNL A   1      42.463  23.005  28.994  1.00  0.00     0.063 H 
BRANCH  72  75
ATOM     75  C   UNL A   1      42.976  24.982  27.266  1.00  0.00     0.031 A 
ATOM     76  C   UNL A   1      44.385  25.426  26.987  1.00  0.00     0.074 A 
ATOM     77  C   UNL A   1      42.101  25.826  27.845  1.00  0.00     0.049 A 
ATOM     78  N   UNL A   1      44.961  26.572  27.248  1.00  0.00    -0.248 NA
ATOM     79  C   UNL A   1      45.276  24.438  26.357  1.00  0.00    -0.034 C 
ATOM     80  C   UNL A   1      40.720  25.499  28.201  1.00  0.00    -0.036 A 
ATOM     81  N   UNL A   1      42.247  27.132  28.242  1.00  0.00    -0.354 N 
ATOM     82  C   UNL A   1      46.278  26.437  26.830  1.00  0.00     0.074 A 
ATOM     83  C   UNL A   1      46.434  25.080  26.352  1.00  0.00    -0.034 C 
ATOM     84  H   UNL A   1      45.055  23.492  26.009  1.00  0.00     0.065 H 
ATOM     85  C   UNL A   1      40.139  26.580  28.746  1.00  0.00    -0.036 A 
ATOM     86  H   UNL A   1      40.265  24.584  28.056  1.00  0.00     0.065 H 
ATOM     87  C   UNL A   1      41.116  27.663  28.811  1.00  0.00     0.049 A 
ATOM     88  H   UNL A   1      43.083  27.638  28.131  1.00  0.00     0.167 HD
ATOM     89  C   UNL A   1      47.263  27.367  26.823  1.00  0.00     0.037 A 
ATOM     90  H   UNL A   1      47.329  24.668  26.048  1.00  0.00     0.065 H 
ATOM     91  H   UNL A   1      39.160  26.636  29.067  1.00  0.00     0.065 H 
ATOM     92  C   UNL A   1      40.896  28.885  29.332  1.00  0.00     0.037 A 
ATOM     93  C   UNL A   1      47.093  28.724  27.271  1.00  0.00     0.049 A 
ATOM     94  C   UNL A   1      42.007  29.900  29.314  1.00  0.00     0.074 A 
ATOM     95  C   UNL A   1      48.010  29.760  27.253  1.00  0.00    -0.036 A 
ATOM     96  N   UNL A   1      45.925  29.233  27.821  1.00  0.00    -0.354 N 
ATOM     97  N   UNL A   1      43.231  29.781  28.859  1.00  0.00    -0.248 NA
ATOM     98  C   UNL A   1      41.703  31.224  29.874  1.00  0.00    -0.034 C 
ATOM     99  C   UNL A   1      47.412  30.884  27.834  1.00  0.00    -0.036 A 
ATOM    100  H   UNL A   1      48.970  29.712  26.875  1.00  0.00     0.065 H 
ATOM    101  C   UNL A   1      46.106  30.563  28.165  1.00  0.00     0.049 A 
ATOM    102  H   UNL A   1      45.093  28.724  27.948  1.00  0.00     0.167 HD
ATOM    103  C   UNL A   1      43.832  31.019  29.046  1.00  0.00     0.074 A 
ATOM    104  C   UNL A   1      42.833  31.879  29.646  1.00  0.00    -0.034 C 
ATOM    105  H   UNL A   1      40.838  31.558  30.325  1.00  0.00     0.065 H 
ATOM    106  H   UNL A   1      47.868  31.796  27.989  1.00  0.00     0.065 H 
ATOM    107  C   UNL A   1      45.096  31.408  28.750  1.00  0.00     0.037 A 
ATOM    108  H   UNL A   1      42.981  32.877  29.867  1.00  0.00     0.065 H 
BRANCH  89 109
ATOM    109  C   UNL A   1      48.611  26.948  26.310  1.00  0.00     0.064 A 
ATOM    110  C   UNL A   1      48.965  27.097  24.959  1.00  0.00     0.173 A 
ATOM    111  C   UNL A   1      49.573  26.421  27.184  1.00  0.00     0.173 A 
ATOM    112  F   UNL A   1      48.077  27.585  24.078  1.00  0.00    -0.203 F 
ATOM    113  C   UNL A   1      50.218  26.704  24.499  1.00  0.00     0.198 A 
ATOM    114  C   UNL A   1      50.837  26.059  26.724  1.00  0.00     0.198 A 
ATOM    115  F   UNL A   1      49.290  26.261  28.485  1.00  0.00    -0.203 F 
ATOM    116  F   UNL A   1      50.513  26.805  23.195  1.00  0.00    -0.200 F 
ATOM    117  C   UNL A   1      51.156  26.192  25.382  1.00  0.00     0.200 A 
ATOM    118  F   UNL A   1      51.746  25.577  27.583  1.00  0.00    -0.200 F 
ATOM    119  F   UNL A   1      52.364  25.819  24.938  1.00  0.00    -0.200 F 
ENDBRANCH  89 109
BRANCH  92 120
ATOM    120  C   UNL A   1      39.562  29.226  29.892  1.00  0.00     0.064 A 
ATOM    121  C   UNL A   1      38.571  29.807  29.088  1.00  0.00     0.173 A 
ATOM    122  C   UNL A   1      39.251  28.984  31.238  1.00  0.00     0.173 A 
ATOM    123  F   UNL A   1      38.828  30.076  27.800  1.00  0.00    -0.203 F 
ATOM    124  C   UNL A   1      37.329  30.156  29.614  1.00  0.00     0.198 A 
ATOM    125  C   UNL A   1      37.997  29.305  31.755  1.00  0.00     0.198 A 
ATOM    126  F   UNL A   1      40.160  28.422  32.048  1.00  0.00    -0.203 F 
ATOM    127  F   UNL A   1      36.418  30.755  28.836  1.00  0.00    -0.200 F 
ATOM    128  C   UNL A   1      37.041  29.899  30.946  1.00  0.00     0.200 A 
ATOM    129  F   UNL A   1      37.719  29.042  33.040  1.00  0.00    -0.200 F 
ATOM    130  F   UNL A   1      35.845  30.232  31.452  1.00  0.00    -0.200 F 
ENDBRANCH  92 120
BRANCH 107 131
ATOM    131  C   UNL A   1      45.459  32.838  29.027  1.00  0.00     0.064 A 
ATOM    132  C   UNL A   1      46.056  33.225  30.236  1.00  0.00     0.173 A 
ATOM    133  C   UNL A   1      45.247  33.824  28.052  1.00  0.00     0.173 A 
ATOM    134  F   UNL A   1      46.267  32.323  31.205  1.00  0.00    -0.203 F 
ATOM    135  C   UNL A   1      46.401  34.555  30.468  1.00  0.00     0.198 A 
ATOM    136  C   UNL A   1      45.622  35.146  28.276  1.00  0.00     0.198 A 
ATOM    137  F   UNL A   1      44.687  33.503  26.877  1.00  0.00    -0.203 F 
ATOM    138  F   UNL A   1      46.925  34.911  31.649  1.00  0.00    -0.200 F 
ATOM    139  C   UNL A   1      46.192  35.511  29.486  1.00  0.00     0.200 A 
ATOM    140  F   UNL A   1      45.433  36.065  27.320  1.00  0.00    -0.200 F 
ATOM    141  F   UNL A   1      46.533  36.787  29.709  1.00  0.00    -0.200 F 
ENDBRANCH 107 131
ENDBRANCH  72  75
ENDBRANCH  62  65
ENDBRANCH  58  61
ENDBRANCH  55  58
ENDBRANCH  52  55
ENDBRANCH   1  52
TORSDOF 19
ENDMDL
MODEL 9
REMARK VINA RESULT:     -12.0      1.942      7.273
REMARK SMILES CC(=O)Nc1ccc(/C(=C\c2ccc(S(C)(=O)=O)cc2)C(=O)NCCCCCCNC(=O)c2ccc(-c3c4nc(c(-c5c(F)c(F)c(F)c(F)c5F)c5ccc([nH]5)c(-c5c(F)c(F)c(F)c(F)c5F)c5nc(c(-c6c(F)c(F)c(F)c(F)c6F)c6ccc3[nH]6)C=C5)C=C4)cc2)cc1
REMARK SMILES IDX 26 1 25 4 24 7 23 10 21 11 22 12 9 14 10 15 8 17 5 18 6 19
REMARK SMILES IDX 97 20 7 21 96 23 4 27 2 28 3 29 1 31 11 35 12 36 20 37 13 38
REMARK SMILES IDX 19 40 14 42 15 45 17 46 18 47 16 48 27 52 28 55 29 58 30 61
REMARK SMILES IDX 31 62 32 64 33 65 34 66 95 67 35 68 94 70 36 72 37 75 38 76
REMARK SMILES IDX 88 77 39 78 93 79 87 80 89 81 40 82 92 83 86 85 85 87 41 89
REMARK SMILES IDX 73 92 53 93 72 94 54 95 57 96 71 97 90 98 55 99 56 101
REMARK SMILES IDX 70 103 91 104 58 107 42 109 43 110 51 111 44 112 45 113
REMARK SMILES IDX 49 114 52 115 46 116 47 117 50 118 48 119 74 120 75 121
REMARK SMILES IDX 83 122 76 123 77 124 81 125 84 126 78 127 79 128 82 129
REMARK SMILES IDX 80 130 59 131 60 132 68 133 61 134 62 135 66 136 69 137
REMARK SMILES IDX 63 138 64 139 67 140 65 141
REMARK H PARENT 26 2 26 3 25 5 25 6 24 8 24 9 23 13 10 16 6 22 97 24 7 25
REMARK H PARENT 96 26 4 30 1 32 1 33 1 34 12 39 20 41 13 43 19 44 16 49 16 50
REMARK H PARENT 16 51 27 53 27 54 28 56 28 57 29 59 29 60 30 63 34 69 95 71
REMARK H PARENT 35 73 94 74 93 84 87 86 89 88 92 90 86 91 54 100 57 102 90 105
REMARK H PARENT 55 106 91 108
REMARK Flexibility Score: inf
ROOT
ATOM      1  C   UNL A   1      30.961  28.538  24.316  1.00  0.00    -0.052 C 
ATOM      2  H   UNL A   1      30.277  29.074  24.942  1.00  0.00     0.027 H 
ATOM      3  H   UNL A   1      30.711  28.586  23.277  1.00  0.00     0.027 H 
ENDROOT
BRANCH   1   4
ATOM      4  C   UNL A   1      30.898  27.051  24.706  1.00  0.00    -0.036 C 
ATOM      5  H   UNL A   1      31.862  26.754  25.063  1.00  0.00     0.028 H 
ATOM      6  H   UNL A   1      30.141  26.954  25.456  1.00  0.00     0.028 H 
BRANCH   4   7
ATOM      7  C   UNL A   1      30.505  26.133  23.545  1.00  0.00     0.018 C 
ATOM      8  H   UNL A   1      30.418  25.128  23.901  1.00  0.00     0.049 H 
ATOM      9  H   UNL A   1      29.567  26.453  23.141  1.00  0.00     0.049 H 
BRANCH   7  10
ATOM     10  N   UNL A   1      31.517  26.193  22.513  1.00  0.00    -0.352 N 
ATOM     11  C   UNL A   1      32.606  25.460  22.167  1.00  0.00     0.251 C 
ATOM     12  O   UNL A   1      33.224  25.934  21.211  1.00  0.00    -0.269 OA
ATOM     13  H   UNL A   1      31.382  26.957  21.909  1.00  0.00     0.163 HD
BRANCH  11  14
ATOM     14  C   UNL A   1      33.011  24.133  22.810  1.00  0.00     0.047 C 
ATOM     15  C   UNL A   1      32.054  23.207  23.058  1.00  0.00    -0.042 C 
ATOM     16  H   UNL A   1      31.081  23.540  22.969  1.00  0.00     0.064 H 
BRANCH  14  17
ATOM     17  C   UNL A   1      34.421  23.969  23.332  1.00  0.00    -0.013 A 
ATOM     18  C   UNL A   1      36.855  23.245  24.641  1.00  0.00     0.041 A 
ATOM     19  C   UNL A   1      36.637  22.918  23.301  1.00  0.00    -0.038 A 
ATOM     20  C   UNL A   1      35.940  24.079  25.258  1.00  0.00    -0.038 A 
ATOM     21  C   UNL A   1      35.450  23.305  22.648  1.00  0.00    -0.052 A 
ATOM     22  H   UNL A   1      37.353  22.386  22.784  1.00  0.00     0.064 H 
ATOM     23  C   UNL A   1      34.733  24.397  24.631  1.00  0.00    -0.052 A 
ATOM     24  H   UNL A   1      36.152  24.472  26.189  1.00  0.00     0.064 H 
ATOM     25  H   UNL A   1      35.337  23.096  21.644  1.00  0.00     0.063 H 
ATOM     26  H   UNL A   1      34.043  24.969  25.143  1.00  0.00     0.063 H 
BRANCH  18  27
ATOM     27  N   UNL A   1      37.982  22.707  25.283  1.00  0.00    -0.326 N 
ATOM     28  C   UNL A   1      38.374  21.415  25.503  1.00  0.00     0.221 C 
ATOM     29  O   UNL A   1      39.390  21.214  26.174  1.00  0.00    -0.275 OA
ATOM     30  H   UNL A   1      38.603  23.382  25.641  1.00  0.00     0.169 HD
BRANCH  28  31
ATOM     31  C   UNL A   1      37.627  20.253  24.904  1.00  0.00     0.015 C 
ATOM     32  H   UNL A   1      36.633  20.227  25.297  1.00  0.00     0.033 H 
ATOM     33  H   UNL A   1      38.131  19.340  25.147  1.00  0.00     0.033 H 
ATOM     34  H   UNL A   1      37.586  20.365  23.840  1.00  0.00     0.033 H 
ENDBRANCH  28  31
ENDBRANCH  18  27
ENDBRANCH  14  17
BRANCH  15  35
ATOM     35  C   UNL A   1      32.206  21.794  23.435  1.00  0.00    -0.025 A 
ATOM     36  C   UNL A   1      32.086  20.836  22.410  1.00  0.00    -0.054 A 
ATOM     37  C   UNL A   1      32.534  21.383  24.728  1.00  0.00    -0.054 A 
ATOM     38  C   UNL A   1      32.355  19.490  22.661  1.00  0.00    -0.043 A 
ATOM     39  H   UNL A   1      31.797  21.132  21.465  1.00  0.00     0.063 H 
ATOM     40  C   UNL A   1      32.805  20.033  24.986  1.00  0.00    -0.043 A 
ATOM     41  H   UNL A   1      32.576  22.073  25.495  1.00  0.00     0.063 H 
ATOM     42  C   UNL A   1      32.726  19.098  23.948  1.00  0.00     0.067 A 
ATOM     43  H   UNL A   1      32.280  18.793  21.904  1.00  0.00     0.064 H 
ATOM     44  H   UNL A   1      33.064  19.729  25.938  1.00  0.00     0.064 H 
BRANCH  42  45
ATOM     45  S   UNL A   1      33.233  17.413  24.219  1.00  0.00     0.175 S 
ATOM     46  O   UNL A   1      32.549  16.954  25.411  1.00  0.00    -0.224 OA
ATOM     47  O   UNL A   1      33.091  16.706  22.960  1.00  0.00    -0.224 OA
BRANCH  45  48
ATOM     48  C   UNL A   1      34.962  17.536  24.585  1.00  0.00     0.043 C 
ATOM     49  H   UNL A   1      35.332  16.578  24.885  1.00  0.00     0.040 H 
ATOM     50  H   UNL A   1      35.110  18.240  25.377  1.00  0.00     0.040 H 
ATOM     51  H   UNL A   1      35.489  17.865  23.712  1.00  0.00     0.040 H 
ENDBRANCH  45  48
ENDBRANCH  42  45
ENDBRANCH  15  35
ENDBRANCH  11  14
ENDBRANCH   7  10
ENDBRANCH   4   7
ENDBRANCH   1   4
BRANCH   1  52
ATOM     52  C   UNL A   1      32.343  29.186  24.457  1.00  0.00    -0.052 C 
ATOM     53  H   UNL A   1      32.268  29.983  25.167  1.00  0.00     0.027 H 
ATOM     54  H   UNL A   1      32.622  29.519  23.479  1.00  0.00     0.027 H 
BRANCH  52  55
ATOM     55  C   UNL A   1      33.451  28.238  24.922  1.00  0.00    -0.036 C 
ATOM     56  H   UNL A   1      34.248  28.276  24.209  1.00  0.00     0.028 H 
ATOM     57  H   UNL A   1      33.013  27.265  25.001  1.00  0.00     0.028 H 
BRANCH  55  58
ATOM     58  C   UNL A   1      34.020  28.576  26.294  1.00  0.00     0.018 C 
ATOM     59  H   UNL A   1      35.069  28.363  26.297  1.00  0.00     0.049 H 
ATOM     60  H   UNL A   1      33.508  27.983  27.024  1.00  0.00     0.049 H 
BRANCH  58  61
ATOM     61  N   UNL A   1      33.822  29.976  26.627  1.00  0.00    -0.352 N 
ATOM     62  C   UNL A   1      34.505  30.756  27.526  1.00  0.00     0.251 C 
ATOM     63  H   UNL A   1      33.096  30.428  26.140  1.00  0.00     0.163 HD
ATOM     64  O   UNL A   1      34.065  31.853  27.855  1.00  0.00    -0.269 OA
BRANCH  62  65
ATOM     65  C   UNL A   1      35.772  30.266  28.105  1.00  0.00     0.039 A 
ATOM     66  C   UNL A   1      36.947  30.382  27.358  1.00  0.00    -0.049 A 
ATOM     67  C   UNL A   1      35.797  29.670  29.370  1.00  0.00    -0.049 A 
ATOM     68  C   UNL A   1      38.155  29.936  27.897  1.00  0.00    -0.053 A 
ATOM     69  H   UNL A   1      36.923  30.794  26.412  1.00  0.00     0.063 H 
ATOM     70  C   UNL A   1      37.010  29.294  29.935  1.00  0.00    -0.053 A 
ATOM     71  H   UNL A   1      34.915  29.511  29.883  1.00  0.00     0.063 H 
ATOM     72  C   UNL A   1      38.199  29.408  29.199  1.00  0.00    -0.014 A 
ATOM     73  H   UNL A   1      39.021  29.994  27.337  1.00  0.00     0.063 H 
ATOM     74  H   UNL A   1      37.037  28.930  30.900  1.00  0.00     0.063 H 
BRANCH  72  75
ATOM     75  C   UNL A   1      39.473  28.937  29.795  1.00  0.00     0.031 A 
ATOM     76  C   UNL A   1      40.075  29.674  30.959  1.00  0.00     0.074 A 
ATOM     77  C   UNL A   1      40.117  27.884  29.253  1.00  0.00     0.049 A 
ATOM     78  N   UNL A   1      41.213  29.470  31.572  1.00  0.00    -0.248 NA
ATOM     79  C   UNL A   1      39.307  30.814  31.485  1.00  0.00    -0.034 C 
ATOM     80  C   UNL A   1      39.654  27.113  28.098  1.00  0.00    -0.036 A 
ATOM     81  N   UNL A   1      41.303  27.288  29.599  1.00  0.00    -0.354 N 
ATOM     82  C   UNL A   1      41.303  30.461  32.540  1.00  0.00     0.074 A 
ATOM     83  C   UNL A   1      40.134  31.301  32.397  1.00  0.00    -0.034 C 
ATOM     84  H   UNL A   1      38.368  31.147  31.215  1.00  0.00     0.065 H 
ATOM     85  C   UNL A   1      40.536  26.134  27.843  1.00  0.00    -0.036 A 
ATOM     86  H   UNL A   1      38.789  27.294  27.566  1.00  0.00     0.065 H 
ATOM     87  C   UNL A   1      41.642  26.230  28.791  1.00  0.00     0.049 A 
ATOM     88  H   UNL A   1      41.859  27.589  30.353  1.00  0.00     0.167 HD
ATOM     89  C   UNL A   1      42.262  30.640  33.480  1.00  0.00     0.037 A 
ATOM     90  H   UNL A   1      39.967  32.166  32.934  1.00  0.00     0.065 H 
ATOM     91  H   UNL A   1      40.446  25.427  27.097  1.00  0.00     0.065 H 
ATOM     92  C   UNL A   1      42.727  25.433  28.811  1.00  0.00     0.037 A 
ATOM     93  C   UNL A   1      43.407  29.783  33.637  1.00  0.00     0.049 A 
ATOM     94  C   UNL A   1      43.780  25.654  29.864  1.00  0.00     0.074 A 
ATOM     95  C   UNL A   1      44.406  29.844  34.592  1.00  0.00    -0.036 A 
ATOM     96  N   UNL A   1      43.706  28.707  32.813  1.00  0.00    -0.354 N 
ATOM     97  N   UNL A   1      43.824  26.555  30.815  1.00  0.00    -0.248 NA
ATOM     98  C   UNL A   1      44.929  24.739  29.853  1.00  0.00    -0.034 C 
ATOM     99  C   UNL A   1      45.334  28.833  34.319  1.00  0.00    -0.036 A 
ATOM    100  H   UNL A   1      44.458  30.518  35.372  1.00  0.00     0.065 H 
ATOM    101  C   UNL A   1      44.886  28.109  33.227  1.00  0.00     0.049 A 
ATOM    102  H   UNL A   1      43.160  28.413  32.049  1.00  0.00     0.167 HD
ATOM    103  C   UNL A   1      44.984  26.299  31.533  1.00  0.00     0.074 A 
ATOM    104  C   UNL A   1      45.609  25.147  30.915  1.00  0.00    -0.034 C 
ATOM    105  H   UNL A   1      45.150  23.978  29.192  1.00  0.00     0.065 H 
ATOM    106  H   UNL A   1      46.205  28.657  34.843  1.00  0.00     0.065 H 
ATOM    107  C   UNL A   1      45.487  26.956  32.606  1.00  0.00     0.037 A 
ATOM    108  H   UNL A   1      46.474  24.701  31.259  1.00  0.00     0.065 H 
BRANCH  89 109
ATOM    109  C   UNL A   1      42.110  31.807  34.415  1.00  0.00     0.064 A 
ATOM    110  C   UNL A   1      41.411  31.694  35.627  1.00  0.00     0.173 A 
ATOM    111  C   UNL A   1      42.697  33.044  34.110  1.00  0.00     0.173 A 
ATOM    112  F   UNL A   1      40.820  30.536  35.960  1.00  0.00    -0.203 F 
ATOM    113  C   UNL A   1      41.279  32.784  36.482  1.00  0.00     0.198 A 
ATOM    114  C   UNL A   1      42.589  34.123  34.984  1.00  0.00     0.198 A 
ATOM    115  F   UNL A   1      43.380  33.206  32.967  1.00  0.00    -0.203 F 
ATOM    116  F   UNL A   1      40.560  32.667  37.608  1.00  0.00    -0.200 F 
ATOM    117  C   UNL A   1      41.874  33.995  36.165  1.00  0.00     0.200 A 
ATOM    118  F   UNL A   1      43.177  35.289  34.681  1.00  0.00    -0.200 F 
ATOM    119  F   UNL A   1      41.750  35.042  36.992  1.00  0.00    -0.200 F 
ENDBRANCH  89 109
BRANCH  92 120
ATOM    120  C   UNL A   1      42.862  24.336  27.817  1.00  0.00     0.064 A 
ATOM    121  C   UNL A   1      42.508  23.019  28.146  1.00  0.00     0.173 A 
ATOM    122  C   UNL A   1      43.351  24.576  26.525  1.00  0.00     0.173 A 
ATOM    123  F   UNL A   1      42.054  22.737  29.376  1.00  0.00    -0.203 F 
ATOM    124  C   UNL A   1      42.660  21.982  27.230  1.00  0.00     0.198 A 
ATOM    125  C   UNL A   1      43.474  23.541  25.599  1.00  0.00     0.198 A 
ATOM    126  F   UNL A   1      43.697  25.818  26.157  1.00  0.00    -0.203 F 
ATOM    127  F   UNL A   1      42.360  20.726  27.586  1.00  0.00    -0.200 F 
ATOM    128  C   UNL A   1      43.137  22.244  25.955  1.00  0.00     0.200 A 
ATOM    129  F   UNL A   1      43.922  23.803  24.363  1.00  0.00    -0.200 F 
ATOM    130  F   UNL A   1      43.281  21.247  25.071  1.00  0.00    -0.200 F 
ENDBRANCH  92 120
BRANCH 107 131
ATOM    131  C   UNL A   1      46.753  26.421  33.211  1.00  0.00     0.064 A 
ATOM    132  C   UNL A   1      46.737  25.397  34.168  1.00  0.00     0.173 A 
ATOM    133  C   UNL A   1      47.999  26.913  32.794  1.00  0.00     0.173 A 
ATOM    134  F   UNL A   1      45.571  24.903  34.611  1.00  0.00    -0.203 F 
ATOM    135  C   UNL A   1      47.923  24.903  34.706  1.00  0.00     0.198 A 
ATOM    136  C   UNL A   1      49.183  26.394  33.310  1.00  0.00     0.198 A 
ATOM    137  F   UNL A   1      48.068  27.887  31.875  1.00  0.00    -0.203 F 
ATOM    138  F   UNL A   1      47.883  23.957  35.655  1.00  0.00    -0.200 F 
ATOM    139  C   UNL A   1      49.144  25.395  34.270  1.00  0.00     0.200 A 
ATOM    140  F   UNL A   1      50.362  26.861  32.877  1.00  0.00    -0.200 F 
ATOM    141  F   UNL A   1      50.284  24.912  34.782  1.00  0.00    -0.200 F 
ENDBRANCH 107 131
ENDBRANCH  72  75
ENDBRANCH  62  65
ENDBRANCH  58  61
ENDBRANCH  55  58
ENDBRANCH  52  55
ENDBRANCH   1  52
TORSDOF 19
ENDMDL
MODEL 10
REMARK VINA RESULT:     -12.0      4.096      7.481
REMARK SMILES CC(=O)Nc1ccc(/C(=C\c2ccc(S(C)(=O)=O)cc2)C(=O)NCCCCCCNC(=O)c2ccc(-c3c4nc(c(-c5c(F)c(F)c(F)c(F)c5F)c5ccc([nH]5)c(-c5c(F)c(F)c(F)c(F)c5F)c5nc(c(-c6c(F)c(F)c(F)c(F)c6F)c6ccc3[nH]6)C=C5)C=C4)cc2)cc1
REMARK SMILES IDX 26 1 25 4 24 7 23 10 21 11 22 12 9 14 10 15 8 17 5 18 6 19
REMARK SMILES IDX 97 20 7 21 96 23 4 27 2 28 3 29 1 31 11 35 12 36 20 37 13 38
REMARK SMILES IDX 19 40 14 42 15 45 17 46 18 47 16 48 27 52 28 55 29 58 30 61
REMARK SMILES IDX 31 62 32 64 33 65 34 66 95 67 35 68 94 70 36 72 37 75 38 76
REMARK SMILES IDX 88 77 39 78 93 79 87 80 89 81 40 82 92 83 86 85 85 87 41 89
REMARK SMILES IDX 73 92 53 93 72 94 54 95 57 96 71 97 90 98 55 99 56 101
REMARK SMILES IDX 70 103 91 104 58 107 42 109 43 110 51 111 44 112 45 113
REMARK SMILES IDX 49 114 52 115 46 116 47 117 50 118 48 119 74 120 75 121
REMARK SMILES IDX 83 122 76 123 77 124 81 125 84 126 78 127 79 128 82 129
REMARK SMILES IDX 80 130 59 131 60 132 68 133 61 134 62 135 66 136 69 137
REMARK SMILES IDX 63 138 64 139 67 140 65 141
REMARK H PARENT 26 2 26 3 25 5 25 6 24 8 24 9 23 13 10 16 6 22 97 24 7 25
REMARK H PARENT 96 26 4 30 1 32 1 33 1 34 12 39 20 41 13 43 19 44 16 49 16 50
REMARK H PARENT 16 51 27 53 27 54 28 56 28 57 29 59 29 60 30 63 34 69 95 71
REMARK H PARENT 35 73 94 74 93 84 87 86 89 88 92 90 86 91 54 100 57 102 90 105
REMARK H PARENT 55 106 91 108
REMARK Flexibility Score: inf
ROOT
ATOM      1  C   UNL A   1      33.314  21.941  27.191  1.00  0.00    -0.052 C 
ATOM      2  H   UNL A   1      32.912  21.376  26.376  1.00  0.00     0.027 H 
ATOM      3  H   UNL A   1      33.314  21.407  28.118  1.00  0.00     0.027 H 
ENDROOT
BRANCH   1   4
ATOM      4  C   UNL A   1      32.419  23.174  27.403  1.00  0.00    -0.036 C 
ATOM      5  H   UNL A   1      32.251  23.293  28.453  1.00  0.00     0.028 H 
ATOM      6  H   UNL A   1      32.931  24.011  26.977  1.00  0.00     0.028 H 
BRANCH   4   7
ATOM      7  C   UNL A   1      31.062  23.069  26.702  1.00  0.00     0.018 C 
ATOM      8  H   UNL A   1      30.517  22.240  27.103  1.00  0.00     0.049 H 
ATOM      9  H   UNL A   1      30.509  23.972  26.861  1.00  0.00     0.049 H 
BRANCH   7  10
ATOM     10  N   UNL A   1      31.261  22.873  25.283  1.00  0.00    -0.352 N 
ATOM     11  C   UNL A   1      31.216  23.651  24.172  1.00  0.00     0.251 C 
ATOM     12  O   UNL A   1      31.409  23.019  23.130  1.00  0.00    -0.269 OA
ATOM     13  H   UNL A   1      31.486  21.939  25.068  1.00  0.00     0.163 HD
BRANCH  11  14
ATOM     14  C   UNL A   1      31.034  25.169  24.170  1.00  0.00     0.047 C 
ATOM     15  C   UNL A   1      30.388  25.749  23.129  1.00  0.00    -0.042 C 
ATOM     16  H   UNL A   1      30.229  25.140  22.312  1.00  0.00     0.064 H 
BRANCH  14  17
ATOM     17  C   UNL A   1      31.748  25.997  25.214  1.00  0.00    -0.013 A 
ATOM     18  C   UNL A   1      33.063  27.978  26.798  1.00  0.00     0.041 A 
ATOM     19  C   UNL A   1      31.764  27.566  27.100  1.00  0.00    -0.038 A 
ATOM     20  C   UNL A   1      33.753  27.275  25.827  1.00  0.00    -0.038 A 
ATOM     21  C   UNL A   1      31.130  26.565  26.338  1.00  0.00    -0.052 A 
ATOM     22  H   UNL A   1      31.262  28.001  27.890  1.00  0.00     0.064 H 
ATOM     23  C   UNL A   1      33.096  26.337  25.027  1.00  0.00    -0.052 A 
ATOM     24  H   UNL A   1      34.763  27.444  25.692  1.00  0.00     0.064 H 
ATOM     25  H   UNL A   1      30.189  26.242  26.614  1.00  0.00     0.063 H 
ATOM     26  H   UNL A   1      33.623  25.876  24.269  1.00  0.00     0.063 H 
BRANCH  18  27
ATOM     27  N   UNL A   1      33.590  29.081  27.490  1.00  0.00    -0.326 N 
ATOM     28  C   UNL A   1      33.345  30.422  27.388  1.00  0.00     0.221 C 
ATOM     29  O   UNL A   1      34.013  31.198  28.077  1.00  0.00    -0.275 OA
ATOM     30  H   UNL A   1      34.259  28.845  28.173  1.00  0.00     0.169 HD
BRANCH  28  31
ATOM     31  C   UNL A   1      32.251  30.956  26.501  1.00  0.00     0.015 C 
ATOM     32  H   UNL A   1      31.362  30.379  26.643  1.00  0.00     0.033 H 
ATOM     33  H   UNL A   1      32.558  30.891  25.477  1.00  0.00     0.033 H 
ATOM     34  H   UNL A   1      32.056  31.979  26.750  1.00  0.00     0.033 H 
ENDBRANCH  28  31
ENDBRANCH  18  27
ENDBRANCH  14  17
BRANCH  15  35
ATOM     35  C   UNL A   1      29.880  27.123  23.003  1.00  0.00    -0.025 A 
ATOM     36  C   UNL A   1      28.529  27.345  23.329  1.00  0.00    -0.054 A 
ATOM     37  C   UNL A   1      30.692  28.204  22.653  1.00  0.00    -0.054 A 
ATOM     38  C   UNL A   1      28.011  28.640  23.368  1.00  0.00    -0.043 A 
ATOM     39  H   UNL A   1      27.916  26.543  23.542  1.00  0.00     0.063 H 
ATOM     40  C   UNL A   1      30.178  29.506  22.691  1.00  0.00    -0.043 A 
ATOM     41  H   UNL A   1      31.671  28.044  22.365  1.00  0.00     0.063 H 
ATOM     42  C   UNL A   1      28.845  29.716  23.060  1.00  0.00     0.067 A 
ATOM     43  H   UNL A   1      27.024  28.800  23.622  1.00  0.00     0.064 H 
ATOM     44  H   UNL A   1      30.780  30.308  22.448  1.00  0.00     0.064 H 
BRANCH  42  45
ATOM     45  S   UNL A   1      28.226  31.371  23.280  1.00  0.00     0.175 S 
ATOM     46  O   UNL A   1      26.911  31.252  23.880  1.00  0.00    -0.224 OA
ATOM     47  O   UNL A   1      29.270  32.147  23.923  1.00  0.00    -0.224 OA
BRANCH  45  48
ATOM     48  C   UNL A   1      28.028  31.982  21.629  1.00  0.00     0.043 C 
ATOM     49  H   UNL A   1      27.890  31.160  20.959  1.00  0.00     0.040 H 
ATOM     50  H   UNL A   1      28.901  32.531  21.346  1.00  0.00     0.040 H 
ATOM     51  H   UNL A   1      27.173  32.625  21.587  1.00  0.00     0.040 H 
ENDBRANCH  45  48
ENDBRANCH  42  45
ENDBRANCH  15  35
ENDBRANCH  11  14
ENDBRANCH   7  10
ENDBRANCH   4   7
ENDBRANCH   1   4
BRANCH   1  52
ATOM     52  C   UNL A   1      34.782  22.254  26.876  1.00  0.00    -0.052 C 
ATOM     53  H   UNL A   1      35.242  21.359  26.511  1.00  0.00     0.027 H 
ATOM     54  H   UNL A   1      35.218  22.610  27.786  1.00  0.00     0.027 H 
BRANCH  52  55
ATOM     55  C   UNL A   1      34.993  23.356  25.835  1.00  0.00    -0.036 C 
ATOM     56  H   UNL A   1      34.346  24.174  26.076  1.00  0.00     0.028 H 
ATOM     57  H   UNL A   1      34.779  22.926  24.880  1.00  0.00     0.028 H 
BRANCH  55  58
ATOM     58  C   UNL A   1      36.422  23.881  25.770  1.00  0.00     0.018 C 
ATOM     59  H   UNL A   1      36.554  24.626  26.527  1.00  0.00     0.049 H 
ATOM     60  H   UNL A   1      36.582  24.295  24.796  1.00  0.00     0.049 H 
BRANCH  58  61
ATOM     61  N   UNL A   1      37.393  22.820  25.977  1.00  0.00    -0.352 N 
ATOM     62  C   UNL A   1      38.701  22.913  26.381  1.00  0.00     0.251 C 
ATOM     63  H   UNL A   1      37.067  21.908  25.804  1.00  0.00     0.163 HD
ATOM     64  O   UNL A   1      39.449  21.946  26.285  1.00  0.00    -0.269 OA
BRANCH  62  65
ATOM     65  C   UNL A   1      39.210  24.188  26.926  1.00  0.00     0.039 A 
ATOM     66  C   UNL A   1      39.900  25.059  26.079  1.00  0.00    -0.049 A 
ATOM     67  C   UNL A   1      39.030  24.511  28.274  1.00  0.00    -0.049 A 
ATOM     68  C   UNL A   1      40.375  26.274  26.575  1.00  0.00    -0.053 A 
ATOM     69  H   UNL A   1      40.058  24.806  25.091  1.00  0.00     0.063 H 
ATOM     70  C   UNL A   1      39.438  25.752  28.750  1.00  0.00    -0.053 A 
ATOM     71  H   UNL A   1      38.594  23.829  28.915  1.00  0.00     0.063 H 
ATOM     72  C   UNL A   1      40.129  26.639  27.910  1.00  0.00    -0.014 A 
ATOM     73  H   UNL A   1      40.910  26.907  25.960  1.00  0.00     0.063 H 
ATOM     74  H   UNL A   1      39.233  26.023  29.724  1.00  0.00     0.063 H 
BRANCH  72  75
ATOM     75  C   UNL A   1      40.617  27.929  28.456  1.00  0.00     0.031 A 
ATOM     76  C   UNL A   1      42.083  28.124  28.724  1.00  0.00     0.074 A 
ATOM     77  C   UNL A   1      39.736  28.901  28.765  1.00  0.00     0.049 A 
ATOM     78  N   UNL A   1      42.700  29.142  29.268  1.00  0.00    -0.248 NA
ATOM     79  C   UNL A   1      42.973  27.009  28.360  1.00  0.00    -0.034 C 
ATOM     80  C   UNL A   1      38.286  28.816  28.589  1.00  0.00    -0.036 A 
ATOM     81  N   UNL A   1      39.934  30.149  29.301  1.00  0.00    -0.354 N 
ATOM     82  C   UNL A   1      44.041  28.785  29.324  1.00  0.00     0.074 A 
ATOM     83  C   UNL A   1      44.142  27.435  28.814  1.00  0.00    -0.034 C 
ATOM     84  H   UNL A   1      42.746  26.126  27.876  1.00  0.00     0.065 H 
ATOM     85  C   UNL A   1      37.727  29.968  28.991  1.00  0.00    -0.036 A 
ATOM     86  H   UNL A   1      37.776  28.000  28.216  1.00  0.00     0.065 H 
ATOM     87  C   UNL A   1      38.773  30.858  29.486  1.00  0.00     0.049 A 
ATOM     88  H   UNL A   1      40.823  30.502  29.532  1.00  0.00     0.167 HD
ATOM     89  C   UNL A   1      45.096  29.525  29.741  1.00  0.00     0.037 A 
ATOM     90  H   UNL A   1      45.010  26.878  28.805  1.00  0.00     0.065 H 
ATOM     91  H   UNL A   1      36.719  30.189  28.955  1.00  0.00     0.065 H 
ATOM     92  C   UNL A   1      38.576  32.087  30.002  1.00  0.00     0.037 A 
ATOM     93  C   UNL A   1      44.993  30.879  30.219  1.00  0.00     0.049 A 
ATOM     94  C   UNL A   1      39.765  32.888  30.460  1.00  0.00     0.074 A 
ATOM     95  C   UNL A   1      46.006  31.735  30.611  1.00  0.00    -0.036 A 
ATOM     96  N   UNL A   1      43.801  31.573  30.370  1.00  0.00    -0.354 N 
ATOM     97  N   UNL A   1      41.035  32.565  30.450  1.00  0.00    -0.248 NA
ATOM     98  C   UNL A   1      39.492  34.230  30.992  1.00  0.00    -0.034 C 
ATOM     99  C   UNL A   1      45.424  32.932  31.043  1.00  0.00    -0.036 A 
ATOM    100  H   UNL A   1      47.017  31.528  30.587  1.00  0.00     0.065 H 
ATOM    101  C   UNL A   1      44.053  32.841  30.870  1.00  0.00     0.049 A 
ATOM    102  H   UNL A   1      42.909  31.217  30.155  1.00  0.00     0.167 HD
ATOM    103  C   UNL A   1      41.716  33.671  30.942  1.00  0.00     0.074 A 
ATOM    104  C   UNL A   1      40.717  34.680  31.229  1.00  0.00    -0.034 C 
ATOM    105  H   UNL A   1      38.587  34.700  31.142  1.00  0.00     0.065 H 
ATOM    106  H   UNL A   1      45.931  33.744  31.426  1.00  0.00     0.065 H 
ATOM    107  C   UNL A   1      43.047  33.836  31.138  1.00  0.00     0.037 A 
ATOM    108  H   UNL A   1      40.931  35.628  31.575  1.00  0.00     0.065 H 
BRANCH  89 109
ATOM    109  C   UNL A   1      46.455  28.887  29.694  1.00  0.00     0.064 A 
ATOM    110  C   UNL A   1      47.271  28.972  28.555  1.00  0.00     0.173 A 
ATOM    111  C   UNL A   1      46.961  28.207  30.812  1.00  0.00     0.173 A 
ATOM    112  F   UNL A   1      46.830  29.601  27.454  1.00  0.00    -0.203 F 
ATOM    113  C   UNL A   1      48.528  28.375  28.527  1.00  0.00     0.198 A 
ATOM    114  C   UNL A   1      48.232  27.638  30.790  1.00  0.00     0.198 A 
ATOM    115  F   UNL A   1      46.225  28.098  31.928  1.00  0.00    -0.203 F 
ATOM    116  F   UNL A   1      49.266  28.424  27.409  1.00  0.00    -0.200 F 
ATOM    117  C   UNL A   1      49.011  27.715  29.646  1.00  0.00     0.200 A 
ATOM    118  F   UNL A   1      48.702  27.013  31.878  1.00  0.00    -0.200 F 
ATOM    119  F   UNL A   1      50.223  27.146  29.619  1.00  0.00    -0.200 F 
ENDBRANCH  89 109
BRANCH  92 120
ATOM    120  C   UNL A   1      37.201  32.644  30.090  1.00  0.00     0.064 A 
ATOM    121  C   UNL A   1      36.690  33.464  29.074  1.00  0.00     0.173 A 
ATOM    122  C   UNL A   1      36.373  32.376  31.190  1.00  0.00     0.173 A 
ATOM    123  F   UNL A   1      37.452  33.764  28.011  1.00  0.00    -0.203 F 
ATOM    124  C   UNL A   1      35.414  34.014  29.165  1.00  0.00     0.198 A 
ATOM    125  C   UNL A   1      35.085  32.903  31.265  1.00  0.00     0.198 A 
ATOM    126  F   UNL A   1      36.811  31.592  32.186  1.00  0.00    -0.203 F 
ATOM    127  F   UNL A   1      34.969  34.833  28.203  1.00  0.00    -0.200 F 
ATOM    128  C   UNL A   1      34.610  33.728  30.258  1.00  0.00     0.200 A 
ATOM    129  F   UNL A   1      34.306  32.612  32.317  1.00  0.00    -0.200 F 
ATOM    130  F   UNL A   1      33.380  34.255  30.344  1.00  0.00    -0.200 F 
ENDBRANCH  92 120
BRANCH 107 131
ATOM    131  C   UNL A   1      43.507  35.171  31.648  1.00  0.00     0.064 A 
ATOM    132  C   UNL A   1      43.775  36.239  30.780  1.00  0.00     0.173 A 
ATOM    133  C   UNL A   1      43.640  35.395  33.027  1.00  0.00     0.173 A 
ATOM    134  F   UNL A   1      43.676  36.073  29.453  1.00  0.00    -0.203 F 
ATOM    135  C   UNL A   1      44.186  37.475  31.273  1.00  0.00     0.198 A 
ATOM    136  C   UNL A   1      44.020  36.641  33.518  1.00  0.00     0.198 A 
ATOM    137  F   UNL A   1      43.388  34.408  33.899  1.00  0.00    -0.203 F 
ATOM    138  F   UNL A   1      44.483  38.468  30.423  1.00  0.00    -0.200 F 
ATOM    139  C   UNL A   1      44.299  37.677  32.640  1.00  0.00     0.200 A 
ATOM    140  F   UNL A   1      44.115  36.838  34.840  1.00  0.00    -0.200 F 
ATOM    141  F   UNL A   1      44.686  38.870  33.113  1.00  0.00    -0.200 F 
ENDBRANCH 107 131
ENDBRANCH  72  75
ENDBRANCH  62  65
ENDBRANCH  58  61
ENDBRANCH  55  58
ENDBRANCH  52  55
ENDBRANCH   1  52
TORSDOF 19
ENDMDL
