MODEL 1
REMARK VINA RESULT:     -12.2      0.000      0.000
REMARK SMILES [NH3+]Cc1c(-c2ccccc2)c(C(=O)NCCCCCCNC(=O)c2ccc(-c3c4nc(c(-c5c(F)c(F)c(F)c(F)c5F)c5ccc([nH]5)c(-c5c(F)c(F)c(F)c(F)c5F)c5nc(c(-c6c(F)c(F)c(F)c(F)c6F)c6ccc3[nH]6)C=C5)C=C4)cc2)c2ccccn12
REMARK SMILES IDX 17 1 16 4 15 7 14 10 12 11 13 12 11 14 3 15 4 16 92 17 87 18
REMARK SMILES IDX 91 19 88 20 90 21 89 23 2 27 1 30 5 34 6 35 10 36 7 37 9 39
REMARK SMILES IDX 8 41 18 45 19 48 20 51 21 54 22 55 23 57 24 58 25 59 86 60
REMARK SMILES IDX 26 61 85 63 27 65 28 68 29 69 79 70 30 71 84 72 78 73 80 74
REMARK SMILES IDX 31 75 83 76 77 78 76 80 32 82 64 85 44 86 63 87 45 88 48 89
REMARK SMILES IDX 62 90 81 91 46 92 47 94 61 96 82 97 49 100 33 102 34 103
REMARK SMILES IDX 42 104 35 105 36 106 40 107 43 108 37 109 38 110 41 111
REMARK SMILES IDX 39 112 65 113 66 114 74 115 67 116 68 117 72 118 75 119
REMARK SMILES IDX 69 120 70 121 73 122 71 123 50 124 51 125 59 126 52 127
REMARK SMILES IDX 53 128 57 129 60 130 54 131 55 132 58 133 56 134
REMARK H PARENT 17 2 17 3 16 5 16 6 15 8 15 9 14 13 91 22 88 24 90 25 89 26
REMARK H PARENT 2 28 2 29 1 31 1 32 1 33 6 38 10 40 7 42 9 43 8 44 18 46 18 47
REMARK H PARENT 19 49 19 50 20 52 20 53 21 56 25 62 86 64 26 66 85 67 84 77
REMARK H PARENT 78 79 80 81 83 83 77 84 45 93 48 95 81 98 46 99 82 101
REMARK Flexibility Score: inf
ROOT
ATOM      1  C   UNL A   1      31.801  29.689  26.851  1.00  0.00    -0.052 C 
ATOM      2  H   UNL A   1      31.335  29.853  27.801  1.00  0.00     0.027 H 
ATOM      3  H   UNL A   1      31.487  28.807  26.334  1.00  0.00     0.027 H 
ENDROOT
BRANCH   1   4
ATOM      4  C   UNL A   1      33.298  29.483  27.103  1.00  0.00    -0.036 C 
ATOM      5  H   UNL A   1      33.804  30.369  26.780  1.00  0.00     0.028 H 
ATOM      6  H   UNL A   1      33.375  29.271  28.149  1.00  0.00     0.028 H 
BRANCH   4   7
ATOM      7  C   UNL A   1      33.963  28.296  26.411  1.00  0.00     0.018 C 
ATOM      8  H   UNL A   1      34.844  28.043  26.965  1.00  0.00     0.049 H 
ATOM      9  H   UNL A   1      33.229  27.518  26.390  1.00  0.00     0.049 H 
BRANCH   7  10
ATOM     10  N   UNL A   1      34.349  28.516  25.038  1.00  0.00    -0.352 N 
ATOM     11  C   UNL A   1      33.739  28.144  23.858  1.00  0.00     0.254 C 
ATOM     12  O   UNL A   1      34.269  28.560  22.827  1.00  0.00    -0.269 OA
ATOM     13  H   UNL A   1      35.190  29.016  24.924  1.00  0.00     0.163 HD
BRANCH  11  14
ATOM     14  C   UNL A   1      32.583  27.234  23.820  1.00  0.00     0.073 A 
ATOM     15  C   UNL A   1      31.350  25.284  24.046  1.00  0.00     0.086 A 
ATOM     16  C   UNL A   1      32.644  25.811  24.029  1.00  0.00     0.022 A 
ATOM     17  N   UNL A   1      30.493  26.354  23.833  1.00  0.00    -0.314 N 
ATOM     18  C   UNL A   1      31.258  27.474  23.476  1.00  0.00     0.059 A 
ATOM     19  C   UNL A   1      29.095  26.424  23.917  1.00  0.00     0.009 A 
ATOM     20  C   UNL A   1      30.547  28.580  22.913  1.00  0.00    -0.037 A 
ATOM     21  C   UNL A   1      28.443  27.535  23.539  1.00  0.00    -0.045 A 
ATOM     22  H   UNL A   1      28.562  25.615  24.273  1.00  0.00     0.082 H 
ATOM     23  C   UNL A   1      29.204  28.626  22.971  1.00  0.00    -0.059 A 
ATOM     24  H   UNL A   1      31.067  29.347  22.460  1.00  0.00     0.065 H 
ATOM     25  H   UNL A   1      27.421  27.609  23.651  1.00  0.00     0.064 H 
ATOM     26  H   UNL A   1      28.709  29.454  22.605  1.00  0.00     0.062 H 
BRANCH  15  27
ATOM     27  C   UNL A   1      30.963  23.853  24.308  1.00  0.00     0.116 C 
ATOM     28  H   UNL A   1      30.218  23.580  23.589  1.00  0.00     0.099 H 
ATOM     29  H   UNL A   1      31.873  23.294  24.237  1.00  0.00     0.099 H 
BRANCH  27  30
ATOM     30  N   UNL A   1      30.431  23.561  25.628  1.00  0.00    -0.353 N 
ATOM     31  H   UNL A   1      31.127  23.801  26.335  1.00  0.00     0.344 HD
ATOM     32  H   UNL A   1      30.207  22.568  25.693  1.00  0.00     0.344 HD
ATOM     33  H   UNL A   1      29.587  24.111  25.783  1.00  0.00     0.344 HD
ENDBRANCH  27  30
ENDBRANCH  15  27
BRANCH  16  34
ATOM     34  C   UNL A   1      33.822  24.970  24.211  1.00  0.00    -0.016 A 
ATOM     35  C   UNL A   1      34.351  24.232  23.150  1.00  0.00    -0.054 A 
ATOM     36  C   UNL A   1      34.432  24.903  25.472  1.00  0.00    -0.054 A 
ATOM     37  C   UNL A   1      35.486  23.441  23.348  1.00  0.00    -0.062 A 
ATOM     38  H   UNL A   1      33.904  24.271  22.221  1.00  0.00     0.063 H 
ATOM     39  C   UNL A   1      35.570  24.120  25.665  1.00  0.00    -0.062 A 
ATOM     40  H   UNL A   1      34.036  25.437  26.262  1.00  0.00     0.063 H 
ATOM     41  C   UNL A   1      36.096  23.390  24.603  1.00  0.00    -0.062 A 
ATOM     42  H   UNL A   1      35.875  22.894  22.565  1.00  0.00     0.062 H 
ATOM     43  H   UNL A   1      36.021  24.083  26.592  1.00  0.00     0.062 H 
ATOM     44  H   UNL A   1      36.939  22.809  24.743  1.00  0.00     0.062 H 
ENDBRANCH  16  34
ENDBRANCH  11  14
ENDBRANCH   7  10
ENDBRANCH   4   7
ENDBRANCH   1   4
BRANCH   1  45
ATOM     45  C   UNL A   1      31.394  30.847  25.935  1.00  0.00    -0.052 C 
ATOM     46  H   UNL A   1      30.435  30.611  25.523  1.00  0.00     0.027 H 
ATOM     47  H   UNL A   1      32.186  30.927  25.220  1.00  0.00     0.027 H 
BRANCH  45  48
ATOM     48  C   UNL A   1      31.294  32.235  26.572  1.00  0.00    -0.036 C 
ATOM     49  H   UNL A   1      30.705  32.144  27.460  1.00  0.00     0.028 H 
ATOM     50  H   UNL A   1      30.865  32.863  25.820  1.00  0.00     0.028 H 
BRANCH  48  51
ATOM     51  C   UNL A   1      32.612  32.897  26.953  1.00  0.00     0.018 C 
ATOM     52  H   UNL A   1      33.192  33.038  26.065  1.00  0.00     0.049 H 
ATOM     53  H   UNL A   1      33.102  32.252  27.653  1.00  0.00     0.049 H 
BRANCH  51  54
ATOM     54  N   UNL A   1      32.438  34.184  27.601  1.00  0.00    -0.352 N 
ATOM     55  C   UNL A   1      33.113  34.735  28.660  1.00  0.00     0.251 C 
ATOM     56  H   UNL A   1      31.726  34.748  27.221  1.00  0.00     0.163 HD
ATOM     57  O   UNL A   1      32.723  35.791  29.148  1.00  0.00    -0.269 OA
BRANCH  55  58
ATOM     58  C   UNL A   1      34.299  34.059  29.235  1.00  0.00     0.039 A 
ATOM     59  C   UNL A   1      34.095  32.983  30.105  1.00  0.00    -0.049 A 
ATOM     60  C   UNL A   1      35.598  34.497  28.965  1.00  0.00    -0.049 A 
ATOM     61  C   UNL A   1      35.191  32.328  30.674  1.00  0.00    -0.053 A 
ATOM     62  H   UNL A   1      33.137  32.672  30.327  1.00  0.00     0.063 H 
ATOM     63  C   UNL A   1      36.691  33.793  29.467  1.00  0.00    -0.053 A 
ATOM     64  H   UNL A   1      35.747  35.344  28.394  1.00  0.00     0.063 H 
ATOM     65  C   UNL A   1      36.500  32.716  30.344  1.00  0.00    -0.014 A 
ATOM     66  H   UNL A   1      35.037  31.556  31.340  1.00  0.00     0.063 H 
ATOM     67  H   UNL A   1      37.647  34.067  29.191  1.00  0.00     0.063 H 
BRANCH  65  68
ATOM     68  C   UNL A   1      37.672  32.028  30.945  1.00  0.00     0.031 A 
ATOM     69  C   UNL A   1      38.131  32.388  32.333  1.00  0.00     0.074 A 
ATOM     70  C   UNL A   1      38.345  31.103  30.233  1.00  0.00     0.049 A 
ATOM     71  N   UNL A   1      39.142  31.920  33.021  1.00  0.00    -0.248 NA
ATOM     72  C   UNL A   1      37.367  33.434  33.030  1.00  0.00    -0.034 C 
ATOM     73  C   UNL A   1      38.030  30.699  28.862  1.00  0.00    -0.036 A 
ATOM     74  N   UNL A   1      39.434  30.337  30.564  1.00  0.00    -0.354 N 
ATOM     75  C   UNL A   1      39.140  32.621  34.221  1.00  0.00     0.074 A 
ATOM     76  C   UNL A   1      38.071  33.591  34.142  1.00  0.00    -0.034 C 
ATOM     77  H   UNL A   1      36.507  33.921  32.732  1.00  0.00     0.065 H 
ATOM     78  C   UNL A   1      38.886  29.738  28.480  1.00  0.00    -0.036 A 
ATOM     79  H   UNL A   1      37.271  31.090  28.282  1.00  0.00     0.065 H 
ATOM     80  C   UNL A   1      39.831  29.483  29.563  1.00  0.00     0.049 A 
ATOM     81  H   UNL A   1      39.888  30.392  31.435  1.00  0.00     0.167 HD
ATOM     82  C   UNL A   1      39.939  32.453  35.303  1.00  0.00     0.037 A 
ATOM     83  H   UNL A   1      37.879  34.309  34.858  1.00  0.00     0.065 H 
ATOM     84  H   UNL A   1      38.878  29.257  27.567  1.00  0.00     0.065 H 
ATOM     85  C   UNL A   1      40.843  28.595  29.526  1.00  0.00     0.037 A 
ATOM     86  C   UNL A   1      40.990  31.472  35.386  1.00  0.00     0.049 A 
ATOM     87  C   UNL A   1      41.716  28.428  30.741  1.00  0.00     0.074 A 
ATOM     88  C   UNL A   1      41.824  31.187  36.454  1.00  0.00    -0.036 A 
ATOM     89  N   UNL A   1      41.352  30.613  34.357  1.00  0.00    -0.354 N 
ATOM     90  N   UNL A   1      41.661  29.049  31.894  1.00  0.00    -0.248 NA
ATOM     91  C   UNL A   1      42.784  27.423  30.651  1.00  0.00    -0.034 C 
ATOM     92  C   UNL A   1      42.724  30.194  36.054  1.00  0.00    -0.036 A 
ATOM     93  H   UNL A   1      41.787  31.631  37.385  1.00  0.00     0.065 H 
ATOM     94  C   UNL A   1      42.410  29.813  34.758  1.00  0.00     0.049 A 
ATOM     95  H   UNL A   1      40.921  30.579  33.473  1.00  0.00     0.167 HD
ATOM     96  C   UNL A   1      42.662  28.488  32.678  1.00  0.00     0.074 A 
ATOM     97  C   UNL A   1      43.292  27.462  31.874  1.00  0.00    -0.034 C 
ATOM     98  H   UNL A   1      43.063  26.839  29.847  1.00  0.00     0.065 H 
ATOM     99  H   UNL A   1      43.492  29.809  36.626  1.00  0.00     0.065 H 
ATOM    100  C   UNL A   1      43.025  28.792  33.948  1.00  0.00     0.037 A 
ATOM    101  H   UNL A   1      44.044  26.840  32.210  1.00  0.00     0.065 H 
BRANCH  82 102
ATOM    102  C   UNL A   1      39.704  33.351  36.485  1.00  0.00     0.064 A 
ATOM    103  C   UNL A   1      40.337  34.599  36.602  1.00  0.00     0.173 A 
ATOM    104  C   UNL A   1      38.816  32.973  37.503  1.00  0.00     0.173 A 
ATOM    105  F   UNL A   1      41.205  35.006  35.663  1.00  0.00    -0.203 F 
ATOM    106  C   UNL A   1      40.118  35.416  37.708  1.00  0.00     0.198 A 
ATOM    107  C   UNL A   1      38.571  33.808  38.591  1.00  0.00     0.198 A 
ATOM    108  F   UNL A   1      38.179  31.793  37.442  1.00  0.00    -0.203 F 
ATOM    109  F   UNL A   1      40.779  36.575  37.824  1.00  0.00    -0.200 F 
ATOM    110  C   UNL A   1      39.229  35.023  38.698  1.00  0.00     0.200 A 
ATOM    111  F   UNL A   1      37.702  33.433  39.539  1.00  0.00    -0.200 F 
ATOM    112  F   UNL A   1      39.014  35.813  39.759  1.00  0.00    -0.200 F 
ENDBRANCH  82 102
BRANCH  85 113
ATOM    113  C   UNL A   1      41.067  27.772  28.308  1.00  0.00     0.064 A 
ATOM    114  C   UNL A   1      40.452  26.520  28.159  1.00  0.00     0.173 A 
ATOM    115  C   UNL A   1      41.913  28.206  27.278  1.00  0.00     0.173 A 
ATOM    116  F   UNL A   1      39.650  26.050  29.127  1.00  0.00    -0.203 F 
ATOM    117  C   UNL A   1      40.696  25.724  27.042  1.00  0.00     0.198 A 
ATOM    118  C   UNL A   1      42.130  27.424  26.145  1.00  0.00     0.198 A 
ATOM    119  F   UNL A   1      42.522  29.398  27.365  1.00  0.00    -0.203 F 
ATOM    120  F   UNL A   1      40.138  24.509  26.954  1.00  0.00    -0.200 F 
ATOM    121  C   UNL A   1      41.531  26.179  26.033  1.00  0.00     0.200 A 
ATOM    122  F   UNL A   1      42.925  27.875  25.164  1.00  0.00    -0.200 F 
ATOM    123  F   UNL A   1      41.764  25.414  24.958  1.00  0.00    -0.200 F 
ENDBRANCH  85 113
BRANCH 100 124
ATOM    124  C   UNL A   1      44.127  27.974  34.561  1.00  0.00     0.064 A 
ATOM    125  C   UNL A   1      45.470  28.377  34.505  1.00  0.00     0.173 A 
ATOM    126  C   UNL A   1      43.831  26.772  35.222  1.00  0.00     0.173 A 
ATOM    127  F   UNL A   1      45.809  29.511  33.875  1.00  0.00    -0.203 F 
ATOM    128  C   UNL A   1      46.478  27.586  35.050  1.00  0.00     0.198 A 
ATOM    129  C   UNL A   1      44.838  26.003  35.799  1.00  0.00     0.198 A 
ATOM    130  F   UNL A   1      42.563  26.344  35.315  1.00  0.00    -0.203 F 
ATOM    131  F   UNL A   1      47.760  27.957  34.923  1.00  0.00    -0.200 F 
ATOM    132  C   UNL A   1      46.162  26.403  35.700  1.00  0.00     0.200 A 
ATOM    133  F   UNL A   1      44.528  24.869  36.442  1.00  0.00    -0.200 F 
ATOM    134  F   UNL A   1      47.135  25.643  36.223  1.00  0.00    -0.200 F 
ENDBRANCH 100 124
ENDBRANCH  65  68
ENDBRANCH  55  58
ENDBRANCH  51  54
ENDBRANCH  48  51
ENDBRANCH  45  48
ENDBRANCH   1  45
TORSDOF 16
ENDMDL
MODEL 2
REMARK VINA RESULT:     -12.2      0.350      1.682
REMARK SMILES [NH3+]Cc1c(-c2ccccc2)c(C(=O)NCCCCCCNC(=O)c2ccc(-c3c4nc(c(-c5c(F)c(F)c(F)c(F)c5F)c5ccc([nH]5)c(-c5c(F)c(F)c(F)c(F)c5F)c5nc(c(-c6c(F)c(F)c(F)c(F)c6F)c6ccc3[nH]6)C=C5)C=C4)cc2)c2ccccn12
REMARK SMILES IDX 17 1 16 4 15 7 14 10 12 11 13 12 11 14 3 15 4 16 92 17 87 18
REMARK SMILES IDX 91 19 88 20 90 21 89 23 2 27 1 30 5 34 6 35 10 36 7 37 9 39
REMARK SMILES IDX 8 41 18 45 19 48 20 51 21 54 22 55 23 57 24 58 25 59 86 60
REMARK SMILES IDX 26 61 85 63 27 65 28 68 29 69 79 70 30 71 84 72 78 73 80 74
REMARK SMILES IDX 31 75 83 76 77 78 76 80 32 82 64 85 44 86 63 87 45 88 48 89
REMARK SMILES IDX 62 90 81 91 46 92 47 94 61 96 82 97 49 100 33 102 34 103
REMARK SMILES IDX 42 104 35 105 36 106 40 107 43 108 37 109 38 110 41 111
REMARK SMILES IDX 39 112 65 113 66 114 74 115 67 116 68 117 72 118 75 119
REMARK SMILES IDX 69 120 70 121 73 122 71 123 50 124 51 125 59 126 52 127
REMARK SMILES IDX 53 128 57 129 60 130 54 131 55 132 58 133 56 134
REMARK H PARENT 17 2 17 3 16 5 16 6 15 8 15 9 14 13 91 22 88 24 90 25 89 26
REMARK H PARENT 2 28 2 29 1 31 1 32 1 33 6 38 10 40 7 42 9 43 8 44 18 46 18 47
REMARK H PARENT 19 49 19 50 20 52 20 53 21 56 25 62 86 64 26 66 85 67 84 77
REMARK H PARENT 78 79 80 81 83 83 77 84 45 93 48 95 81 98 46 99 82 101
REMARK Flexibility Score: inf
ROOT
ATOM      1  C   UNL A   1      31.806  29.717  26.884  1.00  0.00    -0.052 C 
ATOM      2  H   UNL A   1      31.327  29.881  27.827  1.00  0.00     0.027 H 
ATOM      3  H   UNL A   1      31.513  28.823  26.373  1.00  0.00     0.027 H 
ENDROOT
BRANCH   1   4
ATOM      4  C   UNL A   1      33.303  29.540  27.154  1.00  0.00    -0.036 C 
ATOM      5  H   UNL A   1      33.792  30.446  26.860  1.00  0.00     0.028 H 
ATOM      6  H   UNL A   1      33.370  29.307  28.196  1.00  0.00     0.028 H 
BRANCH   4   7
ATOM      7  C   UNL A   1      34.007  28.387  26.445  1.00  0.00     0.018 C 
ATOM      8  H   UNL A   1      34.881  28.137  27.011  1.00  0.00     0.049 H 
ATOM      9  H   UNL A   1      33.290  27.595  26.387  1.00  0.00     0.049 H 
BRANCH   7  10
ATOM     10  N   UNL A   1      34.418  28.652  25.087  1.00  0.00    -0.352 N 
ATOM     11  C   UNL A   1      33.803  28.366  23.886  1.00  0.00     0.254 C 
ATOM     12  O   UNL A   1      34.363  28.803  22.881  1.00  0.00    -0.269 OA
ATOM     13  H   UNL A   1      35.283  29.116  25.004  1.00  0.00     0.163 HD
BRANCH  11  14
ATOM     14  C   UNL A   1      32.605  27.515  23.796  1.00  0.00     0.073 A 
ATOM     15  C   UNL A   1      31.268  25.629  23.958  1.00  0.00     0.086 A 
ATOM     16  C   UNL A   1      32.586  26.090  23.997  1.00  0.00     0.022 A 
ATOM     17  N   UNL A   1      30.475  26.742  23.719  1.00  0.00    -0.314 N 
ATOM     18  C   UNL A   1      31.309  27.824  23.400  1.00  0.00     0.059 A 
ATOM     19  C   UNL A   1      29.080  26.882  23.747  1.00  0.00     0.009 A 
ATOM     20  C   UNL A   1      30.677  28.967  22.817  1.00  0.00    -0.037 A 
ATOM     21  C   UNL A   1      28.501  28.026  23.351  1.00  0.00    -0.045 A 
ATOM     22  H   UNL A   1      28.493  26.099  24.076  1.00  0.00     0.082 H 
ATOM     23  C   UNL A   1      29.337  29.081  22.822  1.00  0.00    -0.059 A 
ATOM     24  H   UNL A   1      31.253  29.709  22.390  1.00  0.00     0.065 H 
ATOM     25  H   UNL A   1      27.479  28.151  23.423  1.00  0.00     0.064 H 
ATOM     26  H   UNL A   1      28.899  29.934  22.442  1.00  0.00     0.062 H 
BRANCH  15  27
ATOM     27  C   UNL A   1      30.799  24.218  24.194  1.00  0.00     0.116 C 
ATOM     28  H   UNL A   1      31.617  23.670  24.615  1.00  0.00     0.099 H 
ATOM     29  H   UNL A   1      29.948  24.304  24.836  1.00  0.00     0.099 H 
BRANCH  27  30
ATOM     30  N   UNL A   1      30.333  23.491  23.026  1.00  0.00    -0.353 N 
ATOM     31  H   UNL A   1      29.446  23.885  22.713  1.00  0.00     0.344 HD
ATOM     32  H   UNL A   1      30.203  22.508  23.267  1.00  0.00     0.344 HD
ATOM     33  H   UNL A   1      31.023  23.569  22.280  1.00  0.00     0.344 HD
ENDBRANCH  27  30
ENDBRANCH  15  27
BRANCH  16  34
ATOM     34  C   UNL A   1      33.712  25.190  24.220  1.00  0.00    -0.016 A 
ATOM     35  C   UNL A   1      34.301  25.072  25.481  1.00  0.00    -0.054 A 
ATOM     36  C   UNL A   1      34.210  24.433  23.151  1.00  0.00    -0.054 A 
ATOM     37  C   UNL A   1      35.373  24.196  25.670  1.00  0.00    -0.062 A 
ATOM     38  H   UNL A   1      33.944  25.630  26.272  1.00  0.00     0.063 H 
ATOM     39  C   UNL A   1      35.274  23.552  23.344  1.00  0.00    -0.062 A 
ATOM     40  H   UNL A   1      33.786  24.528  22.214  1.00  0.00     0.063 H 
ATOM     41  C   UNL A   1      35.855  23.434  24.604  1.00  0.00    -0.062 A 
ATOM     42  H   UNL A   1      35.809  24.110  26.601  1.00  0.00     0.062 H 
ATOM     43  H   UNL A   1      35.630  22.989  22.556  1.00  0.00     0.062 H 
ATOM     44  H   UNL A   1      36.643  22.783  24.750  1.00  0.00     0.062 H 
ENDBRANCH  16  34
ENDBRANCH  11  14
ENDBRANCH   7  10
ENDBRANCH   4   7
ENDBRANCH   1   4
BRANCH   1  45
ATOM     45  C   UNL A   1      31.387  30.857  25.952  1.00  0.00    -0.052 C 
ATOM     46  H   UNL A   1      30.426  30.610  25.551  1.00  0.00     0.027 H 
ATOM     47  H   UNL A   1      32.174  30.929  25.230  1.00  0.00     0.027 H 
BRANCH  45  48
ATOM     48  C   UNL A   1      31.285  32.255  26.567  1.00  0.00    -0.036 C 
ATOM     49  H   UNL A   1      30.656  32.187  27.429  1.00  0.00     0.028 H 
ATOM     50  H   UNL A   1      30.902  32.882  25.789  1.00  0.00     0.028 H 
BRANCH  48  51
ATOM     51  C   UNL A   1      32.598  32.897  26.999  1.00  0.00     0.018 C 
ATOM     52  H   UNL A   1      33.218  33.017  26.135  1.00  0.00     0.049 H 
ATOM     53  H   UNL A   1      33.044  32.252  27.727  1.00  0.00     0.049 H 
BRANCH  51  54
ATOM     54  N   UNL A   1      32.420  34.195  27.624  1.00  0.00    -0.352 N 
ATOM     55  C   UNL A   1      33.093  34.767  28.673  1.00  0.00     0.251 C 
ATOM     56  H   UNL A   1      31.706  34.750  27.234  1.00  0.00     0.163 HD
ATOM     57  O   UNL A   1      32.700  35.829  29.143  1.00  0.00    -0.269 OA
BRANCH  55  58
ATOM     58  C   UNL A   1      34.281  34.104  29.260  1.00  0.00     0.039 A 
ATOM     59  C   UNL A   1      34.080  33.072  30.183  1.00  0.00    -0.049 A 
ATOM     60  C   UNL A   1      35.580  34.514  28.949  1.00  0.00    -0.049 A 
ATOM     61  C   UNL A   1      35.178  32.432  30.764  1.00  0.00    -0.053 A 
ATOM     62  H   UNL A   1      33.122  32.783  30.435  1.00  0.00     0.063 H 
ATOM     63  C   UNL A   1      36.673  33.821  29.465  1.00  0.00    -0.053 A 
ATOM     64  H   UNL A   1      35.728  35.330  28.336  1.00  0.00     0.063 H 
ATOM     65  C   UNL A   1      36.485  32.788  30.395  1.00  0.00    -0.014 A 
ATOM     66  H   UNL A   1      35.027  31.694  31.468  1.00  0.00     0.063 H 
ATOM     67  H   UNL A   1      37.627  34.070  29.161  1.00  0.00     0.063 H 
BRANCH  65  68
ATOM     68  C   UNL A   1      37.660  32.115  31.008  1.00  0.00     0.031 A 
ATOM     69  C   UNL A   1      38.115  32.500  32.390  1.00  0.00     0.074 A 
ATOM     70  C   UNL A   1      38.337  31.181  30.312  1.00  0.00     0.049 A 
ATOM     71  N   UNL A   1      39.128  32.049  33.087  1.00  0.00    -0.248 NA
ATOM     72  C   UNL A   1      37.346  33.555  33.070  1.00  0.00    -0.034 C 
ATOM     73  C   UNL A   1      38.025  30.753  28.948  1.00  0.00    -0.036 A 
ATOM     74  N   UNL A   1      39.429  30.425  30.657  1.00  0.00    -0.354 N 
ATOM     75  C   UNL A   1      39.122  32.769  34.275  1.00  0.00     0.074 A 
ATOM     76  C   UNL A   1      38.048  33.733  34.179  1.00  0.00    -0.034 C 
ATOM     77  H   UNL A   1      36.484  34.033  32.763  1.00  0.00     0.065 H 
ATOM     78  C   UNL A   1      38.886  29.790  28.583  1.00  0.00    -0.036 A 
ATOM     79  H   UNL A   1      37.265  31.132  28.361  1.00  0.00     0.065 H 
ATOM     80  C   UNL A   1      39.830  29.557  29.670  1.00  0.00     0.049 A 
ATOM     81  H   UNL A   1      39.882  30.497  31.527  1.00  0.00     0.167 HD
ATOM     82  C   UNL A   1      39.920  32.622  35.360  1.00  0.00     0.037 A 
ATOM     83  H   UNL A   1      37.853  34.462  34.883  1.00  0.00     0.065 H 
ATOM     84  H   UNL A   1      38.880  29.294  27.678  1.00  0.00     0.065 H 
ATOM     85  C   UNL A   1      40.846  28.673  29.649  1.00  0.00     0.037 A 
ATOM     86  C   UNL A   1      40.975  31.647  35.461  1.00  0.00     0.049 A 
ATOM     87  C   UNL A   1      41.719  28.529  30.868  1.00  0.00     0.074 A 
ATOM     88  C   UNL A   1      41.809  31.384  36.534  1.00  0.00    -0.036 A 
ATOM     89  N   UNL A   1      41.341  30.773  34.447  1.00  0.00    -0.354 N 
ATOM     90  N   UNL A   1      41.660  29.169  32.011  1.00  0.00    -0.248 NA
ATOM     91  C   UNL A   1      42.791  27.528  30.796  1.00  0.00    -0.034 C 
ATOM     92  C   UNL A   1      42.714  30.387  36.152  1.00  0.00    -0.036 A 
ATOM     93  H   UNL A   1      41.769  31.843  37.458  1.00  0.00     0.065 H 
ATOM     94  C   UNL A   1      42.403  29.984  34.862  1.00  0.00     0.049 A 
ATOM     95  H   UNL A   1      40.911  30.722  33.563  1.00  0.00     0.167 HD
ATOM     96  C   UNL A   1      42.662  28.626  32.804  1.00  0.00     0.074 A 
ATOM     97  C   UNL A   1      43.298  27.589  32.018  1.00  0.00    -0.034 C 
ATOM     98  H   UNL A   1      43.073  26.931  30.002  1.00  0.00     0.065 H 
ATOM     99  H   UNL A   1      43.483  30.016  36.731  1.00  0.00     0.065 H 
ATOM    100  C   UNL A   1      43.023  28.953  34.070  1.00  0.00     0.037 A 
ATOM    101  H   UNL A   1      44.052  26.976  32.365  1.00  0.00     0.065 H 
BRANCH  82 102
ATOM    102  C   UNL A   1      39.680  33.539  36.527  1.00  0.00     0.064 A 
ATOM    103  C   UNL A   1      38.835  33.178  37.590  1.00  0.00     0.173 A 
ATOM    104  C   UNL A   1      40.323  34.784  36.600  1.00  0.00     0.173 A 
ATOM    105  F   UNL A   1      38.186  32.004  37.567  1.00  0.00    -0.203 F 
ATOM    106  C   UNL A   1      38.616  34.042  38.659  1.00  0.00     0.198 A 
ATOM    107  C   UNL A   1      40.129  35.631  37.689  1.00  0.00     0.198 A 
ATOM    108  F   UNL A   1      41.146  35.179  35.617  1.00  0.00    -0.203 F 
ATOM    109  F   UNL A   1      37.759  33.698  39.630  1.00  0.00    -0.200 F 
ATOM    110  C   UNL A   1      39.268  35.264  38.712  1.00  0.00     0.200 A 
ATOM    111  F   UNL A   1      40.772  36.806  37.745  1.00  0.00    -0.200 F 
ATOM    112  F   UNL A   1      39.061  36.092  39.745  1.00  0.00    -0.200 F 
ENDBRANCH  82 102
BRANCH  85 113
ATOM    113  C   UNL A   1      41.075  27.830  28.445  1.00  0.00     0.064 A 
ATOM    114  C   UNL A   1      41.937  28.253  27.423  1.00  0.00     0.173 A 
ATOM    115  C   UNL A   1      40.426  26.599  28.281  1.00  0.00     0.173 A 
ATOM    116  F   UNL A   1      42.567  29.434  27.523  1.00  0.00    -0.203 F 
ATOM    117  C   UNL A   1      42.119  27.489  26.271  1.00  0.00     0.198 A 
ATOM    118  C   UNL A   1      40.634  25.820  27.144  1.00  0.00     0.198 A 
ATOM    119  F   UNL A   1      39.595  26.144  29.231  1.00  0.00    -0.203 F 
ATOM    120  F   UNL A   1      42.906  27.944  25.286  1.00  0.00    -0.200 F 
ATOM    121  C   UNL A   1      41.471  26.271  26.135  1.00  0.00     0.200 A 
ATOM    122  F   UNL A   1      40.019  24.636  27.024  1.00  0.00    -0.200 F 
ATOM    123  F   UNL A   1      41.647  25.537  25.028  1.00  0.00    -0.200 F 
ENDBRANCH  85 113
BRANCH 100 124
ATOM    124  C   UNL A   1      44.128  28.149  34.697  1.00  0.00     0.064 A 
ATOM    125  C   UNL A   1      45.471  28.547  34.619  1.00  0.00     0.173 A 
ATOM    126  C   UNL A   1      43.834  26.968  35.395  1.00  0.00     0.173 A 
ATOM    127  F   UNL A   1      45.808  29.661  33.954  1.00  0.00    -0.203 F 
ATOM    128  C   UNL A   1      46.482  27.769  35.179  1.00  0.00     0.198 A 
ATOM    129  C   UNL A   1      44.844  26.212  35.985  1.00  0.00     0.198 A 
ATOM    130  F   UNL A   1      42.566  26.546  35.510  1.00  0.00    -0.203 F 
ATOM    131  F   UNL A   1      47.764  28.133  35.031  1.00  0.00    -0.200 F 
ATOM    132  C   UNL A   1      46.168  26.606  35.865  1.00  0.00     0.200 A 
ATOM    133  F   UNL A   1      44.536  25.098  36.663  1.00  0.00    -0.200 F 
ATOM    134  F   UNL A   1      47.143  25.859  36.401  1.00  0.00    -0.200 F 
ENDBRANCH 100 124
ENDBRANCH  65  68
ENDBRANCH  55  58
ENDBRANCH  51  54
ENDBRANCH  48  51
ENDBRANCH  45  48
ENDBRANCH   1  45
TORSDOF 16
ENDMDL
MODEL 3
REMARK VINA RESULT:     -12.2      0.348      1.604
REMARK SMILES [NH3+]Cc1c(-c2ccccc2)c(C(=O)NCCCCCCNC(=O)c2ccc(-c3c4nc(c(-c5c(F)c(F)c(F)c(F)c5F)c5ccc([nH]5)c(-c5c(F)c(F)c(F)c(F)c5F)c5nc(c(-c6c(F)c(F)c(F)c(F)c6F)c6ccc3[nH]6)C=C5)C=C4)cc2)c2ccccn12
REMARK SMILES IDX 17 1 16 4 15 7 14 10 12 11 13 12 11 14 3 15 4 16 92 17 87 18
REMARK SMILES IDX 91 19 88 20 90 21 89 23 2 27 1 30 5 34 6 35 10 36 7 37 9 39
REMARK SMILES IDX 8 41 18 45 19 48 20 51 21 54 22 55 23 57 24 58 25 59 86 60
REMARK SMILES IDX 26 61 85 63 27 65 28 68 29 69 79 70 30 71 84 72 78 73 80 74
REMARK SMILES IDX 31 75 83 76 77 78 76 80 32 82 64 85 44 86 63 87 45 88 48 89
REMARK SMILES IDX 62 90 81 91 46 92 47 94 61 96 82 97 49 100 33 102 34 103
REMARK SMILES IDX 42 104 35 105 36 106 40 107 43 108 37 109 38 110 41 111
REMARK SMILES IDX 39 112 65 113 66 114 74 115 67 116 68 117 72 118 75 119
REMARK SMILES IDX 69 120 70 121 73 122 71 123 50 124 51 125 59 126 52 127
REMARK SMILES IDX 53 128 57 129 60 130 54 131 55 132 58 133 56 134
REMARK H PARENT 17 2 17 3 16 5 16 6 15 8 15 9 14 13 91 22 88 24 90 25 89 26
REMARK H PARENT 2 28 2 29 1 31 1 32 1 33 6 38 10 40 7 42 9 43 8 44 18 46 18 47
REMARK H PARENT 19 49 19 50 20 52 20 53 21 56 25 62 86 64 26 66 85 67 84 77
REMARK H PARENT 78 79 80 81 83 83 77 84 45 93 48 95 81 98 46 99 82 101
REMARK Flexibility Score: inf
ROOT
ATOM      1  C   UNL A   1      31.800  29.746  26.880  1.00  0.00    -0.052 C 
ATOM      2  H   UNL A   1      31.328  29.933  27.822  1.00  0.00     0.027 H 
ATOM      3  H   UNL A   1      31.498  28.844  26.389  1.00  0.00     0.027 H 
ENDROOT
BRANCH   1   4
ATOM      4  C   UNL A   1      33.298  29.564  27.145  1.00  0.00    -0.036 C 
ATOM      5  H   UNL A   1      33.794  30.453  26.814  1.00  0.00     0.028 H 
ATOM      6  H   UNL A   1      33.371  29.367  28.194  1.00  0.00     0.028 H 
BRANCH   4   7
ATOM      7  C   UNL A   1      33.985  28.379  26.472  1.00  0.00     0.018 C 
ATOM      8  H   UNL A   1      34.836  28.113  27.064  1.00  0.00     0.049 H 
ATOM      9  H   UNL A   1      33.246  27.608  26.409  1.00  0.00     0.049 H 
BRANCH   7  10
ATOM     10  N   UNL A   1      34.437  28.609  25.121  1.00  0.00    -0.352 N 
ATOM     11  C   UNL A   1      33.859  28.292  23.909  1.00  0.00     0.254 C 
ATOM     12  O   UNL A   1      34.450  28.704  22.911  1.00  0.00    -0.269 OA
ATOM     13  H   UNL A   1      35.305  29.070  25.053  1.00  0.00     0.163 HD
BRANCH  11  14
ATOM     14  C   UNL A   1      32.664  27.440  23.805  1.00  0.00     0.073 A 
ATOM     15  C   UNL A   1      31.329  25.550  23.943  1.00  0.00     0.086 A 
ATOM     16  C   UNL A   1      32.646  26.013  23.995  1.00  0.00     0.022 A 
ATOM     17  N   UNL A   1      30.536  26.663  23.707  1.00  0.00    -0.314 N 
ATOM     18  C   UNL A   1      31.369  27.749  23.403  1.00  0.00     0.059 A 
ATOM     19  C   UNL A   1      29.140  26.801  23.727  1.00  0.00     0.009 A 
ATOM     20  C   UNL A   1      30.739  28.896  22.825  1.00  0.00    -0.037 A 
ATOM     21  C   UNL A   1      28.561  27.946  23.336  1.00  0.00    -0.045 A 
ATOM     22  H   UNL A   1      28.552  26.014  24.046  1.00  0.00     0.082 H 
ATOM     23  C   UNL A   1      29.399  29.007  22.821  1.00  0.00    -0.059 A 
ATOM     24  H   UNL A   1      31.316  29.642  22.408  1.00  0.00     0.065 H 
ATOM     25  H   UNL A   1      27.539  28.069  23.402  1.00  0.00     0.064 H 
ATOM     26  H   UNL A   1      28.962  29.862  22.445  1.00  0.00     0.062 H 
BRANCH  15  27
ATOM     27  C   UNL A   1      30.862  24.136  24.165  1.00  0.00     0.116 C 
ATOM     28  H   UNL A   1      31.629  23.621  24.704  1.00  0.00     0.099 H 
ATOM     29  H   UNL A   1      29.933  24.222  24.689  1.00  0.00     0.099 H 
BRANCH  27  30
ATOM     30  N   UNL A   1      30.564  23.362  22.972  1.00  0.00    -0.353 N 
ATOM     31  H   UNL A   1      30.770  23.921  22.145  1.00  0.00     0.344 HD
ATOM     32  H   UNL A   1      29.577  23.104  22.972  1.00  0.00     0.344 HD
ATOM     33  H   UNL A   1      31.135  22.518  22.963  1.00  0.00     0.344 HD
ENDBRANCH  27  30
ENDBRANCH  15  27
BRANCH  16  34
ATOM     34  C   UNL A   1      33.772  25.114  24.218  1.00  0.00    -0.016 A 
ATOM     35  C   UNL A   1      34.323  24.375  23.168  1.00  0.00    -0.054 A 
ATOM     36  C   UNL A   1      34.310  24.990  25.507  1.00  0.00    -0.054 A 
ATOM     37  C   UNL A   1      35.408  23.527  23.407  1.00  0.00    -0.062 A 
ATOM     38  H   UNL A   1      33.930  24.456  22.218  1.00  0.00     0.063 H 
ATOM     39  C   UNL A   1      35.398  24.150  25.741  1.00  0.00    -0.062 A 
ATOM     40  H   UNL A   1      33.896  25.524  26.288  1.00  0.00     0.063 H 
ATOM     41  C   UNL A   1      35.947  23.419  24.690  1.00  0.00    -0.062 A 
ATOM     42  H   UNL A   1      35.814  22.980  22.632  1.00  0.00     0.062 H 
ATOM     43  H   UNL A   1      35.796  24.071  26.690  1.00  0.00     0.062 H 
ATOM     44  H   UNL A   1      36.753  22.796  24.861  1.00  0.00     0.062 H 
ENDBRANCH  16  34
ENDBRANCH  11  14
ENDBRANCH   7  10
ENDBRANCH   4   7
ENDBRANCH   1   4
BRANCH   1  45
ATOM     45  C   UNL A   1      31.384  30.870  25.927  1.00  0.00    -0.052 C 
ATOM     46  H   UNL A   1      30.425  30.616  25.527  1.00  0.00     0.027 H 
ATOM     47  H   UNL A   1      32.173  30.929  25.207  1.00  0.00     0.027 H 
BRANCH  45  48
ATOM     48  C   UNL A   1      31.280  32.278  26.517  1.00  0.00    -0.036 C 
ATOM     49  H   UNL A   1      30.627  32.230  27.363  1.00  0.00     0.028 H 
ATOM     50  H   UNL A   1      30.923  32.896  25.720  1.00  0.00     0.028 H 
BRANCH  48  51
ATOM     51  C   UNL A   1      32.586  32.915  26.974  1.00  0.00     0.018 C 
ATOM     52  H   UNL A   1      33.218  33.044  26.120  1.00  0.00     0.049 H 
ATOM     53  H   UNL A   1      33.023  32.262  27.700  1.00  0.00     0.049 H 
BRANCH  51  54
ATOM     54  N   UNL A   1      32.400  34.206  27.611  1.00  0.00    -0.352 N 
ATOM     55  C   UNL A   1      33.069  34.771  28.666  1.00  0.00     0.251 C 
ATOM     56  H   UNL A   1      31.684  34.760  27.226  1.00  0.00     0.163 HD
ATOM     57  O   UNL A   1      32.669  35.827  29.146  1.00  0.00    -0.269 OA
BRANCH  55  58
ATOM     58  C   UNL A   1      34.260  34.109  29.249  1.00  0.00     0.039 A 
ATOM     59  C   UNL A   1      34.064  33.081  30.176  1.00  0.00    -0.049 A 
ATOM     60  C   UNL A   1      35.557  34.517  28.928  1.00  0.00    -0.049 A 
ATOM     61  C   UNL A   1      35.165  32.442  30.752  1.00  0.00    -0.053 A 
ATOM     62  H   UNL A   1      33.108  32.793  30.434  1.00  0.00     0.063 H 
ATOM     63  C   UNL A   1      36.653  33.826  29.440  1.00  0.00    -0.053 A 
ATOM     64  H   UNL A   1      35.703  35.332  28.312  1.00  0.00     0.063 H 
ATOM     65  C   UNL A   1      36.470  32.796  30.375  1.00  0.00    -0.014 A 
ATOM     66  H   UNL A   1      35.018  31.706  31.460  1.00  0.00     0.063 H 
ATOM     67  H   UNL A   1      37.606  34.073  29.130  1.00  0.00     0.063 H 
BRANCH  65  68
ATOM     68  C   UNL A   1      37.648  32.125  30.983  1.00  0.00     0.031 A 
ATOM     69  C   UNL A   1      38.110  32.511  32.363  1.00  0.00     0.074 A 
ATOM     70  C   UNL A   1      38.323  31.190  30.285  1.00  0.00     0.049 A 
ATOM     71  N   UNL A   1      39.126  32.061  33.055  1.00  0.00    -0.248 NA
ATOM     72  C   UNL A   1      37.344  33.566  33.044  1.00  0.00    -0.034 C 
ATOM     73  C   UNL A   1      38.004  30.761  28.923  1.00  0.00    -0.036 A 
ATOM     74  N   UNL A   1      39.416  30.435  30.625  1.00  0.00    -0.354 N 
ATOM     75  C   UNL A   1      39.125  32.782  34.242  1.00  0.00     0.074 A 
ATOM     76  C   UNL A   1      38.051  33.745  34.150  1.00  0.00    -0.034 C 
ATOM     77  H   UNL A   1      36.480  34.043  32.741  1.00  0.00     0.065 H 
ATOM     78  C   UNL A   1      38.864  29.797  28.554  1.00  0.00    -0.036 A 
ATOM     79  H   UNL A   1      37.242  31.138  28.339  1.00  0.00     0.065 H 
ATOM     80  C   UNL A   1      39.814  29.566  29.638  1.00  0.00     0.049 A 
ATOM     81  H   UNL A   1      39.874  30.508  31.493  1.00  0.00     0.167 HD
ATOM     82  C   UNL A   1      39.928  32.637  35.324  1.00  0.00     0.037 A 
ATOM     83  H   UNL A   1      37.859  34.475  34.854  1.00  0.00     0.065 H 
ATOM     84  H   UNL A   1      38.855  29.300  27.650  1.00  0.00     0.065 H 
ATOM     85  C   UNL A   1      40.830  28.682  29.613  1.00  0.00     0.037 A 
ATOM     86  C   UNL A   1      40.985  31.663  35.421  1.00  0.00     0.049 A 
ATOM     87  C   UNL A   1      41.708  28.540  30.827  1.00  0.00     0.074 A 
ATOM     88  C   UNL A   1      41.824  31.401  36.490  1.00  0.00    -0.036 A 
ATOM     89  N   UNL A   1      41.347  30.788  34.406  1.00  0.00    -0.354 N 
ATOM     90  N   UNL A   1      41.655  29.182  31.970  1.00  0.00    -0.248 NA
ATOM     91  C   UNL A   1      42.781  27.539  30.751  1.00  0.00    -0.034 C 
ATOM     92  C   UNL A   1      42.727  30.405  36.104  1.00  0.00    -0.036 A 
ATOM     93  H   UNL A   1      41.788  31.861  37.413  1.00  0.00     0.065 H 
ATOM     94  C   UNL A   1      42.411  30.000  34.817  1.00  0.00     0.049 A 
ATOM     95  H   UNL A   1      40.913  30.735  33.524  1.00  0.00     0.167 HD
ATOM     96  C   UNL A   1      42.661  28.639  32.759  1.00  0.00     0.074 A 
ATOM     97  C   UNL A   1      43.293  27.602  31.971  1.00  0.00    -0.034 C 
ATOM     98  H   UNL A   1      43.059  26.942  29.957  1.00  0.00     0.065 H 
ATOM     99  H   UNL A   1      43.499  30.034  36.681  1.00  0.00     0.065 H 
ATOM    100  C   UNL A   1      43.028  28.968  34.023  1.00  0.00     0.037 A 
ATOM    101  H   UNL A   1      44.049  26.990  32.315  1.00  0.00     0.065 H 
BRANCH  82 102
ATOM    102  C   UNL A   1      39.694  33.555  36.491  1.00  0.00     0.064 A 
ATOM    103  C   UNL A   1      40.297  34.821  36.568  1.00  0.00     0.173 A 
ATOM    104  C   UNL A   1      38.835  33.177  37.534  1.00  0.00     0.173 A 
ATOM    105  F   UNL A   1      41.136  35.229  35.604  1.00  0.00    -0.203 F 
ATOM    106  C   UNL A   1      40.078  35.656  37.661  1.00  0.00     0.198 A 
ATOM    107  C   UNL A   1      38.591  34.029  38.609  1.00  0.00     0.198 A 
ATOM    108  F   UNL A   1      38.228  31.981  37.511  1.00  0.00    -0.203 F 
ATOM    109  F   UNL A   1      40.712  36.834  37.739  1.00  0.00    -0.200 F 
ATOM    110  C   UNL A   1      39.219  35.263  38.677  1.00  0.00     0.200 A 
ATOM    111  F   UNL A   1      37.750  33.654  39.582  1.00  0.00    -0.200 F 
ATOM    112  F   UNL A   1      39.005  36.070  39.724  1.00  0.00    -0.200 F 
ENDBRANCH  82 102
BRANCH  85 113
ATOM    113  C   UNL A   1      41.054  27.839  28.408  1.00  0.00     0.064 A 
ATOM    114  C   UNL A   1      41.918  28.256  27.385  1.00  0.00     0.173 A 
ATOM    115  C   UNL A   1      40.397  26.611  28.244  1.00  0.00     0.173 A 
ATOM    116  F   UNL A   1      42.554  29.433  27.486  1.00  0.00    -0.203 F 
ATOM    117  C   UNL A   1      42.095  27.492  26.233  1.00  0.00     0.198 A 
ATOM    118  C   UNL A   1      40.601  25.831  27.107  1.00  0.00     0.198 A 
ATOM    119  F   UNL A   1      39.565  26.161  29.195  1.00  0.00    -0.203 F 
ATOM    120  F   UNL A   1      42.884  27.942  25.249  1.00  0.00    -0.200 F 
ATOM    121  C   UNL A   1      41.440  26.277  26.097  1.00  0.00     0.200 A 
ATOM    122  F   UNL A   1      39.978  24.650  26.987  1.00  0.00    -0.200 F 
ATOM    123  F   UNL A   1      41.612  25.542  24.991  1.00  0.00    -0.200 F 
ENDBRANCH  85 113
BRANCH 100 124
ATOM    124  C   UNL A   1      44.136  28.166  34.646  1.00  0.00     0.064 A 
ATOM    125  C   UNL A   1      43.887  26.978  35.349  1.00  0.00     0.173 A 
ATOM    126  C   UNL A   1      45.468  28.590  34.527  1.00  0.00     0.173 A 
ATOM    127  F   UNL A   1      42.631  26.534  35.503  1.00  0.00    -0.203 F 
ATOM    128  C   UNL A   1      44.926  26.268  35.947  1.00  0.00     0.198 A 
ATOM    129  C   UNL A   1      46.508  27.858  35.094  1.00  0.00     0.198 A 
ATOM    130  F   UNL A   1      45.765  29.713  33.856  1.00  0.00    -0.203 F 
ATOM    131  F   UNL A   1      44.656  25.174  36.673  1.00  0.00    -0.200 F 
ATOM    132  C   UNL A   1      46.235  26.705  35.815  1.00  0.00     0.200 A 
ATOM    133  F   UNL A   1      47.774  28.273  34.951  1.00  0.00    -0.200 F 
ATOM    134  F   UNL A   1      47.233  26.022  36.393  1.00  0.00    -0.200 F 
ENDBRANCH 100 124
ENDBRANCH  65  68
ENDBRANCH  55  58
ENDBRANCH  51  54
ENDBRANCH  48  51
ENDBRANCH  45  48
ENDBRANCH   1  45
TORSDOF 16
ENDMDL
MODEL 4
REMARK VINA RESULT:     -12.1      0.696      7.235
REMARK SMILES [NH3+]Cc1c(-c2ccccc2)c(C(=O)NCCCCCCNC(=O)c2ccc(-c3c4nc(c(-c5c(F)c(F)c(F)c(F)c5F)c5ccc([nH]5)c(-c5c(F)c(F)c(F)c(F)c5F)c5nc(c(-c6c(F)c(F)c(F)c(F)c6F)c6ccc3[nH]6)C=C5)C=C4)cc2)c2ccccn12
REMARK SMILES IDX 17 1 16 4 15 7 14 10 12 11 13 12 11 14 3 15 4 16 92 17 87 18
REMARK SMILES IDX 91 19 88 20 90 21 89 23 2 27 1 30 5 34 6 35 10 36 7 37 9 39
REMARK SMILES IDX 8 41 18 45 19 48 20 51 21 54 22 55 23 57 24 58 25 59 86 60
REMARK SMILES IDX 26 61 85 63 27 65 28 68 29 69 79 70 30 71 84 72 78 73 80 74
REMARK SMILES IDX 31 75 83 76 77 78 76 80 32 82 64 85 44 86 63 87 45 88 48 89
REMARK SMILES IDX 62 90 81 91 46 92 47 94 61 96 82 97 49 100 33 102 34 103
REMARK SMILES IDX 42 104 35 105 36 106 40 107 43 108 37 109 38 110 41 111
REMARK SMILES IDX 39 112 65 113 66 114 74 115 67 116 68 117 72 118 75 119
REMARK SMILES IDX 69 120 70 121 73 122 71 123 50 124 51 125 59 126 52 127
REMARK SMILES IDX 53 128 57 129 60 130 54 131 55 132 58 133 56 134
REMARK H PARENT 17 2 17 3 16 5 16 6 15 8 15 9 14 13 91 22 88 24 90 25 89 26
REMARK H PARENT 2 28 2 29 1 31 1 32 1 33 6 38 10 40 7 42 9 43 8 44 18 46 18 47
REMARK H PARENT 19 49 19 50 20 52 20 53 21 56 25 62 86 64 26 66 85 67 84 77
REMARK H PARENT 78 79 80 81 83 83 77 84 45 93 48 95 81 98 46 99 82 101
REMARK Flexibility Score: inf
ROOT
ATOM      1  C   UNL A   1      31.778  29.719  26.755  1.00  0.00    -0.052 C 
ATOM      2  H   UNL A   1      31.253  29.847  27.679  1.00  0.00     0.027 H 
ATOM      3  H   UNL A   1      31.511  28.847  26.196  1.00  0.00     0.027 H 
ENDROOT
BRANCH   1   4
ATOM      4  C   UNL A   1      33.260  29.531  27.091  1.00  0.00    -0.036 C 
ATOM      5  H   UNL A   1      33.774  30.420  26.788  1.00  0.00     0.028 H 
ATOM      6  H   UNL A   1      33.282  29.330  28.142  1.00  0.00     0.028 H 
BRANCH   4   7
ATOM      7  C   UNL A   1      33.975  28.346  26.448  1.00  0.00     0.018 C 
ATOM      8  H   UNL A   1      34.841  28.124  27.037  1.00  0.00     0.049 H 
ATOM      9  H   UNL A   1      33.259  27.551  26.418  1.00  0.00     0.049 H 
BRANCH   7  10
ATOM     10  N   UNL A   1      34.403  28.546  25.084  1.00  0.00    -0.352 N 
ATOM     11  C   UNL A   1      33.815  28.184  23.890  1.00  0.00     0.254 C 
ATOM     12  O   UNL A   1      34.384  28.577  22.872  1.00  0.00    -0.269 OA
ATOM     13  H   UNL A   1      35.261  29.020  24.990  1.00  0.00     0.163 HD
BRANCH  11  14
ATOM     14  C   UNL A   1      32.634  27.307  23.827  1.00  0.00     0.073 A 
ATOM     15  C   UNL A   1      31.344  25.390  24.012  1.00  0.00     0.086 A 
ATOM     16  C   UNL A   1      32.653  25.880  24.017  1.00  0.00     0.022 A 
ATOM     17  N   UNL A   1      30.521  26.486  23.803  1.00  0.00    -0.314 N 
ATOM     18  C   UNL A   1      31.320  27.589  23.470  1.00  0.00     0.059 A 
ATOM     19  C   UNL A   1      29.124  26.595  23.872  1.00  0.00     0.009 A 
ATOM     20  C   UNL A   1      30.648  28.722  22.914  1.00  0.00    -0.037 A 
ATOM     21  C   UNL A   1      28.508  27.728  23.501  1.00  0.00    -0.045 A 
ATOM     22  H   UNL A   1      28.564  25.796  24.210  1.00  0.00     0.082 H 
ATOM     23  C   UNL A   1      29.306  28.805  22.957  1.00  0.00    -0.059 A 
ATOM     24  H   UNL A   1      31.194  29.479  22.477  1.00  0.00     0.065 H 
ATOM     25  H   UNL A   1      27.487  27.830  23.602  1.00  0.00     0.064 H 
ATOM     26  H   UNL A   1      28.839  29.651  22.596  1.00  0.00     0.062 H 
BRANCH  15  27
ATOM     27  C   UNL A   1      30.914  23.967  24.250  1.00  0.00     0.116 C 
ATOM     28  H   UNL A   1      30.107  23.754  23.580  1.00  0.00     0.099 H 
ATOM     29  H   UNL A   1      31.790  23.374  24.089  1.00  0.00     0.099 H 
BRANCH  27  30
ATOM     30  N   UNL A   1      30.469  23.645  25.595  1.00  0.00    -0.353 N 
ATOM     31  H   UNL A   1      29.753  22.921  25.551  1.00  0.00     0.344 HD
ATOM     32  H   UNL A   1      30.082  24.481  26.033  1.00  0.00     0.344 HD
ATOM     33  H   UNL A   1      31.260  23.309  26.143  1.00  0.00     0.344 HD
ENDBRANCH  27  30
ENDBRANCH  15  27
BRANCH  16  34
ATOM     34  C   UNL A   1      33.804  25.004  24.202  1.00  0.00    -0.016 A 
ATOM     35  C   UNL A   1      34.329  24.271  23.135  1.00  0.00    -0.054 A 
ATOM     36  C   UNL A   1      34.393  24.898  25.470  1.00  0.00    -0.054 A 
ATOM     37  C   UNL A   1      35.439  23.446  23.336  1.00  0.00    -0.062 A 
ATOM     38  H   UNL A   1      33.899  24.339  22.200  1.00  0.00     0.063 H 
ATOM     39  C   UNL A   1      35.506  24.081  25.666  1.00  0.00    -0.062 A 
ATOM     40  H   UNL A   1      33.999  25.429  26.264  1.00  0.00     0.063 H 
ATOM     41  C   UNL A   1      36.028  23.355  24.599  1.00  0.00    -0.062 A 
ATOM     42  H   UNL A   1      35.825  22.902  22.549  1.00  0.00     0.062 H 
ATOM     43  H   UNL A   1      35.942  24.015  26.599  1.00  0.00     0.062 H 
ATOM     44  H   UNL A   1      36.852  22.749  24.741  1.00  0.00     0.062 H 
ENDBRANCH  16  34
ENDBRANCH  11  14
ENDBRANCH   7  10
ENDBRANCH   4   7
ENDBRANCH   1   4
BRANCH   1  45
ATOM     45  C   UNL A   1      31.404  30.895  25.849  1.00  0.00    -0.052 C 
ATOM     46  H   UNL A   1      30.469  30.661  25.385  1.00  0.00     0.027 H 
ATOM     47  H   UNL A   1      32.229  31.001  25.176  1.00  0.00     0.027 H 
BRANCH  45  48
ATOM     48  C   UNL A   1      31.259  32.266  26.515  1.00  0.00    -0.036 C 
ATOM     49  H   UNL A   1      30.580  32.160  27.334  1.00  0.00     0.028 H 
ATOM     50  H   UNL A   1      30.918  32.924  25.742  1.00  0.00     0.028 H 
BRANCH  48  51
ATOM     51  C   UNL A   1      32.539  32.894  27.049  1.00  0.00     0.018 C 
ATOM     52  H   UNL A   1      33.244  32.965  26.247  1.00  0.00     0.049 H 
ATOM     53  H   UNL A   1      32.895  32.268  27.841  1.00  0.00     0.049 H 
BRANCH  51  54
ATOM     54  N   UNL A   1      32.337  34.219  27.605  1.00  0.00    -0.352 N 
ATOM     55  C   UNL A   1      32.938  34.825  28.679  1.00  0.00     0.251 C 
ATOM     56  H   UNL A   1      31.665  34.767  27.140  1.00  0.00     0.163 HD
ATOM     57  O   UNL A   1      32.528  35.912  29.074  1.00  0.00    -0.269 OA
BRANCH  55  58
ATOM     58  C   UNL A   1      34.066  34.170  29.383  1.00  0.00     0.039 A 
ATOM     59  C   UNL A   1      35.367  34.435  28.945  1.00  0.00    -0.049 A 
ATOM     60  C   UNL A   1      33.855  33.271  30.431  1.00  0.00    -0.049 A 
ATOM     61  C   UNL A   1      36.454  33.827  29.580  1.00  0.00    -0.053 A 
ATOM     62  H   UNL A   1      35.526  35.079  28.155  1.00  0.00     0.063 H 
ATOM     63  C   UNL A   1      34.941  32.730  31.116  1.00  0.00    -0.053 A 
ATOM     64  H   UNL A   1      32.894  33.008  30.698  1.00  0.00     0.063 H 
ATOM     65  C   UNL A   1      36.251  32.984  30.684  1.00  0.00    -0.014 A 
ATOM     66  H   UNL A   1      37.411  33.999  29.234  1.00  0.00     0.063 H 
ATOM     67  H   UNL A   1      34.780  32.138  31.946  1.00  0.00     0.063 H 
BRANCH  65  68
ATOM     68  C   UNL A   1      37.399  32.331  31.365  1.00  0.00     0.031 A 
ATOM     69  C   UNL A   1      38.127  31.194  30.697  1.00  0.00     0.074 A 
ATOM     70  C   UNL A   1      37.769  32.736  32.596  1.00  0.00     0.049 A 
ATOM     71  N   UNL A   1      39.135  30.481  31.136  1.00  0.00    -0.248 NA
ATOM     72  C   UNL A   1      37.639  30.786  29.370  1.00  0.00    -0.034 C 
ATOM     73  C   UNL A   1      37.116  33.793  33.368  1.00  0.00    -0.036 A 
ATOM     74  N   UNL A   1      38.783  32.305  33.413  1.00  0.00    -0.354 N 
ATOM     75  C   UNL A   1      39.390  29.539  30.147  1.00  0.00     0.074 A 
ATOM     76  C   UNL A   1      38.393  29.726  29.117  1.00  0.00    -0.034 C 
ATOM     77  H   UNL A   1      36.902  31.213  28.788  1.00  0.00     0.065 H 
ATOM     78  C   UNL A   1      37.764  33.950  34.533  1.00  0.00    -0.036 A 
ATOM     79  H   UNL A   1      36.290  34.333  33.065  1.00  0.00     0.065 H 
ATOM     80  C   UNL A   1      38.854  32.982  34.606  1.00  0.00     0.049 A 
ATOM     81  H   UNL A   1      39.401  31.579  33.168  1.00  0.00     0.167 HD
ATOM     82  C   UNL A   1      40.384  28.620  30.088  1.00  0.00     0.037 A 
ATOM     83  H   UNL A   1      38.284  29.116  28.292  1.00  0.00     0.065 H 
ATOM     84  H   UNL A   1      37.529  34.643  35.261  1.00  0.00     0.065 H 
ATOM     85  C   UNL A   1      39.704  32.837  35.640  1.00  0.00     0.037 A 
ATOM     86  C   UNL A   1      41.389  28.450  31.106  1.00  0.00     0.049 A 
ATOM     87  C   UNL A   1      40.800  31.808  35.551  1.00  0.00     0.074 A 
ATOM     88  C   UNL A   1      42.467  27.582  31.121  1.00  0.00    -0.036 A 
ATOM     89  N   UNL A   1      41.438  29.166  32.294  1.00  0.00    -0.354 N 
ATOM     90  N   UNL A   1      41.072  30.969  34.581  1.00  0.00    -0.248 NA
ATOM     91  C   UNL A   1      41.714  31.718  36.696  1.00  0.00    -0.034 C 
ATOM     92  C   UNL A   1      43.137  27.735  32.339  1.00  0.00    -0.036 A 
ATOM     93  H   UNL A   1      42.731  26.933  30.363  1.00  0.00     0.065 H 
ATOM     94  C   UNL A   1      42.515  28.745  33.057  1.00  0.00     0.049 A 
ATOM     95  H   UNL A   1      40.801  29.870  32.556  1.00  0.00     0.167 HD
ATOM     96  C   UNL A   1      42.207  30.276  34.983  1.00  0.00     0.074 A 
ATOM     97  C   UNL A   1      42.582  30.810  36.276  1.00  0.00    -0.034 C 
ATOM     98  H   UNL A   1      41.688  32.229  37.593  1.00  0.00     0.065 H 
ATOM     99  H   UNL A   1      43.955  27.189  32.651  1.00  0.00     0.065 H 
ATOM    100  C   UNL A   1      42.879  29.289  34.341  1.00  0.00     0.037 A 
ATOM    101  H   UNL A   1      43.420  30.520  36.804  1.00  0.00     0.065 H 
BRANCH  82 102
ATOM    102  C   UNL A   1      40.432  27.726  28.881  1.00  0.00     0.064 A 
ATOM    103  C   UNL A   1      41.237  28.028  27.770  1.00  0.00     0.173 A 
ATOM    104  C   UNL A   1      39.686  26.539  28.842  1.00  0.00     0.173 A 
ATOM    105  F   UNL A   1      41.963  29.156  27.749  1.00  0.00    -0.203 F 
ATOM    106  C   UNL A   1      41.264  27.195  26.654  1.00  0.00     0.198 A 
ATOM    107  C   UNL A   1      39.742  25.690  27.739  1.00  0.00     0.198 A 
ATOM    108  F   UNL A   1      38.903  26.197  29.877  1.00  0.00    -0.203 F 
ATOM    109  F   UNL A   1      41.994  27.535  25.584  1.00  0.00    -0.200 F 
ATOM    110  C   UNL A   1      40.523  26.023  26.643  1.00  0.00     0.200 A 
ATOM    111  F   UNL A   1      39.036  24.551  27.735  1.00  0.00    -0.200 F 
ATOM    112  F   UNL A   1      40.554  25.219  25.571  1.00  0.00    -0.200 F 
ENDBRANCH  82 102
BRANCH  85 113
ATOM    113  C   UNL A   1      39.576  33.710  36.838  1.00  0.00     0.064 A 
ATOM    114  C   UNL A   1      38.784  33.324  37.930  1.00  0.00     0.173 A 
ATOM    115  C   UNL A   1      40.222  34.951  36.910  1.00  0.00     0.173 A 
ATOM    116  F   UNL A   1      38.128  32.154  37.901  1.00  0.00    -0.203 F 
ATOM    117  C   UNL A   1      38.622  34.158  39.035  1.00  0.00     0.198 A 
ATOM    118  C   UNL A   1      40.087  35.770  38.029  1.00  0.00     0.198 A 
ATOM    119  F   UNL A   1      40.997  35.367  35.897  1.00  0.00    -0.203 F 
ATOM    120  F   UNL A   1      37.816  33.788  40.038  1.00  0.00    -0.200 F 
ATOM    121  C   UNL A   1      39.278  35.379  39.086  1.00  0.00     0.200 A 
ATOM    122  F   UNL A   1      40.735  36.942  38.082  1.00  0.00    -0.200 F 
ATOM    123  F   UNL A   1      39.124  36.180  40.148  1.00  0.00    -0.200 F 
ENDBRANCH  85 113
BRANCH 100 124
ATOM    124  C   UNL A   1      44.116  28.755  35.009  1.00  0.00     0.064 A 
ATOM    125  C   UNL A   1      44.074  27.650  35.873  1.00  0.00     0.173 A 
ATOM    126  C   UNL A   1      45.363  29.353  34.771  1.00  0.00     0.173 A 
ATOM    127  F   UNL A   1      42.907  27.049  36.145  1.00  0.00    -0.203 F 
ATOM    128  C   UNL A   1      45.227  27.194  36.508  1.00  0.00     0.198 A 
ATOM    129  C   UNL A   1      46.519  28.871  35.378  1.00  0.00     0.198 A 
ATOM    130  F   UNL A   1      45.462  30.406  33.944  1.00  0.00    -0.203 F 
ATOM    131  F   UNL A   1      45.151  26.181  37.383  1.00  0.00    -0.200 F 
ATOM    132  C   UNL A   1      46.448  27.800  36.256  1.00  0.00     0.200 A 
ATOM    133  F   UNL A   1      47.700  29.447  35.119  1.00  0.00    -0.200 F 
ATOM    134  F   UNL A   1      47.556  27.360  36.869  1.00  0.00    -0.200 F 
ENDBRANCH 100 124
ENDBRANCH  65  68
ENDBRANCH  55  58
ENDBRANCH  51  54
ENDBRANCH  48  51
ENDBRANCH  45  48
ENDBRANCH   1  45
TORSDOF 16
ENDMDL
MODEL 5
REMARK VINA RESULT:     -12.1      0.666      7.222
REMARK SMILES [NH3+]Cc1c(-c2ccccc2)c(C(=O)NCCCCCCNC(=O)c2ccc(-c3c4nc(c(-c5c(F)c(F)c(F)c(F)c5F)c5ccc([nH]5)c(-c5c(F)c(F)c(F)c(F)c5F)c5nc(c(-c6c(F)c(F)c(F)c(F)c6F)c6ccc3[nH]6)C=C5)C=C4)cc2)c2ccccn12
REMARK SMILES IDX 17 1 16 4 15 7 14 10 12 11 13 12 11 14 3 15 4 16 92 17 87 18
REMARK SMILES IDX 91 19 88 20 90 21 89 23 2 27 1 30 5 34 6 35 10 36 7 37 9 39
REMARK SMILES IDX 8 41 18 45 19 48 20 51 21 54 22 55 23 57 24 58 25 59 86 60
REMARK SMILES IDX 26 61 85 63 27 65 28 68 29 69 79 70 30 71 84 72 78 73 80 74
REMARK SMILES IDX 31 75 83 76 77 78 76 80 32 82 64 85 44 86 63 87 45 88 48 89
REMARK SMILES IDX 62 90 81 91 46 92 47 94 61 96 82 97 49 100 33 102 34 103
REMARK SMILES IDX 42 104 35 105 36 106 40 107 43 108 37 109 38 110 41 111
REMARK SMILES IDX 39 112 65 113 66 114 74 115 67 116 68 117 72 118 75 119
REMARK SMILES IDX 69 120 70 121 73 122 71 123 50 124 51 125 59 126 52 127
REMARK SMILES IDX 53 128 57 129 60 130 54 131 55 132 58 133 56 134
REMARK H PARENT 17 2 17 3 16 5 16 6 15 8 15 9 14 13 91 22 88 24 90 25 89 26
REMARK H PARENT 2 28 2 29 1 31 1 32 1 33 6 38 10 40 7 42 9 43 8 44 18 46 18 47
REMARK H PARENT 19 49 19 50 20 52 20 53 21 56 25 62 86 64 26 66 85 67 84 77
REMARK H PARENT 78 79 80 81 83 83 77 84 45 93 48 95 81 98 46 99 82 101
REMARK Flexibility Score: inf
ROOT
ATOM      1  C   UNL A   1      31.777  29.730  26.857  1.00  0.00    -0.052 C 
ATOM      2  H   UNL A   1      31.302  29.932  27.795  1.00  0.00     0.027 H 
ATOM      3  H   UNL A   1      31.454  28.838  26.364  1.00  0.00     0.027 H 
ENDROOT
BRANCH   1   4
ATOM      4  C   UNL A   1      33.267  29.506  27.136  1.00  0.00    -0.036 C 
ATOM      5  H   UNL A   1      33.785  30.400  26.858  1.00  0.00     0.028 H 
ATOM      6  H   UNL A   1      33.318  29.256  28.176  1.00  0.00     0.028 H 
BRANCH   4   7
ATOM      7  C   UNL A   1      33.942  28.341  26.417  1.00  0.00     0.018 C 
ATOM      8  H   UNL A   1      34.790  28.043  26.998  1.00  0.00     0.049 H 
ATOM      9  H   UNL A   1      33.195  27.580  26.324  1.00  0.00     0.049 H 
BRANCH   7  10
ATOM     10  N   UNL A   1      34.395  28.620  25.076  1.00  0.00    -0.352 N 
ATOM     11  C   UNL A   1      33.801  28.382  23.854  1.00  0.00     0.254 C 
ATOM     12  O   UNL A   1      34.402  28.819  22.872  1.00  0.00    -0.269 OA
ATOM     13  H   UNL A   1      35.279  29.053  25.024  1.00  0.00     0.163 HD
BRANCH  11  14
ATOM     14  C   UNL A   1      32.576  27.578  23.716  1.00  0.00     0.073 A 
ATOM     15  C   UNL A   1      31.163  25.743  23.819  1.00  0.00     0.086 A 
ATOM     16  C   UNL A   1      32.496  26.153  23.908  1.00  0.00     0.022 A 
ATOM     17  N   UNL A   1      30.422  26.887  23.558  1.00  0.00    -0.314 N 
ATOM     18  C   UNL A   1      31.307  27.937  23.276  1.00  0.00     0.059 A 
ATOM     19  C   UNL A   1      29.033  27.080  23.537  1.00  0.00     0.009 A 
ATOM     20  C   UNL A   1      30.741  29.107  22.677  1.00  0.00    -0.037 A 
ATOM     21  C   UNL A   1      28.513  28.247  23.127  1.00  0.00    -0.045 A 
ATOM     22  H   UNL A   1      28.405  26.318  23.839  1.00  0.00     0.082 H 
ATOM     23  C   UNL A   1      29.407  29.271  22.634  1.00  0.00    -0.059 A 
ATOM     24  H   UNL A   1      31.360  29.827  22.275  1.00  0.00     0.065 H 
ATOM     25  H   UNL A   1      27.495  28.411  23.162  1.00  0.00     0.064 H 
ATOM     26  H   UNL A   1      29.016  30.142  22.243  1.00  0.00     0.062 H 
BRANCH  15  27
ATOM     27  C   UNL A   1      30.633  24.350  24.030  1.00  0.00     0.116 C 
ATOM     28  H   UNL A   1      29.755  24.241  23.428  1.00  0.00     0.099 H 
ATOM     29  H   UNL A   1      31.437  23.696  23.764  1.00  0.00     0.099 H 
BRANCH  27  30
ATOM     30  N   UNL A   1      30.279  23.996  25.394  1.00  0.00    -0.353 N 
ATOM     31  H   UNL A   1      29.480  24.554  25.694  1.00  0.00     0.344 HD
ATOM     32  H   UNL A   1      31.072  24.178  26.009  1.00  0.00     0.344 HD
ATOM     33  H   UNL A   1      30.037  23.006  25.436  1.00  0.00     0.344 HD
ENDBRANCH  27  30
ENDBRANCH  15  27
BRANCH  16  34
ATOM     34  C   UNL A   1      33.578  25.210  24.166  1.00  0.00    -0.016 A 
ATOM     35  C   UNL A   1      34.176  24.497  23.125  1.00  0.00    -0.054 A 
ATOM     36  C   UNL A   1      34.024  25.017  25.481  1.00  0.00    -0.054 A 
ATOM     37  C   UNL A   1      35.217  23.606  23.398  1.00  0.00    -0.062 A 
ATOM     38  H   UNL A   1      33.850  24.629  22.155  1.00  0.00     0.063 H 
ATOM     39  C   UNL A   1      35.069  24.134  25.750  1.00  0.00    -0.062 A 
ATOM     40  H   UNL A   1      33.575  25.532  26.256  1.00  0.00     0.063 H 
ATOM     41  C   UNL A   1      35.665  23.429  24.708  1.00  0.00    -0.062 A 
ATOM     42  H   UNL A   1      35.657  23.078  22.628  1.00  0.00     0.062 H 
ATOM     43  H   UNL A   1      35.401  24.004  26.719  1.00  0.00     0.062 H 
ATOM     44  H   UNL A   1      36.440  22.774  24.904  1.00  0.00     0.062 H 
ENDBRANCH  16  34
ENDBRANCH  11  14
ENDBRANCH   7  10
ENDBRANCH   4   7
ENDBRANCH   1   4
BRANCH   1  45
ATOM     45  C   UNL A   1      31.403  30.865  25.900  1.00  0.00    -0.052 C 
ATOM     46  H   UNL A   1      30.463  30.616  25.455  1.00  0.00     0.027 H 
ATOM     47  H   UNL A   1      32.223  30.933  25.216  1.00  0.00     0.027 H 
BRANCH  45  48
ATOM     48  C   UNL A   1      31.273  32.267  26.501  1.00  0.00    -0.036 C 
ATOM     49  H   UNL A   1      30.555  32.216  27.292  1.00  0.00     0.028 H 
ATOM     50  H   UNL A   1      30.988  32.901  25.688  1.00  0.00     0.028 H 
BRANCH  48  51
ATOM     51  C   UNL A   1      32.548  32.877  27.068  1.00  0.00     0.018 C 
ATOM     52  H   UNL A   1      33.271  32.945  26.282  1.00  0.00     0.049 H 
ATOM     53  H   UNL A   1      32.879  32.243  27.864  1.00  0.00     0.049 H 
BRANCH  51  54
ATOM     54  N   UNL A   1      32.347  34.202  27.627  1.00  0.00    -0.352 N 
ATOM     55  C   UNL A   1      32.984  34.822  28.671  1.00  0.00     0.251 C 
ATOM     56  H   UNL A   1      31.647  34.736  27.189  1.00  0.00     0.163 HD
ATOM     57  O   UNL A   1      32.574  35.904  29.079  1.00  0.00    -0.269 OA
BRANCH  55  58
ATOM     58  C   UNL A   1      34.152  34.190  29.328  1.00  0.00     0.039 A 
ATOM     59  C   UNL A   1      33.923  33.301  30.383  1.00  0.00    -0.049 A 
ATOM     60  C   UNL A   1      35.462  34.495  28.949  1.00  0.00    -0.049 A 
ATOM     61  C   UNL A   1      35.002  32.694  31.030  1.00  0.00    -0.053 A 
ATOM     62  H   UNL A   1      32.958  33.092  30.682  1.00  0.00     0.063 H 
ATOM     63  C   UNL A   1      36.533  33.829  29.540  1.00  0.00    -0.053 A 
ATOM     64  H   UNL A   1      35.635  35.216  28.231  1.00  0.00     0.063 H 
ATOM     65  C   UNL A   1      36.317  32.938  30.602  1.00  0.00    -0.014 A 
ATOM     66  H   UNL A   1      34.832  32.064  31.829  1.00  0.00     0.063 H 
ATOM     67  H   UNL A   1      37.492  33.991  29.195  1.00  0.00     0.063 H 
BRANCH  65  68
ATOM     68  C   UNL A   1      37.472  32.300  31.286  1.00  0.00     0.031 A 
ATOM     69  C   UNL A   1      38.231  31.189  30.610  1.00  0.00     0.074 A 
ATOM     70  C   UNL A   1      37.820  32.696  32.526  1.00  0.00     0.049 A 
ATOM     71  N   UNL A   1      39.249  30.492  31.050  1.00  0.00    -0.248 NA
ATOM     72  C   UNL A   1      37.766  30.789  29.273  1.00  0.00    -0.034 C 
ATOM     73  C   UNL A   1      37.136  33.728  33.306  1.00  0.00    -0.036 A 
ATOM     74  N   UNL A   1      38.834  32.275  33.348  1.00  0.00    -0.354 N 
ATOM     75  C   UNL A   1      39.535  29.569  30.051  1.00  0.00     0.074 A 
ATOM     76  C   UNL A   1      38.544  29.750  29.013  1.00  0.00    -0.034 C 
ATOM     77  H   UNL A   1      37.025  31.209  28.689  1.00  0.00     0.065 H 
ATOM     78  C   UNL A   1      37.768  33.881  34.480  1.00  0.00    -0.036 A 
ATOM     79  H   UNL A   1      36.302  34.254  33.002  1.00  0.00     0.065 H 
ATOM     80  C   UNL A   1      38.878  32.936  34.551  1.00  0.00     0.049 A 
ATOM     81  H   UNL A   1      39.471  31.566  33.100  1.00  0.00     0.167 HD
ATOM     82  C   UNL A   1      40.548  28.672  29.990  1.00  0.00     0.037 A 
ATOM     83  H   UNL A   1      38.457  29.149  28.179  1.00  0.00     0.065 H 
ATOM     84  H   UNL A   1      37.511  34.559  35.215  1.00  0.00     0.065 H 
ATOM     85  C   UNL A   1      39.721  32.795  35.593  1.00  0.00     0.037 A 
ATOM     86  C   UNL A   1      41.546  28.509  31.016  1.00  0.00     0.049 A 
ATOM     87  C   UNL A   1      40.839  31.791  35.500  1.00  0.00     0.074 A 
ATOM     88  C   UNL A   1      42.642  27.664  31.030  1.00  0.00    -0.036 A 
ATOM     89  N   UNL A   1      41.567  29.210  32.214  1.00  0.00    -0.354 N 
ATOM     90  N   UNL A   1      41.139  30.971  34.522  1.00  0.00    -0.248 NA
ATOM     91  C   UNL A   1      41.743  31.704  36.655  1.00  0.00    -0.034 C 
ATOM     92  C   UNL A   1      43.296  27.815  32.258  1.00  0.00    -0.036 A 
ATOM     93  H   UNL A   1      42.928  27.032  30.266  1.00  0.00     0.065 H 
ATOM     94  C   UNL A   1      42.645  28.800  32.983  1.00  0.00     0.049 A 
ATOM     95  H   UNL A   1      40.913  29.895  32.479  1.00  0.00     0.167 HD
ATOM     96  C   UNL A   1      42.285  30.298  34.927  1.00  0.00     0.074 A 
ATOM     97  C   UNL A   1      42.635  30.821  36.231  1.00  0.00    -0.034 C 
ATOM     98  H   UNL A   1      41.697  32.201  37.557  1.00  0.00     0.065 H 
ATOM     99  H   UNL A   1      44.123  27.282  32.570  1.00  0.00     0.065 H 
ATOM    100  C   UNL A   1      42.985  29.334  34.278  1.00  0.00     0.037 A 
ATOM    101  H   UNL A   1      43.473  30.541  36.764  1.00  0.00     0.065 H 
BRANCH  82 102
ATOM    102  C   UNL A   1      40.629  27.797  28.771  1.00  0.00     0.064 A 
ATOM    103  C   UNL A   1      39.920  26.588  28.681  1.00  0.00     0.173 A 
ATOM    104  C   UNL A   1      41.403  28.183  27.666  1.00  0.00     0.173 A 
ATOM    105  F   UNL A   1      39.173  26.165  29.712  1.00  0.00    -0.203 F 
ATOM    106  C   UNL A   1      40.012  25.783  27.549  1.00  0.00     0.198 A 
ATOM    107  C   UNL A   1      41.465  27.392  26.520  1.00  0.00     0.198 A 
ATOM    108  F   UNL A   1      42.097  29.330  27.693  1.00  0.00    -0.203 F 
ATOM    109  F   UNL A   1      39.373  24.606  27.512  1.00  0.00    -0.200 F 
ATOM    110  C   UNL A   1      40.778  26.189  26.466  1.00  0.00     0.200 A 
ATOM    111  F   UNL A   1      42.194  27.793  25.470  1.00  0.00    -0.200 F 
ATOM    112  F   UNL A   1      40.861  25.416  25.375  1.00  0.00    -0.200 F 
ENDBRANCH  82 102
BRANCH  85 113
ATOM    113  C   UNL A   1      39.561  33.648  36.801  1.00  0.00     0.064 A 
ATOM    114  C   UNL A   1      38.774  33.226  37.883  1.00  0.00     0.173 A 
ATOM    115  C   UNL A   1      40.172  34.905  36.894  1.00  0.00     0.173 A 
ATOM    116  F   UNL A   1      38.151  32.038  37.834  1.00  0.00    -0.203 F 
ATOM    117  C   UNL A   1      38.583  34.040  38.997  1.00  0.00     0.198 A 
ATOM    118  C   UNL A   1      40.008  35.705  38.023  1.00  0.00     0.198 A 
ATOM    119  F   UNL A   1      40.941  35.356  35.891  1.00  0.00    -0.203 F 
ATOM    120  F   UNL A   1      37.781  33.634  39.991  1.00  0.00    -0.200 F 
ATOM    121  C   UNL A   1      39.204  35.277  39.069  1.00  0.00     0.200 A 
ATOM    122  F   UNL A   1      40.623  36.894  38.095  1.00  0.00    -0.200 F 
ATOM    123  F   UNL A   1      39.021  36.060  40.140  1.00  0.00    -0.200 F 
ENDBRANCH  85 113
BRANCH 100 124
ATOM    124  C   UNL A   1      44.225  28.817  34.952  1.00  0.00     0.064 A 
ATOM    125  C   UNL A   1      45.478  29.418  34.760  1.00  0.00     0.173 A 
ATOM    126  C   UNL A   1      44.154  27.708  35.809  1.00  0.00     0.173 A 
ATOM    127  F   UNL A   1      45.604  30.472  33.942  1.00  0.00    -0.203 F 
ATOM    128  C   UNL A   1      46.620  28.901  35.368  1.00  0.00     0.198 A 
ATOM    129  C   UNL A   1      45.292  27.217  36.444  1.00  0.00     0.198 A 
ATOM    130  F   UNL A   1      42.980  27.101  36.036  1.00  0.00    -0.203 F 
ATOM    131  F   UNL A   1      47.817  29.450  35.115  1.00  0.00    -0.200 F 
ATOM    132  C   UNL A   1      46.526  27.806  36.212  1.00  0.00     0.200 A 
ATOM    133  F   UNL A   1      45.195  26.169  37.273  1.00  0.00    -0.200 F 
ATOM    134  F   UNL A   1      47.626  27.309  36.795  1.00  0.00    -0.200 F 
ENDBRANCH 100 124
ENDBRANCH  65  68
ENDBRANCH  55  58
ENDBRANCH  51  54
ENDBRANCH  48  51
ENDBRANCH  45  48
ENDBRANCH   1  45
TORSDOF 16
ENDMDL
MODEL 6
REMARK VINA RESULT:     -12.1      5.208     10.722
REMARK SMILES [NH3+]Cc1c(-c2ccccc2)c(C(=O)NCCCCCCNC(=O)c2ccc(-c3c4nc(c(-c5c(F)c(F)c(F)c(F)c5F)c5ccc([nH]5)c(-c5c(F)c(F)c(F)c(F)c5F)c5nc(c(-c6c(F)c(F)c(F)c(F)c6F)c6ccc3[nH]6)C=C5)C=C4)cc2)c2ccccn12
REMARK SMILES IDX 17 1 16 4 15 7 14 10 12 11 13 12 11 14 3 15 4 16 92 17 87 18
REMARK SMILES IDX 91 19 88 20 90 21 89 23 2 27 1 30 5 34 6 35 10 36 7 37 9 39
REMARK SMILES IDX 8 41 18 45 19 48 20 51 21 54 22 55 23 57 24 58 25 59 86 60
REMARK SMILES IDX 26 61 85 63 27 65 28 68 29 69 79 70 30 71 84 72 78 73 80 74
REMARK SMILES IDX 31 75 83 76 77 78 76 80 32 82 64 85 44 86 63 87 45 88 48 89
REMARK SMILES IDX 62 90 81 91 46 92 47 94 61 96 82 97 49 100 33 102 34 103
REMARK SMILES IDX 42 104 35 105 36 106 40 107 43 108 37 109 38 110 41 111
REMARK SMILES IDX 39 112 65 113 66 114 74 115 67 116 68 117 72 118 75 119
REMARK SMILES IDX 69 120 70 121 73 122 71 123 50 124 51 125 59 126 52 127
REMARK SMILES IDX 53 128 57 129 60 130 54 131 55 132 58 133 56 134
REMARK H PARENT 17 2 17 3 16 5 16 6 15 8 15 9 14 13 91 22 88 24 90 25 89 26
REMARK H PARENT 2 28 2 29 1 31 1 32 1 33 6 38 10 40 7 42 9 43 8 44 18 46 18 47
REMARK H PARENT 19 49 19 50 20 52 20 53 21 56 25 62 86 64 26 66 85 67 84 77
REMARK H PARENT 78 79 80 81 83 83 77 84 45 93 48 95 81 98 46 99 82 101
REMARK Flexibility Score: inf
ROOT
ATOM      1  C   UNL A   1      36.842  21.601  24.355  1.00  0.00    -0.052 C 
ATOM      2  H   UNL A   1      37.428  21.530  23.462  1.00  0.00     0.027 H 
ATOM      3  H   UNL A   1      35.813  21.852  24.207  1.00  0.00     0.027 H 
ENDROOT
BRANCH   1   4
ATOM      4  C   UNL A   1      37.411  22.755  25.187  1.00  0.00    -0.036 C 
ATOM      5  H   UNL A   1      37.921  22.328  26.025  1.00  0.00     0.028 H 
ATOM      6  H   UNL A   1      38.033  23.303  24.509  1.00  0.00     0.028 H 
BRANCH   4   7
ATOM      7  C   UNL A   1      36.418  23.780  25.727  1.00  0.00     0.018 C 
ATOM      8  H   UNL A   1      36.970  24.642  26.038  1.00  0.00     0.049 H 
ATOM      9  H   UNL A   1      35.731  23.973  24.930  1.00  0.00     0.049 H 
BRANCH   7  10
ATOM     10  N   UNL A   1      35.617  23.338  26.843  1.00  0.00    -0.352 N 
ATOM     11  C   UNL A   1      34.342  22.812  26.888  1.00  0.00     0.254 C 
ATOM     12  O   UNL A   1      33.956  22.440  27.996  1.00  0.00    -0.269 OA
ATOM     13  H   UNL A   1      36.054  23.427  27.722  1.00  0.00     0.163 HD
BRANCH  11  14
ATOM     14  C   UNL A   1      33.461  22.778  25.710  1.00  0.00     0.073 A 
ATOM     15  C   UNL A   1      32.155  23.547  23.956  1.00  0.00     0.086 A 
ATOM     16  C   UNL A   1      32.811  23.925  25.131  1.00  0.00     0.022 A 
ATOM     17  N   UNL A   1      32.375  22.186  23.810  1.00  0.00    -0.314 N 
ATOM     18  C   UNL A   1      32.967  21.700  24.984  1.00  0.00     0.059 A 
ATOM     19  C   UNL A   1      32.088  21.333  22.733  1.00  0.00     0.009 A 
ATOM     20  C   UNL A   1      32.981  20.280  25.153  1.00  0.00    -0.037 A 
ATOM     21  C   UNL A   1      32.263  20.008  22.847  1.00  0.00    -0.045 A 
ATOM     22  H   UNL A   1      31.740  21.729  21.845  1.00  0.00     0.082 H 
ATOM     23  C   UNL A   1      32.676  19.469  24.124  1.00  0.00    -0.059 A 
ATOM     24  H   UNL A   1      33.225  19.875  26.070  1.00  0.00     0.065 H 
ATOM     25  H   UNL A   1      32.105  19.385  22.040  1.00  0.00     0.064 H 
ATOM     26  H   UNL A   1      32.739  18.447  24.248  1.00  0.00     0.062 H 
BRANCH  15  27
ATOM     27  C   UNL A   1      31.415  24.452  23.007  1.00  0.00     0.116 C 
ATOM     28  H   UNL A   1      30.542  23.930  22.673  1.00  0.00     0.099 H 
ATOM     29  H   UNL A   1      31.212  25.343  23.563  1.00  0.00     0.099 H 
BRANCH  27  30
ATOM     30  N   UNL A   1      32.147  24.887  21.830  1.00  0.00    -0.353 N 
ATOM     31  H   UNL A   1      31.539  24.834  21.013  1.00  0.00     0.344 HD
ATOM     32  H   UNL A   1      32.957  24.284  21.692  1.00  0.00     0.344 HD
ATOM     33  H   UNL A   1      32.457  25.850  21.960  1.00  0.00     0.344 HD
ENDBRANCH  27  30
ENDBRANCH  15  27
BRANCH  16  34
ATOM     34  C   UNL A   1      32.790  25.299  25.619  1.00  0.00    -0.016 A 
ATOM     35  C   UNL A   1      33.817  26.191  25.301  1.00  0.00    -0.054 A 
ATOM     36  C   UNL A   1      31.723  25.729  26.420  1.00  0.00    -0.054 A 
ATOM     37  C   UNL A   1      33.769  27.505  25.774  1.00  0.00    -0.062 A 
ATOM     38  H   UNL A   1      34.609  25.881  24.717  1.00  0.00     0.063 H 
ATOM     39  C   UNL A   1      31.673  27.044  26.883  1.00  0.00    -0.062 A 
ATOM     40  H   UNL A   1      30.970  25.068  26.668  1.00  0.00     0.063 H 
ATOM     41  C   UNL A   1      32.696  27.931  26.559  1.00  0.00    -0.062 A 
ATOM     42  H   UNL A   1      34.528  28.164  25.540  1.00  0.00     0.062 H 
ATOM     43  H   UNL A   1      30.880  27.359  27.463  1.00  0.00     0.062 H 
ATOM     44  H   UNL A   1      32.662  28.905  26.901  1.00  0.00     0.062 H 
ENDBRANCH  16  34
ENDBRANCH  11  14
ENDBRANCH   7  10
ENDBRANCH   4   7
ENDBRANCH   1   4
BRANCH   1  45
ATOM     45  C   UNL A   1      36.819  20.213  25.000  1.00  0.00    -0.052 C 
ATOM     46  H   UNL A   1      36.090  19.628  24.481  1.00  0.00     0.027 H 
ATOM     47  H   UNL A   1      36.604  20.390  26.034  1.00  0.00     0.027 H 
BRANCH  45  48
ATOM     48  C   UNL A   1      38.131  19.424  25.000  1.00  0.00    -0.036 C 
ATOM     49  H   UNL A   1      38.572  19.527  24.031  1.00  0.00     0.028 H 
ATOM     50  H   UNL A   1      37.861  18.421  25.257  1.00  0.00     0.028 H 
BRANCH  48  51
ATOM     51  C   UNL A   1      39.170  19.845  26.032  1.00  0.00     0.018 C 
ATOM     52  H   UNL A   1      38.727  19.787  27.004  1.00  0.00     0.049 H 
ATOM     53  H   UNL A   1      39.474  20.842  25.789  1.00  0.00     0.049 H 
BRANCH  51  54
ATOM     54  N   UNL A   1      40.359  19.014  26.015  1.00  0.00    -0.352 N 
ATOM     55  C   UNL A   1      41.681  19.367  26.108  1.00  0.00     0.251 C 
ATOM     56  H   UNL A   1      40.191  18.049  25.923  1.00  0.00     0.163 HD
ATOM     57  O   UNL A   1      42.552  18.520  25.939  1.00  0.00    -0.269 OA
BRANCH  55  58
ATOM     58  C   UNL A   1      42.072  20.768  26.392  1.00  0.00     0.039 A 
ATOM     59  C   UNL A   1      42.279  21.145  27.723  1.00  0.00    -0.049 A 
ATOM     60  C   UNL A   1      42.191  21.718  25.375  1.00  0.00    -0.049 A 
ATOM     61  C   UNL A   1      42.639  22.460  28.027  1.00  0.00    -0.053 A 
ATOM     62  H   UNL A   1      42.168  20.453  28.480  1.00  0.00     0.063 H 
ATOM     63  C   UNL A   1      42.628  23.007  25.671  1.00  0.00    -0.053 A 
ATOM     64  H   UNL A   1      41.953  21.464  24.403  1.00  0.00     0.063 H 
ATOM     65  C   UNL A   1      42.835  23.399  27.002  1.00  0.00    -0.014 A 
ATOM     66  H   UNL A   1      42.759  22.744  29.012  1.00  0.00     0.063 H 
ATOM     67  H   UNL A   1      42.801  23.678  24.906  1.00  0.00     0.063 H 
BRANCH  65  68
ATOM     68  C   UNL A   1      43.215  24.801  27.315  1.00  0.00     0.031 A 
ATOM     69  C   UNL A   1      44.613  25.286  27.035  1.00  0.00     0.074 A 
ATOM     70  C   UNL A   1      42.315  25.631  27.879  1.00  0.00     0.049 A 
ATOM     71  N   UNL A   1      45.144  26.463  27.258  1.00  0.00    -0.248 NA
ATOM     72  C   UNL A   1      45.547  24.310  26.453  1.00  0.00    -0.034 C 
ATOM     73  C   UNL A   1      40.945  25.268  28.242  1.00  0.00    -0.036 A 
ATOM     74  N   UNL A   1      42.420  26.948  28.248  1.00  0.00    -0.354 N 
ATOM     75  C   UNL A   1      46.470  26.362  26.854  1.00  0.00     0.074 A 
ATOM     76  C   UNL A   1      46.681  24.994  26.437  1.00  0.00    -0.034 C 
ATOM     77  H   UNL A   1      45.366  23.343  26.139  1.00  0.00     0.065 H 
ATOM     78  C   UNL A   1      40.327  26.345  28.753  1.00  0.00    -0.036 A 
ATOM     79  H   UNL A   1      40.521  24.335  28.125  1.00  0.00     0.065 H 
ATOM     80  C   UNL A   1      41.266  27.462  28.787  1.00  0.00     0.049 A 
ATOM     81  H   UNL A   1      43.244  27.475  28.137  1.00  0.00     0.167 HD
ATOM     82  C   UNL A   1      47.418  27.328  26.809  1.00  0.00     0.037 A 
ATOM     83  H   UNL A   1      47.595  24.603  26.160  1.00  0.00     0.065 H 
ATOM     84  H   UNL A   1      39.346  26.378  29.071  1.00  0.00     0.065 H 
ATOM     85  C   UNL A   1      40.997  28.697  29.254  1.00  0.00     0.037 A 
ATOM     86  C   UNL A   1      47.199  28.695  27.207  1.00  0.00     0.049 A 
ATOM     87  C   UNL A   1      42.069  29.753  29.193  1.00  0.00     0.074 A 
ATOM     88  C   UNL A   1      48.078  29.763  27.154  1.00  0.00    -0.036 A 
ATOM     89  N   UNL A   1      46.010  29.183  27.733  1.00  0.00    -0.354 N 
ATOM     90  N   UNL A   1      43.298  29.663  28.746  1.00  0.00    -0.248 NA
ATOM     91  C   UNL A   1      41.707  31.087  29.689  1.00  0.00    -0.034 C 
ATOM     92  C   UNL A   1      47.440  30.884  27.696  1.00  0.00    -0.036 A 
ATOM     93  H   UNL A   1      49.039  29.737  26.778  1.00  0.00     0.065 H 
ATOM     94  C   UNL A   1      46.141  30.531  28.028  1.00  0.00     0.049 A 
ATOM     95  H   UNL A   1      45.195  28.650  27.875  1.00  0.00     0.167 HD
ATOM     96  C   UNL A   1      43.845  30.933  28.875  1.00  0.00     0.074 A 
ATOM     97  C   UNL A   1      42.805  31.779  29.422  1.00  0.00    -0.034 C 
ATOM     98  H   UNL A   1      40.828  31.403  30.128  1.00  0.00     0.065 H 
ATOM     99  H   UNL A   1      47.864  31.815  27.828  1.00  0.00     0.065 H 
ATOM    100  C   UNL A   1      45.095  31.362  28.568  1.00  0.00     0.037 A 
ATOM    101  H   UNL A   1      42.905  32.793  29.584  1.00  0.00     0.065 H 
BRANCH  82 102
ATOM    102  C   UNL A   1      48.782  26.940  26.311  1.00  0.00     0.064 A 
ATOM    103  C   UNL A   1      49.138  27.065  24.958  1.00  0.00     0.173 A 
ATOM    104  C   UNL A   1      49.756  26.461  27.199  1.00  0.00     0.173 A 
ATOM    105  F   UNL A   1      48.242  27.507  24.063  1.00  0.00    -0.203 F 
ATOM    106  C   UNL A   1      50.402  26.692  24.509  1.00  0.00     0.198 A 
ATOM    107  C   UNL A   1      51.032  26.122  26.753  1.00  0.00     0.198 A 
ATOM    108  F   UNL A   1      49.475  26.325  28.504  1.00  0.00    -0.203 F 
ATOM    109  F   UNL A   1      50.696  26.766  23.205  1.00  0.00    -0.200 F 
ATOM    110  C   UNL A   1      51.350  26.228  25.408  1.00  0.00     0.200 A 
ATOM    111  F   UNL A   1      51.951  25.687  27.625  1.00  0.00    -0.200 F 
ATOM    112  F   UNL A   1      52.569  25.875  24.976  1.00  0.00    -0.200 F 
ENDBRANCH  82 102
BRANCH  85 113
ATOM    113  C   UNL A   1      39.647  29.012  29.791  1.00  0.00     0.064 A 
ATOM    114  C   UNL A   1      38.644  29.535  28.961  1.00  0.00     0.173 A 
ATOM    115  C   UNL A   1      39.335  28.818  31.144  1.00  0.00     0.173 A 
ATOM    116  F   UNL A   1      38.899  29.758  27.663  1.00  0.00    -0.203 F 
ATOM    117  C   UNL A   1      37.392  29.877  29.469  1.00  0.00     0.198 A 
ATOM    118  C   UNL A   1      38.073  29.129  31.645  1.00  0.00     0.198 A 
ATOM    119  F   UNL A   1      40.255  28.315  31.981  1.00  0.00    -0.203 F 
ATOM    120  F   UNL A   1      36.473  30.426  28.664  1.00  0.00    -0.200 F 
ATOM    121  C   UNL A   1      37.106  29.669  30.810  1.00  0.00     0.200 A 
ATOM    122  F   UNL A   1      37.794  28.911  32.938  1.00  0.00    -0.200 F 
ATOM    123  F   UNL A   1      35.902  29.996  31.298  1.00  0.00    -0.200 F 
ENDBRANCH  85 113
BRANCH 100 124
ATOM    124  C   UNL A   1      45.388  32.822  28.774  1.00  0.00     0.064 A 
ATOM    125  C   UNL A   1      45.934  33.307  29.972  1.00  0.00     0.173 A 
ATOM    126  C   UNL A   1      45.128  33.747  27.751  1.00  0.00     0.173 A 
ATOM    127  F   UNL A   1      46.191  32.468  30.986  1.00  0.00    -0.203 F 
ATOM    128  C   UNL A   1      46.167  34.668  30.153  1.00  0.00     0.198 A 
ATOM    129  C   UNL A   1      45.397  35.102  27.923  1.00  0.00     0.198 A 
ATOM    130  F   UNL A   1      44.616  33.336  26.581  1.00  0.00    -0.203 F 
ATOM    131  F   UNL A   1      46.623  35.116  31.332  1.00  0.00    -0.200 F 
ATOM    132  C   UNL A   1      45.903  35.563  29.129  1.00  0.00     0.200 A 
ATOM    133  F   UNL A   1      45.157  35.963  26.924  1.00  0.00    -0.200 F 
ATOM    134  F   UNL A   1      46.126  36.873  29.306  1.00  0.00    -0.200 F 
ENDBRANCH 100 124
ENDBRANCH  65  68
ENDBRANCH  55  58
ENDBRANCH  51  54
ENDBRANCH  48  51
ENDBRANCH  45  48
ENDBRANCH   1  45
TORSDOF 16
ENDMDL
MODEL 7
REMARK VINA RESULT:     -12.0      1.355      7.726
REMARK SMILES [NH3+]Cc1c(-c2ccccc2)c(C(=O)NCCCCCCNC(=O)c2ccc(-c3c4nc(c(-c5c(F)c(F)c(F)c(F)c5F)c5ccc([nH]5)c(-c5c(F)c(F)c(F)c(F)c5F)c5nc(c(-c6c(F)c(F)c(F)c(F)c6F)c6ccc3[nH]6)C=C5)C=C4)cc2)c2ccccn12
REMARK SMILES IDX 17 1 16 4 15 7 14 10 12 11 13 12 11 14 3 15 4 16 92 17 87 18
REMARK SMILES IDX 91 19 88 20 90 21 89 23 2 27 1 30 5 34 6 35 10 36 7 37 9 39
REMARK SMILES IDX 8 41 18 45 19 48 20 51 21 54 22 55 23 57 24 58 25 59 86 60
REMARK SMILES IDX 26 61 85 63 27 65 28 68 29 69 79 70 30 71 84 72 78 73 80 74
REMARK SMILES IDX 31 75 83 76 77 78 76 80 32 82 64 85 44 86 63 87 45 88 48 89
REMARK SMILES IDX 62 90 81 91 46 92 47 94 61 96 82 97 49 100 33 102 34 103
REMARK SMILES IDX 42 104 35 105 36 106 40 107 43 108 37 109 38 110 41 111
REMARK SMILES IDX 39 112 65 113 66 114 74 115 67 116 68 117 72 118 75 119
REMARK SMILES IDX 69 120 70 121 73 122 71 123 50 124 51 125 59 126 52 127
REMARK SMILES IDX 53 128 57 129 60 130 54 131 55 132 58 133 56 134
REMARK H PARENT 17 2 17 3 16 5 16 6 15 8 15 9 14 13 91 22 88 24 90 25 89 26
REMARK H PARENT 2 28 2 29 1 31 1 32 1 33 6 38 10 40 7 42 9 43 8 44 18 46 18 47
REMARK H PARENT 19 49 19 50 20 52 20 53 21 56 25 62 86 64 26 66 85 67 84 77
REMARK H PARENT 78 79 80 81 83 83 77 84 45 93 48 95 81 98 46 99 82 101
REMARK Flexibility Score: inf
ROOT
ATOM      1  C   UNL A   1      32.459  30.113  26.221  1.00  0.00    -0.052 C 
ATOM      2  H   UNL A   1      32.806  29.609  25.343  1.00  0.00     0.027 H 
ATOM      3  H   UNL A   1      33.157  30.792  26.664  1.00  0.00     0.027 H 
ENDROOT
BRANCH   1   4
ATOM      4  C   UNL A   1      32.215  29.047  27.295  1.00  0.00    -0.036 C 
ATOM      5  H   UNL A   1      32.873  29.256  28.112  1.00  0.00     0.028 H 
ATOM      6  H   UNL A   1      31.171  29.120  27.523  1.00  0.00     0.028 H 
BRANCH   4   7
ATOM      7  C   UNL A   1      32.430  27.591  26.892  1.00  0.00     0.018 C 
ATOM      8  H   UNL A   1      32.819  27.579  25.895  1.00  0.00     0.049 H 
ATOM      9  H   UNL A   1      33.097  27.180  27.620  1.00  0.00     0.049 H 
BRANCH   7  10
ATOM     10  N   UNL A   1      31.250  26.760  26.919  1.00  0.00    -0.352 N 
ATOM     11  C   UNL A   1      30.872  25.701  26.119  1.00  0.00     0.254 C 
ATOM     12  O   UNL A   1      29.836  25.124  26.449  1.00  0.00    -0.269 OA
ATOM     13  H   UNL A   1      30.606  26.986  27.629  1.00  0.00     0.163 HD
BRANCH  11  14
ATOM     14  C   UNL A   1      31.605  25.336  24.896  1.00  0.00     0.073 A 
ATOM     15  C   UNL A   1      32.482  25.517  22.758  1.00  0.00     0.086 A 
ATOM     16  C   UNL A   1      31.578  26.079  23.663  1.00  0.00     0.022 A 
ATOM     17  N   UNL A   1      33.053  24.431  23.404  1.00  0.00    -0.314 N 
ATOM     18  C   UNL A   1      32.353  24.203  24.598  1.00  0.00     0.059 A 
ATOM     19  C   UNL A   1      34.131  23.617  23.026  1.00  0.00     0.009 A 
ATOM     20  C   UNL A   1      32.583  22.947  25.244  1.00  0.00    -0.037 A 
ATOM     21  C   UNL A   1      34.444  22.524  23.739  1.00  0.00    -0.045 A 
ATOM     22  H   UNL A   1      34.689  23.861  22.193  1.00  0.00     0.082 H 
ATOM     23  C   UNL A   1      33.601  22.159  24.856  1.00  0.00    -0.059 A 
ATOM     24  H   UNL A   1      31.963  22.645  26.011  1.00  0.00     0.065 H 
ATOM     25  H   UNL A   1      35.269  21.954  23.495  1.00  0.00     0.064 H 
ATOM     26  H   UNL A   1      33.783  21.280  25.364  1.00  0.00     0.062 H 
BRANCH  15  27
ATOM     27  C   UNL A   1      32.815  26.029  21.382  1.00  0.00     0.116 C 
ATOM     28  H   UNL A   1      32.850  27.098  21.432  1.00  0.00     0.099 H 
ATOM     29  H   UNL A   1      33.745  25.568  21.123  1.00  0.00     0.099 H 
BRANCH  27  30
ATOM     30  N   UNL A   1      31.893  25.667  20.319  1.00  0.00    -0.353 N 
ATOM     31  H   UNL A   1      32.136  26.176  19.470  1.00  0.00     0.344 HD
ATOM     32  H   UNL A   1      30.942  25.905  20.599  1.00  0.00     0.344 HD
ATOM     33  H   UNL A   1      31.954  24.664  20.144  1.00  0.00     0.344 HD
ENDBRANCH  27  30
ENDBRANCH  15  27
BRANCH  16  34
ATOM     34  C   UNL A   1      30.773  27.248  23.325  1.00  0.00    -0.016 A 
ATOM     35  C   UNL A   1      31.373  28.443  22.923  1.00  0.00    -0.054 A 
ATOM     36  C   UNL A   1      29.376  27.168  23.406  1.00  0.00    -0.054 A 
ATOM     37  C   UNL A   1      30.579  29.546  22.597  1.00  0.00    -0.062 A 
ATOM     38  H   UNL A   1      32.401  28.513  22.867  1.00  0.00     0.063 H 
ATOM     39  C   UNL A   1      28.585  28.267  23.071  1.00  0.00    -0.062 A 
ATOM     40  H   UNL A   1      28.930  26.290  23.716  1.00  0.00     0.063 H 
ATOM     41  C   UNL A   1      29.187  29.455  22.666  1.00  0.00    -0.062 A 
ATOM     42  H   UNL A   1      31.022  30.430  22.302  1.00  0.00     0.062 H 
ATOM     43  H   UNL A   1      27.557  28.199  23.121  1.00  0.00     0.062 H 
ATOM     44  H   UNL A   1      28.604  30.271  22.417  1.00  0.00     0.062 H 
ENDBRANCH  16  34
ENDBRANCH  11  14
ENDBRANCH   7  10
ENDBRANCH   4   7
ENDBRANCH   1   4
BRANCH   1  45
ATOM     45  C   UNL A   1      31.269  30.985  25.811  1.00  0.00    -0.052 C 
ATOM     46  H   UNL A   1      30.376  30.451  26.058  1.00  0.00     0.027 H 
ATOM     47  H   UNL A   1      31.410  31.173  24.767  1.00  0.00     0.027 H 
BRANCH  45  48
ATOM     48  C   UNL A   1      31.170  32.371  26.452  1.00  0.00    -0.036 C 
ATOM     49  H   UNL A   1      30.393  32.336  27.185  1.00  0.00     0.028 H 
ATOM     50  H   UNL A   1      30.985  33.047  25.644  1.00  0.00     0.028 H 
BRANCH  48  51
ATOM     51  C   UNL A   1      32.430  32.888  27.135  1.00  0.00     0.018 C 
ATOM     52  H   UNL A   1      33.242  32.830  26.440  1.00  0.00     0.049 H 
ATOM     53  H   UNL A   1      32.598  32.280  27.999  1.00  0.00     0.049 H 
BRANCH  51  54
ATOM     54  N   UNL A   1      32.310  34.261  27.591  1.00  0.00    -0.352 N 
ATOM     55  C   UNL A   1      32.989  34.922  28.582  1.00  0.00     0.251 C 
ATOM     56  H   UNL A   1      31.638  34.800  27.115  1.00  0.00     0.163 HD
ATOM     57  O   UNL A   1      32.645  36.054  28.907  1.00  0.00    -0.269 OA
BRANCH  55  58
ATOM     58  C   UNL A   1      34.124  34.276  29.282  1.00  0.00     0.039 A 
ATOM     59  C   UNL A   1      35.420  34.522  28.818  1.00  0.00    -0.049 A 
ATOM     60  C   UNL A   1      33.924  33.401  30.354  1.00  0.00    -0.049 A 
ATOM     61  C   UNL A   1      36.512  33.921  29.449  1.00  0.00    -0.053 A 
ATOM     62  H   UNL A   1      35.570  35.147  28.012  1.00  0.00     0.063 H 
ATOM     63  C   UNL A   1      35.018  32.868  31.033  1.00  0.00    -0.053 A 
ATOM     64  H   UNL A   1      32.966  33.150  30.642  1.00  0.00     0.063 H 
ATOM     65  C   UNL A   1      36.322  33.103  30.574  1.00  0.00    -0.014 A 
ATOM     66  H   UNL A   1      37.465  34.078  29.084  1.00  0.00     0.063 H 
ATOM     67  H   UNL A   1      34.867  32.296  31.878  1.00  0.00     0.063 H 
BRANCH  65  68
ATOM     68  C   UNL A   1      37.477  32.457  31.251  1.00  0.00     0.031 A 
ATOM     69  C   UNL A   1      38.225  31.341  30.571  1.00  0.00     0.074 A 
ATOM     70  C   UNL A   1      37.836  32.851  32.489  1.00  0.00     0.049 A 
ATOM     71  N   UNL A   1      39.241  30.637  31.004  1.00  0.00    -0.248 NA
ATOM     72  C   UNL A   1      37.748  30.944  29.236  1.00  0.00    -0.034 C 
ATOM     73  C   UNL A   1      37.164  33.887  33.273  1.00  0.00    -0.036 A 
ATOM     74  N   UNL A   1      38.852  32.423  33.304  1.00  0.00    -0.354 N 
ATOM     75  C   UNL A   1      39.514  29.713  30.003  1.00  0.00     0.074 A 
ATOM     76  C   UNL A   1      38.518  29.900  28.972  1.00  0.00    -0.034 C 
ATOM     77  H   UNL A   1      37.007  31.369  28.657  1.00  0.00     0.065 H 
ATOM     78  C   UNL A   1      37.804  34.037  34.443  1.00  0.00    -0.036 A 
ATOM     79  H   UNL A   1      36.331  34.419  32.974  1.00  0.00     0.065 H 
ATOM     80  C   UNL A   1      38.908  33.084  34.507  1.00  0.00     0.049 A 
ATOM     81  H   UNL A   1      39.482  31.710  33.053  1.00  0.00     0.167 HD
ATOM     82  C   UNL A   1      40.521  28.809  29.936  1.00  0.00     0.037 A 
ATOM     83  H   UNL A   1      38.422  29.299  28.138  1.00  0.00     0.065 H 
ATOM     84  H   UNL A   1      37.556  34.716  35.180  1.00  0.00     0.065 H 
ATOM     85  C   UNL A   1      39.756  32.937  35.543  1.00  0.00     0.037 A 
ATOM     86  C   UNL A   1      41.525  28.640  30.956  1.00  0.00     0.049 A 
ATOM     87  C   UNL A   1      40.867  31.925  35.444  1.00  0.00     0.074 A 
ATOM     88  C   UNL A   1      42.615  27.787  30.963  1.00  0.00    -0.036 A 
ATOM     89  N   UNL A   1      41.558  29.340  32.154  1.00  0.00    -0.354 N 
ATOM     90  N   UNL A   1      41.156  31.104  34.464  1.00  0.00    -0.248 NA
ATOM     91  C   UNL A   1      41.778  31.832  36.593  1.00  0.00    -0.034 C 
ATOM     92  C   UNL A   1      43.278  27.933  32.186  1.00  0.00    -0.036 A 
ATOM     93  H   UNL A   1      42.892  27.153  30.197  1.00  0.00     0.065 H 
ATOM     94  C   UNL A   1      42.638  28.923  32.916  1.00  0.00     0.049 A 
ATOM     95  H   UNL A   1      40.909  30.030  32.423  1.00  0.00     0.167 HD
ATOM     96  C   UNL A   1      42.299  30.423  34.862  1.00  0.00     0.074 A 
ATOM     97  C   UNL A   1      42.661  30.944  36.163  1.00  0.00    -0.034 C 
ATOM     98  H   UNL A   1      41.740  32.330  37.496  1.00  0.00     0.065 H 
ATOM     99  H   UNL A   1      44.102  27.395  32.494  1.00  0.00     0.065 H 
ATOM    100  C   UNL A   1      42.989  29.454  34.209  1.00  0.00     0.037 A 
ATOM    101  H   UNL A   1      43.501  30.658  36.691  1.00  0.00     0.065 H 
BRANCH  82 102
ATOM    102  C   UNL A   1      40.588  27.933  28.716  1.00  0.00     0.064 A 
ATOM    103  C   UNL A   1      39.891  26.716  28.641  1.00  0.00     0.173 A 
ATOM    104  C   UNL A   1      41.337  28.326  27.597  1.00  0.00     0.173 A 
ATOM    105  F   UNL A   1      39.169  26.287  29.686  1.00  0.00    -0.203 F 
ATOM    106  C   UNL A   1      39.971  25.911  27.508  1.00  0.00     0.198 A 
ATOM    107  C   UNL A   1      41.386  27.534  26.451  1.00  0.00     0.198 A 
ATOM    108  F   UNL A   1      42.020  29.481  27.609  1.00  0.00    -0.203 F 
ATOM    109  F   UNL A   1      39.344  24.727  27.485  1.00  0.00    -0.200 F 
ATOM    110  C   UNL A   1      40.712  26.324  26.411  1.00  0.00     0.200 A 
ATOM    111  F   UNL A   1      42.092  27.942  25.387  1.00  0.00    -0.200 F 
ATOM    112  F   UNL A   1      40.783  25.551  25.319  1.00  0.00    -0.200 F 
ENDBRANCH  82 102
BRANCH  85 113
ATOM    113  C   UNL A   1      39.610  33.791  36.753  1.00  0.00     0.064 A 
ATOM    114  C   UNL A   1      38.846  33.364  37.849  1.00  0.00     0.173 A 
ATOM    115  C   UNL A   1      40.211  35.054  36.832  1.00  0.00     0.173 A 
ATOM    116  F   UNL A   1      38.233  32.170  37.813  1.00  0.00    -0.203 F 
ATOM    117  C   UNL A   1      38.666  34.179  38.965  1.00  0.00     0.198 A 
ATOM    118  C   UNL A   1      40.059  35.855  37.963  1.00  0.00     0.198 A 
ATOM    119  F   UNL A   1      40.958  35.510  35.815  1.00  0.00    -0.203 F 
ATOM    120  F   UNL A   1      37.886  33.767  39.973  1.00  0.00    -0.200 F 
ATOM    121  C   UNL A   1      39.277  35.422  39.023  1.00  0.00     0.200 A 
ATOM    122  F   UNL A   1      40.664  37.049  38.022  1.00  0.00    -0.200 F 
ATOM    123  F   UNL A   1      39.106  36.205  40.097  1.00  0.00    -0.200 F 
ENDBRANCH  85 113
BRANCH 100 124
ATOM    124  C   UNL A   1      44.230  28.929  34.875  1.00  0.00     0.064 A 
ATOM    125  C   UNL A   1      45.486  29.520  34.673  1.00  0.00     0.173 A 
ATOM    126  C   UNL A   1      44.157  27.822  35.734  1.00  0.00     0.173 A 
ATOM    127  F   UNL A   1      45.615  30.572  33.852  1.00  0.00    -0.203 F 
ATOM    128  C   UNL A   1      46.629  28.996  35.274  1.00  0.00     0.198 A 
ATOM    129  C   UNL A   1      45.295  27.324  36.362  1.00  0.00     0.198 A 
ATOM    130  F   UNL A   1      42.979  27.225  35.971  1.00  0.00    -0.203 F 
ATOM    131  F   UNL A   1      47.828  29.534  35.011  1.00  0.00    -0.200 F 
ATOM    132  C   UNL A   1      46.532  27.903  36.121  1.00  0.00     0.200 A 
ATOM    133  F   UNL A   1      45.196  26.279  37.195  1.00  0.00    -0.200 F 
ATOM    134  F   UNL A   1      47.633  27.399  36.697  1.00  0.00    -0.200 F 
ENDBRANCH 100 124
ENDBRANCH  65  68
ENDBRANCH  55  58
ENDBRANCH  51  54
ENDBRANCH  48  51
ENDBRANCH  45  48
ENDBRANCH   1  45
TORSDOF 16
ENDMDL
MODEL 8
REMARK VINA RESULT:     -12.0      5.328      9.468
REMARK SMILES [NH3+]Cc1c(-c2ccccc2)c(C(=O)NCCCCCCNC(=O)c2ccc(-c3c4nc(c(-c5c(F)c(F)c(F)c(F)c5F)c5ccc([nH]5)c(-c5c(F)c(F)c(F)c(F)c5F)c5nc(c(-c6c(F)c(F)c(F)c(F)c6F)c6ccc3[nH]6)C=C5)C=C4)cc2)c2ccccn12
REMARK SMILES IDX 17 1 16 4 15 7 14 10 12 11 13 12 11 14 3 15 4 16 92 17 87 18
REMARK SMILES IDX 91 19 88 20 90 21 89 23 2 27 1 30 5 34 6 35 10 36 7 37 9 39
REMARK SMILES IDX 8 41 18 45 19 48 20 51 21 54 22 55 23 57 24 58 25 59 86 60
REMARK SMILES IDX 26 61 85 63 27 65 28 68 29 69 79 70 30 71 84 72 78 73 80 74
REMARK SMILES IDX 31 75 83 76 77 78 76 80 32 82 64 85 44 86 63 87 45 88 48 89
REMARK SMILES IDX 62 90 81 91 46 92 47 94 61 96 82 97 49 100 33 102 34 103
REMARK SMILES IDX 42 104 35 105 36 106 40 107 43 108 37 109 38 110 41 111
REMARK SMILES IDX 39 112 65 113 66 114 74 115 67 116 68 117 72 118 75 119
REMARK SMILES IDX 69 120 70 121 73 122 71 123 50 124 51 125 59 126 52 127
REMARK SMILES IDX 53 128 57 129 60 130 54 131 55 132 58 133 56 134
REMARK H PARENT 17 2 17 3 16 5 16 6 15 8 15 9 14 13 91 22 88 24 90 25 89 26
REMARK H PARENT 2 28 2 29 1 31 1 32 1 33 6 38 10 40 7 42 9 43 8 44 18 46 18 47
REMARK H PARENT 19 49 19 50 20 52 20 53 21 56 25 62 86 64 26 66 85 67 84 77
REMARK H PARENT 78 79 80 81 83 83 77 84 45 93 48 95 81 98 46 99 82 101
REMARK Flexibility Score: inf
ROOT
ATOM      1  C   UNL A   1      36.886  21.539  24.326  1.00  0.00    -0.052 C 
ATOM      2  H   UNL A   1      37.464  21.467  23.428  1.00  0.00     0.027 H 
ATOM      3  H   UNL A   1      35.859  21.803  24.187  1.00  0.00     0.027 H 
ENDROOT
BRANCH   1   4
ATOM      4  C   UNL A   1      37.475  22.682  25.159  1.00  0.00    -0.036 C 
ATOM      5  H   UNL A   1      37.956  22.246  26.010  1.00  0.00     0.028 H 
ATOM      6  H   UNL A   1      38.124  23.206  24.489  1.00  0.00     0.028 H 
BRANCH   4   7
ATOM      7  C   UNL A   1      36.503  23.740  25.674  1.00  0.00     0.018 C 
ATOM      8  H   UNL A   1      37.072  24.602  25.953  1.00  0.00     0.049 H 
ATOM      9  H   UNL A   1      35.813  23.919  24.876  1.00  0.00     0.049 H 
BRANCH   7  10
ATOM     10  N   UNL A   1      35.704  23.347  26.810  1.00  0.00    -0.352 N 
ATOM     11  C   UNL A   1      34.412  22.869  26.884  1.00  0.00     0.254 C 
ATOM     12  O   UNL A   1      34.029  22.531  28.004  1.00  0.00    -0.269 OA
ATOM     13  H   UNL A   1      36.158  23.435  27.680  1.00  0.00     0.163 HD
BRANCH  11  14
ATOM     14  C   UNL A   1      33.511  22.848  25.719  1.00  0.00     0.073 A 
ATOM     15  C   UNL A   1      32.162  23.634  24.006  1.00  0.00     0.086 A 
ATOM     16  C   UNL A   1      32.830  23.995  25.179  1.00  0.00     0.022 A 
ATOM     17  N   UNL A   1      32.404  22.281  23.824  1.00  0.00    -0.314 N 
ATOM     18  C   UNL A   1      33.025  21.778  24.976  1.00  0.00     0.059 A 
ATOM     19  C   UNL A   1      32.115  21.449  22.732  1.00  0.00     0.009 A 
ATOM     20  C   UNL A   1      33.068  20.355  25.111  1.00  0.00    -0.037 A 
ATOM     21  C   UNL A   1      32.316  20.125  22.810  1.00  0.00    -0.045 A 
ATOM     22  H   UNL A   1      31.745  21.859  21.859  1.00  0.00     0.082 H 
ATOM     23  C   UNL A   1      32.761  19.564  24.067  1.00  0.00    -0.059 A 
ATOM     24  H   UNL A   1      33.335  19.933  26.013  1.00  0.00     0.065 H 
ATOM     25  H   UNL A   1      32.156  19.518  21.991  1.00  0.00     0.064 H 
ATOM     26  H   UNL A   1      32.845  18.540  24.165  1.00  0.00     0.062 H 
BRANCH  15  27
ATOM     27  C   UNL A   1      31.389  24.547  23.092  1.00  0.00     0.116 C 
ATOM     28  H   UNL A   1      31.869  25.504  23.106  1.00  0.00     0.099 H 
ATOM     29  H   UNL A   1      31.393  24.064  22.138  1.00  0.00     0.099 H 
BRANCH  27  30
ATOM     30  N   UNL A   1      29.989  24.751  23.420  1.00  0.00    -0.353 N 
ATOM     31  H   UNL A   1      29.906  25.502  24.105  1.00  0.00     0.344 HD
ATOM     32  H   UNL A   1      29.602  23.891  23.808  1.00  0.00     0.344 HD
ATOM     33  H   UNL A   1      29.476  25.003  22.575  1.00  0.00     0.344 HD
ENDBRANCH  27  30
ENDBRANCH  15  27
BRANCH  16  34
ATOM     34  C   UNL A   1      32.793  25.357  25.701  1.00  0.00    -0.016 A 
ATOM     35  C   UNL A   1      31.715  25.806  26.466  1.00  0.00    -0.054 A 
ATOM     36  C   UNL A   1      33.858  26.228  25.429  1.00  0.00    -0.054 A 
ATOM     37  C   UNL A   1      31.708  27.112  26.962  1.00  0.00    -0.062 A 
ATOM     38  H   UNL A   1      30.924  25.173  26.666  1.00  0.00     0.063 H 
ATOM     39  C   UNL A   1      33.853  27.528  25.932  1.00  0.00    -0.062 A 
ATOM     40  H   UNL A   1      34.651  25.903  24.852  1.00  0.00     0.063 H 
ATOM     41  C   UNL A   1      32.777  27.970  26.699  1.00  0.00    -0.062 A 
ATOM     42  H   UNL A   1      30.910  27.444  27.526  1.00  0.00     0.062 H 
ATOM     43  H   UNL A   1      34.644  28.162  25.738  1.00  0.00     0.062 H 
ATOM     44  H   UNL A   1      32.771  28.932  27.073  1.00  0.00     0.062 H 
ENDBRANCH  16  34
ENDBRANCH  11  14
ENDBRANCH   7  10
ENDBRANCH   4   7
ENDBRANCH   1   4
BRANCH   1  45
ATOM     45  C   UNL A   1      36.852  20.148  24.963  1.00  0.00    -0.052 C 
ATOM     46  H   UNL A   1      36.105  19.577  24.453  1.00  0.00     0.027 H 
ATOM     47  H   UNL A   1      36.658  20.322  26.001  1.00  0.00     0.027 H 
BRANCH  45  48
ATOM     48  C   UNL A   1      38.151  19.338  24.935  1.00  0.00    -0.036 C 
ATOM     49  H   UNL A   1      38.538  19.378  23.938  1.00  0.00     0.028 H 
ATOM     50  H   UNL A   1      37.883  18.356  25.264  1.00  0.00     0.028 H 
BRANCH  48  51
ATOM     51  C   UNL A   1      39.253  19.799  25.880  1.00  0.00     0.018 C 
ATOM     52  H   UNL A   1      38.850  19.856  26.870  1.00  0.00     0.049 H 
ATOM     53  H   UNL A   1      39.595  20.752  25.531  1.00  0.00     0.049 H 
BRANCH  51  54
ATOM     54  N   UNL A   1      40.399  18.910  25.899  1.00  0.00    -0.352 N 
ATOM     55  C   UNL A   1      41.733  19.195  26.046  1.00  0.00     0.251 C 
ATOM     56  H   UNL A   1      40.187  17.955  25.789  1.00  0.00     0.163 HD
ATOM     57  O   UNL A   1      42.566  18.307  25.898  1.00  0.00    -0.269 OA
BRANCH  55  58
ATOM     58  C   UNL A   1      42.182  20.571  26.361  1.00  0.00     0.039 A 
ATOM     59  C   UNL A   1      42.522  21.420  25.303  1.00  0.00    -0.049 A 
ATOM     60  C   UNL A   1      42.313  21.017  27.678  1.00  0.00    -0.049 A 
ATOM     61  C   UNL A   1      42.958  22.721  25.565  1.00  0.00    -0.053 A 
ATOM     62  H   UNL A   1      42.450  21.086  24.329  1.00  0.00     0.063 H 
ATOM     63  C   UNL A   1      42.669  22.340  27.936  1.00  0.00    -0.053 A 
ATOM     64  H   UNL A   1      42.146  20.366  28.461  1.00  0.00     0.063 H 
ATOM     65  C   UNL A   1      43.018  23.199  26.884  1.00  0.00    -0.014 A 
ATOM     66  H   UNL A   1      43.240  23.334  24.784  1.00  0.00     0.063 H 
ATOM     67  H   UNL A   1      42.677  22.689  28.907  1.00  0.00     0.063 H 
BRANCH  65  68
ATOM     68  C   UNL A   1      43.482  24.580  27.173  1.00  0.00     0.031 A 
ATOM     69  C   UNL A   1      42.523  25.600  27.727  1.00  0.00     0.074 A 
ATOM     70  C   UNL A   1      44.757  24.929  26.910  1.00  0.00     0.049 A 
ATOM     71  N   UNL A   1      42.729  26.860  28.022  1.00  0.00    -0.248 NA
ATOM     72  C   UNL A   1      41.140  25.153  27.951  1.00  0.00    -0.034 C 
ATOM     73  C   UNL A   1      45.771  24.047  26.330  1.00  0.00    -0.036 A 
ATOM     74  N   UNL A   1      45.416  26.118  27.094  1.00  0.00    -0.354 N 
ATOM     75  C   UNL A   1      41.505  27.352  28.455  1.00  0.00     0.074 A 
ATOM     76  C   UNL A   1      40.546  26.278  28.321  1.00  0.00    -0.034 C 
ATOM     77  H   UNL A   1      40.736  24.209  27.848  1.00  0.00     0.065 H 
ATOM     78  C   UNL A   1      46.931  24.715  26.234  1.00  0.00    -0.036 A 
ATOM     79  H   UNL A   1      45.618  23.068  26.041  1.00  0.00     0.065 H 
ATOM     80  C   UNL A   1      46.735  26.080  26.712  1.00  0.00     0.049 A 
ATOM     81  H   UNL A   1      44.986  26.921  27.465  1.00  0.00     0.167 HD
ATOM     82  C   UNL A   1      41.210  28.580  28.947  1.00  0.00     0.037 A 
ATOM     83  H   UNL A   1      39.533  26.375  28.492  1.00  0.00     0.065 H 
ATOM     84  H   UNL A   1      47.819  24.326  25.880  1.00  0.00     0.065 H 
ATOM     85  C   UNL A   1      47.679  27.041  26.744  1.00  0.00     0.037 A 
ATOM     86  C   UNL A   1      42.172  29.642  29.099  1.00  0.00     0.049 A 
ATOM     87  C   UNL A   1      47.327  28.397  27.295  1.00  0.00     0.074 A 
ATOM     88  C   UNL A   1      41.987  30.905  29.632  1.00  0.00    -0.036 A 
ATOM     89  N   UNL A   1      43.503  29.561  28.716  1.00  0.00    -0.354 N 
ATOM     90  N   UNL A   1      46.181  28.830  27.764  1.00  0.00    -0.248 NA
ATOM     91  C   UNL A   1      48.405  29.393  27.334  1.00  0.00    -0.034 C 
ATOM     92  C   UNL A   1      43.192  31.608  29.523  1.00  0.00    -0.036 A 
ATOM     93  H   UNL A   1      41.111  31.267  30.040  1.00  0.00     0.065 H 
ATOM     94  C   UNL A   1      44.146  30.760  28.981  1.00  0.00     0.049 A 
ATOM     95  H   UNL A   1      43.928  28.769  28.314  1.00  0.00     0.167 HD
ATOM     96  C   UNL A   1      46.409  30.134  28.184  1.00  0.00     0.074 A 
ATOM     97  C   UNL A   1      47.808  30.412  27.933  1.00  0.00    -0.034 C 
ATOM     98  H   UNL A   1      49.374  29.318  26.987  1.00  0.00     0.065 H 
ATOM     99  H   UNL A   1      43.345  32.590  29.799  1.00  0.00     0.065 H 
ATOM    100  C   UNL A   1      45.540  31.021  28.730  1.00  0.00     0.037 A 
ATOM    101  H   UNL A   1      48.280  31.294  28.188  1.00  0.00     0.065 H 
BRANCH  82 102
ATOM    102  C   UNL A   1      39.788  28.840  29.358  1.00  0.00     0.064 A 
ATOM    103  C   UNL A   1      38.839  29.347  28.455  1.00  0.00     0.173 A 
ATOM    104  C   UNL A   1      39.359  28.556  30.663  1.00  0.00     0.173 A 
ATOM    105  F   UNL A   1      39.197  29.648  27.197  1.00  0.00    -0.203 F 
ATOM    106  C   UNL A   1      37.527  29.593  28.853  1.00  0.00     0.198 A 
ATOM    107  C   UNL A   1      38.037  28.769  31.048  1.00  0.00     0.198 A 
ATOM    108  F   UNL A   1      40.220  28.065  31.567  1.00  0.00    -0.203 F 
ATOM    109  F   UNL A   1      36.657  30.132  27.989  1.00  0.00    -0.200 F 
ATOM    110  C   UNL A   1      37.125  29.297  30.147  1.00  0.00     0.200 A 
ATOM    111  F   UNL A   1      37.647  28.469  32.294  1.00  0.00    -0.200 F 
ATOM    112  F   UNL A   1      35.861  29.528  30.527  1.00  0.00    -0.200 F 
ENDBRANCH  82 102
BRANCH  85 113
ATOM    113  C   UNL A   1      49.058  26.747  26.271  1.00  0.00     0.064 A 
ATOM    114  C   UNL A   1      49.435  27.002  24.944  1.00  0.00     0.173 A 
ATOM    115  C   UNL A   1      50.020  26.189  27.124  1.00  0.00     0.173 A 
ATOM    116  F   UNL A   1      48.544  27.517  24.083  1.00  0.00    -0.203 F 
ATOM    117  C   UNL A   1      50.711  26.685  24.482  1.00  0.00     0.198 A 
ATOM    118  C   UNL A   1      51.307  25.903  26.671  1.00  0.00     0.198 A 
ATOM    119  F   UNL A   1      49.715  25.930  28.404  1.00  0.00    -0.203 F 
ATOM    120  F   UNL A   1      51.025  26.888  23.196  1.00  0.00    -0.200 F 
ATOM    121  C   UNL A   1      51.648  26.140  25.348  1.00  0.00     0.200 A 
ATOM    122  F   UNL A   1      52.214  25.391  27.514  1.00  0.00    -0.200 F 
ATOM    123  F   UNL A   1      52.875  25.836  24.904  1.00  0.00    -0.200 F 
ENDBRANCH  85 113
BRANCH 100 124
ATOM    124  C   UNL A   1      46.092  32.361  29.134  1.00  0.00     0.064 A 
ATOM    125  C   UNL A   1      46.093  33.456  28.258  1.00  0.00     0.173 A 
ATOM    126  C   UNL A   1      46.617  32.550  30.421  1.00  0.00     0.173 A 
ATOM    127  F   UNL A   1      45.614  33.327  27.012  1.00  0.00    -0.203 F 
ATOM    128  C   UNL A   1      46.640  34.679  28.641  1.00  0.00     0.198 A 
ATOM    129  C   UNL A   1      47.128  33.784  30.813  1.00  0.00     0.198 A 
ATOM    130  F   UNL A   1      46.630  31.539  31.303  1.00  0.00    -0.203 F 
ATOM    131  F   UNL A   1      46.694  35.691  27.764  1.00  0.00    -0.200 F 
ATOM    132  C   UNL A   1      47.152  34.843  29.919  1.00  0.00     0.200 A 
ATOM    133  F   UNL A   1      47.606  33.945  32.055  1.00  0.00    -0.200 F 
ATOM    134  F   UNL A   1      47.679  36.020  30.285  1.00  0.00    -0.200 F 
ENDBRANCH 100 124
ENDBRANCH  65  68
ENDBRANCH  55  58
ENDBRANCH  51  54
ENDBRANCH  48  51
ENDBRANCH  45  48
ENDBRANCH   1  45
TORSDOF 16
ENDMDL
MODEL 9
REMARK VINA RESULT:     -12.0      1.187      3.146
REMARK SMILES [NH3+]Cc1c(-c2ccccc2)c(C(=O)NCCCCCCNC(=O)c2ccc(-c3c4nc(c(-c5c(F)c(F)c(F)c(F)c5F)c5ccc([nH]5)c(-c5c(F)c(F)c(F)c(F)c5F)c5nc(c(-c6c(F)c(F)c(F)c(F)c6F)c6ccc3[nH]6)C=C5)C=C4)cc2)c2ccccn12
REMARK SMILES IDX 17 1 16 4 15 7 14 10 12 11 13 12 11 14 3 15 4 16 92 17 87 18
REMARK SMILES IDX 91 19 88 20 90 21 89 23 2 27 1 30 5 34 6 35 10 36 7 37 9 39
REMARK SMILES IDX 8 41 18 45 19 48 20 51 21 54 22 55 23 57 24 58 25 59 86 60
REMARK SMILES IDX 26 61 85 63 27 65 28 68 29 69 79 70 30 71 84 72 78 73 80 74
REMARK SMILES IDX 31 75 83 76 77 78 76 80 32 82 64 85 44 86 63 87 45 88 48 89
REMARK SMILES IDX 62 90 81 91 46 92 47 94 61 96 82 97 49 100 33 102 34 103
REMARK SMILES IDX 42 104 35 105 36 106 40 107 43 108 37 109 38 110 41 111
REMARK SMILES IDX 39 112 65 113 66 114 74 115 67 116 68 117 72 118 75 119
REMARK SMILES IDX 69 120 70 121 73 122 71 123 50 124 51 125 59 126 52 127
REMARK SMILES IDX 53 128 57 129 60 130 54 131 55 132 58 133 56 134
REMARK H PARENT 17 2 17 3 16 5 16 6 15 8 15 9 14 13 91 22 88 24 90 25 89 26
REMARK H PARENT 2 28 2 29 1 31 1 32 1 33 6 38 10 40 7 42 9 43 8 44 18 46 18 47
REMARK H PARENT 19 49 19 50 20 52 20 53 21 56 25 62 86 64 26 66 85 67 84 77
REMARK H PARENT 78 79 80 81 83 83 77 84 45 93 48 95 81 98 46 99 82 101
REMARK Flexibility Score: inf
ROOT
ATOM      1  C   UNL A   1      32.320  29.974  26.398  1.00  0.00    -0.052 C 
ATOM      2  H   UNL A   1      32.785  29.511  25.553  1.00  0.00     0.027 H 
ATOM      3  H   UNL A   1      32.970  30.563  27.011  1.00  0.00     0.027 H 
ENDROOT
BRANCH   1   4
ATOM      4  C   UNL A   1      31.822  28.854  27.319  1.00  0.00    -0.036 C 
ATOM      5  H   UNL A   1      32.184  29.063  28.304  1.00  0.00     0.028 H 
ATOM      6  H   UNL A   1      30.757  28.865  27.215  1.00  0.00     0.028 H 
BRANCH   4   7
ATOM      7  C   UNL A   1      32.239  27.429  26.969  1.00  0.00     0.018 C 
ATOM      8  H   UNL A   1      32.649  27.438  25.980  1.00  0.00     0.049 H 
ATOM      9  H   UNL A   1      32.939  27.133  27.723  1.00  0.00     0.049 H 
BRANCH   7  10
ATOM     10  N   UNL A   1      31.181  26.448  27.003  1.00  0.00    -0.352 N 
ATOM     11  C   UNL A   1      30.934  25.358  26.194  1.00  0.00     0.254 C 
ATOM     12  O   UNL A   1      29.989  24.645  26.531  1.00  0.00    -0.269 OA
ATOM     13  H   UNL A   1      30.524  26.579  27.724  1.00  0.00     0.163 HD
BRANCH  11  14
ATOM     14  C   UNL A   1      31.690  25.107  24.956  1.00  0.00     0.073 A 
ATOM     15  C   UNL A   1      32.556  25.459  22.835  1.00  0.00     0.086 A 
ATOM     16  C   UNL A   1      31.617  25.913  23.765  1.00  0.00     0.022 A 
ATOM     17  N   UNL A   1      33.193  24.376  23.423  1.00  0.00    -0.314 N 
ATOM     18  C   UNL A   1      32.508  24.041  24.600  1.00  0.00     0.059 A 
ATOM     19  C   UNL A   1      34.320  23.654  23.006  1.00  0.00     0.009 A 
ATOM     20  C   UNL A   1      32.815  22.768  25.178  1.00  0.00    -0.037 A 
ATOM     21  C   UNL A   1      34.700  22.545  23.659  1.00  0.00    -0.045 A 
ATOM     22  H   UNL A   1      34.863  23.977  22.190  1.00  0.00     0.082 H 
ATOM     23  C   UNL A   1      33.881  22.068  24.752  1.00  0.00    -0.059 A 
ATOM     24  H   UNL A   1      32.215  22.386  25.924  1.00  0.00     0.065 H 
ATOM     25  H   UNL A   1      35.559  22.043  23.389  1.00  0.00     0.064 H 
ATOM     26  H   UNL A   1      34.118  21.175  25.212  1.00  0.00     0.062 H 
BRANCH  15  27
ATOM     27  C   UNL A   1      32.857  26.065  21.490  1.00  0.00     0.116 C 
ATOM     28  H   UNL A   1      32.753  27.127  21.581  1.00  0.00     0.099 H 
ATOM     29  H   UNL A   1      33.845  25.736  21.244  1.00  0.00     0.099 H 
BRANCH  27  30
ATOM     30  N   UNL A   1      32.018  25.632  20.386  1.00  0.00    -0.353 N 
ATOM     31  H   UNL A   1      31.525  26.437  19.999  1.00  0.00     0.344 HD
ATOM     32  H   UNL A   1      31.341  24.947  20.722  1.00  0.00     0.344 HD
ATOM     33  H   UNL A   1      32.599  25.209  19.663  1.00  0.00     0.344 HD
ENDBRANCH  27  30
ENDBRANCH  15  27
BRANCH  16  34
ATOM     34  C   UNL A   1      30.741  27.045  23.489  1.00  0.00    -0.016 A 
ATOM     35  C   UNL A   1      31.265  28.295  23.151  1.00  0.00    -0.054 A 
ATOM     36  C   UNL A   1      29.351  26.875  23.563  1.00  0.00    -0.054 A 
ATOM     37  C   UNL A   1      30.403  29.362  22.881  1.00  0.00    -0.062 A 
ATOM     38  H   UNL A   1      32.286  28.431  23.099  1.00  0.00     0.063 H 
ATOM     39  C   UNL A   1      28.494  27.939  23.285  1.00  0.00    -0.062 A 
ATOM     40  H   UNL A   1      28.961  25.956  23.826  1.00  0.00     0.063 H 
ATOM     41  C   UNL A   1      29.020  29.182  22.944  1.00  0.00    -0.062 A 
ATOM     42  H   UNL A   1      30.790  30.286  22.633  1.00  0.00     0.062 H 
ATOM     43  H   UNL A   1      27.471  27.805  23.331  1.00  0.00     0.062 H 
ATOM     44  H   UNL A   1      28.387  29.971  22.737  1.00  0.00     0.062 H 
ENDBRANCH  16  34
ENDBRANCH  11  14
ENDBRANCH   7  10
ENDBRANCH   4   7
ENDBRANCH   1   4
BRANCH   1  45
ATOM     45  C   UNL A   1      31.279  30.962  25.866  1.00  0.00    -0.052 C 
ATOM     46  H   UNL A   1      30.317  30.507  25.972  1.00  0.00     0.027 H 
ATOM     47  H   UNL A   1      31.576  31.162  24.857  1.00  0.00     0.027 H 
BRANCH  45  48
ATOM     48  C   UNL A   1      31.217  32.336  26.538  1.00  0.00    -0.036 C 
ATOM     49  H   UNL A   1      30.541  32.264  27.363  1.00  0.00     0.028 H 
ATOM     50  H   UNL A   1      30.909  33.015  25.772  1.00  0.00     0.028 H 
BRANCH  48  51
ATOM     51  C   UNL A   1      32.536  32.887  27.065  1.00  0.00     0.018 C 
ATOM     52  H   UNL A   1      33.229  32.949  26.252  1.00  0.00     0.049 H 
ATOM     53  H   UNL A   1      32.876  32.222  27.832  1.00  0.00     0.049 H 
BRANCH  51  54
ATOM     54  N   UNL A   1      32.407  34.203  27.662  1.00  0.00    -0.352 N 
ATOM     55  C   UNL A   1      33.120  34.782  28.682  1.00  0.00     0.251 C 
ATOM     56  H   UNL A   1      31.699  34.768  27.277  1.00  0.00     0.163 HD
ATOM     57  O   UNL A   1      32.766  35.865  29.135  1.00  0.00    -0.269 OA
BRANCH  55  58
ATOM     58  C   UNL A   1      34.304  34.102  29.257  1.00  0.00     0.039 A 
ATOM     59  C   UNL A   1      34.098  33.066  30.173  1.00  0.00    -0.049 A 
ATOM     60  C   UNL A   1      35.605  34.501  28.941  1.00  0.00    -0.049 A 
ATOM     61  C   UNL A   1      35.192  32.410  30.742  1.00  0.00    -0.053 A 
ATOM     62  H   UNL A   1      33.139  32.785  30.428  1.00  0.00     0.063 H 
ATOM     63  C   UNL A   1      36.695  33.793  29.445  1.00  0.00    -0.053 A 
ATOM     64  H   UNL A   1      35.759  35.321  28.334  1.00  0.00     0.063 H 
ATOM     65  C   UNL A   1      36.501  32.755  30.368  1.00  0.00    -0.014 A 
ATOM     66  H   UNL A   1      35.038  31.667  31.442  1.00  0.00     0.063 H 
ATOM     67  H   UNL A   1      37.649  34.034  29.138  1.00  0.00     0.063 H 
BRANCH  65  68
ATOM     68  C   UNL A   1      37.672  32.065  30.969  1.00  0.00     0.031 A 
ATOM     69  C   UNL A   1      38.127  32.420  32.359  1.00  0.00     0.074 A 
ATOM     70  C   UNL A   1      38.346  31.142  30.255  1.00  0.00     0.049 A 
ATOM     71  N   UNL A   1      39.138  31.950  33.048  1.00  0.00    -0.248 NA
ATOM     72  C   UNL A   1      37.362  33.464  33.059  1.00  0.00    -0.034 C 
ATOM     73  C   UNL A   1      38.034  30.743  28.883  1.00  0.00    -0.036 A 
ATOM     74  N   UNL A   1      39.434  30.375  30.586  1.00  0.00    -0.354 N 
ATOM     75  C   UNL A   1      39.133  32.647  34.250  1.00  0.00     0.074 A 
ATOM     76  C   UNL A   1      38.063  33.617  34.172  1.00  0.00    -0.034 C 
ATOM     77  H   UNL A   1      36.503  33.952  32.760  1.00  0.00     0.065 H 
ATOM     78  C   UNL A   1      38.891  29.783  28.499  1.00  0.00    -0.036 A 
ATOM     79  H   UNL A   1      37.277  31.136  28.303  1.00  0.00     0.065 H 
ATOM     80  C   UNL A   1      39.833  29.525  29.583  1.00  0.00     0.049 A 
ATOM     81  H   UNL A   1      39.887  30.427  31.459  1.00  0.00     0.167 HD
ATOM     82  C   UNL A   1      39.929  32.475  35.333  1.00  0.00     0.037 A 
ATOM     83  H   UNL A   1      37.870  34.333  34.890  1.00  0.00     0.065 H 
ATOM     84  H   UNL A   1      38.885  29.305  27.585  1.00  0.00     0.065 H 
ATOM     85  C   UNL A   1      40.846  28.637  29.546  1.00  0.00     0.037 A 
ATOM     86  C   UNL A   1      40.980  31.494  35.416  1.00  0.00     0.049 A 
ATOM     87  C   UNL A   1      41.716  28.465  30.762  1.00  0.00     0.074 A 
ATOM     88  C   UNL A   1      41.811  31.206  36.485  1.00  0.00    -0.036 A 
ATOM     89  N   UNL A   1      41.344  30.639  34.385  1.00  0.00    -0.354 N 
ATOM     90  N   UNL A   1      41.659  29.083  31.918  1.00  0.00    -0.248 NA
ATOM     91  C   UNL A   1      42.784  27.461  30.671  1.00  0.00    -0.034 C 
ATOM     92  C   UNL A   1      42.713  30.214  36.083  1.00  0.00    -0.036 A 
ATOM     93  H   UNL A   1      41.772  31.646  37.417  1.00  0.00     0.065 H 
ATOM     94  C   UNL A   1      42.402  29.838  34.786  1.00  0.00     0.049 A 
ATOM     95  H   UNL A   1      40.915  30.607  33.500  1.00  0.00     0.167 HD
ATOM     96  C   UNL A   1      42.658  28.519  32.701  1.00  0.00     0.074 A 
ATOM     97  C   UNL A   1      43.290  27.496  31.895  1.00  0.00    -0.034 C 
ATOM     98  H   UNL A   1      43.065  26.879  29.866  1.00  0.00     0.065 H 
ATOM     99  H   UNL A   1      43.479  29.827  36.656  1.00  0.00     0.065 H 
ATOM    100  C   UNL A   1      43.018  28.819  33.974  1.00  0.00     0.037 A 
ATOM    101  H   UNL A   1      44.041  26.872  32.231  1.00  0.00     0.065 H 
BRANCH  82 102
ATOM    102  C   UNL A   1      39.692  33.369  36.518  1.00  0.00     0.064 A 
ATOM    103  C   UNL A   1      38.805  33.013  37.547  1.00  0.00     0.173 A 
ATOM    104  C   UNL A   1      40.378  34.587  36.641  1.00  0.00     0.173 A 
ATOM    105  F   UNL A   1      38.114  31.866  37.475  1.00  0.00    -0.203 F 
ATOM    106  C   UNL A   1      38.589  33.857  38.634  1.00  0.00     0.198 A 
ATOM    107  C   UNL A   1      40.186  35.412  37.747  1.00  0.00     0.198 A 
ATOM    108  F   UNL A   1      41.242  34.977  35.691  1.00  0.00    -0.203 F 
ATOM    109  F   UNL A   1      37.694  33.521  39.572  1.00  0.00    -0.200 F 
ATOM    110  C   UNL A   1      39.285  35.052  38.737  1.00  0.00     0.200 A 
ATOM    111  F   UNL A   1      40.870  36.560  37.852  1.00  0.00    -0.200 F 
ATOM    112  F   UNL A   1      39.080  35.860  39.786  1.00  0.00    -0.200 F 
ENDBRANCH  82 102
BRANCH  85 113
ATOM    113  C   UNL A   1      41.073  27.817  28.325  1.00  0.00     0.064 A 
ATOM    114  C   UNL A   1      40.460  26.565  28.173  1.00  0.00     0.173 A 
ATOM    115  C   UNL A   1      41.918  28.257  27.297  1.00  0.00     0.173 A 
ATOM    116  F   UNL A   1      39.658  26.090  29.139  1.00  0.00    -0.203 F 
ATOM    117  C   UNL A   1      40.707  25.772  27.053  1.00  0.00     0.198 A 
ATOM    118  C   UNL A   1      42.138  27.479  26.162  1.00  0.00     0.198 A 
ATOM    119  F   UNL A   1      42.525  29.450  27.388  1.00  0.00    -0.203 F 
ATOM    120  F   UNL A   1      40.152  24.556  26.961  1.00  0.00    -0.200 F 
ATOM    121  C   UNL A   1      41.541  26.232  26.046  1.00  0.00     0.200 A 
ATOM    122  F   UNL A   1      42.933  27.934  25.184  1.00  0.00    -0.200 F 
ATOM    123  F   UNL A   1      41.777  25.471  24.970  1.00  0.00    -0.200 F 
ENDBRANCH  85 113
BRANCH 100 124
ATOM    124  C   UNL A   1      44.119  27.999  34.586  1.00  0.00     0.064 A 
ATOM    125  C   UNL A   1      43.861  26.795  35.258  1.00  0.00     0.173 A 
ATOM    126  C   UNL A   1      45.454  28.422  34.489  1.00  0.00     0.173 A 
ATOM    127  F   UNL A   1      42.602  26.351  35.391  1.00  0.00    -0.203 F 
ATOM    128  C   UNL A   1      44.893  26.068  35.847  1.00  0.00     0.198 A 
ATOM    129  C   UNL A   1      46.487  27.673  35.047  1.00  0.00     0.198 A 
ATOM    130  F   UNL A   1      45.759  29.560  33.848  1.00  0.00    -0.203 F 
ATOM    131  F   UNL A   1      44.614  24.957  36.544  1.00  0.00    -0.200 F 
ATOM    132  C   UNL A   1      46.204  26.504  35.737  1.00  0.00     0.200 A 
ATOM    133  F   UNL A   1      47.755  28.088  34.924  1.00  0.00    -0.200 F 
ATOM    134  F   UNL A   1      47.195  25.804  36.306  1.00  0.00    -0.200 F 
ENDBRANCH 100 124
ENDBRANCH  65  68
ENDBRANCH  55  58
ENDBRANCH  51  54
ENDBRANCH  48  51
ENDBRANCH  45  48
ENDBRANCH   1  45
TORSDOF 16
ENDMDL
MODEL 10
REMARK VINA RESULT:     -12.0      1.208      3.159
REMARK SMILES [NH3+]Cc1c(-c2ccccc2)c(C(=O)NCCCCCCNC(=O)c2ccc(-c3c4nc(c(-c5c(F)c(F)c(F)c(F)c5F)c5ccc([nH]5)c(-c5c(F)c(F)c(F)c(F)c5F)c5nc(c(-c6c(F)c(F)c(F)c(F)c6F)c6ccc3[nH]6)C=C5)C=C4)cc2)c2ccccn12
REMARK SMILES IDX 17 1 16 4 15 7 14 10 12 11 13 12 11 14 3 15 4 16 92 17 87 18
REMARK SMILES IDX 91 19 88 20 90 21 89 23 2 27 1 30 5 34 6 35 10 36 7 37 9 39
REMARK SMILES IDX 8 41 18 45 19 48 20 51 21 54 22 55 23 57 24 58 25 59 86 60
REMARK SMILES IDX 26 61 85 63 27 65 28 68 29 69 79 70 30 71 84 72 78 73 80 74
REMARK SMILES IDX 31 75 83 76 77 78 76 80 32 82 64 85 44 86 63 87 45 88 48 89
REMARK SMILES IDX 62 90 81 91 46 92 47 94 61 96 82 97 49 100 33 102 34 103
REMARK SMILES IDX 42 104 35 105 36 106 40 107 43 108 37 109 38 110 41 111
REMARK SMILES IDX 39 112 65 113 66 114 74 115 67 116 68 117 72 118 75 119
REMARK SMILES IDX 69 120 70 121 73 122 71 123 50 124 51 125 59 126 52 127
REMARK SMILES IDX 53 128 57 129 60 130 54 131 55 132 58 133 56 134
REMARK H PARENT 17 2 17 3 16 5 16 6 15 8 15 9 14 13 91 22 88 24 90 25 89 26
REMARK H PARENT 2 28 2 29 1 31 1 32 1 33 6 38 10 40 7 42 9 43 8 44 18 46 18 47
REMARK H PARENT 19 49 19 50 20 52 20 53 21 56 25 62 86 64 26 66 85 67 84 77
REMARK H PARENT 78 79 80 81 83 83 77 84 45 93 48 95 81 98 46 99 82 101
REMARK Flexibility Score: inf
ROOT
ATOM      1  C   UNL A   1      32.327  30.071  26.072  1.00  0.00    -0.052 C 
ATOM      2  H   UNL A   1      32.538  29.487  25.200  1.00  0.00     0.027 H 
ATOM      3  H   UNL A   1      33.119  30.715  26.393  1.00  0.00     0.027 H 
ENDROOT
BRANCH   1   4
ATOM      4  C   UNL A   1      32.116  29.098  27.236  1.00  0.00    -0.036 C 
ATOM      5  H   UNL A   1      32.810  29.363  28.006  1.00  0.00     0.028 H 
ATOM      6  H   UNL A   1      31.084  29.203  27.499  1.00  0.00     0.028 H 
BRANCH   4   7
ATOM      7  C   UNL A   1      32.300  27.612  26.943  1.00  0.00     0.018 C 
ATOM      8  H   UNL A   1      32.760  27.520  25.981  1.00  0.00     0.049 H 
ATOM      9  H   UNL A   1      32.895  27.225  27.744  1.00  0.00     0.049 H 
BRANCH   7  10
ATOM     10  N   UNL A   1      31.089  26.828  26.934  1.00  0.00    -0.352 N 
ATOM     11  C   UNL A   1      30.657  25.842  26.070  1.00  0.00     0.254 C 
ATOM     12  O   UNL A   1      29.604  25.285  26.377  1.00  0.00    -0.269 OA
ATOM     13  H   UNL A   1      30.464  27.030  27.668  1.00  0.00     0.163 HD
BRANCH  11  14
ATOM     14  C   UNL A   1      31.358  25.533  24.813  1.00  0.00     0.073 A 
ATOM     15  C   UNL A   1      32.126  25.784  22.640  1.00  0.00     0.086 A 
ATOM     16  C   UNL A   1      31.229  26.281  23.589  1.00  0.00     0.022 A 
ATOM     17  N   UNL A   1      32.794  24.733  23.251  1.00  0.00    -0.314 N 
ATOM     18  C   UNL A   1      32.164  24.453  24.472  1.00  0.00     0.059 A 
ATOM     19  C   UNL A   1      33.905  23.993  22.819  1.00  0.00     0.009 A 
ATOM     20  C   UNL A   1      32.502  23.211  25.096  1.00  0.00    -0.037 A 
ATOM     21  C   UNL A   1      34.318  22.918  23.508  1.00  0.00    -0.045 A 
ATOM     22  H   UNL A   1      34.409  24.278  21.964  1.00  0.00     0.082 H 
ATOM     23  C   UNL A   1      33.551  22.493  24.657  1.00  0.00    -0.059 A 
ATOM     24  H   UNL A   1      31.938  22.864  25.887  1.00  0.00     0.065 H 
ATOM     25  H   UNL A   1      35.167  22.405  23.223  1.00  0.00     0.064 H 
ATOM     26  H   UNL A   1      33.812  21.624  25.149  1.00  0.00     0.062 H 
BRANCH  15  27
ATOM     27  C   UNL A   1      32.365  26.325  21.256  1.00  0.00     0.116 C 
ATOM     28  H   UNL A   1      31.795  27.226  21.156  1.00  0.00     0.099 H 
ATOM     29  H   UNL A   1      33.423  26.461  21.181  1.00  0.00     0.099 H 
BRANCH  27  30
ATOM     30  N   UNL A   1      32.007  25.451  20.152  1.00  0.00    -0.353 N 
ATOM     31  H   UNL A   1      32.855  25.134  19.682  1.00  0.00     0.344 HD
ATOM     32  H   UNL A   1      31.420  25.960  19.492  1.00  0.00     0.344 HD
ATOM     33  H   UNL A   1      31.495  24.644  20.510  1.00  0.00     0.344 HD
ENDBRANCH  27  30
ENDBRANCH  15  27
BRANCH  16  34
ATOM     34  C   UNL A   1      30.336  27.396  23.298  1.00  0.00    -0.016 A 
ATOM     35  C   UNL A   1      28.951  27.260  23.414  1.00  0.00    -0.054 A 
ATOM     36  C   UNL A   1      30.878  28.625  22.894  1.00  0.00    -0.054 A 
ATOM     37  C   UNL A   1      28.118  28.347  23.137  1.00  0.00    -0.062 A 
ATOM     38  H   UNL A   1      28.543  26.358  23.705  1.00  0.00     0.063 H 
ATOM     39  C   UNL A   1      30.045  29.711  22.628  1.00  0.00    -0.062 A 
ATOM     40  H   UNL A   1      31.901  28.725  22.794  1.00  0.00     0.063 H 
ATOM     41  C   UNL A   1      28.665  29.571  22.749  1.00  0.00    -0.062 A 
ATOM     42  H   UNL A   1      27.094  28.246  23.221  1.00  0.00     0.062 H 
ATOM     43  H   UNL A   1      30.450  30.616  22.341  1.00  0.00     0.062 H 
ATOM     44  H   UNL A   1      28.046  30.374  22.552  1.00  0.00     0.062 H 
ENDBRANCH  16  34
ENDBRANCH  11  14
ENDBRANCH   7  10
ENDBRANCH   4   7
ENDBRANCH   1   4
BRANCH   1  45
ATOM     45  C   UNL A   1      31.172  31.014  25.724  1.00  0.00    -0.052 C 
ATOM     46  H   UNL A   1      30.259  30.495  25.927  1.00  0.00     0.027 H 
ATOM     47  H   UNL A   1      31.325  31.275  24.697  1.00  0.00     0.027 H 
BRANCH  45  48
ATOM     48  C   UNL A   1      31.118  32.351  26.467  1.00  0.00    -0.036 C 
ATOM     49  H   UNL A   1      30.407  32.255  27.260  1.00  0.00     0.028 H 
ATOM     50  H   UNL A   1      30.859  33.079  25.727  1.00  0.00     0.028 H 
BRANCH  48  51
ATOM     51  C   UNL A   1      32.428  32.836  27.075  1.00  0.00     0.018 C 
ATOM     52  H   UNL A   1      33.188  32.794  26.323  1.00  0.00     0.049 H 
ATOM     53  H   UNL A   1      32.650  32.198  27.905  1.00  0.00     0.049 H 
BRANCH  51  54
ATOM     54  N   UNL A   1      32.354  34.194  27.582  1.00  0.00    -0.352 N 
ATOM     55  C   UNL A   1      33.109  34.818  28.542  1.00  0.00     0.251 C 
ATOM     56  H   UNL A   1      31.655  34.753  27.173  1.00  0.00     0.163 HD
ATOM     57  O   UNL A   1      32.800  35.941  28.927  1.00  0.00    -0.269 OA
BRANCH  55  58
ATOM     58  C   UNL A   1      34.285  34.141  29.137  1.00  0.00     0.039 A 
ATOM     59  C   UNL A   1      34.066  33.125  30.074  1.00  0.00    -0.049 A 
ATOM     60  C   UNL A   1      35.591  34.522  28.819  1.00  0.00    -0.049 A 
ATOM     61  C   UNL A   1      35.153  32.473  30.662  1.00  0.00    -0.053 A 
ATOM     62  H   UNL A   1      33.104  32.858  30.330  1.00  0.00     0.063 H 
ATOM     63  C   UNL A   1      36.672  33.817  29.344  1.00  0.00    -0.053 A 
ATOM     64  H   UNL A   1      35.754  35.328  28.196  1.00  0.00     0.063 H 
ATOM     65  C   UNL A   1      36.466  32.800  30.287  1.00  0.00    -0.014 A 
ATOM     66  H   UNL A   1      34.989  31.747  31.376  1.00  0.00     0.063 H 
ATOM     67  H   UNL A   1      37.630  34.044  29.036  1.00  0.00     0.063 H 
BRANCH  65  68
ATOM     68  C   UNL A   1      37.629  32.114  30.908  1.00  0.00     0.031 A 
ATOM     69  C   UNL A   1      38.073  32.486  32.298  1.00  0.00     0.074 A 
ATOM     70  C   UNL A   1      38.306  31.178  30.213  1.00  0.00     0.049 A 
ATOM     71  N   UNL A   1      39.075  32.022  33.002  1.00  0.00    -0.248 NA
ATOM     72  C   UNL A   1      37.306  33.543  32.976  1.00  0.00    -0.034 C 
ATOM     73  C   UNL A   1      38.004  30.762  28.844  1.00  0.00    -0.036 A 
ATOM     74  N   UNL A   1      39.388  30.411  30.564  1.00  0.00    -0.354 N 
ATOM     75  C   UNL A   1      39.062  32.735  34.194  1.00  0.00     0.074 A 
ATOM     76  C   UNL A   1      37.998  33.708  34.093  1.00  0.00    -0.034 C 
ATOM     77  H   UNL A   1      36.451  34.030  32.663  1.00  0.00     0.065 H 
ATOM     78  C   UNL A   1      38.861  29.793  28.481  1.00  0.00    -0.036 A 
ATOM     79  H   UNL A   1      37.254  31.150  28.251  1.00  0.00     0.065 H 
ATOM     80  C   UNL A   1      39.792  29.546  29.577  1.00  0.00     0.049 A 
ATOM     81  H   UNL A   1      39.832  30.474  31.440  1.00  0.00     0.167 HD
ATOM     82  C   UNL A   1      39.848  32.575  35.287  1.00  0.00     0.037 A 
ATOM     83  H   UNL A   1      37.801  34.434  34.799  1.00  0.00     0.065 H 
ATOM     84  H   UNL A   1      38.861  29.303  27.573  1.00  0.00     0.065 H 
ATOM     85  C   UNL A   1      40.801  28.654  29.560  1.00  0.00     0.037 A 
ATOM     86  C   UNL A   1      40.894  31.590  35.392  1.00  0.00     0.049 A 
ATOM     87  C   UNL A   1      41.660  28.495  30.787  1.00  0.00     0.074 A 
ATOM     88  C   UNL A   1      41.715  31.314  36.472  1.00  0.00    -0.036 A 
ATOM     89  N   UNL A   1      41.264  30.720  34.376  1.00  0.00    -0.354 N 
ATOM     90  N   UNL A   1      41.595  29.129  31.933  1.00  0.00    -0.248 NA
ATOM     91  C   UNL A   1      42.725  27.485  30.720  1.00  0.00    -0.034 C 
ATOM     92  C   UNL A   1      42.616  30.312  36.092  1.00  0.00    -0.036 A 
ATOM     93  H   UNL A   1      41.670  31.767  37.398  1.00  0.00     0.065 H 
ATOM     94  C   UNL A   1      42.315  29.920  34.798  1.00  0.00     0.049 A 
ATOM     95  H   UNL A   1      40.843  30.678  33.488  1.00  0.00     0.167 HD
ATOM     96  C   UNL A   1      42.584  28.572  32.733  1.00  0.00     0.074 A 
ATOM     97  C   UNL A   1      43.219  27.535  31.947  1.00  0.00    -0.034 C 
ATOM     98  H   UNL A   1      43.010  26.892  29.925  1.00  0.00     0.065 H 
ATOM     99  H   UNL A   1      43.376  29.931  36.677  1.00  0.00     0.065 H 
ATOM    100  C   UNL A   1      42.935  28.888  34.005  1.00  0.00     0.037 A 
ATOM    101  H   UNL A   1      43.965  26.913  32.298  1.00  0.00     0.065 H 
BRANCH  82 102
ATOM    102  C   UNL A   1      39.604  33.486  36.457  1.00  0.00     0.064 A 
ATOM    103  C   UNL A   1      38.758  33.119  37.516  1.00  0.00     0.173 A 
ATOM    104  C   UNL A   1      40.244  34.732  36.536  1.00  0.00     0.173 A 
ATOM    105  F   UNL A   1      38.112  31.944  37.487  1.00  0.00    -0.203 F 
ATOM    106  C   UNL A   1      38.534  33.978  38.588  1.00  0.00     0.198 A 
ATOM    107  C   UNL A   1      40.046  35.575  37.627  1.00  0.00     0.198 A 
ATOM    108  F   UNL A   1      41.068  35.134  35.556  1.00  0.00    -0.203 F 
ATOM    109  F   UNL A   1      37.676  33.629  39.556  1.00  0.00    -0.200 F 
ATOM    110  C   UNL A   1      39.184  35.202  38.647  1.00  0.00     0.200 A 
ATOM    111  F   UNL A   1      40.685  36.751  37.690  1.00  0.00    -0.200 F 
ATOM    112  F   UNL A   1      38.972  36.025  39.683  1.00  0.00    -0.200 F 
ENDBRANCH  82 102
BRANCH  85 113
ATOM    113  C   UNL A   1      41.036  27.817  28.353  1.00  0.00     0.064 A 
ATOM    114  C   UNL A   1      41.869  28.263  27.317  1.00  0.00     0.173 A 
ATOM    115  C   UNL A   1      40.420  26.567  28.200  1.00  0.00     0.173 A 
ATOM    116  F   UNL A   1      42.466  29.462  27.407  1.00  0.00    -0.203 F 
ATOM    117  C   UNL A   1      42.055  27.504  26.163  1.00  0.00     0.198 A 
ATOM    118  C   UNL A   1      40.633  25.793  27.061  1.00  0.00     0.198 A 
ATOM    119  F   UNL A   1      39.618  26.089  29.164  1.00  0.00    -0.203 F 
ATOM    120  F   UNL A   1      42.813  27.980  25.166  1.00  0.00    -0.200 F 
ATOM    121  C   UNL A   1      41.441  26.267  26.038  1.00  0.00     0.200 A 
ATOM    122  F   UNL A   1      40.050  24.591  26.951  1.00  0.00    -0.200 F 
ATOM    123  F   UNL A   1      41.621  25.537  24.930  1.00  0.00    -0.200 F 
ENDBRANCH  85 113
BRANCH 100 124
ATOM    124  C   UNL A   1      44.027  28.072  34.639  1.00  0.00     0.064 A 
ATOM    125  C   UNL A   1      45.372  28.464  34.585  1.00  0.00     0.173 A 
ATOM    126  C   UNL A   1      43.717  26.883  35.317  1.00  0.00     0.173 A 
ATOM    127  F   UNL A   1      45.724  29.585  33.939  1.00  0.00    -0.203 F 
ATOM    128  C   UNL A   1      46.371  27.675  35.150  1.00  0.00     0.198 A 
ATOM    129  C   UNL A   1      44.714  26.116  35.913  1.00  0.00     0.198 A 
ATOM    130  F   UNL A   1      42.445  26.466  35.408  1.00  0.00    -0.203 F 
ATOM    131  F   UNL A   1      47.657  28.034  35.026  1.00  0.00    -0.200 F 
ATOM    132  C   UNL A   1      46.042  26.505  35.817  1.00  0.00     0.200 A 
ATOM    133  F   UNL A   1      44.392  24.995  36.572  1.00  0.00    -0.200 F 
ATOM    134  F   UNL A   1      47.005  25.746  36.358  1.00  0.00    -0.200 F 
ENDBRANCH 100 124
ENDBRANCH  65  68
ENDBRANCH  55  58
ENDBRANCH  51  54
ENDBRANCH  48  51
ENDBRANCH  45  48
ENDBRANCH   1  45
TORSDOF 16
ENDMDL
