MODEL 1
REMARK VINA RESULT:     -12.4      0.000      0.000
REMARK SMILES Cc1ccc(S(=O)(=O)n2cc(C(=O)C(=O)NCC(=O)N[C@H](Cc3c[nH]c4ccccc34)C(=O)NCCCCCCNC(=O)c3ccc(-c4c5nc(c(-c6c(F)c(F)c(F)c(F)c6F)c6ccc([nH]6)c(-c6c(F)c(F)c(F)c(F)c6F)c6nc(c(-c7c(F)c(F)c(F)c(F)c7F)c7ccc4[nH]7)C=C6)C=C5)cc3)c3ccccc32)cc1
REMARK SMILES IDX 32 1 33 2 34 3 21 5 20 7 18 8 19 9 17 11 16 14 14 15 15 16
REMARK SMILES IDX 12 18 13 19 11 20 9 21 10 22 112 23 107 25 111 26 108 27
REMARK SMILES IDX 110 28 109 30 6 34 7 35 8 36 5 37 2 38 3 39 114 40 4 41
REMARK SMILES IDX 113 43 1 47 22 51 23 54 24 55 31 56 25 57 26 59 30 60 27 62
REMARK SMILES IDX 29 63 28 65 35 69 36 72 37 75 38 78 39 81 40 84 41 87 42 88
REMARK SMILES IDX 43 90 44 91 45 92 106 93 46 94 105 96 47 98 48 101 49 102
REMARK SMILES IDX 99 103 50 104 104 105 98 106 100 107 51 108 103 109 97 111
REMARK SMILES IDX 96 113 52 115 84 118 64 119 83 120 65 121 68 122 82 123
REMARK SMILES IDX 101 124 66 125 67 127 81 129 102 130 69 133 53 135 54 136
REMARK SMILES IDX 62 137 55 138 56 139 60 140 63 141 57 142 58 143 61 144
REMARK SMILES IDX 59 145 85 146 86 147 94 148 87 149 88 150 92 151 95 152
REMARK SMILES IDX 89 153 90 154 93 155 91 156 70 157 71 158 79 159 72 160
REMARK SMILES IDX 73 161 77 162 80 163 74 164 75 165 78 166 76 167
REMARK H PARENT 34 4 21 6 20 10 17 12 17 13 16 17 10 24 111 29 108 31 110 32
REMARK H PARENT 109 33 3 42 114 44 4 45 113 46 1 48 1 49 1 50 22 52 22 53
REMARK H PARENT 24 58 25 61 30 64 27 66 29 67 28 68 35 70 35 71 36 73 36 74
REMARK H PARENT 37 76 37 77 38 79 38 80 39 82 39 83 40 85 40 86 41 89 45 95
REMARK H PARENT 106 97 46 99 105 100 104 110 98 112 100 114 103 116 97 117
REMARK H PARENT 65 126 68 128 101 131 66 132 102 134
REMARK Flexibility Score: inf
ROOT
ATOM      1  C   UNL A   1      33.599  28.255  24.158  1.00  0.00     0.242 C 
ATOM      2  O   UNL A   1      34.072  28.242  23.015  1.00  0.00    -0.273 OA
ATOM      3  N   UNL A   1      33.599  29.462  24.778  1.00  0.00    -0.354 N 
ATOM      4  H   UNL A   1      33.788  30.216  24.174  1.00  0.00     0.163 HD
ENDROOT
BRANCH   1   5
ATOM      5  C   UNL A   1      33.086  26.952  24.789  1.00  0.00     0.112 C 
ATOM      6  H   UNL A   1      33.709  26.766  25.639  1.00  0.00     0.064 H 
BRANCH   5   7
ATOM      7  N   UNL A   1      33.199  25.898  23.767  1.00  0.00    -0.342 N 
ATOM      8  C   UNL A   1      34.113  24.891  23.663  1.00  0.00     0.240 C 
ATOM      9  O   UNL A   1      34.082  24.223  22.625  1.00  0.00    -0.273 OA
ATOM     10  H   UNL A   1      32.516  25.924  23.057  1.00  0.00     0.164 HD
BRANCH   8  11
ATOM     11  C   UNL A   1      35.003  24.466  24.852  1.00  0.00     0.097 C 
ATOM     12  H   UNL A   1      36.019  24.515  24.520  1.00  0.00     0.059 H 
ATOM     13  H   UNL A   1      34.734  25.139  25.639  1.00  0.00     0.059 H 
BRANCH  11  14
ATOM     14  N   UNL A   1      34.801  23.138  25.428  1.00  0.00    -0.340 N 
ATOM     15  C   UNL A   1      35.710  22.098  25.551  1.00  0.00     0.292 C 
ATOM     16  O   UNL A   1      35.437  21.057  26.138  1.00  0.00    -0.265 OA
ATOM     17  H   UNL A   1      33.898  22.958  25.776  1.00  0.00     0.164 HD
BRANCH  15  18
ATOM     18  C   UNL A   1      37.108  22.269  24.967  1.00  0.00     0.252 C 
ATOM     19  O   UNL A   1      37.263  21.859  23.817  1.00  0.00    -0.283 OA
BRANCH  18  20
ATOM     20  C   UNL A   1      38.239  22.711  25.796  1.00  0.00     0.054 A 
ATOM     21  N   UNL A   1      39.760  23.848  27.029  1.00  0.00    -0.240 N 
ATOM     22  C   UNL A   1      38.586  23.977  26.285  1.00  0.00     0.033 A 
ATOM     23  C   UNL A   1      40.000  22.471  27.197  1.00  0.00     0.065 A 
ATOM     24  H   UNL A   1      38.063  24.853  26.124  1.00  0.00     0.084 H 
ATOM     25  C   UNL A   1      39.301  21.837  26.174  1.00  0.00     0.012 A 
ATOM     26  C   UNL A   1      40.987  21.794  27.941  1.00  0.00    -0.037 A 
ATOM     27  C   UNL A   1      39.721  20.555  25.761  1.00  0.00    -0.052 A 
ATOM     28  C   UNL A   1      41.440  20.567  27.459  1.00  0.00    -0.060 A 
ATOM     29  H   UNL A   1      41.363  22.194  28.814  1.00  0.00     0.065 H 
ATOM     30  C   UNL A   1      40.841  19.971  26.359  1.00  0.00    -0.061 A 
ATOM     31  H   UNL A   1      39.205  20.052  25.022  1.00  0.00     0.063 H 
ATOM     32  H   UNL A   1      42.229  20.096  27.927  1.00  0.00     0.062 H 
ATOM     33  H   UNL A   1      41.224  19.091  25.978  1.00  0.00     0.062 H 
BRANCH  21  34
ATOM     34  S   UNL A   1      41.256  24.710  26.752  1.00  0.00     0.268 S 
ATOM     35  O   UNL A   1      41.669  25.080  28.097  1.00  0.00    -0.201 OA
ATOM     36  O   UNL A   1      40.851  25.723  25.785  1.00  0.00    -0.201 OA
BRANCH  34  37
ATOM     37  C   UNL A   1      42.710  24.089  25.989  1.00  0.00     0.088 A 
ATOM     38  C   UNL A   1      45.283  23.715  24.894  1.00  0.00    -0.051 A 
ATOM     39  C   UNL A   1      45.085  24.703  25.847  1.00  0.00    -0.058 A 
ATOM     40  C   UNL A   1      44.190  22.904  24.511  1.00  0.00    -0.058 A 
ATOM     41  C   UNL A   1      43.824  24.871  26.388  1.00  0.00    -0.041 A 
ATOM     42  H   UNL A   1      45.867  25.305  26.147  1.00  0.00     0.063 H 
ATOM     43  C   UNL A   1      42.889  23.087  25.052  1.00  0.00    -0.041 A 
ATOM     44  H   UNL A   1      44.342  22.156  23.818  1.00  0.00     0.063 H 
ATOM     45  H   UNL A   1      43.688  25.594  27.111  1.00  0.00     0.064 H 
ATOM     46  H   UNL A   1      42.101  22.490  24.754  1.00  0.00     0.064 H 
BRANCH  38  47
ATOM     47  C   UNL A   1      46.654  23.616  24.284  1.00  0.00    -0.040 C 
ATOM     48  H   UNL A   1      46.745  22.686  23.762  1.00  0.00     0.028 H 
ATOM     49  H   UNL A   1      47.392  23.665  25.058  1.00  0.00     0.028 H 
ATOM     50  H   UNL A   1      46.799  24.425  23.601  1.00  0.00     0.028 H 
ENDBRANCH  38  47
ENDBRANCH  34  37
ENDBRANCH  21  34
ENDBRANCH  18  20
ENDBRANCH  15  18
ENDBRANCH  11  14
ENDBRANCH   8  11
ENDBRANCH   5   7
BRANCH   5  51
ATOM     51  C   UNL A   1      31.694  26.971  25.466  1.00  0.00     0.004 C 
ATOM     52  H   UNL A   1      31.646  27.878  26.030  1.00  0.00     0.034 H 
ATOM     53  H   UNL A   1      31.682  26.037  25.988  1.00  0.00     0.034 H 
BRANCH  51  54
ATOM     54  C   UNL A   1      30.418  26.905  24.658  1.00  0.00    -0.020 A 
ATOM     55  C   UNL A   1      29.532  25.862  24.476  1.00  0.00     0.005 A 
ATOM     56  C   UNL A   1      29.863  28.003  23.897  1.00  0.00     0.003 A 
ATOM     57  N   UNL A   1      28.397  26.335  23.878  1.00  0.00    -0.361 N 
ATOM     58  H   UNL A   1      29.700  24.881  24.748  1.00  0.00     0.082 H 
ATOM     59  C   UNL A   1      28.575  27.638  23.501  1.00  0.00     0.046 A 
ATOM     60  C   UNL A   1      30.324  29.285  23.525  1.00  0.00    -0.053 A 
ATOM     61  H   UNL A   1      27.573  25.815  23.739  1.00  0.00     0.166 HD
ATOM     62  C   UNL A   1      27.699  28.496  22.830  1.00  0.00    -0.038 A 
ATOM     63  C   UNL A   1      29.484  30.135  22.790  1.00  0.00    -0.062 A 
ATOM     64  H   UNL A   1      31.271  29.594  23.792  1.00  0.00     0.063 H 
ATOM     65  C   UNL A   1      28.183  29.754  22.471  1.00  0.00    -0.060 A 
ATOM     66  H   UNL A   1      26.733  28.211  22.610  1.00  0.00     0.064 H 
ATOM     67  H   UNL A   1      29.834  31.055  22.482  1.00  0.00     0.062 H 
ATOM     68  H   UNL A   1      27.569  30.409  21.961  1.00  0.00     0.062 H 
ENDBRANCH  51  54
ENDBRANCH   5  51
ENDBRANCH   1   5
BRANCH   3  69
ATOM     69  C   UNL A   1      33.376  29.862  26.152  1.00  0.00     0.017 C 
ATOM     70  H   UNL A   1      32.627  29.227  26.579  1.00  0.00     0.049 H 
ATOM     71  H   UNL A   1      33.063  30.885  26.152  1.00  0.00     0.049 H 
BRANCH  69  72
ATOM     72  C   UNL A   1      34.646  29.758  26.995  1.00  0.00    -0.036 C 
ATOM     73  H   UNL A   1      35.481  29.990  26.368  1.00  0.00     0.028 H 
ATOM     74  H   UNL A   1      34.669  28.761  27.382  1.00  0.00     0.028 H 
BRANCH  72  75
ATOM     75  C   UNL A   1      34.695  30.692  28.216  1.00  0.00    -0.052 C 
ATOM     76  H   UNL A   1      35.454  30.328  28.875  1.00  0.00     0.027 H 
ATOM     77  H   UNL A   1      33.710  30.675  28.632  1.00  0.00     0.027 H 
BRANCH  75  78
ATOM     78  C   UNL A   1      34.995  32.168  27.921  1.00  0.00    -0.052 C 
ATOM     79  H   UNL A   1      35.038  32.289  26.859  1.00  0.00     0.027 H 
ATOM     80  H   UNL A   1      35.918  32.383  28.418  1.00  0.00     0.027 H 
BRANCH  78  81
ATOM     81  C   UNL A   1      33.980  33.169  28.469  1.00  0.00    -0.036 C 
ATOM     82  H   UNL A   1      33.268  32.634  29.063  1.00  0.00     0.028 H 
ATOM     83  H   UNL A   1      33.536  33.652  27.625  1.00  0.00     0.028 H 
BRANCH  81  84
ATOM     84  C   UNL A   1      34.591  34.267  29.331  1.00  0.00     0.018 C 
ATOM     85  H   UNL A   1      33.934  35.111  29.317  1.00  0.00     0.049 H 
ATOM     86  H   UNL A   1      35.552  34.491  28.917  1.00  0.00     0.049 H 
BRANCH  84  87
ATOM     87  N   UNL A   1      34.805  33.876  30.710  1.00  0.00    -0.352 N 
ATOM     88  C   UNL A   1      35.947  33.416  31.346  1.00  0.00     0.251 C 
ATOM     89  H   UNL A   1      34.011  33.949  31.288  1.00  0.00     0.163 HD
ATOM     90  O   UNL A   1      35.852  32.917  32.446  1.00  0.00    -0.269 OA
BRANCH  88  91
ATOM     91  C   UNL A   1      37.294  33.695  30.770  1.00  0.00     0.039 A 
ATOM     92  C   UNL A   1      37.716  32.851  29.729  1.00  0.00    -0.049 A 
ATOM     93  C   UNL A   1      38.199  34.578  31.348  1.00  0.00    -0.049 A 
ATOM     94  C   UNL A   1      39.076  32.716  29.455  1.00  0.00    -0.053 A 
ATOM     95  H   UNL A   1      37.022  32.334  29.168  1.00  0.00     0.063 H 
ATOM     96  C   UNL A   1      39.549  34.385  31.146  1.00  0.00    -0.053 A 
ATOM     97  H   UNL A   1      37.865  35.368  31.921  1.00  0.00     0.063 H 
ATOM     98  C   UNL A   1      39.984  33.403  30.253  1.00  0.00    -0.014 A 
ATOM     99  H   UNL A   1      39.400  32.119  28.678  1.00  0.00     0.063 H 
ATOM    100  H   UNL A   1      40.237  34.965  31.652  1.00  0.00     0.063 H 
BRANCH  98 101
ATOM    101  C   UNL A   1      41.401  33.092  30.313  1.00  0.00     0.031 A 
ATOM    102  C   UNL A   1      42.365  33.842  29.491  1.00  0.00     0.074 A 
ATOM    103  C   UNL A   1      41.825  32.195  31.231  1.00  0.00     0.049 A 
ATOM    104  N   UNL A   1      43.533  33.399  29.175  1.00  0.00    -0.248 NA
ATOM    105  C   UNL A   1      42.074  35.158  28.927  1.00  0.00    -0.034 C 
ATOM    106  C   UNL A   1      43.194  31.956  31.676  1.00  0.00    -0.036 A 
ATOM    107  N   UNL A   1      41.076  31.171  31.836  1.00  0.00    -0.354 N 
ATOM    108  C   UNL A   1      44.232  34.436  28.607  1.00  0.00     0.074 A 
ATOM    109  C   UNL A   1      43.267  35.495  28.424  1.00  0.00    -0.034 C 
ATOM    110  H   UNL A   1      41.188  35.685  28.920  1.00  0.00     0.065 H 
ATOM    111  C   UNL A   1      43.263  30.734  32.229  1.00  0.00    -0.036 A 
ATOM    112  H   UNL A   1      43.980  32.618  31.582  1.00  0.00     0.065 H 
ATOM    113  C   UNL A   1      41.976  30.095  32.016  1.00  0.00     0.049 A 
ATOM    114  H   UNL A   1      40.124  31.197  32.084  1.00  0.00     0.167 HD
ATOM    115  C   UNL A   1      45.582  34.334  28.467  1.00  0.00     0.037 A 
ATOM    116  H   UNL A   1      43.471  36.396  27.963  1.00  0.00     0.065 H 
ATOM    117  H   UNL A   1      44.076  30.326  32.714  1.00  0.00     0.065 H 
ATOM    118  C   UNL A   1      41.796  28.911  31.361  1.00  0.00     0.037 A 
ATOM    119  C   UNL A   1      46.070  33.044  28.937  1.00  0.00     0.049 A 
ATOM    120  C   UNL A   1      42.943  28.543  30.450  1.00  0.00     0.074 A 
ATOM    121  C   UNL A   1      46.575  32.631  30.159  1.00  0.00    -0.036 A 
ATOM    122  N   UNL A   1      45.737  31.891  28.236  1.00  0.00    -0.354 N 
ATOM    123  N   UNL A   1      43.799  29.406  29.979  1.00  0.00    -0.248 NA
ATOM    124  C   UNL A   1      43.202  27.184  29.980  1.00  0.00    -0.034 C 
ATOM    125  C   UNL A   1      46.488  31.219  30.214  1.00  0.00    -0.036 A 
ATOM    126  H   UNL A   1      46.950  33.244  30.899  1.00  0.00     0.065 H 
ATOM    127  C   UNL A   1      45.957  30.773  29.016  1.00  0.00     0.049 A 
ATOM    128  H   UNL A   1      45.393  31.875  27.314  1.00  0.00     0.167 HD
ATOM    129  C   UNL A   1      44.691  28.765  29.160  1.00  0.00     0.074 A 
ATOM    130  C   UNL A   1      44.284  27.373  29.203  1.00  0.00    -0.034 C 
ATOM    131  H   UNL A   1      42.691  26.312  30.188  1.00  0.00     0.065 H 
ATOM    132  H   UNL A   1      46.772  30.625  31.009  1.00  0.00     0.065 H 
ATOM    133  C   UNL A   1      45.684  29.439  28.511  1.00  0.00     0.037 A 
ATOM    134  H   UNL A   1      44.768  26.617  28.696  1.00  0.00     0.065 H 
BRANCH 115 135
ATOM    135  C   UNL A   1      46.460  35.517  28.169  1.00  0.00     0.064 A 
ATOM    136  C   UNL A   1      46.635  35.979  26.847  1.00  0.00     0.173 A 
ATOM    137  C   UNL A   1      47.189  36.208  29.151  1.00  0.00     0.173 A 
ATOM    138  F   UNL A   1      45.958  35.443  25.823  1.00  0.00    -0.203 F 
ATOM    139  C   UNL A   1      47.533  36.998  26.527  1.00  0.00     0.198 A 
ATOM    140  C   UNL A   1      48.126  37.194  28.825  1.00  0.00     0.198 A 
ATOM    141  F   UNL A   1      46.998  35.956  30.454  1.00  0.00    -0.203 F 
ATOM    142  F   UNL A   1      47.664  37.393  25.253  1.00  0.00    -0.200 F 
ATOM    143  C   UNL A   1      48.303  37.585  27.511  1.00  0.00     0.200 A 
ATOM    144  F   UNL A   1      48.865  37.756  29.792  1.00  0.00    -0.200 F 
ATOM    145  F   UNL A   1      49.200  38.528  27.197  1.00  0.00    -0.200 F 
ENDBRANCH 115 135
BRANCH 118 146
ATOM    146  C   UNL A   1      40.363  28.603  31.104  1.00  0.00     0.064 A 
ATOM    147  C   UNL A   1      39.526  28.381  32.216  1.00  0.00     0.173 A 
ATOM    148  C   UNL A   1      39.751  28.925  29.888  1.00  0.00     0.173 A 
ATOM    149  F   UNL A   1      40.064  28.073  33.408  1.00  0.00    -0.203 F 
ATOM    150  C   UNL A   1      38.153  28.600  32.144  1.00  0.00     0.198 A 
ATOM    151  C   UNL A   1      38.370  29.129  29.816  1.00  0.00     0.198 A 
ATOM    152  F   UNL A   1      40.493  29.161  28.797  1.00  0.00    -0.203 F 
ATOM    153  F   UNL A   1      37.403  28.502  33.251  1.00  0.00    -0.200 F 
ATOM    154  C   UNL A   1      37.581  29.004  30.950  1.00  0.00     0.200 A 
ATOM    155  F   UNL A   1      37.818  29.540  28.666  1.00  0.00    -0.200 F 
ATOM    156  F   UNL A   1      36.277  29.310  30.902  1.00  0.00    -0.200 F 
ENDBRANCH 118 146
BRANCH 133 157
ATOM    157  C   UNL A   1      46.560  28.892  27.411  1.00  0.00     0.064 A 
ATOM    158  C   UNL A   1      47.919  28.583  27.576  1.00  0.00     0.173 A 
ATOM    159  C   UNL A   1      45.992  28.507  26.171  1.00  0.00     0.173 A 
ATOM    160  F   UNL A   1      48.544  28.792  28.742  1.00  0.00    -0.203 F 
ATOM    161  C   UNL A   1      48.669  27.986  26.558  1.00  0.00     0.198 A 
ATOM    162  C   UNL A   1      46.729  27.858  25.182  1.00  0.00     0.198 A 
ATOM    163  F   UNL A   1      44.698  28.722  25.894  1.00  0.00    -0.203 F 
ATOM    164  F   UNL A   1      49.974  27.747  26.751  1.00  0.00    -0.200 F 
ATOM    165  C   UNL A   1      48.072  27.612  25.369  1.00  0.00     0.200 A 
ATOM    166  F   UNL A   1      46.122  27.453  24.057  1.00  0.00    -0.200 F 
ATOM    167  F   UNL A   1      48.784  26.996  24.417  1.00  0.00    -0.200 F 
ENDBRANCH 133 157
ENDBRANCH  98 101
ENDBRANCH  88  91
ENDBRANCH  84  87
ENDBRANCH  81  84
ENDBRANCH  78  81
ENDBRANCH  75  78
ENDBRANCH  72  75
ENDBRANCH  69  72
ENDBRANCH   3  69
TORSDOF 23
ENDMDL
MODEL 2
REMARK VINA RESULT:     -12.1      3.502      9.707
REMARK SMILES Cc1ccc(S(=O)(=O)n2cc(C(=O)C(=O)NCC(=O)N[C@H](Cc3c[nH]c4ccccc34)C(=O)NCCCCCCNC(=O)c3ccc(-c4c5nc(c(-c6c(F)c(F)c(F)c(F)c6F)c6ccc([nH]6)c(-c6c(F)c(F)c(F)c(F)c6F)c6nc(c(-c7c(F)c(F)c(F)c(F)c7F)c7ccc4[nH]7)C=C6)C=C5)cc3)c3ccccc32)cc1
REMARK SMILES IDX 32 1 33 2 34 3 21 5 20 7 18 8 19 9 17 11 16 14 14 15 15 16
REMARK SMILES IDX 12 18 13 19 11 20 9 21 10 22 112 23 107 25 111 26 108 27
REMARK SMILES IDX 110 28 109 30 6 34 7 35 8 36 5 37 2 38 3 39 114 40 4 41
REMARK SMILES IDX 113 43 1 47 22 51 23 54 24 55 31 56 25 57 26 59 30 60 27 62
REMARK SMILES IDX 29 63 28 65 35 69 36 72 37 75 38 78 39 81 40 84 41 87 42 88
REMARK SMILES IDX 43 90 44 91 45 92 106 93 46 94 105 96 47 98 48 101 49 102
REMARK SMILES IDX 99 103 50 104 104 105 98 106 100 107 51 108 103 109 97 111
REMARK SMILES IDX 96 113 52 115 84 118 64 119 83 120 65 121 68 122 82 123
REMARK SMILES IDX 101 124 66 125 67 127 81 129 102 130 69 133 53 135 54 136
REMARK SMILES IDX 62 137 55 138 56 139 60 140 63 141 57 142 58 143 61 144
REMARK SMILES IDX 59 145 85 146 86 147 94 148 87 149 88 150 92 151 95 152
REMARK SMILES IDX 89 153 90 154 93 155 91 156 70 157 71 158 79 159 72 160
REMARK SMILES IDX 73 161 77 162 80 163 74 164 75 165 78 166 76 167
REMARK H PARENT 34 4 21 6 20 10 17 12 17 13 16 17 10 24 111 29 108 31 110 32
REMARK H PARENT 109 33 3 42 114 44 4 45 113 46 1 48 1 49 1 50 22 52 22 53
REMARK H PARENT 24 58 25 61 30 64 27 66 29 67 28 68 35 70 35 71 36 73 36 74
REMARK H PARENT 37 76 37 77 38 79 38 80 39 82 39 83 40 85 40 86 41 89 45 95
REMARK H PARENT 106 97 46 99 105 100 104 110 98 112 100 114 103 116 97 117
REMARK H PARENT 65 126 68 128 101 131 66 132 102 134
REMARK Flexibility Score: inf
ROOT
ATOM      1  C   UNL A   1      37.126  33.270  31.346  1.00  0.00     0.242 C 
ATOM      2  O   UNL A   1      36.760  34.074  32.212  1.00  0.00    -0.273 OA
ATOM      3  N   UNL A   1      38.419  33.385  30.949  1.00  0.00    -0.354 N 
ATOM      4  H   UNL A   1      38.963  33.956  31.538  1.00  0.00     0.163 HD
ENDROOT
BRANCH   1   5
ATOM      5  C   UNL A   1      36.127  32.251  30.776  1.00  0.00     0.112 C 
ATOM      6  H   UNL A   1      36.576  31.859  29.886  1.00  0.00     0.064 H 
BRANCH   5   7
ATOM      7  N   UNL A   1      34.874  32.974  30.502  1.00  0.00    -0.342 N 
ATOM      8  C   UNL A   1      34.293  33.273  29.304  1.00  0.00     0.240 C 
ATOM      9  O   UNL A   1      33.314  34.024  29.339  1.00  0.00    -0.273 OA
ATOM     10  H   UNL A   1      34.385  33.287  31.298  1.00  0.00     0.164 HD
BRANCH   8  11
ATOM     11  C   UNL A   1      34.698  32.559  27.996  1.00  0.00     0.097 C 
ATOM     12  H   UNL A   1      33.854  32.596  27.340  1.00  0.00     0.059 H 
ATOM     13  H   UNL A   1      35.571  33.084  27.666  1.00  0.00     0.059 H 
BRANCH  11  14
ATOM     14  N   UNL A   1      35.124  31.164  28.073  1.00  0.00    -0.340 N 
ATOM     15  C   UNL A   1      34.510  30.038  27.545  1.00  0.00     0.292 C 
ATOM     16  O   UNL A   1      35.019  28.925  27.605  1.00  0.00    -0.265 OA
ATOM     17  H   UNL A   1      35.961  31.001  28.565  1.00  0.00     0.164 HD
BRANCH  15  18
ATOM     18  C   UNL A   1      33.169  30.196  26.835  1.00  0.00     0.252 C 
ATOM     19  O   UNL A   1      32.576  31.254  27.039  1.00  0.00    -0.283 OA
BRANCH  18  20
ATOM     20  C   UNL A   1      32.543  29.077  26.117  1.00  0.00     0.054 A 
ATOM     21  N   UNL A   1      31.320  27.293  25.446  1.00  0.00    -0.240 N 
ATOM     22  C   UNL A   1      31.571  28.151  26.518  1.00  0.00     0.033 A 
ATOM     23  C   UNL A   1      31.957  27.838  24.315  1.00  0.00     0.065 A 
ATOM     24  H   UNL A   1      31.118  28.110  27.445  1.00  0.00     0.084 H 
ATOM     25  C   UNL A   1      32.949  28.680  24.809  1.00  0.00     0.012 A 
ATOM     26  C   UNL A   1      31.945  27.429  22.967  1.00  0.00    -0.037 A 
ATOM     27  C   UNL A   1      34.057  28.975  23.986  1.00  0.00    -0.052 A 
ATOM     28  C   UNL A   1      33.088  27.663  22.204  1.00  0.00    -0.060 A 
ATOM     29  H   UNL A   1      31.117  26.973  22.557  1.00  0.00     0.065 H 
ATOM     30  C   UNL A   1      34.149  28.393  22.719  1.00  0.00    -0.061 A 
ATOM     31  H   UNL A   1      34.795  29.616  24.318  1.00  0.00     0.063 H 
ATOM     32  H   UNL A   1      33.146  27.288  21.245  1.00  0.00     0.062 H 
ATOM     33  H   UNL A   1      35.012  28.507  22.164  1.00  0.00     0.062 H 
BRANCH  21  34
ATOM     34  S   UNL A   1      31.470  25.550  25.462  1.00  0.00     0.268 S 
ATOM     35  O   UNL A   1      30.248  25.115  24.805  1.00  0.00    -0.201 OA
ATOM     36  O   UNL A   1      31.702  25.277  26.876  1.00  0.00    -0.201 OA
BRANCH  34  37
ATOM     37  C   UNL A   1      32.744  24.591  24.729  1.00  0.00     0.088 A 
ATOM     38  C   UNL A   1      35.196  23.510  23.845  1.00  0.00    -0.051 A 
ATOM     39  C   UNL A   1      35.174  24.318  24.972  1.00  0.00    -0.058 A 
ATOM     40  C   UNL A   1      33.980  23.232  23.179  1.00  0.00    -0.058 A 
ATOM     41  C   UNL A   1      33.967  24.832  25.407  1.00  0.00    -0.041 A 
ATOM     42  H   UNL A   1      36.047  24.532  25.479  1.00  0.00     0.063 H 
ATOM     43  C   UNL A   1      32.741  23.775  23.612  1.00  0.00    -0.041 A 
ATOM     44  H   UNL A   1      33.994  22.615  22.352  1.00  0.00     0.063 H 
ATOM     45  H   UNL A   1      33.955  25.415  26.258  1.00  0.00     0.064 H 
ATOM     46  H   UNL A   1      31.865  23.566  23.108  1.00  0.00     0.064 H 
BRANCH  38  47
ATOM     47  C   UNL A   1      36.540  23.032  23.371  1.00  0.00    -0.040 C 
ATOM     48  H   UNL A   1      37.017  22.478  24.152  1.00  0.00     0.028 H 
ATOM     49  H   UNL A   1      37.146  23.875  23.109  1.00  0.00     0.028 H 
ATOM     50  H   UNL A   1      36.413  22.405  22.514  1.00  0.00     0.028 H 
ENDBRANCH  38  47
ENDBRANCH  34  37
ENDBRANCH  21  34
ENDBRANCH  18  20
ENDBRANCH  15  18
ENDBRANCH  11  14
ENDBRANCH   8  11
ENDBRANCH   5   7
BRANCH   5  51
ATOM     51  C   UNL A   1      35.892  30.942  31.567  1.00  0.00     0.004 C 
ATOM     52  H   UNL A   1      35.108  30.420  31.060  1.00  0.00     0.034 H 
ATOM     53  H   UNL A   1      35.714  31.305  32.559  1.00  0.00     0.034 H 
BRANCH  51  54
ATOM     54  C   UNL A   1      37.000  29.938  31.786  1.00  0.00    -0.020 A 
ATOM     55  C   UNL A   1      37.551  29.461  32.958  1.00  0.00     0.005 A 
ATOM     56  C   UNL A   1      37.712  29.248  30.732  1.00  0.00     0.003 A 
ATOM     57  N   UNL A   1      38.345  28.384  32.677  1.00  0.00    -0.361 N 
ATOM     58  H   UNL A   1      37.390  29.855  33.899  1.00  0.00     0.082 H 
ATOM     59  C   UNL A   1      38.472  28.238  31.323  1.00  0.00     0.046 A 
ATOM     60  C   UNL A   1      37.765  29.371  29.327  1.00  0.00    -0.053 A 
ATOM     61  H   UNL A   1      38.764  27.799  33.349  1.00  0.00     0.166 HD
ATOM     62  C   UNL A   1      39.214  27.302  30.596  1.00  0.00    -0.038 A 
ATOM     63  C   UNL A   1      38.560  28.484  28.584  1.00  0.00    -0.062 A 
ATOM     64  H   UNL A   1      37.222  30.107  28.848  1.00  0.00     0.063 H 
ATOM     65  C   UNL A   1      39.252  27.450  29.210  1.00  0.00    -0.060 A 
ATOM     66  H   UNL A   1      39.712  26.531  31.066  1.00  0.00     0.064 H 
ATOM     67  H   UNL A   1      38.632  28.599  27.562  1.00  0.00     0.062 H 
ATOM     68  H   UNL A   1      39.802  26.786  28.641  1.00  0.00     0.062 H 
ENDBRANCH  51  54
ENDBRANCH   5  51
ENDBRANCH   1   5
BRANCH   3  69
ATOM     69  C   UNL A   1      39.157  32.834  29.832  1.00  0.00     0.017 C 
ATOM     70  H   UNL A   1      39.606  33.636  29.284  1.00  0.00     0.049 H 
ATOM     71  H   UNL A   1      38.472  32.284  29.222  1.00  0.00     0.049 H 
BRANCH  69  72
ATOM     72  C   UNL A   1      40.256  31.874  30.287  1.00  0.00    -0.036 C 
ATOM     73  H   UNL A   1      41.061  31.933  29.585  1.00  0.00     0.028 H 
ATOM     74  H   UNL A   1      39.805  30.905  30.338  1.00  0.00     0.028 H 
BRANCH  72  75
ATOM     75  C   UNL A   1      40.825  32.155  31.688  1.00  0.00    -0.052 C 
ATOM     76  H   UNL A   1      40.159  32.831  32.181  1.00  0.00     0.027 H 
ATOM     77  H   UNL A   1      41.806  32.547  31.528  1.00  0.00     0.027 H 
BRANCH  75  78
ATOM     78  C   UNL A   1      41.009  30.931  32.596  1.00  0.00    -0.052 C 
ATOM     79  H   UNL A   1      41.762  30.309  32.160  1.00  0.00     0.027 H 
ATOM     80  H   UNL A   1      40.048  30.466  32.658  1.00  0.00     0.027 H 
BRANCH  78  81
ATOM     81  C   UNL A   1      41.423  31.234  34.035  1.00  0.00    -0.036 C 
ATOM     82  H   UNL A   1      40.900  30.561  34.682  1.00  0.00     0.028 H 
ATOM     83  H   UNL A   1      41.176  32.259  34.217  1.00  0.00     0.028 H 
BRANCH  81  84
ATOM     84  C   UNL A   1      42.916  31.089  34.299  1.00  0.00     0.018 C 
ATOM     85  H   UNL A   1      43.335  32.066  34.415  1.00  0.00     0.049 H 
ATOM     86  H   UNL A   1      43.331  30.563  33.464  1.00  0.00     0.049 H 
BRANCH  84  87
ATOM     87  N   UNL A   1      43.227  30.314  35.483  1.00  0.00    -0.352 N 
ATOM     88  C   UNL A   1      43.184  28.945  35.698  1.00  0.00     0.251 C 
ATOM     89  H   UNL A   1      43.513  30.845  36.262  1.00  0.00     0.163 HD
ATOM     90  O   UNL A   1      43.252  28.521  36.831  1.00  0.00    -0.269 OA
BRANCH  88  91
ATOM     91  C   UNL A   1      43.242  28.000  34.546  1.00  0.00     0.039 A 
ATOM     92  C   UNL A   1      44.517  27.726  34.026  1.00  0.00    -0.049 A 
ATOM     93  C   UNL A   1      42.112  27.572  33.858  1.00  0.00    -0.049 A 
ATOM     94  C   UNL A   1      44.647  27.263  32.718  1.00  0.00    -0.053 A 
ATOM     95  H   UNL A   1      45.356  27.865  34.610  1.00  0.00     0.063 H 
ATOM     96  C   UNL A   1      42.232  27.200  32.535  1.00  0.00    -0.053 A 
ATOM     97  H   UNL A   1      41.196  27.532  34.330  1.00  0.00     0.063 H 
ATOM     98  C   UNL A   1      43.497  27.118  31.949  1.00  0.00    -0.014 A 
ATOM     99  H   UNL A   1      45.575  27.035  32.329  1.00  0.00     0.063 H 
ATOM    100  H   UNL A   1      41.389  26.983  31.981  1.00  0.00     0.063 H 
BRANCH  98 101
ATOM    101  C   UNL A   1      43.505  26.990  30.503  1.00  0.00     0.031 A 
ATOM    102  C   UNL A   1      43.866  25.711  29.869  1.00  0.00     0.074 A 
ATOM    103  C   UNL A   1      43.048  28.025  29.763  1.00  0.00     0.049 A 
ATOM    104  N   UNL A   1      44.282  25.607  28.654  1.00  0.00    -0.248 NA
ATOM    105  C   UNL A   1      43.815  24.433  30.573  1.00  0.00    -0.034 C 
ATOM    106  C   UNL A   1      42.681  28.015  28.350  1.00  0.00    -0.036 A 
ATOM    107  N   UNL A   1      42.990  29.380  30.130  1.00  0.00    -0.354 N 
ATOM    108  C   UNL A   1      44.305  24.272  28.334  1.00  0.00     0.074 A 
ATOM    109  C   UNL A   1      44.058  23.575  29.576  1.00  0.00    -0.034 C 
ATOM    110  H   UNL A   1      43.638  24.243  31.571  1.00  0.00     0.065 H 
ATOM    111  C   UNL A   1      42.713  29.275  27.886  1.00  0.00    -0.036 A 
ATOM    112  H   UNL A   1      42.437  27.178  27.799  1.00  0.00     0.065 H 
ATOM    113  C   UNL A   1      43.250  30.108  28.947  1.00  0.00     0.049 A 
ATOM    114  H   UNL A   1      42.805  29.746  31.025  1.00  0.00     0.167 HD
ATOM    115  C   UNL A   1      44.405  23.899  27.029  1.00  0.00     0.037 A 
ATOM    116  H   UNL A   1      44.069  22.548  29.680  1.00  0.00     0.065 H 
ATOM    117  H   UNL A   1      42.413  29.591  26.951  1.00  0.00     0.065 H 
ATOM    118  C   UNL A   1      44.364  30.890  28.832  1.00  0.00     0.037 A 
ATOM    119  C   UNL A   1      44.519  25.057  26.152  1.00  0.00     0.049 A 
ATOM    120  C   UNL A   1      45.284  30.472  27.709  1.00  0.00     0.074 A 
ATOM    121  C   UNL A   1      43.575  25.786  25.448  1.00  0.00    -0.036 A 
ATOM    122  N   UNL A   1      45.669  25.837  26.197  1.00  0.00    -0.354 N 
ATOM    123  N   UNL A   1      45.286  29.280  27.181  1.00  0.00    -0.248 NA
ATOM    124  C   UNL A   1      46.284  31.351  27.111  1.00  0.00    -0.034 C 
ATOM    125  C   UNL A   1      44.145  27.040  25.119  1.00  0.00    -0.036 A 
ATOM    126  H   UNL A   1      42.623  25.471  25.205  1.00  0.00     0.065 H 
ATOM    127  C   UNL A   1      45.443  27.061  25.599  1.00  0.00     0.049 A 
ATOM    128  H   UNL A   1      46.522  25.556  26.598  1.00  0.00     0.167 HD
ATOM    129  C   UNL A   1      46.255  29.210  26.215  1.00  0.00     0.074 A 
ATOM    130  C   UNL A   1      46.844  30.535  26.199  1.00  0.00    -0.034 C 
ATOM    131  H   UNL A   1      46.504  32.336  27.329  1.00  0.00     0.065 H 
ATOM    132  H   UNL A   1      43.674  27.805  24.610  1.00  0.00     0.065 H 
ATOM    133  C   UNL A   1      46.492  28.062  25.517  1.00  0.00     0.037 A 
ATOM    134  H   UNL A   1      47.604  30.819  25.562  1.00  0.00     0.065 H 
BRANCH 115 135
ATOM    135  C   UNL A   1      44.112  22.502  26.558  1.00  0.00     0.064 A 
ATOM    136  C   UNL A   1      45.091  21.740  25.886  1.00  0.00     0.173 A 
ATOM    137  C   UNL A   1      42.860  21.880  26.707  1.00  0.00     0.173 A 
ATOM    138  F   UNL A   1      46.340  22.193  25.723  1.00  0.00    -0.203 F 
ATOM    139  C   UNL A   1      44.812  20.489  25.334  1.00  0.00     0.198 A 
ATOM    140  C   UNL A   1      42.566  20.650  26.111  1.00  0.00     0.198 A 
ATOM    141  F   UNL A   1      41.897  22.444  27.450  1.00  0.00    -0.203 F 
ATOM    142  F   UNL A   1      45.779  19.811  24.700  1.00  0.00    -0.200 F 
ATOM    143  C   UNL A   1      43.541  19.957  25.419  1.00  0.00     0.200 A 
ATOM    144  F   UNL A   1      41.328  20.144  26.203  1.00  0.00    -0.200 F 
ATOM    145  F   UNL A   1      43.261  18.779  24.847  1.00  0.00    -0.200 F 
ENDBRANCH 115 135
BRANCH 118 146
ATOM    146  C   UNL A   1      44.803  31.465  30.132  1.00  0.00     0.064 A 
ATOM    147  C   UNL A   1      45.875  30.841  30.802  1.00  0.00     0.173 A 
ATOM    148  C   UNL A   1      44.492  32.780  30.494  1.00  0.00     0.173 A 
ATOM    149  F   UNL A   1      46.216  29.580  30.489  1.00  0.00    -0.203 F 
ATOM    150  C   UNL A   1      46.679  31.545  31.695  1.00  0.00     0.198 A 
ATOM    151  C   UNL A   1      45.293  33.478  31.403  1.00  0.00     0.198 A 
ATOM    152  F   UNL A   1      43.493  33.433  29.885  1.00  0.00    -0.203 F 
ATOM    153  F   UNL A   1      47.766  30.958  32.218  1.00  0.00    -0.200 F 
ATOM    154  C   UNL A   1      46.405  32.873  31.971  1.00  0.00     0.200 A 
ATOM    155  F   UNL A   1      45.041  34.770  31.655  1.00  0.00    -0.200 F 
ATOM    156  F   UNL A   1      47.233  33.580  32.753  1.00  0.00    -0.200 F 
ENDBRANCH 118 146
BRANCH 133 157
ATOM    157  C   UNL A   1      47.673  27.795  24.617  1.00  0.00     0.064 A 
ATOM    158  C   UNL A   1      48.865  27.193  25.048  1.00  0.00     0.173 A 
ATOM    159  C   UNL A   1      47.566  28.004  23.218  1.00  0.00     0.173 A 
ATOM    160  F   UNL A   1      49.042  26.840  26.328  1.00  0.00    -0.203 F 
ATOM    161  C   UNL A   1      49.896  26.876  24.160  1.00  0.00     0.198 A 
ATOM    162  C   UNL A   1      48.573  27.631  22.329  1.00  0.00     0.198 A 
ATOM    163  F   UNL A   1      46.470  28.549  22.671  1.00  0.00    -0.203 F 
ATOM    164  F   UNL A   1      51.031  26.337  24.628  1.00  0.00    -0.200 F 
ATOM    165  C   UNL A   1      49.745  27.081  22.801  1.00  0.00     0.200 A 
ATOM    166  F   UNL A   1      48.386  27.788  21.010  1.00  0.00    -0.200 F 
ATOM    167  F   UNL A   1      50.716  26.730  21.949  1.00  0.00    -0.200 F 
ENDBRANCH 133 157
ENDBRANCH  98 101
ENDBRANCH  88  91
ENDBRANCH  84  87
ENDBRANCH  81  84
ENDBRANCH  78  81
ENDBRANCH  75  78
ENDBRANCH  72  75
ENDBRANCH  69  72
ENDBRANCH   3  69
TORSDOF 23
ENDMDL
MODEL 3
REMARK VINA RESULT:     -11.9      3.207      8.691
REMARK SMILES Cc1ccc(S(=O)(=O)n2cc(C(=O)C(=O)NCC(=O)N[C@H](Cc3c[nH]c4ccccc34)C(=O)NCCCCCCNC(=O)c3ccc(-c4c5nc(c(-c6c(F)c(F)c(F)c(F)c6F)c6ccc([nH]6)c(-c6c(F)c(F)c(F)c(F)c6F)c6nc(c(-c7c(F)c(F)c(F)c(F)c7F)c7ccc4[nH]7)C=C6)C=C5)cc3)c3ccccc32)cc1
REMARK SMILES IDX 32 1 33 2 34 3 21 5 20 7 18 8 19 9 17 11 16 14 14 15 15 16
REMARK SMILES IDX 12 18 13 19 11 20 9 21 10 22 112 23 107 25 111 26 108 27
REMARK SMILES IDX 110 28 109 30 6 34 7 35 8 36 5 37 2 38 3 39 114 40 4 41
REMARK SMILES IDX 113 43 1 47 22 51 23 54 24 55 31 56 25 57 26 59 30 60 27 62
REMARK SMILES IDX 29 63 28 65 35 69 36 72 37 75 38 78 39 81 40 84 41 87 42 88
REMARK SMILES IDX 43 90 44 91 45 92 106 93 46 94 105 96 47 98 48 101 49 102
REMARK SMILES IDX 99 103 50 104 104 105 98 106 100 107 51 108 103 109 97 111
REMARK SMILES IDX 96 113 52 115 84 118 64 119 83 120 65 121 68 122 82 123
REMARK SMILES IDX 101 124 66 125 67 127 81 129 102 130 69 133 53 135 54 136
REMARK SMILES IDX 62 137 55 138 56 139 60 140 63 141 57 142 58 143 61 144
REMARK SMILES IDX 59 145 85 146 86 147 94 148 87 149 88 150 92 151 95 152
REMARK SMILES IDX 89 153 90 154 93 155 91 156 70 157 71 158 79 159 72 160
REMARK SMILES IDX 73 161 77 162 80 163 74 164 75 165 78 166 76 167
REMARK H PARENT 34 4 21 6 20 10 17 12 17 13 16 17 10 24 111 29 108 31 110 32
REMARK H PARENT 109 33 3 42 114 44 4 45 113 46 1 48 1 49 1 50 22 52 22 53
REMARK H PARENT 24 58 25 61 30 64 27 66 29 67 28 68 35 70 35 71 36 73 36 74
REMARK H PARENT 37 76 37 77 38 79 38 80 39 82 39 83 40 85 40 86 41 89 45 95
REMARK H PARENT 106 97 46 99 105 100 104 110 98 112 100 114 103 116 97 117
REMARK H PARENT 65 126 68 128 101 131 66 132 102 134
REMARK Flexibility Score: inf
ROOT
ATOM      1  C   UNL A   1      33.932  32.644  28.341  1.00  0.00     0.242 C 
ATOM      2  O   UNL A   1      33.032  33.132  27.646  1.00  0.00    -0.273 OA
ATOM      3  N   UNL A   1      34.069  33.177  29.581  1.00  0.00    -0.354 N 
ATOM      4  H   UNL A   1      33.312  33.744  29.853  1.00  0.00     0.163 HD
ENDROOT
BRANCH   1   5
ATOM      5  C   UNL A   1      34.821  31.529  27.769  1.00  0.00     0.112 C 
ATOM      6  H   UNL A   1      34.925  31.737  26.724  1.00  0.00     0.064 H 
BRANCH   5   7
ATOM      7  N   UNL A   1      34.136  30.251  28.023  1.00  0.00    -0.342 N 
ATOM      8  C   UNL A   1      33.266  29.564  27.228  1.00  0.00     0.240 C 
ATOM      9  O   UNL A   1      32.710  28.586  27.736  1.00  0.00    -0.273 OA
ATOM     10  H   UNL A   1      34.336  29.832  28.892  1.00  0.00     0.164 HD
BRANCH   8  11
ATOM     11  C   UNL A   1      33.129  29.858  25.718  1.00  0.00     0.097 C 
ATOM     12  H   UNL A   1      33.707  30.734  25.511  1.00  0.00     0.059 H 
ATOM     13  H   UNL A   1      33.458  28.957  25.242  1.00  0.00     0.059 H 
BRANCH  11  14
ATOM     14  N   UNL A   1      31.792  30.084  25.176  1.00  0.00    -0.340 N 
ATOM     15  C   UNL A   1      31.098  29.338  24.234  1.00  0.00     0.292 C 
ATOM     16  O   UNL A   1      29.939  29.587  23.926  1.00  0.00    -0.265 OA
ATOM     17  H   UNL A   1      31.318  30.873  25.526  1.00  0.00     0.164 HD
BRANCH  15  18
ATOM     18  C   UNL A   1      31.792  28.145  23.585  1.00  0.00     0.252 C 
ATOM     19  O   UNL A   1      32.479  28.397  22.595  1.00  0.00    -0.283 OA
BRANCH  18  20
ATOM     20  C   UNL A   1      31.497  26.766  23.998  1.00  0.00     0.054 A 
ATOM     21  N   UNL A   1      30.797  24.869  25.018  1.00  0.00    -0.240 N 
ATOM     22  C   UNL A   1      30.785  26.263  25.095  1.00  0.00     0.033 A 
ATOM     23  C   UNL A   1      31.306  24.524  23.752  1.00  0.00     0.065 A 
ATOM     24  H   UNL A   1      30.330  26.825  25.832  1.00  0.00     0.084 H 
ATOM     25  C   UNL A   1      32.032  25.630  23.321  1.00  0.00     0.012 A 
ATOM     26  C   UNL A   1      31.441  23.269  23.126  1.00  0.00    -0.037 A 
ATOM     27  C   UNL A   1      33.051  25.440  22.364  1.00  0.00    -0.052 A 
ATOM     28  C   UNL A   1      32.508  23.088  22.247  1.00  0.00    -0.060 A 
ATOM     29  H   UNL A   1      30.771  22.507  23.311  1.00  0.00     0.065 H 
ATOM     30  C   UNL A   1      33.329  24.152  21.899  1.00  0.00    -0.061 A 
ATOM     31  H   UNL A   1      33.588  26.247  22.009  1.00  0.00     0.063 H 
ATOM     32  H   UNL A   1      32.690  22.154  21.851  1.00  0.00     0.062 H 
ATOM     33  H   UNL A   1      34.150  23.991  21.294  1.00  0.00     0.062 H 
BRANCH  21  34
ATOM     34  S   UNL A   1      31.390  23.773  26.245  1.00  0.00     0.268 S 
ATOM     35  O   UNL A   1      30.325  22.786  26.338  1.00  0.00    -0.201 OA
ATOM     36  O   UNL A   1      31.675  24.679  27.351  1.00  0.00    -0.201 OA
BRANCH  34  37
ATOM     37  C   UNL A   1      32.872  22.834  26.198  1.00  0.00     0.088 A 
ATOM     38  C   UNL A   1      35.509  21.894  25.847  1.00  0.00    -0.051 A 
ATOM     39  C   UNL A   1      35.277  23.259  25.923  1.00  0.00    -0.058 A 
ATOM     40  C   UNL A   1      34.416  21.006  25.969  1.00  0.00    -0.058 A 
ATOM     41  C   UNL A   1      33.985  23.711  26.109  1.00  0.00    -0.041 A 
ATOM     42  H   UNL A   1      36.058  23.928  25.842  1.00  0.00     0.063 H 
ATOM     43  C   UNL A   1      33.084  21.468  26.141  1.00  0.00    -0.041 A 
ATOM     44  H   UNL A   1      34.591  19.990  25.932  1.00  0.00     0.063 H 
ATOM     45  H   UNL A   1      33.821  24.727  26.185  1.00  0.00     0.064 H 
ATOM     46  H   UNL A   1      32.297  20.804  26.220  1.00  0.00     0.064 H 
BRANCH  38  47
ATOM     47  C   UNL A   1      36.921  21.453  25.575  1.00  0.00    -0.040 C 
ATOM     48  H   UNL A   1      36.951  20.898  24.661  1.00  0.00     0.028 H 
ATOM     49  H   UNL A   1      37.262  20.834  26.380  1.00  0.00     0.028 H 
ATOM     50  H   UNL A   1      37.553  22.311  25.493  1.00  0.00     0.028 H 
ENDBRANCH  38  47
ENDBRANCH  34  37
ENDBRANCH  21  34
ENDBRANCH  18  20
ENDBRANCH  15  18
ENDBRANCH  11  14
ENDBRANCH   8  11
ENDBRANCH   5   7
BRANCH   5  51
ATOM     51  C   UNL A   1      36.309  31.496  28.193  1.00  0.00     0.004 C 
ATOM     52  H   UNL A   1      36.377  32.067  29.096  1.00  0.00     0.034 H 
ATOM     53  H   UNL A   1      36.804  31.858  27.316  1.00  0.00     0.034 H 
BRANCH  51  54
ATOM     54  C   UNL A   1      37.030  30.195  28.457  1.00  0.00    -0.020 A 
ATOM     55  C   UNL A   1      37.632  29.316  27.579  1.00  0.00     0.005 A 
ATOM     56  C   UNL A   1      37.240  29.616  29.766  1.00  0.00     0.003 A 
ATOM     57  N   UNL A   1      38.375  28.411  28.286  1.00  0.00    -0.361 N 
ATOM     58  H   UNL A   1      37.535  29.337  26.551  1.00  0.00     0.082 H 
ATOM     59  C   UNL A   1      38.145  28.563  29.625  1.00  0.00     0.046 A 
ATOM     60  C   UNL A   1      36.764  29.901  31.064  1.00  0.00    -0.053 A 
ATOM     61  H   UNL A   1      38.986  27.749  27.889  1.00  0.00     0.166 HD
ATOM     62  C   UNL A   1      38.659  27.834  30.702  1.00  0.00    -0.038 A 
ATOM     63  C   UNL A   1      37.215  29.135  32.150  1.00  0.00    -0.062 A 
ATOM     64  H   UNL A   1      36.090  30.668  31.215  1.00  0.00     0.063 H 
ATOM     65  C   UNL A   1      38.167  28.134  31.973  1.00  0.00    -0.060 A 
ATOM     66  H   UNL A   1      39.374  27.104  30.564  1.00  0.00     0.064 H 
ATOM     67  H   UNL A   1      36.837  29.315  33.092  1.00  0.00     0.062 H 
ATOM     68  H   UNL A   1      38.513  27.607  32.790  1.00  0.00     0.062 H 
ENDBRANCH  51  54
ENDBRANCH   5  51
ENDBRANCH   1   5
BRANCH   3  69
ATOM     69  C   UNL A   1      35.108  33.076  30.586  1.00  0.00     0.017 C 
ATOM     70  H   UNL A   1      35.610  34.019  30.660  1.00  0.00     0.049 H 
ATOM     71  H   UNL A   1      35.781  32.301  30.288  1.00  0.00     0.049 H 
BRANCH  69  72
ATOM     72  C   UNL A   1      34.545  32.709  31.959  1.00  0.00    -0.036 C 
ATOM     73  H   UNL A   1      34.461  31.644  32.010  1.00  0.00     0.028 H 
ATOM     74  H   UNL A   1      33.606  33.214  32.042  1.00  0.00     0.028 H 
BRANCH  72  75
ATOM     75  C   UNL A   1      35.391  33.178  33.154  1.00  0.00    -0.052 C 
ATOM     76  H   UNL A   1      34.962  32.762  34.041  1.00  0.00     0.027 H 
ATOM     77  H   UNL A   1      35.372  34.247  33.119  1.00  0.00     0.027 H 
BRANCH  75  78
ATOM     78  C   UNL A   1      36.875  32.788  33.121  1.00  0.00    -0.052 C 
ATOM     79  H   UNL A   1      37.451  33.687  33.070  1.00  0.00     0.027 H 
ATOM     80  H   UNL A   1      36.991  32.152  32.268  1.00  0.00     0.027 H 
BRANCH  78  81
ATOM     81  C   UNL A   1      37.370  31.978  34.318  1.00  0.00    -0.036 C 
ATOM     82  H   UNL A   1      37.121  30.950  34.153  1.00  0.00     0.028 H 
ATOM     83  H   UNL A   1      36.894  32.385  35.184  1.00  0.00     0.028 H 
BRANCH  81  84
ATOM     84  C   UNL A   1      38.872  32.073  34.557  1.00  0.00     0.018 C 
ATOM     85  H   UNL A   1      39.322  31.155  34.244  1.00  0.00     0.049 H 
ATOM     86  H   UNL A   1      39.010  32.261  35.602  1.00  0.00     0.049 H 
BRANCH  84  87
ATOM     87  N   UNL A   1      39.508  33.162  33.843  1.00  0.00    -0.352 N 
ATOM     88  C   UNL A   1      40.540  33.147  32.918  1.00  0.00     0.251 C 
ATOM     89  H   UNL A   1      39.151  34.056  34.049  1.00  0.00     0.163 HD
ATOM     90  O   UNL A   1      41.084  34.189  32.621  1.00  0.00    -0.269 OA
BRANCH  88  91
ATOM     91  C   UNL A   1      40.855  31.902  32.160  1.00  0.00     0.039 A 
ATOM     92  C   UNL A   1      42.048  31.246  32.504  1.00  0.00    -0.049 A 
ATOM     93  C   UNL A   1      40.155  31.506  31.026  1.00  0.00    -0.049 A 
ATOM     94  C   UNL A   1      42.657  30.390  31.588  1.00  0.00    -0.053 A 
ATOM     95  H   UNL A   1      42.473  31.396  33.432  1.00  0.00     0.063 H 
ATOM     96  C   UNL A   1      40.793  30.732  30.079  1.00  0.00    -0.053 A 
ATOM     97  H   UNL A   1      39.171  31.786  30.894  1.00  0.00     0.063 H 
ATOM     98  C   UNL A   1      42.073  30.237  30.335  1.00  0.00    -0.014 A 
ATOM     99  H   UNL A   1      43.521  29.882  31.834  1.00  0.00     0.063 H 
ATOM    100  H   UNL A   1      40.324  30.519  29.184  1.00  0.00     0.063 H 
BRANCH  98 101
ATOM    101  C   UNL A   1      42.763  29.674  29.188  1.00  0.00     0.031 A 
ATOM    102  C   UNL A   1      42.884  28.215  29.033  1.00  0.00     0.074 A 
ATOM    103  C   UNL A   1      43.171  30.511  28.208  1.00  0.00     0.049 A 
ATOM    104  N   UNL A   1      43.784  27.645  28.306  1.00  0.00    -0.248 NA
ATOM    105  C   UNL A   1      42.009  27.267  29.717  1.00  0.00    -0.034 C 
ATOM    106  C   UNL A   1      43.596  30.158  26.857  1.00  0.00    -0.036 A 
ATOM    107  N   UNL A   1      43.448  31.884  28.315  1.00  0.00    -0.354 N 
ATOM    108  C   UNL A   1      43.462  26.313  28.215  1.00  0.00     0.074 A 
ATOM    109  C   UNL A   1      42.381  26.113  29.152  1.00  0.00    -0.034 C 
ATOM    110  H   UNL A   1      41.295  27.442  30.441  1.00  0.00     0.065 H 
ATOM    111  C   UNL A   1      44.329  31.167  26.357  1.00  0.00    -0.036 A 
ATOM    112  H   UNL A   1      43.371  29.279  26.367  1.00  0.00     0.065 H 
ATOM    113  C   UNL A   1      44.521  32.128  27.429  1.00  0.00     0.049 A 
ATOM    114  H   UNL A   1      42.989  32.540  28.888  1.00  0.00     0.167 HD
ATOM    115  C   UNL A   1      44.060  25.546  27.262  1.00  0.00     0.037 A 
ATOM    116  H   UNL A   1      41.951  25.197  29.360  1.00  0.00     0.065 H 
ATOM    117  H   UNL A   1      44.686  31.245  25.392  1.00  0.00     0.065 H 
ATOM    118  C   UNL A   1      45.738  32.539  27.893  1.00  0.00     0.037 A 
ATOM    119  C   UNL A   1      45.026  26.314  26.489  1.00  0.00     0.049 A 
ATOM    120  C   UNL A   1      46.864  31.585  27.569  1.00  0.00     0.074 A 
ATOM    121  C   UNL A   1      44.922  27.000  25.291  1.00  0.00    -0.036 A 
ATOM    122  N   UNL A   1      46.189  26.764  27.103  1.00  0.00    -0.354 N 
ATOM    123  N   UNL A   1      46.685  30.326  27.281  1.00  0.00    -0.248 NA
ATOM    124  C   UNL A   1      48.274  31.966  27.566  1.00  0.00    -0.034 C 
ATOM    125  C   UNL A   1      46.002  27.913  25.212  1.00  0.00    -0.036 A 
ATOM    126  H   UNL A   1      44.188  26.868  24.578  1.00  0.00     0.065 H 
ATOM    127  C   UNL A   1      46.775  27.762  26.350  1.00  0.00     0.049 A 
ATOM    128  H   UNL A   1      46.544  26.419  27.954  1.00  0.00     0.167 HD
ATOM    129  C   UNL A   1      47.900  29.729  27.072  1.00  0.00     0.074 A 
ATOM    130  C   UNL A   1      48.863  30.799  27.248  1.00  0.00    -0.034 C 
ATOM    131  H   UNL A   1      48.703  32.885  27.756  1.00  0.00     0.065 H 
ATOM    132  H   UNL A   1      46.180  28.575  24.441  1.00  0.00     0.065 H 
ATOM    133  C   UNL A   1      48.007  28.401  26.778  1.00  0.00     0.037 A 
ATOM    134  H   UNL A   1      49.882  30.679  27.143  1.00  0.00     0.065 H 
BRANCH 115 135
ATOM    135  C   UNL A   1      43.546  24.188  26.872  1.00  0.00     0.064 A 
ATOM    136  C   UNL A   1      44.430  23.108  26.663  1.00  0.00     0.173 A 
ATOM    137  C   UNL A   1      42.187  23.907  26.650  1.00  0.00     0.173 A 
ATOM    138  F   UNL A   1      45.745  23.225  26.889  1.00  0.00    -0.203 F 
ATOM    139  C   UNL A   1      43.994  21.871  26.187  1.00  0.00     0.198 A 
ATOM    140  C   UNL A   1      41.757  22.685  26.126  1.00  0.00     0.198 A 
ATOM    141  F   UNL A   1      41.241  24.808  26.954  1.00  0.00    -0.203 F 
ATOM    142  F   UNL A   1      44.879  20.882  25.999  1.00  0.00    -0.200 F 
ATOM    143  C   UNL A   1      42.662  21.668  25.888  1.00  0.00     0.200 A 
ATOM    144  F   UNL A   1      40.460  22.501  25.842  1.00  0.00    -0.200 F 
ATOM    145  F   UNL A   1      42.252  20.496  25.385  1.00  0.00    -0.200 F 
ENDBRANCH 115 135
BRANCH 118 146
ATOM    146  C   UNL A   1      45.638  33.359  29.130  1.00  0.00     0.064 A 
ATOM    147  C   UNL A   1      45.345  34.731  28.990  1.00  0.00     0.173 A 
ATOM    148  C   UNL A   1      45.417  32.774  30.382  1.00  0.00     0.173 A 
ATOM    149  F   UNL A   1      45.536  35.339  27.809  1.00  0.00    -0.203 F 
ATOM    150  C   UNL A   1      44.735  35.449  30.016  1.00  0.00     0.198 A 
ATOM    151  C   UNL A   1      44.818  33.503  31.414  1.00  0.00     0.198 A 
ATOM    152  F   UNL A   1      45.664  31.471  30.574  1.00  0.00    -0.203 F 
ATOM    153  F   UNL A   1      44.353  36.717  29.807  1.00  0.00    -0.200 F 
ATOM    154  C   UNL A   1      44.444  34.825  31.217  1.00  0.00     0.200 A 
ATOM    155  F   UNL A   1      44.517  32.894  32.569  1.00  0.00    -0.200 F 
ATOM    156  F   UNL A   1      43.770  35.484  32.169  1.00  0.00    -0.200 F 
ENDBRANCH 118 146
BRANCH 133 157
ATOM    157  C   UNL A   1      49.280  27.591  26.768  1.00  0.00     0.064 A 
ATOM    158  C   UNL A   1      49.810  26.954  27.900  1.00  0.00     0.173 A 
ATOM    159  C   UNL A   1      49.930  27.298  25.542  1.00  0.00     0.173 A 
ATOM    160  F   UNL A   1      49.219  27.057  29.097  1.00  0.00    -0.203 F 
ATOM    161  C   UNL A   1      50.939  26.132  27.825  1.00  0.00     0.198 A 
ATOM    162  C   UNL A   1      51.019  26.432  25.463  1.00  0.00     0.198 A 
ATOM    163  F   UNL A   1      49.510  27.823  24.382  1.00  0.00    -0.203 F 
ATOM    164  F   UNL A   1      51.430  25.578  28.942  1.00  0.00    -0.200 F 
ATOM    165  C   UNL A   1      51.533  25.861  26.607  1.00  0.00     0.200 A 
ATOM    166  F   UNL A   1      51.549  26.137  24.267  1.00  0.00    -0.200 F 
ATOM    167  F   UNL A   1      52.584  25.034  26.534  1.00  0.00    -0.200 F 
ENDBRANCH 133 157
ENDBRANCH  98 101
ENDBRANCH  88  91
ENDBRANCH  84  87
ENDBRANCH  81  84
ENDBRANCH  78  81
ENDBRANCH  75  78
ENDBRANCH  72  75
ENDBRANCH  69  72
ENDBRANCH   3  69
TORSDOF 23
ENDMDL
MODEL 4
REMARK VINA RESULT:     -11.6      6.370     11.951
REMARK SMILES Cc1ccc(S(=O)(=O)n2cc(C(=O)C(=O)NCC(=O)N[C@H](Cc3c[nH]c4ccccc34)C(=O)NCCCCCCNC(=O)c3ccc(-c4c5nc(c(-c6c(F)c(F)c(F)c(F)c6F)c6ccc([nH]6)c(-c6c(F)c(F)c(F)c(F)c6F)c6nc(c(-c7c(F)c(F)c(F)c(F)c7F)c7ccc4[nH]7)C=C6)C=C5)cc3)c3ccccc32)cc1
REMARK SMILES IDX 32 1 33 2 34 3 21 5 20 7 18 8 19 9 17 11 16 14 14 15 15 16
REMARK SMILES IDX 12 18 13 19 11 20 9 21 10 22 112 23 107 25 111 26 108 27
REMARK SMILES IDX 110 28 109 30 6 34 7 35 8 36 5 37 2 38 3 39 114 40 4 41
REMARK SMILES IDX 113 43 1 47 22 51 23 54 24 55 31 56 25 57 26 59 30 60 27 62
REMARK SMILES IDX 29 63 28 65 35 69 36 72 37 75 38 78 39 81 40 84 41 87 42 88
REMARK SMILES IDX 43 90 44 91 45 92 106 93 46 94 105 96 47 98 48 101 49 102
REMARK SMILES IDX 99 103 50 104 104 105 98 106 100 107 51 108 103 109 97 111
REMARK SMILES IDX 96 113 52 115 84 118 64 119 83 120 65 121 68 122 82 123
REMARK SMILES IDX 101 124 66 125 67 127 81 129 102 130 69 133 53 135 54 136
REMARK SMILES IDX 62 137 55 138 56 139 60 140 63 141 57 142 58 143 61 144
REMARK SMILES IDX 59 145 85 146 86 147 94 148 87 149 88 150 92 151 95 152
REMARK SMILES IDX 89 153 90 154 93 155 91 156 70 157 71 158 79 159 72 160
REMARK SMILES IDX 73 161 77 162 80 163 74 164 75 165 78 166 76 167
REMARK H PARENT 34 4 21 6 20 10 17 12 17 13 16 17 10 24 111 29 108 31 110 32
REMARK H PARENT 109 33 3 42 114 44 4 45 113 46 1 48 1 49 1 50 22 52 22 53
REMARK H PARENT 24 58 25 61 30 64 27 66 29 67 28 68 35 70 35 71 36 73 36 74
REMARK H PARENT 37 76 37 77 38 79 38 80 39 82 39 83 40 85 40 86 41 89 45 95
REMARK H PARENT 106 97 46 99 105 100 104 110 98 112 100 114 103 116 97 117
REMARK H PARENT 65 126 68 128 101 131 66 132 102 134
REMARK Flexibility Score: inf
ROOT
ATOM      1  C   UNL A   1      42.852  22.695  27.773  1.00  0.00     0.242 C 
ATOM      2  O   UNL A   1      42.688  22.853  28.989  1.00  0.00    -0.273 OA
ATOM      3  N   UNL A   1      44.107  22.346  27.393  1.00  0.00    -0.354 N 
ATOM      4  H   UNL A   1      44.683  22.065  28.140  1.00  0.00     0.163 HD
ENDROOT
BRANCH   1   5
ATOM      5  C   UNL A   1      41.680  22.920  26.806  1.00  0.00     0.112 C 
ATOM      6  H   UNL A   1      40.926  23.435  27.365  1.00  0.00     0.064 H 
BRANCH   5   7
ATOM      7  N   UNL A   1      41.233  21.595  26.346  1.00  0.00    -0.342 N 
ATOM      8  C   UNL A   1      39.967  21.148  26.102  1.00  0.00     0.240 C 
ATOM      9  O   UNL A   1      39.845  19.942  25.867  1.00  0.00    -0.273 OA
ATOM     10  H   UNL A   1      41.950  20.938  26.192  1.00  0.00     0.164 HD
BRANCH   8  11
ATOM     11  C   UNL A   1      38.776  22.114  25.923  1.00  0.00     0.097 C 
ATOM     12  H   UNL A   1      38.905  22.911  26.625  1.00  0.00     0.059 H 
ATOM     13  H   UNL A   1      38.811  22.390  24.889  1.00  0.00     0.059 H 
BRANCH  11  14
ATOM     14  N   UNL A   1      37.425  21.590  26.110  1.00  0.00    -0.340 N 
ATOM     15  C   UNL A   1      36.214  22.263  26.036  1.00  0.00     0.292 C 
ATOM     16  O   UNL A   1      35.138  21.685  26.128  1.00  0.00    -0.265 OA
ATOM     17  H   UNL A   1      37.366  20.629  26.316  1.00  0.00     0.164 HD
BRANCH  15  18
ATOM     18  C   UNL A   1      36.223  23.769  25.799  1.00  0.00     0.252 C 
ATOM     19  O   UNL A   1      37.214  24.371  26.211  1.00  0.00    -0.283 OA
BRANCH  18  20
ATOM     20  C   UNL A   1      35.038  24.475  25.290  1.00  0.00     0.054 A 
ATOM     21  N   UNL A   1      33.228  25.794  24.959  1.00  0.00    -0.240 N 
ATOM     22  C   UNL A   1      34.224  25.453  25.876  1.00  0.00     0.033 A 
ATOM     23  C   UNL A   1      33.573  25.206  23.728  1.00  0.00     0.065 A 
ATOM     24  H   UNL A   1      34.340  25.852  26.821  1.00  0.00     0.084 H 
ATOM     25  C   UNL A   1      34.436  24.158  24.037  1.00  0.00     0.012 A 
ATOM     26  C   UNL A   1      32.971  25.310  22.458  1.00  0.00    -0.037 A 
ATOM     27  C   UNL A   1      34.559  23.090  23.122  1.00  0.00    -0.052 A 
ATOM     28  C   UNL A   1      33.040  24.206  21.610  1.00  0.00    -0.060 A 
ATOM     29  H   UNL A   1      32.494  26.176  22.165  1.00  0.00     0.065 H 
ATOM     30  C   UNL A   1      33.793  23.092  21.954  1.00  0.00    -0.061 A 
ATOM     31  H   UNL A   1      35.210  22.314  23.316  1.00  0.00     0.063 H 
ATOM     32  H   UNL A   1      32.526  24.217  20.716  1.00  0.00     0.062 H 
ATOM     33  H   UNL A   1      33.787  22.259  21.344  1.00  0.00     0.062 H 
BRANCH  21  34
ATOM     34  S   UNL A   1      31.502  25.703  25.228  1.00  0.00     0.268 S 
ATOM     35  O   UNL A   1      31.370  26.124  26.615  1.00  0.00    -0.201 OA
ATOM     36  O   UNL A   1      31.203  24.334  24.826  1.00  0.00    -0.201 OA
BRANCH  34  37
ATOM     37  C   UNL A   1      30.249  26.581  24.369  1.00  0.00     0.088 A 
ATOM     38  C   UNL A   1      28.690  28.499  23.007  1.00  0.00    -0.051 A 
ATOM     39  C   UNL A   1      30.070  28.632  23.027  1.00  0.00    -0.058 A 
ATOM     40  C   UNL A   1      28.101  27.389  23.655  1.00  0.00    -0.058 A 
ATOM     41  C   UNL A   1      30.828  27.682  23.684  1.00  0.00    -0.041 A 
ATOM     42  H   UNL A   1      30.525  29.430  22.558  1.00  0.00     0.063 H 
ATOM     43  C   UNL A   1      28.876  26.420  24.347  1.00  0.00    -0.041 A 
ATOM     44  H   UNL A   1      27.075  27.279  23.624  1.00  0.00     0.063 H 
ATOM     45  H   UNL A   1      31.856  27.776  23.678  1.00  0.00     0.064 H 
ATOM     46  H   UNL A   1      28.426  25.620  24.821  1.00  0.00     0.064 H 
BRANCH  38  47
ATOM     47  C   UNL A   1      27.905  29.594  22.340  1.00  0.00    -0.040 C 
ATOM     48  H   UNL A   1      26.912  29.613  22.738  1.00  0.00     0.028 H 
ATOM     49  H   UNL A   1      27.864  29.411  21.286  1.00  0.00     0.028 H 
ATOM     50  H   UNL A   1      28.380  30.534  22.521  1.00  0.00     0.028 H 
ENDBRANCH  38  47
ENDBRANCH  34  37
ENDBRANCH  21  34
ENDBRANCH  18  20
ENDBRANCH  15  18
ENDBRANCH  11  14
ENDBRANCH   8  11
ENDBRANCH   5   7
BRANCH   5  51
ATOM     51  C   UNL A   1      41.883  23.913  25.637  1.00  0.00     0.004 C 
ATOM     52  H   UNL A   1      41.148  23.666  24.900  1.00  0.00     0.034 H 
ATOM     53  H   UNL A   1      42.918  23.776  25.399  1.00  0.00     0.034 H 
BRANCH  51  54
ATOM     54  C   UNL A   1      41.795  25.408  25.841  1.00  0.00    -0.020 A 
ATOM     55  C   UNL A   1      42.407  26.438  25.155  1.00  0.00     0.005 A 
ATOM     56  C   UNL A   1      40.988  26.059  26.850  1.00  0.00     0.003 A 
ATOM     57  N   UNL A   1      41.836  27.625  25.524  1.00  0.00    -0.361 N 
ATOM     58  H   UNL A   1      43.174  26.330  24.473  1.00  0.00     0.082 H 
ATOM     59  C   UNL A   1      40.975  27.426  26.567  1.00  0.00     0.046 A 
ATOM     60  C   UNL A   1      40.248  25.614  27.966  1.00  0.00    -0.053 A 
ATOM     61  H   UNL A   1      42.019  28.495  25.101  1.00  0.00     0.166 HD
ATOM     62  C   UNL A   1      40.211  28.356  27.278  1.00  0.00    -0.038 A 
ATOM     63  C   UNL A   1      39.530  26.543  28.735  1.00  0.00    -0.062 A 
ATOM     64  H   UNL A   1      40.233  24.612  28.215  1.00  0.00     0.063 H 
ATOM     65  C   UNL A   1      39.493  27.889  28.379  1.00  0.00    -0.060 A 
ATOM     66  H   UNL A   1      40.178  29.348  26.999  1.00  0.00     0.064 H 
ATOM     67  H   UNL A   1      39.022  26.225  29.575  1.00  0.00     0.062 H 
ATOM     68  H   UNL A   1      38.929  28.550  28.937  1.00  0.00     0.062 H 
ENDBRANCH  51  54
ENDBRANCH   5  51
ENDBRANCH   1   5
BRANCH   3  69
ATOM     69  C   UNL A   1      44.768  22.304  26.105  1.00  0.00     0.017 C 
ATOM     70  H   UNL A   1      44.062  22.566  25.344  1.00  0.00     0.049 H 
ATOM     71  H   UNL A   1      45.145  21.313  25.959  1.00  0.00     0.049 H 
BRANCH  69  72
ATOM     72  C   UNL A   1      45.949  23.272  26.032  1.00  0.00    -0.036 C 
ATOM     73  H   UNL A   1      46.508  23.049  25.148  1.00  0.00     0.028 H 
ATOM     74  H   UNL A   1      46.507  23.131  26.934  1.00  0.00     0.028 H 
BRANCH  72  75
ATOM     75  C   UNL A   1      45.567  24.760  25.993  1.00  0.00    -0.052 C 
ATOM     76  H   UNL A   1      45.936  25.216  26.888  1.00  0.00     0.027 H 
ATOM     77  H   UNL A   1      44.502  24.783  25.898  1.00  0.00     0.027 H 
BRANCH  75  78
ATOM     78  C   UNL A   1      46.108  25.561  24.800  1.00  0.00    -0.052 C 
ATOM     79  H   UNL A   1      45.536  25.292  23.937  1.00  0.00     0.027 H 
ATOM     80  H   UNL A   1      47.145  25.310  24.726  1.00  0.00     0.027 H 
BRANCH  78  81
ATOM     81  C   UNL A   1      46.053  27.081  24.947  1.00  0.00    -0.036 C 
ATOM     82  H   UNL A   1      45.492  27.312  25.829  1.00  0.00     0.028 H 
ATOM     83  H   UNL A   1      45.600  27.460  24.056  1.00  0.00     0.028 H 
BRANCH  81  84
ATOM     84  C   UNL A   1      47.419  27.745  25.062  1.00  0.00     0.018 C 
ATOM     85  H   UNL A   1      47.414  28.379  25.923  1.00  0.00     0.049 H 
ATOM     86  H   UNL A   1      47.578  28.290  24.154  1.00  0.00     0.049 H 
BRANCH  84  87
ATOM     87  N   UNL A   1      48.516  26.807  25.190  1.00  0.00    -0.352 N 
ATOM     88  C   UNL A   1      49.235  26.412  26.307  1.00  0.00     0.251 C 
ATOM     89  H   UNL A   1      48.796  26.381  24.347  1.00  0.00     0.163 HD
ATOM     90  O   UNL A   1      50.269  25.798  26.159  1.00  0.00    -0.269 OA
BRANCH  88  91
ATOM     91  C   UNL A   1      48.657  26.577  27.671  1.00  0.00     0.039 A 
ATOM     92  C   UNL A   1      49.213  27.592  28.468  1.00  0.00    -0.049 A 
ATOM     93  C   UNL A   1      47.779  25.660  28.240  1.00  0.00    -0.049 A 
ATOM     94  C   UNL A   1      49.093  27.528  29.855  1.00  0.00    -0.053 A 
ATOM     95  H   UNL A   1      49.707  28.383  28.027  1.00  0.00     0.063 H 
ATOM     96  C   UNL A   1      47.731  25.539  29.613  1.00  0.00    -0.053 A 
ATOM     97  H   UNL A   1      47.172  25.079  27.643  1.00  0.00     0.063 H 
ATOM     98  C   UNL A   1      48.447  26.431  30.414  1.00  0.00    -0.014 A 
ATOM     99  H   UNL A   1      49.475  28.278  30.452  1.00  0.00     0.063 H 
ATOM    100  H   UNL A   1      47.165  24.793  30.046  1.00  0.00     0.063 H 
BRANCH  98 101
ATOM    101  C   UNL A   1      48.555  26.059  31.813  1.00  0.00     0.031 A 
ATOM    102  C   UNL A   1      49.574  25.090  32.251  1.00  0.00     0.074 A 
ATOM    103  C   UNL A   1      47.792  26.717  32.715  1.00  0.00     0.049 A 
ATOM    104  N   UNL A   1      49.495  24.414  33.346  1.00  0.00    -0.248 NA
ATOM    105  C   UNL A   1      50.766  24.781  31.466  1.00  0.00    -0.034 C 
ATOM    106  C   UNL A   1      47.945  26.733  34.166  1.00  0.00    -0.036 A 
ATOM    107  N   UNL A   1      46.580  27.387  32.483  1.00  0.00    -0.354 N 
ATOM    108  C   UNL A   1      50.705  23.794  33.540  1.00  0.00     0.074 A 
ATOM    109  C   UNL A   1      51.446  24.007  32.318  1.00  0.00    -0.034 C 
ATOM    110  H   UNL A   1      51.015  25.080  30.511  1.00  0.00     0.065 H 
ATOM    111  C   UNL A   1      46.779  27.105  34.720  1.00  0.00    -0.036 A 
ATOM    112  H   UNL A   1      48.808  26.499  34.682  1.00  0.00     0.065 H 
ATOM    113  C   UNL A   1      45.804  27.188  33.648  1.00  0.00     0.049 A 
ATOM    114  H   UNL A   1      46.324  27.892  31.677  1.00  0.00     0.167 HD
ATOM    115  C   UNL A   1      51.000  23.274  34.763  1.00  0.00     0.037 A 
ATOM    116  H   UNL A   1      52.381  23.611  32.128  1.00  0.00     0.065 H 
ATOM    117  H   UNL A   1      46.609  27.296  35.719  1.00  0.00     0.065 H 
ATOM    118  C   UNL A   1      44.637  26.481  33.604  1.00  0.00     0.037 A 
ATOM    119  C   UNL A   1      49.892  23.442  35.694  1.00  0.00     0.049 A 
ATOM    120  C   UNL A   1      44.640  25.251  34.480  1.00  0.00     0.074 A 
ATOM    121  C   UNL A   1      49.607  24.421  36.631  1.00  0.00    -0.036 A 
ATOM    122  N   UNL A   1      48.713  22.736  35.486  1.00  0.00    -0.354 N 
ATOM    123  N   UNL A   1      45.726  24.661  34.894  1.00  0.00    -0.248 NA
ATOM    124  C   UNL A   1      43.428  24.578  34.939  1.00  0.00    -0.034 C 
ATOM    125  C   UNL A   1      48.229  24.340  36.945  1.00  0.00    -0.036 A 
ATOM    126  H   UNL A   1      50.281  25.091  37.033  1.00  0.00     0.065 H 
ATOM    127  C   UNL A   1      47.684  23.295  36.219  1.00  0.00     0.049 A 
ATOM    128  H   UNL A   1      48.624  21.951  34.901  1.00  0.00     0.167 HD
ATOM    129  C   UNL A   1      45.392  23.559  35.638  1.00  0.00     0.074 A 
ATOM    130  C   UNL A   1      43.942  23.558  35.649  1.00  0.00    -0.034 C 
ATOM    131  H   UNL A   1      42.440  24.822  34.766  1.00  0.00     0.065 H 
ATOM    132  H   UNL A   1      47.719  24.952  37.601  1.00  0.00     0.065 H 
ATOM    133  C   UNL A   1      46.342  22.739  36.174  1.00  0.00     0.037 A 
ATOM    134  H   UNL A   1      43.371  22.855  36.142  1.00  0.00     0.065 H 
BRANCH 115 135
ATOM    135  C   UNL A   1      52.393  22.877  35.163  1.00  0.00     0.064 A 
ATOM    136  C   UNL A   1      53.388  23.850  35.397  1.00  0.00     0.173 A 
ATOM    137  C   UNL A   1      52.814  21.542  35.289  1.00  0.00     0.173 A 
ATOM    138  F   UNL A   1      53.109  25.160  35.361  1.00  0.00    -0.203 F 
ATOM    139  C   UNL A   1      54.717  23.510  35.653  1.00  0.00     0.198 A 
ATOM    140  C   UNL A   1      54.154  21.201  35.496  1.00  0.00     0.198 A 
ATOM    141  F   UNL A   1      51.930  20.535  35.232  1.00  0.00    -0.203 F 
ATOM    142  F   UNL A   1      55.622  24.476  35.862  1.00  0.00    -0.200 F 
ATOM    143  C   UNL A   1      55.107  22.187  35.672  1.00  0.00     0.200 A 
ATOM    144  F   UNL A   1      54.518  19.912  35.513  1.00  0.00    -0.200 F 
ATOM    145  F   UNL A   1      56.392  21.862  35.869  1.00  0.00    -0.200 F 
ENDBRANCH 115 135
BRANCH 118 146
ATOM    146  C   UNL A   1      43.937  26.600  32.296  1.00  0.00     0.064 A 
ATOM    147  C   UNL A   1      43.229  27.790  32.032  1.00  0.00     0.173 A 
ATOM    148  C   UNL A   1      44.284  25.797  31.203  1.00  0.00     0.173 A 
ATOM    149  F   UNL A   1      42.876  28.597  33.045  1.00  0.00    -0.203 F 
ATOM    150  C   UNL A   1      42.997  28.220  30.728  1.00  0.00     0.198 A 
ATOM    151  C   UNL A   1      44.035  26.226  29.896  1.00  0.00     0.198 A 
ATOM    152  F   UNL A   1      44.969  24.660  31.388  1.00  0.00    -0.203 F 
ATOM    153  F   UNL A   1      42.434  29.418  30.511  1.00  0.00    -0.200 F 
ATOM    154  C   UNL A   1      43.428  27.451  29.661  1.00  0.00     0.200 A 
ATOM    155  F   UNL A   1      44.470  25.493  28.862  1.00  0.00    -0.200 F 
ATOM    156  F   UNL A   1      43.294  27.908  28.408  1.00  0.00    -0.200 F 
ENDBRANCH 118 146
BRANCH 133 157
ATOM    157  C   UNL A   1      46.102  21.385  36.795  1.00  0.00     0.064 A 
ATOM    158  C   UNL A   1      45.768  20.237  36.060  1.00  0.00     0.173 A 
ATOM    159  C   UNL A   1      46.367  21.173  38.171  1.00  0.00     0.173 A 
ATOM    160  F   UNL A   1      45.607  20.284  34.731  1.00  0.00    -0.203 F 
ATOM    161  C   UNL A   1      45.651  18.982  36.664  1.00  0.00     0.198 A 
ATOM    162  C   UNL A   1      46.307  19.910  38.757  1.00  0.00     0.198 A 
ATOM    163  F   UNL A   1      46.720  22.181  38.982  1.00  0.00    -0.203 F 
ATOM    164  F   UNL A   1      45.291  17.923  35.925  1.00  0.00    -0.200 F 
ATOM    165  C   UNL A   1      45.933  18.816  38.006  1.00  0.00     0.200 A 
ATOM    166  F   UNL A   1      46.637  19.759  40.048  1.00  0.00    -0.200 F 
ATOM    167  F   UNL A   1      45.868  17.603  38.569  1.00  0.00    -0.200 F 
ENDBRANCH 133 157
ENDBRANCH  98 101
ENDBRANCH  88  91
ENDBRANCH  84  87
ENDBRANCH  81  84
ENDBRANCH  78  81
ENDBRANCH  75  78
ENDBRANCH  72  75
ENDBRANCH  69  72
ENDBRANCH   3  69
TORSDOF 23
ENDMDL
MODEL 5
REMARK VINA RESULT:     -11.5      3.365      9.870
REMARK SMILES Cc1ccc(S(=O)(=O)n2cc(C(=O)C(=O)NCC(=O)N[C@H](Cc3c[nH]c4ccccc34)C(=O)NCCCCCCNC(=O)c3ccc(-c4c5nc(c(-c6c(F)c(F)c(F)c(F)c6F)c6ccc([nH]6)c(-c6c(F)c(F)c(F)c(F)c6F)c6nc(c(-c7c(F)c(F)c(F)c(F)c7F)c7ccc4[nH]7)C=C6)C=C5)cc3)c3ccccc32)cc1
REMARK SMILES IDX 32 1 33 2 34 3 21 5 20 7 18 8 19 9 17 11 16 14 14 15 15 16
REMARK SMILES IDX 12 18 13 19 11 20 9 21 10 22 112 23 107 25 111 26 108 27
REMARK SMILES IDX 110 28 109 30 6 34 7 35 8 36 5 37 2 38 3 39 114 40 4 41
REMARK SMILES IDX 113 43 1 47 22 51 23 54 24 55 31 56 25 57 26 59 30 60 27 62
REMARK SMILES IDX 29 63 28 65 35 69 36 72 37 75 38 78 39 81 40 84 41 87 42 88
REMARK SMILES IDX 43 90 44 91 45 92 106 93 46 94 105 96 47 98 48 101 49 102
REMARK SMILES IDX 99 103 50 104 104 105 98 106 100 107 51 108 103 109 97 111
REMARK SMILES IDX 96 113 52 115 84 118 64 119 83 120 65 121 68 122 82 123
REMARK SMILES IDX 101 124 66 125 67 127 81 129 102 130 69 133 53 135 54 136
REMARK SMILES IDX 62 137 55 138 56 139 60 140 63 141 57 142 58 143 61 144
REMARK SMILES IDX 59 145 85 146 86 147 94 148 87 149 88 150 92 151 95 152
REMARK SMILES IDX 89 153 90 154 93 155 91 156 70 157 71 158 79 159 72 160
REMARK SMILES IDX 73 161 77 162 80 163 74 164 75 165 78 166 76 167
REMARK H PARENT 34 4 21 6 20 10 17 12 17 13 16 17 10 24 111 29 108 31 110 32
REMARK H PARENT 109 33 3 42 114 44 4 45 113 46 1 48 1 49 1 50 22 52 22 53
REMARK H PARENT 24 58 25 61 30 64 27 66 29 67 28 68 35 70 35 71 36 73 36 74
REMARK H PARENT 37 76 37 77 38 79 38 80 39 82 39 83 40 85 40 86 41 89 45 95
REMARK H PARENT 106 97 46 99 105 100 104 110 98 112 100 114 103 116 97 117
REMARK H PARENT 65 126 68 128 101 131 66 132 102 134
REMARK Flexibility Score: inf
ROOT
ATOM      1  C   UNL A   1      37.525  30.374  28.438  1.00  0.00     0.242 C 
ATOM      2  O   UNL A   1      38.119  29.679  27.604  1.00  0.00    -0.273 OA
ATOM      3  N   UNL A   1      38.048  31.608  28.650  1.00  0.00    -0.354 N 
ATOM      4  H   UNL A   1      38.711  31.878  27.974  1.00  0.00     0.163 HD
ENDROOT
BRANCH   1   5
ATOM      5  C   UNL A   1      36.299  29.808  29.171  1.00  0.00     0.112 C 
ATOM      6  H   UNL A   1      36.154  28.819  28.790  1.00  0.00     0.064 H 
BRANCH   5   7
ATOM      7  N   UNL A   1      35.165  30.698  28.874  1.00  0.00    -0.342 N 
ATOM      8  C   UNL A   1      34.356  30.730  27.776  1.00  0.00     0.240 C 
ATOM      9  O   UNL A   1      33.566  31.675  27.700  1.00  0.00    -0.273 OA
ATOM     10  H   UNL A   1      34.960  31.366  29.569  1.00  0.00     0.164 HD
BRANCH   8  11
ATOM     11  C   UNL A   1      34.279  29.551  26.781  1.00  0.00     0.097 C 
ATOM     12  H   UNL A   1      35.276  29.347  26.452  1.00  0.00     0.059 H 
ATOM     13  H   UNL A   1      33.799  28.769  27.333  1.00  0.00     0.059 H 
BRANCH  11  14
ATOM     14  N   UNL A   1      33.453  29.707  25.586  1.00  0.00    -0.340 N 
ATOM     15  C   UNL A   1      32.236  29.111  25.287  1.00  0.00     0.292 C 
ATOM     16  O   UNL A   1      31.599  29.396  24.280  1.00  0.00    -0.265 OA
ATOM     17  H   UNL A   1      33.808  30.318  24.900  1.00  0.00     0.164 HD
BRANCH  15  18
ATOM     18  C   UNL A   1      31.657  28.092  26.262  1.00  0.00     0.252 C 
ATOM     19  O   UNL A   1      31.504  28.484  27.419  1.00  0.00    -0.283 OA
BRANCH  18  20
ATOM     20  C   UNL A   1      31.482  26.682  25.888  1.00  0.00     0.054 A 
ATOM     21  N   UNL A   1      30.856  24.516  25.674  1.00  0.00    -0.240 N 
ATOM     22  C   UNL A   1      30.623  25.694  26.387  1.00  0.00     0.033 A 
ATOM     23  C   UNL A   1      31.680  24.844  24.581  1.00  0.00     0.065 A 
ATOM     24  H   UNL A   1      29.937  25.815  27.149  1.00  0.00     0.084 H 
ATOM     25  C   UNL A   1      32.315  26.033  24.929  1.00  0.00     0.012 A 
ATOM     26  C   UNL A   1      32.134  24.058  23.503  1.00  0.00    -0.037 A 
ATOM     27  C   UNL A   1      33.539  26.354  24.305  1.00  0.00    -0.052 A 
ATOM     28  C   UNL A   1      33.386  24.351  22.963  1.00  0.00    -0.060 A 
ATOM     29  H   UNL A   1      31.558  23.291  23.125  1.00  0.00     0.065 H 
ATOM     30  C   UNL A   1      34.099  25.463  23.386  1.00  0.00    -0.061 A 
ATOM     31  H   UNL A   1      34.018  27.241  24.527  1.00  0.00     0.063 H 
ATOM     32  H   UNL A   1      33.786  23.733  22.241  1.00  0.00     0.062 H 
ATOM     33  H   UNL A   1      35.049  25.634  23.020  1.00  0.00     0.062 H 
BRANCH  21  34
ATOM     34  S   UNL A   1      31.313  22.971  26.354  1.00  0.00     0.268 S 
ATOM     35  O   UNL A   1      30.162  22.134  26.055  1.00  0.00    -0.201 OA
ATOM     36  O   UNL A   1      31.645  23.329  27.728  1.00  0.00    -0.201 OA
BRANCH  34  37
ATOM     37  C   UNL A   1      32.706  21.995  25.923  1.00  0.00     0.088 A 
ATOM     38  C   UNL A   1      35.285  21.002  25.355  1.00  0.00    -0.051 A 
ATOM     39  C   UNL A   1      35.148  22.111  26.176  1.00  0.00    -0.058 A 
ATOM     40  C   UNL A   1      34.123  20.384  24.839  1.00  0.00    -0.058 A 
ATOM     41  C   UNL A   1      33.880  22.583  26.460  1.00  0.00    -0.041 A 
ATOM     42  H   UNL A   1      35.979  22.578  26.569  1.00  0.00     0.063 H 
ATOM     43  C   UNL A   1      32.820  20.878  25.115  1.00  0.00    -0.041 A 
ATOM     44  H   UNL A   1      34.225  19.547  24.244  1.00  0.00     0.063 H 
ATOM     45  H   UNL A   1      33.783  23.396  27.089  1.00  0.00     0.064 H 
ATOM     46  H   UNL A   1      31.983  20.417  24.722  1.00  0.00     0.064 H 
BRANCH  38  47
ATOM     47  C   UNL A   1      36.685  20.569  25.018  1.00  0.00    -0.040 C 
ATOM     48  H   UNL A   1      36.733  19.500  25.002  1.00  0.00     0.028 H 
ATOM     49  H   UNL A   1      37.362  20.945  25.757  1.00  0.00     0.028 H 
ATOM     50  H   UNL A   1      36.956  20.953  24.058  1.00  0.00     0.028 H 
ENDBRANCH  38  47
ENDBRANCH  34  37
ENDBRANCH  21  34
ENDBRANCH  18  20
ENDBRANCH  15  18
ENDBRANCH  11  14
ENDBRANCH   8  11
ENDBRANCH   5   7
BRANCH   5  51
ATOM     51  C   UNL A   1      36.433  29.506  30.683  1.00  0.00     0.004 C 
ATOM     52  H   UNL A   1      35.785  28.678  30.883  1.00  0.00     0.034 H 
ATOM     53  H   UNL A   1      36.208  30.455  31.125  1.00  0.00     0.034 H 
BRANCH  51  54
ATOM     54  C   UNL A   1      37.765  29.166  31.310  1.00  0.00    -0.020 A 
ATOM     55  C   UNL A   1      38.606  28.094  31.088  1.00  0.00     0.005 A 
ATOM     56  C   UNL A   1      38.439  29.968  32.308  1.00  0.00     0.003 A 
ATOM     57  N   UNL A   1      39.810  28.334  31.690  1.00  0.00    -0.361 N 
ATOM     58  H   UNL A   1      38.364  27.245  30.552  1.00  0.00     0.082 H 
ATOM     59  C   UNL A   1      39.733  29.467  32.453  1.00  0.00     0.046 A 
ATOM     60  C   UNL A   1      38.080  31.089  33.087  1.00  0.00    -0.053 A 
ATOM     61  H   UNL A   1      40.614  27.775  31.588  1.00  0.00     0.166 HD
ATOM     62  C   UNL A   1      40.707  30.059  33.263  1.00  0.00    -0.038 A 
ATOM     63  C   UNL A   1      39.022  31.656  33.959  1.00  0.00    -0.062 A 
ATOM     64  H   UNL A   1      37.131  31.490  33.015  1.00  0.00     0.063 H 
ATOM     65  C   UNL A   1      40.322  31.162  34.026  1.00  0.00    -0.060 A 
ATOM     66  H   UNL A   1      41.671  29.696  33.296  1.00  0.00     0.064 H 
ATOM     67  H   UNL A   1      38.748  32.448  34.559  1.00  0.00     0.062 H 
ATOM     68  H   UNL A   1      41.011  31.616  34.647  1.00  0.00     0.062 H 
ENDBRANCH  51  54
ENDBRANCH   5  51
ENDBRANCH   1   5
BRANCH   3  69
ATOM     69  C   UNL A   1      37.822  32.608  29.673  1.00  0.00     0.017 C 
ATOM     70  H   UNL A   1      37.284  32.160  30.483  1.00  0.00     0.049 H 
ATOM     71  H   UNL A   1      37.267  33.410  29.235  1.00  0.00     0.049 H 
BRANCH  69  72
ATOM     72  C   UNL A   1      39.132  33.183  30.213  1.00  0.00    -0.036 C 
ATOM     73  H   UNL A   1      39.931  32.549  29.892  1.00  0.00     0.028 H 
ATOM     74  H   UNL A   1      39.024  33.226  31.277  1.00  0.00     0.028 H 
BRANCH  72  75
ATOM     75  C   UNL A   1      39.449  34.617  29.757  1.00  0.00    -0.052 C 
ATOM     76  H   UNL A   1      39.242  35.273  30.576  1.00  0.00     0.027 H 
ATOM     77  H   UNL A   1      38.840  34.787  28.896  1.00  0.00     0.027 H 
BRANCH  75  78
ATOM     78  C   UNL A   1      40.892  34.873  29.302  1.00  0.00    -0.052 C 
ATOM     79  H   UNL A   1      41.218  34.020  28.745  1.00  0.00     0.027 H 
ATOM     80  H   UNL A   1      41.455  35.044  30.196  1.00  0.00     0.027 H 
BRANCH  78  81
ATOM     81  C   UNL A   1      41.099  36.112  28.433  1.00  0.00    -0.036 C 
ATOM     82  H   UNL A   1      41.025  36.976  29.059  1.00  0.00     0.028 H 
ATOM     83  H   UNL A   1      40.347  36.085  27.673  1.00  0.00     0.028 H 
BRANCH  81  84
ATOM     84  C   UNL A   1      42.444  36.154  27.717  1.00  0.00     0.018 C 
ATOM     85  H   UNL A   1      43.141  35.566  28.275  1.00  0.00     0.049 H 
ATOM     86  H   UNL A   1      42.733  37.183  27.657  1.00  0.00     0.049 H 
BRANCH  84  87
ATOM     87  N   UNL A   1      42.399  35.647  26.360  1.00  0.00    -0.352 N 
ATOM     88  C   UNL A   1      43.230  34.750  25.709  1.00  0.00     0.251 C 
ATOM     89  H   UNL A   1      41.658  35.996  25.812  1.00  0.00     0.163 HD
ATOM     90  O   UNL A   1      43.159  34.644  24.504  1.00  0.00    -0.269 OA
BRANCH  88  91
ATOM     91  C   UNL A   1      44.068  33.795  26.490  1.00  0.00     0.039 A 
ATOM     92  C   UNL A   1      44.955  32.993  25.753  1.00  0.00    -0.049 A 
ATOM     93  C   UNL A   1      43.857  33.526  27.838  1.00  0.00    -0.049 A 
ATOM     94  C   UNL A   1      45.415  31.793  26.291  1.00  0.00    -0.053 A 
ATOM     95  H   UNL A   1      45.266  33.292  24.815  1.00  0.00     0.063 H 
ATOM     96  C   UNL A   1      44.234  32.300  28.345  1.00  0.00    -0.053 A 
ATOM     97  H   UNL A   1      43.424  34.234  28.450  1.00  0.00     0.063 H 
ATOM     98  C   UNL A   1      44.950  31.408  27.544  1.00  0.00    -0.014 A 
ATOM     99  H   UNL A   1      46.085  31.204  25.772  1.00  0.00     0.063 H 
ATOM    100  H   UNL A   1      43.988  32.044  29.314  1.00  0.00     0.063 H 
BRANCH  98 101
ATOM    101  C   UNL A   1      45.058  30.056  28.063  1.00  0.00     0.031 A 
ATOM    102  C   UNL A   1      43.942  29.108  27.913  1.00  0.00     0.074 A 
ATOM    103  C   UNL A   1      46.246  29.653  28.566  1.00  0.00     0.049 A 
ATOM    104  N   UNL A   1      43.781  28.068  28.658  1.00  0.00    -0.248 NA
ATOM    105  C   UNL A   1      42.887  29.273  26.917  1.00  0.00    -0.034 C 
ATOM    106  C   UNL A   1      46.674  28.287  28.854  1.00  0.00    -0.036 A 
ATOM    107  N   UNL A   1      47.272  30.458  29.090  1.00  0.00    -0.354 N 
ATOM    108  C   UNL A   1      42.786  27.305  28.098  1.00  0.00     0.074 A 
ATOM    109  C   UNL A   1      42.222  28.120  27.047  1.00  0.00    -0.034 C 
ATOM    110  H   UNL A   1      42.705  30.066  26.283  1.00  0.00     0.065 H 
ATOM    111  C   UNL A   1      47.691  28.327  29.730  1.00  0.00    -0.036 A 
ATOM    112  H   UNL A   1      46.262  27.432  28.450  1.00  0.00     0.065 H 
ATOM    113  C   UNL A   1      47.843  29.711  30.145  1.00  0.00     0.049 A 
ATOM    114  H   UNL A   1      47.537  31.356  28.786  1.00  0.00     0.167 HD
ATOM    115  C   UNL A   1      42.628  26.014  28.500  1.00  0.00     0.037 A 
ATOM    116  H   UNL A   1      41.410  27.847  26.471  1.00  0.00     0.065 H 
ATOM    117  H   UNL A   1      48.258  27.527  30.047  1.00  0.00     0.065 H 
ATOM    118  C   UNL A   1      47.769  30.146  31.437  1.00  0.00     0.037 A 
ATOM    119  C   UNL A   1      43.577  25.664  29.549  1.00  0.00     0.049 A 
ATOM    120  C   UNL A   1      47.040  29.194  32.355  1.00  0.00     0.074 A 
ATOM    121  C   UNL A   1      44.827  25.071  29.511  1.00  0.00    -0.036 A 
ATOM    122  N   UNL A   1      43.455  26.251  30.803  1.00  0.00    -0.354 N 
ATOM    123  N   UNL A   1      46.198  28.289  31.940  1.00  0.00    -0.248 NA
ATOM    124  C   UNL A   1      47.182  29.201  33.809  1.00  0.00    -0.034 C 
ATOM    125  C   UNL A   1      45.486  25.356  30.732  1.00  0.00    -0.036 A 
ATOM    126  H   UNL A   1      45.212  24.517  28.731  1.00  0.00     0.065 H 
ATOM    127  C   UNL A   1      44.625  26.098  31.521  1.00  0.00     0.049 A 
ATOM    128  H   UNL A   1      42.649  26.711  31.132  1.00  0.00     0.167 HD
ATOM    129  C   UNL A   1      45.684  27.615  33.016  1.00  0.00     0.074 A 
ATOM    130  C   UNL A   1      46.340  28.213  34.163  1.00  0.00    -0.034 C 
ATOM    131  H   UNL A   1      47.771  29.802  34.405  1.00  0.00     0.065 H 
ATOM    132  H   UNL A   1      46.441  25.061  30.988  1.00  0.00     0.065 H 
ATOM    133  C   UNL A   1      44.754  26.627  32.868  1.00  0.00     0.037 A 
ATOM    134  H   UNL A   1      46.179  27.916  35.137  1.00  0.00     0.065 H 
BRANCH 115 135
ATOM    135  C   UNL A   1      41.805  25.018  27.733  1.00  0.00     0.064 A 
ATOM    136  C   UNL A   1      40.398  24.997  27.844  1.00  0.00     0.173 A 
ATOM    137  C   UNL A   1      42.359  24.030  26.901  1.00  0.00     0.173 A 
ATOM    138  F   UNL A   1      39.739  25.916  28.562  1.00  0.00    -0.203 F 
ATOM    139  C   UNL A   1      39.618  24.012  27.237  1.00  0.00     0.198 A 
ATOM    140  C   UNL A   1      41.583  23.014  26.335  1.00  0.00     0.198 A 
ATOM    141  F   UNL A   1      43.667  24.037  26.604  1.00  0.00    -0.203 F 
ATOM    142  F   UNL A   1      38.285  24.037  27.381  1.00  0.00    -0.200 F 
ATOM    143  C   UNL A   1      40.212  23.002  26.508  1.00  0.00     0.200 A 
ATOM    144  F   UNL A   1      42.173  22.040  25.628  1.00  0.00    -0.200 F 
ATOM    145  F   UNL A   1      39.467  22.029  25.968  1.00  0.00    -0.200 F 
ENDBRANCH 115 135
BRANCH 118 146
ATOM    146  C   UNL A   1      47.748  31.629  31.547  1.00  0.00     0.064 A 
ATOM    147  C   UNL A   1      48.972  32.318  31.420  1.00  0.00     0.173 A 
ATOM    148  C   UNL A   1      46.571  32.363  31.361  1.00  0.00     0.173 A 
ATOM    149  F   UNL A   1      50.131  31.660  31.586  1.00  0.00    -0.203 F 
ATOM    150  C   UNL A   1      49.015  33.644  30.995  1.00  0.00     0.198 A 
ATOM    151  C   UNL A   1      46.620  33.698  30.950  1.00  0.00     0.198 A 
ATOM    152  F   UNL A   1      45.376  31.762  31.456  1.00  0.00    -0.203 F 
ATOM    153  F   UNL A   1      50.199  34.230  30.762  1.00  0.00    -0.200 F 
ATOM    154  C   UNL A   1      47.839  34.323  30.731  1.00  0.00     0.200 A 
ATOM    155  F   UNL A   1      45.482  34.350  30.673  1.00  0.00    -0.200 F 
ATOM    156  F   UNL A   1      47.880  35.565  30.229  1.00  0.00    -0.200 F 
ENDBRANCH 118 146
BRANCH 133 157
ATOM    157  C   UNL A   1      43.947  25.991  33.972  1.00  0.00     0.064 A 
ATOM    158  C   UNL A   1      42.957  26.665  34.705  1.00  0.00     0.173 A 
ATOM    159  C   UNL A   1      44.046  24.598  34.218  1.00  0.00     0.173 A 
ATOM    160  F   UNL A   1      42.687  27.958  34.482  1.00  0.00    -0.203 F 
ATOM    161  C   UNL A   1      42.165  26.011  35.652  1.00  0.00     0.198 A 
ATOM    162  C   UNL A   1      43.214  23.939  35.121  1.00  0.00     0.198 A 
ATOM    163  F   UNL A   1      44.934  23.832  33.569  1.00  0.00    -0.203 F 
ATOM    164  F   UNL A   1      41.261  26.708  36.354  1.00  0.00    -0.200 F 
ATOM    165  C   UNL A   1      42.284  24.648  35.850  1.00  0.00     0.200 A 
ATOM    166  F   UNL A   1      43.305  22.609  35.260  1.00  0.00    -0.200 F 
ATOM    167  F   UNL A   1      41.489  24.018  36.724  1.00  0.00    -0.200 F 
ENDBRANCH 133 157
ENDBRANCH  98 101
ENDBRANCH  88  91
ENDBRANCH  84  87
ENDBRANCH  81  84
ENDBRANCH  78  81
ENDBRANCH  75  78
ENDBRANCH  72  75
ENDBRANCH  69  72
ENDBRANCH   3  69
TORSDOF 23
ENDMDL
MODEL 6
REMARK VINA RESULT:     -11.5      4.511      9.963
REMARK SMILES Cc1ccc(S(=O)(=O)n2cc(C(=O)C(=O)NCC(=O)N[C@H](Cc3c[nH]c4ccccc34)C(=O)NCCCCCCNC(=O)c3ccc(-c4c5nc(c(-c6c(F)c(F)c(F)c(F)c6F)c6ccc([nH]6)c(-c6c(F)c(F)c(F)c(F)c6F)c6nc(c(-c7c(F)c(F)c(F)c(F)c7F)c7ccc4[nH]7)C=C6)C=C5)cc3)c3ccccc32)cc1
REMARK SMILES IDX 32 1 33 2 34 3 21 5 20 7 18 8 19 9 17 11 16 14 14 15 15 16
REMARK SMILES IDX 12 18 13 19 11 20 9 21 10 22 112 23 107 25 111 26 108 27
REMARK SMILES IDX 110 28 109 30 6 34 7 35 8 36 5 37 2 38 3 39 114 40 4 41
REMARK SMILES IDX 113 43 1 47 22 51 23 54 24 55 31 56 25 57 26 59 30 60 27 62
REMARK SMILES IDX 29 63 28 65 35 69 36 72 37 75 38 78 39 81 40 84 41 87 42 88
REMARK SMILES IDX 43 90 44 91 45 92 106 93 46 94 105 96 47 98 48 101 49 102
REMARK SMILES IDX 99 103 50 104 104 105 98 106 100 107 51 108 103 109 97 111
REMARK SMILES IDX 96 113 52 115 84 118 64 119 83 120 65 121 68 122 82 123
REMARK SMILES IDX 101 124 66 125 67 127 81 129 102 130 69 133 53 135 54 136
REMARK SMILES IDX 62 137 55 138 56 139 60 140 63 141 57 142 58 143 61 144
REMARK SMILES IDX 59 145 85 146 86 147 94 148 87 149 88 150 92 151 95 152
REMARK SMILES IDX 89 153 90 154 93 155 91 156 70 157 71 158 79 159 72 160
REMARK SMILES IDX 73 161 77 162 80 163 74 164 75 165 78 166 76 167
REMARK H PARENT 34 4 21 6 20 10 17 12 17 13 16 17 10 24 111 29 108 31 110 32
REMARK H PARENT 109 33 3 42 114 44 4 45 113 46 1 48 1 49 1 50 22 52 22 53
REMARK H PARENT 24 58 25 61 30 64 27 66 29 67 28 68 35 70 35 71 36 73 36 74
REMARK H PARENT 37 76 37 77 38 79 38 80 39 82 39 83 40 85 40 86 41 89 45 95
REMARK H PARENT 106 97 46 99 105 100 104 110 98 112 100 114 103 116 97 117
REMARK H PARENT 65 126 68 128 101 131 66 132 102 134
REMARK Flexibility Score: inf
ROOT
ATOM      1  C   UNL A   1      42.031  27.709  28.758  1.00  0.00     0.242 C 
ATOM      2  O   UNL A   1      41.534  28.832  28.902  1.00  0.00    -0.273 OA
ATOM      3  N   UNL A   1      43.078  27.423  29.573  1.00  0.00    -0.354 N 
ATOM      4  H   UNL A   1      43.188  28.062  30.314  1.00  0.00     0.163 HD
ENDROOT
BRANCH   1   5
ATOM      5  C   UNL A   1      41.472  26.755  27.691  1.00  0.00     0.112 C 
ATOM      6  H   UNL A   1      42.127  25.909  27.675  1.00  0.00     0.064 H 
BRANCH   5   7
ATOM      7  N   UNL A   1      41.466  27.486  26.413  1.00  0.00    -0.342 N 
ATOM      8  C   UNL A   1      42.518  27.914  25.658  1.00  0.00     0.240 C 
ATOM      9  O   UNL A   1      42.248  28.641  24.697  1.00  0.00    -0.273 OA
ATOM     10  H   UNL A   1      40.574  27.695  26.051  1.00  0.00     0.164 HD
BRANCH   8  11
ATOM     11  C   UNL A   1      43.948  27.365  25.857  1.00  0.00     0.097 C 
ATOM     12  H   UNL A   1      44.424  27.979  26.592  1.00  0.00     0.059 H 
ATOM     13  H   UNL A   1      43.802  26.339  26.127  1.00  0.00     0.059 H 
BRANCH  11  14
ATOM     14  N   UNL A   1      44.836  27.310  24.698  1.00  0.00    -0.340 N 
ATOM     15  C   UNL A   1      46.075  27.910  24.525  1.00  0.00     0.292 C 
ATOM     16  O   UNL A   1      46.763  27.713  23.531  1.00  0.00    -0.265 OA
ATOM     17  H   UNL A   1      44.511  26.776  23.938  1.00  0.00     0.164 HD
BRANCH  15  18
ATOM     18  C   UNL A   1      46.613  28.818  25.626  1.00  0.00     0.252 C 
ATOM     19  O   UNL A   1      46.501  30.027  25.426  1.00  0.00    -0.283 OA
BRANCH  18  20
ATOM     20  C   UNL A   1      47.390  28.282  26.752  1.00  0.00     0.054 A 
ATOM     21  N   UNL A   1      48.797  27.163  28.130  1.00  0.00    -0.240 N 
ATOM     22  C   UNL A   1      48.370  27.282  26.806  1.00  0.00     0.033 A 
ATOM     23  C   UNL A   1      48.257  28.250  28.843  1.00  0.00     0.065 A 
ATOM     24  H   UNL A   1      48.717  26.730  26.006  1.00  0.00     0.084 H 
ATOM     25  C   UNL A   1      47.161  28.683  28.102  1.00  0.00     0.012 A 
ATOM     26  C   UNL A   1      48.449  28.660  30.177  1.00  0.00    -0.037 A 
ATOM     27  C   UNL A   1      46.136  29.394  28.762  1.00  0.00    -0.052 A 
ATOM     28  C   UNL A   1      47.386  29.287  30.827  1.00  0.00    -0.060 A 
ATOM     29  H   UNL A   1      49.347  28.502  30.658  1.00  0.00     0.065 H 
ATOM     30  C   UNL A   1      46.227  29.615  30.138  1.00  0.00    -0.061 A 
ATOM     31  H   UNL A   1      45.325  29.747  28.231  1.00  0.00     0.063 H 
ATOM     32  H   UNL A   1      47.462  29.509  31.831  1.00  0.00     0.062 H 
ATOM     33  H   UNL A   1      45.427  30.025  30.645  1.00  0.00     0.062 H 
BRANCH  21  34
ATOM     34  S   UNL A   1      48.763  25.707  29.098  1.00  0.00     0.268 S 
ATOM     35  O   UNL A   1      49.795  24.887  28.483  1.00  0.00    -0.201 OA
ATOM     36  O   UNL A   1      47.357  25.326  29.026  1.00  0.00    -0.201 OA
BRANCH  34  37
ATOM     37  C   UNL A   1      49.052  25.576  30.824  1.00  0.00     0.088 A 
ATOM     38  C   UNL A   1      50.011  24.944  33.401  1.00  0.00    -0.051 A 
ATOM     39  C   UNL A   1      50.849  24.793  32.306  1.00  0.00    -0.058 A 
ATOM     40  C   UNL A   1      48.701  25.433  33.198  1.00  0.00    -0.058 A 
ATOM     41  C   UNL A   1      50.375  25.117  31.049  1.00  0.00    -0.041 A 
ATOM     42  H   UNL A   1      51.811  24.442  32.427  1.00  0.00     0.063 H 
ATOM     43  C   UNL A   1      48.206  25.750  31.904  1.00  0.00    -0.041 A 
ATOM     44  H   UNL A   1      48.085  25.565  34.015  1.00  0.00     0.063 H 
ATOM     45  H   UNL A   1      51.010  25.022  30.240  1.00  0.00     0.064 H 
ATOM     46  H   UNL A   1      47.242  26.099  31.775  1.00  0.00     0.064 H 
BRANCH  38  47
ATOM     47  C   UNL A   1      50.547  24.513  34.738  1.00  0.00    -0.040 C 
ATOM     48  H   UNL A   1      50.090  23.588  35.023  1.00  0.00     0.028 H 
ATOM     49  H   UNL A   1      50.324  25.262  35.469  1.00  0.00     0.028 H 
ATOM     50  H   UNL A   1      51.606  24.383  34.672  1.00  0.00     0.028 H 
ENDBRANCH  38  47
ENDBRANCH  34  37
ENDBRANCH  21  34
ENDBRANCH  18  20
ENDBRANCH  15  18
ENDBRANCH  11  14
ENDBRANCH   8  11
ENDBRANCH   5   7
BRANCH   5  51
ATOM     51  C   UNL A   1      40.122  26.055  27.978  1.00  0.00     0.004 C 
ATOM     52  H   UNL A   1      39.360  26.706  27.605  1.00  0.00     0.034 H 
ATOM     53  H   UNL A   1      40.178  25.875  29.031  1.00  0.00     0.034 H 
BRANCH  51  54
ATOM     54  C   UNL A   1      39.810  24.680  27.433  1.00  0.00    -0.020 A 
ATOM     55  C   UNL A   1      38.730  24.238  26.697  1.00  0.00     0.005 A 
ATOM     56  C   UNL A   1      40.656  23.517  27.589  1.00  0.00     0.003 A 
ATOM     57  N   UNL A   1      38.997  22.987  26.212  1.00  0.00    -0.361 N 
ATOM     58  H   UNL A   1      37.858  24.767  26.538  1.00  0.00     0.082 H 
ATOM     59  C   UNL A   1      40.162  22.516  26.751  1.00  0.00     0.046 A 
ATOM     60  C   UNL A   1      41.811  23.225  28.346  1.00  0.00    -0.053 A 
ATOM     61  H   UNL A   1      38.434  22.498  25.569  1.00  0.00     0.166 HD
ATOM     62  C   UNL A   1      40.790  21.281  26.566  1.00  0.00    -0.038 A 
ATOM     63  C   UNL A   1      42.417  21.964  28.228  1.00  0.00    -0.062 A 
ATOM     64  H   UNL A   1      42.209  23.934  28.983  1.00  0.00     0.063 H 
ATOM     65  C   UNL A   1      41.926  21.018  27.331  1.00  0.00    -0.060 A 
ATOM     66  H   UNL A   1      40.429  20.591  25.890  1.00  0.00     0.064 H 
ATOM     67  H   UNL A   1      43.235  21.736  28.811  1.00  0.00     0.062 H 
ATOM     68  H   UNL A   1      42.408  20.110  27.232  1.00  0.00     0.062 H 
ENDBRANCH  51  54
ENDBRANCH   5  51
ENDBRANCH   1   5
BRANCH   3  69
ATOM     69  C   UNL A   1      44.067  26.365  29.569  1.00  0.00     0.017 C 
ATOM     70  H   UNL A   1      44.917  26.687  29.003  1.00  0.00     0.049 H 
ATOM     71  H   UNL A   1      43.619  25.496  29.134  1.00  0.00     0.049 H 
BRANCH  69  72
ATOM     72  C   UNL A   1      44.525  26.002  30.981  1.00  0.00    -0.036 C 
ATOM     73  H   UNL A   1      43.980  26.608  31.673  1.00  0.00     0.028 H 
ATOM     74  H   UNL A   1      45.581  26.173  31.007  1.00  0.00     0.028 H 
BRANCH  72  75
ATOM     75  C   UNL A   1      44.321  24.529  31.372  1.00  0.00    -0.052 C 
ATOM     76  H   UNL A   1      44.702  23.924  30.577  1.00  0.00     0.027 H 
ATOM     77  H   UNL A   1      43.271  24.418  31.541  1.00  0.00     0.027 H 
BRANCH  75  78
ATOM     78  C   UNL A   1      45.000  24.079  32.673  1.00  0.00    -0.052 C 
ATOM     79  H   UNL A   1      45.179  24.949  33.269  1.00  0.00     0.027 H 
ATOM     80  H   UNL A   1      45.892  23.569  32.376  1.00  0.00     0.027 H 
BRANCH  78  81
ATOM     81  C   UNL A   1      44.209  23.083  33.519  1.00  0.00    -0.036 C 
ATOM     82  H   UNL A   1      44.711  22.138  33.480  1.00  0.00     0.028 H 
ATOM     83  H   UNL A   1      43.222  23.045  33.108  1.00  0.00     0.028 H 
BRANCH  81  84
ATOM     84  C   UNL A   1      44.061  23.485  34.981  1.00  0.00     0.018 C 
ATOM     85  H   UNL A   1      44.483  24.459  35.107  1.00  0.00     0.049 H 
ATOM     86  H   UNL A   1      44.566  22.741  35.562  1.00  0.00     0.049 H 
BRANCH  84  87
ATOM     87  N   UNL A   1      42.686  23.518  35.440  1.00  0.00    -0.352 N 
ATOM     88  C   UNL A   1      41.935  24.564  35.951  1.00  0.00     0.251 C 
ATOM     89  H   UNL A   1      42.210  22.658  35.381  1.00  0.00     0.163 HD
ATOM     90  O   UNL A   1      40.881  24.325  36.500  1.00  0.00    -0.269 OA
BRANCH  88  91
ATOM     91  C   UNL A   1      42.322  25.977  35.670  1.00  0.00     0.039 A 
ATOM     92  C   UNL A   1      41.772  26.956  36.514  1.00  0.00    -0.049 A 
ATOM     93  C   UNL A   1      43.001  26.364  34.520  1.00  0.00    -0.049 A 
ATOM     94  C   UNL A   1      41.679  28.275  36.076  1.00  0.00    -0.053 A 
ATOM     95  H   UNL A   1      41.437  26.699  37.456  1.00  0.00     0.063 H 
ATOM     96  C   UNL A   1      42.834  27.647  34.041  1.00  0.00    -0.053 A 
ATOM     97  H   UNL A   1      43.620  25.701  34.031  1.00  0.00     0.063 H 
ATOM     98  C   UNL A   1      42.111  28.578  34.789  1.00  0.00    -0.014 A 
ATOM     99  H   UNL A   1      41.299  29.010  36.693  1.00  0.00     0.063 H 
ATOM    100  H   UNL A   1      43.244  27.917  33.133  1.00  0.00     0.063 H 
BRANCH  98 101
ATOM    101  C   UNL A   1      41.759  29.800  34.088  1.00  0.00     0.031 A 
ATOM    102  C   UNL A   1      40.754  29.778  33.011  1.00  0.00     0.074 A 
ATOM    103  C   UNL A   1      42.273  30.968  34.531  1.00  0.00     0.049 A 
ATOM    104  N   UNL A   1      40.670  30.679  32.093  1.00  0.00    -0.248 NA
ATOM    105  C   UNL A   1      39.770  28.710  32.864  1.00  0.00    -0.034 C 
ATOM    106  C   UNL A   1      41.836  32.319  34.192  1.00  0.00    -0.036 A 
ATOM    107  N   UNL A   1      43.450  31.158  35.275  1.00  0.00    -0.354 N 
ATOM    108  C   UNL A   1      39.499  30.466  31.407  1.00  0.00     0.074 A 
ATOM    109  C   UNL A   1      38.999  29.198  31.885  1.00  0.00    -0.034 C 
ATOM    110  H   UNL A   1      39.691  27.818  33.376  1.00  0.00     0.065 H 
ATOM    111  C   UNL A   1      42.836  33.177  34.454  1.00  0.00    -0.036 A 
ATOM    112  H   UNL A   1      40.911  32.573  33.813  1.00  0.00     0.065 H 
ATOM    113  C   UNL A   1      43.994  32.382  34.824  1.00  0.00     0.049 A 
ATOM    114  H   UNL A   1      43.819  30.562  35.967  1.00  0.00     0.167 HD
ATOM    115  C   UNL A   1      39.012  31.446  30.598  1.00  0.00     0.037 A 
ATOM    116  H   UNL A   1      38.155  28.729  31.519  1.00  0.00     0.065 H 
ATOM    117  H   UNL A   1      42.790  34.206  34.404  1.00  0.00     0.065 H 
ATOM    118  C   UNL A   1      45.200  32.424  34.185  1.00  0.00     0.037 A 
ATOM    119  C   UNL A   1      39.896  32.603  30.571  1.00  0.00     0.049 A 
ATOM    120  C   UNL A   1      45.122  32.973  32.780  1.00  0.00     0.074 A 
ATOM    121  C   UNL A   1      39.911  33.779  31.302  1.00  0.00    -0.036 A 
ATOM    122  N   UNL A   1      41.146  32.492  29.973  1.00  0.00    -0.354 N 
ATOM    123  N   UNL A   1      44.027  33.002  32.074  1.00  0.00    -0.248 NA
ATOM    124  C   UNL A   1      46.270  33.511  32.055  1.00  0.00    -0.034 C 
ATOM    125  C   UNL A   1      41.203  34.349  31.190  1.00  0.00    -0.036 A 
ATOM    126  H   UNL A   1      39.120  34.172  31.834  1.00  0.00     0.065 H 
ATOM    127  C   UNL A   1      41.962  33.534  30.369  1.00  0.00     0.049 A 
ATOM    128  H   UNL A   1      41.412  31.774  29.355  1.00  0.00     0.167 HD
ATOM    129  C   UNL A   1      44.294  33.526  30.837  1.00  0.00     0.074 A 
ATOM    130  C   UNL A   1      45.709  33.841  30.878  1.00  0.00    -0.034 C 
ATOM    131  H   UNL A   1      47.250  33.610  32.363  1.00  0.00     0.065 H 
ATOM    132  H   UNL A   1      41.522  35.220  31.642  1.00  0.00     0.065 H 
ATOM    133  C   UNL A   1      43.326  33.646  29.883  1.00  0.00     0.037 A 
ATOM    134  H   UNL A   1      46.226  34.269  30.094  1.00  0.00     0.065 H 
BRANCH 115 135
ATOM    135  C   UNL A   1      37.603  31.441  30.074  1.00  0.00     0.064 A 
ATOM    136  C   UNL A   1      37.270  30.754  28.887  1.00  0.00     0.173 A 
ATOM    137  C   UNL A   1      36.546  32.137  30.685  1.00  0.00     0.173 A 
ATOM    138  F   UNL A   1      38.170  30.008  28.234  1.00  0.00    -0.203 F 
ATOM    139  C   UNL A   1      36.000  30.829  28.314  1.00  0.00     0.198 A 
ATOM    140  C   UNL A   1      35.288  32.254  30.085  1.00  0.00     0.198 A 
ATOM    141  F   UNL A   1      36.704  32.708  31.888  1.00  0.00    -0.203 F 
ATOM    142  F   UNL A   1      35.740  30.160  27.182  1.00  0.00    -0.200 F 
ATOM    143  C   UNL A   1      35.017  31.604  28.896  1.00  0.00     0.200 A 
ATOM    144  F   UNL A   1      34.343  33.009  30.662  1.00  0.00    -0.200 F 
ATOM    145  F   UNL A   1      33.813  31.715  28.320  1.00  0.00    -0.200 F 
ENDBRANCH 115 135
BRANCH 118 146
ATOM    146  C   UNL A   1      46.132  31.356  34.638  1.00  0.00     0.064 A 
ATOM    147  C   UNL A   1      46.915  31.606  35.783  1.00  0.00     0.173 A 
ATOM    148  C   UNL A   1      45.967  30.023  34.245  1.00  0.00     0.173 A 
ATOM    149  F   UNL A   1      47.102  32.867  36.205  1.00  0.00    -0.203 F 
ATOM    150  C   UNL A   1      47.398  30.564  36.571  1.00  0.00     0.198 A 
ATOM    151  C   UNL A   1      46.466  28.981  35.031  1.00  0.00     0.198 A 
ATOM    152  F   UNL A   1      45.222  29.720  33.173  1.00  0.00    -0.203 F 
ATOM    153  F   UNL A   1      48.030  30.836  37.722  1.00  0.00    -0.200 F 
ATOM    154  C   UNL A   1      47.146  29.252  36.211  1.00  0.00     0.200 A 
ATOM    155  F   UNL A   1      46.205  27.710  34.694  1.00  0.00    -0.200 F 
ATOM    156  F   UNL A   1      47.523  28.250  37.017  1.00  0.00    -0.200 F 
ENDBRANCH 118 146
BRANCH 133 157
ATOM    157  C   UNL A   1      43.547  33.975  28.427  1.00  0.00     0.064 A 
ATOM    158  C   UNL A   1      44.105  33.081  27.500  1.00  0.00     0.173 A 
ATOM    159  C   UNL A   1      43.039  35.182  27.882  1.00  0.00     0.173 A 
ATOM    160  F   UNL A   1      44.516  31.862  27.870  1.00  0.00    -0.203 F 
ATOM    161  C   UNL A   1      44.201  33.392  26.140  1.00  0.00     0.198 A 
ATOM    162  C   UNL A   1      43.083  35.461  26.518  1.00  0.00     0.198 A 
ATOM    163  F   UNL A   1      42.459  36.111  28.655  1.00  0.00    -0.203 F 
ATOM    164  F   UNL A   1      44.779  32.520  25.302  1.00  0.00    -0.200 F 
ATOM    165  C   UNL A   1      43.679  34.573  25.648  1.00  0.00     0.200 A 
ATOM    166  F   UNL A   1      42.523  36.586  26.051  1.00  0.00    -0.200 F 
ATOM    167  F   UNL A   1      43.729  34.844  24.338  1.00  0.00    -0.200 F 
ENDBRANCH 133 157
ENDBRANCH  98 101
ENDBRANCH  88  91
ENDBRANCH  84  87
ENDBRANCH  81  84
ENDBRANCH  78  81
ENDBRANCH  75  78
ENDBRANCH  72  75
ENDBRANCH  69  72
ENDBRANCH   3  69
TORSDOF 23
ENDMDL
MODEL 7
REMARK VINA RESULT:     -11.4      5.592     11.310
REMARK SMILES Cc1ccc(S(=O)(=O)n2cc(C(=O)C(=O)NCC(=O)N[C@H](Cc3c[nH]c4ccccc34)C(=O)NCCCCCCNC(=O)c3ccc(-c4c5nc(c(-c6c(F)c(F)c(F)c(F)c6F)c6ccc([nH]6)c(-c6c(F)c(F)c(F)c(F)c6F)c6nc(c(-c7c(F)c(F)c(F)c(F)c7F)c7ccc4[nH]7)C=C6)C=C5)cc3)c3ccccc32)cc1
REMARK SMILES IDX 32 1 33 2 34 3 21 5 20 7 18 8 19 9 17 11 16 14 14 15 15 16
REMARK SMILES IDX 12 18 13 19 11 20 9 21 10 22 112 23 107 25 111 26 108 27
REMARK SMILES IDX 110 28 109 30 6 34 7 35 8 36 5 37 2 38 3 39 114 40 4 41
REMARK SMILES IDX 113 43 1 47 22 51 23 54 24 55 31 56 25 57 26 59 30 60 27 62
REMARK SMILES IDX 29 63 28 65 35 69 36 72 37 75 38 78 39 81 40 84 41 87 42 88
REMARK SMILES IDX 43 90 44 91 45 92 106 93 46 94 105 96 47 98 48 101 49 102
REMARK SMILES IDX 99 103 50 104 104 105 98 106 100 107 51 108 103 109 97 111
REMARK SMILES IDX 96 113 52 115 84 118 64 119 83 120 65 121 68 122 82 123
REMARK SMILES IDX 101 124 66 125 67 127 81 129 102 130 69 133 53 135 54 136
REMARK SMILES IDX 62 137 55 138 56 139 60 140 63 141 57 142 58 143 61 144
REMARK SMILES IDX 59 145 85 146 86 147 94 148 87 149 88 150 92 151 95 152
REMARK SMILES IDX 89 153 90 154 93 155 91 156 70 157 71 158 79 159 72 160
REMARK SMILES IDX 73 161 77 162 80 163 74 164 75 165 78 166 76 167
REMARK H PARENT 34 4 21 6 20 10 17 12 17 13 16 17 10 24 111 29 108 31 110 32
REMARK H PARENT 109 33 3 42 114 44 4 45 113 46 1 48 1 49 1 50 22 52 22 53
REMARK H PARENT 24 58 25 61 30 64 27 66 29 67 28 68 35 70 35 71 36 73 36 74
REMARK H PARENT 37 76 37 77 38 79 38 80 39 82 39 83 40 85 40 86 41 89 45 95
REMARK H PARENT 106 97 46 99 105 100 104 110 98 112 100 114 103 116 97 117
REMARK H PARENT 65 126 68 128 101 131 66 132 102 134
REMARK Flexibility Score: inf
ROOT
ATOM      1  C   UNL A   1      41.888  23.367  27.798  1.00  0.00     0.242 C 
ATOM      2  O   UNL A   1      42.291  23.473  28.963  1.00  0.00    -0.273 OA
ATOM      3  N   UNL A   1      42.844  23.443  26.838  1.00  0.00    -0.354 N 
ATOM      4  H   UNL A   1      43.761  23.371  27.188  1.00  0.00     0.163 HD
ENDROOT
BRANCH   1   5
ATOM      5  C   UNL A   1      40.387  23.191  27.520  1.00  0.00     0.112 C 
ATOM      6  H   UNL A   1      39.907  23.164  28.477  1.00  0.00     0.064 H 
BRANCH   5   7
ATOM      7  N   UNL A   1      40.226  21.932  26.774  1.00  0.00    -0.342 N 
ATOM      8  C   UNL A   1      39.127  21.444  26.130  1.00  0.00     0.240 C 
ATOM      9  O   UNL A   1      39.205  20.288  25.705  1.00  0.00    -0.273 OA
ATOM     10  H   UNL A   1      41.027  21.360  26.735  1.00  0.00     0.164 HD
BRANCH   8  11
ATOM     11  C   UNL A   1      37.925  22.343  25.765  1.00  0.00     0.097 C 
ATOM     12  H   UNL A   1      37.039  21.833  26.083  1.00  0.00     0.059 H 
ATOM     13  H   UNL A   1      38.131  23.273  26.253  1.00  0.00     0.059 H 
BRANCH  11  14
ATOM     14  N   UNL A   1      37.733  22.706  24.363  1.00  0.00    -0.340 N 
ATOM     15  C   UNL A   1      36.598  22.569  23.578  1.00  0.00     0.292 C 
ATOM     16  O   UNL A   1      36.540  22.997  22.431  1.00  0.00    -0.265 OA
ATOM     17  H   UNL A   1      38.515  23.101  23.915  1.00  0.00     0.164 HD
BRANCH  15  18
ATOM     18  C   UNL A   1      35.367  21.894  24.175  1.00  0.00     0.252 C 
ATOM     19  O   UNL A   1      35.535  20.751  24.598  1.00  0.00    -0.283 OA
BRANCH  18  20
ATOM     20  C   UNL A   1      34.031  22.498  24.068  1.00  0.00     0.054 A 
ATOM     21  N   UNL A   1      32.100  23.485  23.414  1.00  0.00    -0.240 N 
ATOM     22  C   UNL A   1      33.354  23.055  22.975  1.00  0.00     0.033 A 
ATOM     23  C   UNL A   1      31.915  22.975  24.713  1.00  0.00     0.065 A 
ATOM     24  H   UNL A   1      33.719  23.134  22.013  1.00  0.00     0.084 H 
ATOM     25  C   UNL A   1      33.190  22.707  25.201  1.00  0.00     0.012 A 
ATOM     26  C   UNL A   1      30.797  23.028  25.570  1.00  0.00    -0.037 A 
ATOM     27  C   UNL A   1      33.387  22.670  26.598  1.00  0.00    -0.052 A 
ATOM     28  C   UNL A   1      31.029  23.074  26.944  1.00  0.00    -0.060 A 
ATOM     29  H   UNL A   1      29.838  23.032  25.193  1.00  0.00     0.065 H 
ATOM     30  C   UNL A   1      32.313  22.936  27.452  1.00  0.00    -0.061 A 
ATOM     31  H   UNL A   1      34.317  22.448  26.986  1.00  0.00     0.063 H 
ATOM     32  H   UNL A   1      30.238  23.211  27.590  1.00  0.00     0.062 H 
ATOM     33  H   UNL A   1      32.477  23.031  28.467  1.00  0.00     0.062 H 
BRANCH  21  34
ATOM     34  S   UNL A   1      31.464  25.109  23.287  1.00  0.00     0.268 S 
ATOM     35  O   UNL A   1      30.031  24.905  23.432  1.00  0.00    -0.201 OA
ATOM     36  O   UNL A   1      32.036  25.563  22.025  1.00  0.00    -0.201 OA
BRANCH  34  37
ATOM     37  C   UNL A   1      31.833  26.474  24.327  1.00  0.00     0.088 A 
ATOM     38  C   UNL A   1      32.907  28.250  26.238  1.00  0.00    -0.051 A 
ATOM     39  C   UNL A   1      33.689  27.209  25.760  1.00  0.00    -0.058 A 
ATOM     40  C   UNL A   1      31.595  28.406  25.736  1.00  0.00    -0.058 A 
ATOM     41  C   UNL A   1      33.160  26.352  24.814  1.00  0.00    -0.041 A 
ATOM     42  H   UNL A   1      34.652  27.076  26.107  1.00  0.00     0.063 H 
ATOM     43  C   UNL A   1      31.042  27.515  24.778  1.00  0.00    -0.041 A 
ATOM     44  H   UNL A   1      31.020  29.193  26.077  1.00  0.00     0.063 H 
ATOM     45  H   UNL A   1      33.754  25.591  24.448  1.00  0.00     0.064 H 
ATOM     46  H   UNL A   1      30.079  27.641  24.429  1.00  0.00     0.064 H 
BRANCH  38  47
ATOM     47  C   UNL A   1      33.501  29.114  27.316  1.00  0.00    -0.040 C 
ATOM     48  H   UNL A   1      34.330  29.661  26.918  1.00  0.00     0.028 H 
ATOM     49  H   UNL A   1      33.835  28.496  28.124  1.00  0.00     0.028 H 
ATOM     50  H   UNL A   1      32.760  29.797  27.673  1.00  0.00     0.028 H 
ENDBRANCH  38  47
ENDBRANCH  34  37
ENDBRANCH  21  34
ENDBRANCH  18  20
ENDBRANCH  15  18
ENDBRANCH  11  14
ENDBRANCH   8  11
ENDBRANCH   5   7
BRANCH   5  51
ATOM     51  C   UNL A   1      39.626  24.367  26.863  1.00  0.00     0.004 C 
ATOM     52  H   UNL A   1      38.624  24.323  27.234  1.00  0.00     0.034 H 
ATOM     53  H   UNL A   1      39.799  24.196  25.820  1.00  0.00     0.034 H 
BRANCH  51  54
ATOM     54  C   UNL A   1      40.080  25.799  27.033  1.00  0.00    -0.020 A 
ATOM     55  C   UNL A   1      40.838  26.599  26.201  1.00  0.00     0.005 A 
ATOM     56  C   UNL A   1      39.763  26.638  28.169  1.00  0.00     0.003 A 
ATOM     57  N   UNL A   1      40.780  27.891  26.644  1.00  0.00    -0.361 N 
ATOM     58  H   UNL A   1      41.365  26.272  25.376  1.00  0.00     0.082 H 
ATOM     59  C   UNL A   1      40.140  27.943  27.851  1.00  0.00     0.046 A 
ATOM     60  C   UNL A   1      39.169  26.416  29.430  1.00  0.00    -0.053 A 
ATOM     61  H   UNL A   1      41.145  28.669  26.164  1.00  0.00     0.166 HD
ATOM     62  C   UNL A   1      39.892  29.043  28.677  1.00  0.00    -0.038 A 
ATOM     63  C   UNL A   1      38.975  27.498  30.303  1.00  0.00    -0.062 A 
ATOM     64  H   UNL A   1      38.878  25.466  29.708  1.00  0.00     0.063 H 
ATOM     65  C   UNL A   1      39.309  28.794  29.920  1.00  0.00    -0.060 A 
ATOM     66  H   UNL A   1      40.129  30.002  28.380  1.00  0.00     0.064 H 
ATOM     67  H   UNL A   1      38.579  27.331  31.240  1.00  0.00     0.062 H 
ATOM     68  H   UNL A   1      39.123  29.581  30.562  1.00  0.00     0.062 H 
ENDBRANCH  51  54
ENDBRANCH   5  51
ENDBRANCH   1   5
BRANCH   3  69
ATOM     69  C   UNL A   1      42.783  23.608  25.400  1.00  0.00     0.017 C 
ATOM     70  H   UNL A   1      42.314  24.545  25.179  1.00  0.00     0.049 H 
ATOM     71  H   UNL A   1      42.224  22.790  24.997  1.00  0.00     0.049 H 
BRANCH  69  72
ATOM     72  C   UNL A   1      44.171  23.591  24.761  1.00  0.00    -0.036 C 
ATOM     73  H   UNL A   1      44.071  23.893  23.740  1.00  0.00     0.028 H 
ATOM     74  H   UNL A   1      44.541  22.593  24.875  1.00  0.00     0.028 H 
BRANCH  72  75
ATOM     75  C   UNL A   1      45.207  24.509  25.430  1.00  0.00    -0.052 C 
ATOM     76  H   UNL A   1      46.176  24.209  25.093  1.00  0.00     0.027 H 
ATOM     77  H   UNL A   1      45.056  24.396  26.483  1.00  0.00     0.027 H 
BRANCH  75  78
ATOM     78  C   UNL A   1      45.054  26.010  25.149  1.00  0.00    -0.052 C 
ATOM     79  H   UNL A   1      44.427  26.122  24.290  1.00  0.00     0.027 H 
ATOM     80  H   UNL A   1      46.048  26.384  25.009  1.00  0.00     0.027 H 
BRANCH  78  81
ATOM     81  C   UNL A   1      44.452  26.836  26.284  1.00  0.00    -0.036 C 
ATOM     82  H   UNL A   1      43.832  26.193  26.873  1.00  0.00     0.028 H 
ATOM     83  H   UNL A   1      43.905  27.634  25.828  1.00  0.00     0.028 H 
BRANCH  81  84
ATOM     84  C   UNL A   1      45.483  27.480  27.202  1.00  0.00     0.018 C 
ATOM     85  H   UNL A   1      45.196  27.291  28.215  1.00  0.00     0.049 H 
ATOM     86  H   UNL A   1      45.499  28.525  26.969  1.00  0.00     0.049 H 
BRANCH  84  87
ATOM     87  N   UNL A   1      46.830  26.982  27.006  1.00  0.00    -0.352 N 
ATOM     88  C   UNL A   1      47.705  26.384  27.899  1.00  0.00     0.251 C 
ATOM     89  H   UNL A   1      47.180  27.087  26.092  1.00  0.00     0.163 HD
ATOM     90  O   UNL A   1      48.871  26.261  27.593  1.00  0.00    -0.269 OA
BRANCH  88  91
ATOM     91  C   UNL A   1      47.190  25.736  29.139  1.00  0.00     0.039 A 
ATOM     92  C   UNL A   1      45.933  25.114  29.044  1.00  0.00    -0.049 A 
ATOM     93  C   UNL A   1      47.779  25.907  30.387  1.00  0.00    -0.049 A 
ATOM     94  C   UNL A   1      45.174  24.907  30.193  1.00  0.00    -0.053 A 
ATOM     95  H   UNL A   1      45.574  24.811  28.125  1.00  0.00     0.063 H 
ATOM     96  C   UNL A   1      47.000  25.788  31.519  1.00  0.00    -0.053 A 
ATOM     97  H   UNL A   1      48.785  26.119  30.465  1.00  0.00     0.063 H 
ATOM     98  C   UNL A   1      45.676  25.358  31.409  1.00  0.00    -0.014 A 
ATOM     99  H   UNL A   1      44.260  24.431  30.143  1.00  0.00     0.063 H 
ATOM    100  H   UNL A   1      47.395  26.016  32.445  1.00  0.00     0.063 H 
BRANCH  98 101
ATOM    101  C   UNL A   1      44.867  25.527  32.602  1.00  0.00     0.031 A 
ATOM    102  C   UNL A   1      44.265  26.835  32.915  1.00  0.00     0.074 A 
ATOM    103  C   UNL A   1      44.572  24.435  33.342  1.00  0.00     0.049 A 
ATOM    104  N   UNL A   1      43.889  27.185  34.098  1.00  0.00    -0.248 NA
ATOM    105  C   UNL A   1      44.063  27.877  31.913  1.00  0.00    -0.034 C 
ATOM    106  C   UNL A   1      43.552  24.311  34.379  1.00  0.00    -0.036 A 
ATOM    107  N   UNL A   1      45.289  23.229  33.410  1.00  0.00    -0.354 N 
ATOM    108  C   UNL A   1      43.179  28.354  33.979  1.00  0.00     0.074 A 
ATOM    109  C   UNL A   1      43.359  28.776  32.609  1.00  0.00    -0.034 C 
ATOM    110  H   UNL A   1      44.378  27.910  30.931  1.00  0.00     0.065 H 
ATOM    111  C   UNL A   1      43.859  23.265  35.164  1.00  0.00    -0.036 A 
ATOM    112  H   UNL A   1      42.731  24.925  34.489  1.00  0.00     0.065 H 
ATOM    113  C   UNL A   1      45.164  22.784  34.746  1.00  0.00     0.049 A 
ATOM    114  H   UNL A   1      45.777  22.785  32.680  1.00  0.00     0.167 HD
ATOM    115  C   UNL A   1      42.409  28.776  35.019  1.00  0.00     0.037 A 
ATOM    116  H   UNL A   1      42.991  29.658  32.218  1.00  0.00     0.065 H 
ATOM    117  H   UNL A   1      43.276  22.876  35.921  1.00  0.00     0.065 H 
ATOM    118  C   UNL A   1      46.254  22.690  35.562  1.00  0.00     0.037 A 
ATOM    119  C   UNL A   1      42.516  27.876  36.160  1.00  0.00     0.049 A 
ATOM    120  C   UNL A   1      46.168  23.564  36.791  1.00  0.00     0.074 A 
ATOM    121  C   UNL A   1      41.752  26.794  36.565  1.00  0.00    -0.036 A 
ATOM    122  N   UNL A   1      43.717  27.796  36.855  1.00  0.00    -0.354 N 
ATOM    123  N   UNL A   1      45.393  24.608  36.883  1.00  0.00    -0.248 NA
ATOM    124  C   UNL A   1      46.961  23.347  37.998  1.00  0.00    -0.034 C 
ATOM    125  C   UNL A   1      42.525  26.024  37.468  1.00  0.00    -0.036 A 
ATOM    126  H   UNL A   1      40.788  26.586  36.263  1.00  0.00     0.065 H 
ATOM    127  C   UNL A   1      43.747  26.653  37.631  1.00  0.00     0.049 A 
ATOM    128  H   UNL A   1      44.442  28.459  36.803  1.00  0.00     0.167 HD
ATOM    129  C   UNL A   1      45.571  25.203  38.105  1.00  0.00     0.074 A 
ATOM    130  C   UNL A   1      46.553  24.369  38.772  1.00  0.00    -0.034 C 
ATOM    131  H   UNL A   1      47.650  22.607  38.203  1.00  0.00     0.065 H 
ATOM    132  H   UNL A   1      42.229  25.147  37.924  1.00  0.00     0.065 H 
ATOM    133  C   UNL A   1      44.899  26.337  38.457  1.00  0.00     0.037 A 
ATOM    134  H   UNL A   1      46.899  24.541  39.728  1.00  0.00     0.065 H 
BRANCH 115 135
ATOM    135  C   UNL A   1      41.359  29.842  34.874  1.00  0.00     0.064 A 
ATOM    136  C   UNL A   1      41.493  31.088  35.522  1.00  0.00     0.173 A 
ATOM    137  C   UNL A   1      40.175  29.669  34.137  1.00  0.00     0.173 A 
ATOM    138  F   UNL A   1      42.595  31.403  36.214  1.00  0.00    -0.203 F 
ATOM    139  C   UNL A   1      40.482  32.051  35.501  1.00  0.00     0.198 A 
ATOM    140  C   UNL A   1      39.142  30.611  34.157  1.00  0.00     0.198 A 
ATOM    141  F   UNL A   1      39.999  28.587  33.364  1.00  0.00    -0.203 F 
ATOM    142  F   UNL A   1      40.660  33.215  36.140  1.00  0.00    -0.200 F 
ATOM    143  C   UNL A   1      39.294  31.800  34.846  1.00  0.00     0.200 A 
ATOM    144  F   UNL A   1      37.994  30.355  33.515  1.00  0.00    -0.200 F 
ATOM    145  F   UNL A   1      38.305  32.703  34.867  1.00  0.00    -0.200 F 
ENDBRANCH 115 135
BRANCH 118 146
ATOM    146  C   UNL A   1      47.505  22.371  34.822  1.00  0.00     0.064 A 
ATOM    147  C   UNL A   1      48.393  23.428  34.540  1.00  0.00     0.173 A 
ATOM    148  C   UNL A   1      48.012  21.068  34.765  1.00  0.00     0.173 A 
ATOM    149  F   UNL A   1      47.957  24.698  34.585  1.00  0.00    -0.203 F 
ATOM    150  C   UNL A   1      49.753  23.199  34.343  1.00  0.00     0.198 A 
ATOM    151  C   UNL A   1      49.374  20.841  34.552  1.00  0.00     0.198 A 
ATOM    152  F   UNL A   1      47.220  20.021  35.036  1.00  0.00    -0.203 F 
ATOM    153  F   UNL A   1      50.591  24.236  34.204  1.00  0.00    -0.200 F 
ATOM    154  C   UNL A   1      50.246  21.907  34.380  1.00  0.00     0.200 A 
ATOM    155  F   UNL A   1      49.857  19.592  34.608  1.00  0.00    -0.200 F 
ATOM    156  F   UNL A   1      51.566  21.690  34.289  1.00  0.00    -0.200 F 
ENDBRANCH 118 146
BRANCH 133 157
ATOM    157  C   UNL A   1      45.187  27.206  39.656  1.00  0.00     0.064 A 
ATOM    158  C   UNL A   1      44.733  26.924  40.954  1.00  0.00     0.173 A 
ATOM    159  C   UNL A   1      46.089  28.295  39.549  1.00  0.00     0.173 A 
ATOM    160  F   UNL A   1      43.968  25.853  41.205  1.00  0.00    -0.203 F 
ATOM    161  C   UNL A   1      45.105  27.703  42.053  1.00  0.00     0.198 A 
ATOM    162  C   UNL A   1      46.504  29.032  40.656  1.00  0.00     0.198 A 
ATOM    163  F   UNL A   1      46.616  28.656  38.370  1.00  0.00    -0.203 F 
ATOM    164  F   UNL A   1      44.612  27.415  43.265  1.00  0.00    -0.200 F 
ATOM    165  C   UNL A   1      46.000  28.746  41.907  1.00  0.00     0.200 A 
ATOM    166  F   UNL A   1      47.414  30.005  40.504  1.00  0.00    -0.200 F 
ATOM    167  F   UNL A   1      46.391  29.459  42.970  1.00  0.00    -0.200 F 
ENDBRANCH 133 157
ENDBRANCH  98 101
ENDBRANCH  88  91
ENDBRANCH  84  87
ENDBRANCH  81  84
ENDBRANCH  78  81
ENDBRANCH  75  78
ENDBRANCH  72  75
ENDBRANCH  69  72
ENDBRANCH   3  69
TORSDOF 23
ENDMDL
MODEL 8
REMARK VINA RESULT:     -11.3      3.237     10.011
REMARK SMILES Cc1ccc(S(=O)(=O)n2cc(C(=O)C(=O)NCC(=O)N[C@H](Cc3c[nH]c4ccccc34)C(=O)NCCCCCCNC(=O)c3ccc(-c4c5nc(c(-c6c(F)c(F)c(F)c(F)c6F)c6ccc([nH]6)c(-c6c(F)c(F)c(F)c(F)c6F)c6nc(c(-c7c(F)c(F)c(F)c(F)c7F)c7ccc4[nH]7)C=C6)C=C5)cc3)c3ccccc32)cc1
REMARK SMILES IDX 32 1 33 2 34 3 21 5 20 7 18 8 19 9 17 11 16 14 14 15 15 16
REMARK SMILES IDX 12 18 13 19 11 20 9 21 10 22 112 23 107 25 111 26 108 27
REMARK SMILES IDX 110 28 109 30 6 34 7 35 8 36 5 37 2 38 3 39 114 40 4 41
REMARK SMILES IDX 113 43 1 47 22 51 23 54 24 55 31 56 25 57 26 59 30 60 27 62
REMARK SMILES IDX 29 63 28 65 35 69 36 72 37 75 38 78 39 81 40 84 41 87 42 88
REMARK SMILES IDX 43 90 44 91 45 92 106 93 46 94 105 96 47 98 48 101 49 102
REMARK SMILES IDX 99 103 50 104 104 105 98 106 100 107 51 108 103 109 97 111
REMARK SMILES IDX 96 113 52 115 84 118 64 119 83 120 65 121 68 122 82 123
REMARK SMILES IDX 101 124 66 125 67 127 81 129 102 130 69 133 53 135 54 136
REMARK SMILES IDX 62 137 55 138 56 139 60 140 63 141 57 142 58 143 61 144
REMARK SMILES IDX 59 145 85 146 86 147 94 148 87 149 88 150 92 151 95 152
REMARK SMILES IDX 89 153 90 154 93 155 91 156 70 157 71 158 79 159 72 160
REMARK SMILES IDX 73 161 77 162 80 163 74 164 75 165 78 166 76 167
REMARK H PARENT 34 4 21 6 20 10 17 12 17 13 16 17 10 24 111 29 108 31 110 32
REMARK H PARENT 109 33 3 42 114 44 4 45 113 46 1 48 1 49 1 50 22 52 22 53
REMARK H PARENT 24 58 25 61 30 64 27 66 29 67 28 68 35 70 35 71 36 73 36 74
REMARK H PARENT 37 76 37 77 38 79 38 80 39 82 39 83 40 85 40 86 41 89 45 95
REMARK H PARENT 106 97 46 99 105 100 104 110 98 112 100 114 103 116 97 117
REMARK H PARENT 65 126 68 128 101 131 66 132 102 134
REMARK Flexibility Score: inf
ROOT
ATOM      1  C   UNL A   1      40.880  22.318  27.391  1.00  0.00     0.242 C 
ATOM      2  O   UNL A   1      40.816  21.767  28.496  1.00  0.00    -0.273 OA
ATOM      3  N   UNL A   1      42.112  22.352  26.823  1.00  0.00    -0.354 N 
ATOM      4  H   UNL A   1      42.765  21.759  27.262  1.00  0.00     0.163 HD
ENDROOT
BRANCH   1   5
ATOM      5  C   UNL A   1      39.617  22.931  26.766  1.00  0.00     0.112 C 
ATOM      6  H   UNL A   1      38.908  23.030  27.562  1.00  0.00     0.064 H 
BRANCH   5   7
ATOM      7  N   UNL A   1      39.157  22.007  25.716  1.00  0.00    -0.342 N 
ATOM      8  C   UNL A   1      37.893  21.578  25.436  1.00  0.00     0.240 C 
ATOM      9  O   UNL A   1      37.789  20.681  24.594  1.00  0.00    -0.273 OA
ATOM     10  H   UNL A   1      39.864  21.648  25.131  1.00  0.00     0.164 HD
BRANCH   8  11
ATOM     11  C   UNL A   1      36.642  22.302  25.980  1.00  0.00     0.097 C 
ATOM     12  H   UNL A   1      36.954  22.890  26.817  1.00  0.00     0.059 H 
ATOM     13  H   UNL A   1      36.264  22.846  25.139  1.00  0.00     0.059 H 
BRANCH  11  14
ATOM     14  N   UNL A   1      35.510  21.490  26.422  1.00  0.00    -0.340 N 
ATOM     15  C   UNL A   1      34.226  21.434  25.901  1.00  0.00     0.292 C 
ATOM     16  O   UNL A   1      33.387  20.641  26.311  1.00  0.00    -0.265 OA
ATOM     17  H   UNL A   1      35.682  20.904  27.194  1.00  0.00     0.164 HD
BRANCH  15  18
ATOM     18  C   UNL A   1      33.856  22.368  24.753  1.00  0.00     0.252 C 
ATOM     19  O   UNL A   1      33.844  21.862  23.632  1.00  0.00    -0.283 OA
BRANCH  18  20
ATOM     20  C   UNL A   1      33.720  23.818  24.955  1.00  0.00     0.054 A 
ATOM     21  N   UNL A   1      33.539  25.927  25.758  1.00  0.00    -0.240 N 
ATOM     22  C   UNL A   1      33.675  24.587  26.125  1.00  0.00     0.033 A 
ATOM     23  C   UNL A   1      33.744  26.004  24.368  1.00  0.00     0.065 A 
ATOM     24  H   UNL A   1      33.732  24.226  27.090  1.00  0.00     0.084 H 
ATOM     25  C   UNL A   1      33.495  24.725  23.878  1.00  0.00     0.012 A 
ATOM     26  C   UNL A   1      33.814  27.118  23.509  1.00  0.00    -0.037 A 
ATOM     27  C   UNL A   1      33.127  24.580  22.523  1.00  0.00    -0.052 A 
ATOM     28  C   UNL A   1      33.364  26.962  22.198  1.00  0.00    -0.060 A 
ATOM     29  H   UNL A   1      34.186  28.021  23.838  1.00  0.00     0.065 H 
ATOM     30  C   UNL A   1      32.987  25.715  21.721  1.00  0.00    -0.061 A 
ATOM     31  H   UNL A   1      32.961  23.641  22.128  1.00  0.00     0.063 H 
ATOM     32  H   UNL A   1      33.311  27.783  21.576  1.00  0.00     0.062 H 
ATOM     33  H   UNL A   1      32.601  25.625  20.768  1.00  0.00     0.062 H 
BRANCH  21  34
ATOM     34  S   UNL A   1      32.259  27.009  26.258  1.00  0.00     0.268 S 
ATOM     35  O   UNL A   1      32.953  27.954  27.118  1.00  0.00    -0.201 OA
ATOM     36  O   UNL A   1      31.271  26.084  26.799  1.00  0.00    -0.201 OA
BRANCH  34  37
ATOM     37  C   UNL A   1      31.247  28.001  25.221  1.00  0.00     0.088 A 
ATOM     38  C   UNL A   1      29.534  29.010  23.219  1.00  0.00    -0.051 A 
ATOM     39  C   UNL A   1      29.514  27.655  23.514  1.00  0.00    -0.058 A 
ATOM     40  C   UNL A   1      30.401  29.856  23.948  1.00  0.00    -0.058 A 
ATOM     41  C   UNL A   1      30.346  27.171  24.505  1.00  0.00    -0.041 A 
ATOM     42  H   UNL A   1      28.887  27.017  23.001  1.00  0.00     0.063 H 
ATOM     43  C   UNL A   1      31.271  29.358  24.954  1.00  0.00    -0.041 A 
ATOM     44  H   UNL A   1      30.402  30.867  23.742  1.00  0.00     0.063 H 
ATOM     45  H   UNL A   1      30.312  26.165  24.734  1.00  0.00     0.064 H 
ATOM     46  H   UNL A   1      31.904  29.991  25.470  1.00  0.00     0.064 H 
BRANCH  38  47
ATOM     47  C   UNL A   1      28.662  29.478  22.087  1.00  0.00    -0.040 C 
ATOM     48  H   UNL A   1      29.230  30.114  21.440  1.00  0.00     0.028 H 
ATOM     49  H   UNL A   1      27.828  30.021  22.481  1.00  0.00     0.028 H 
ATOM     50  H   UNL A   1      28.309  28.632  21.537  1.00  0.00     0.028 H 
ENDBRANCH  38  47
ENDBRANCH  34  37
ENDBRANCH  21  34
ENDBRANCH  18  20
ENDBRANCH  15  18
ENDBRANCH  11  14
ENDBRANCH   8  11
ENDBRANCH   5   7
BRANCH   5  51
ATOM     51  C   UNL A   1      39.687  24.396  26.274  1.00  0.00     0.004 C 
ATOM     52  H   UNL A   1      38.741  24.607  25.820  1.00  0.00     0.034 H 
ATOM     53  H   UNL A   1      40.563  24.388  25.659  1.00  0.00     0.034 H 
BRANCH  51  54
ATOM     54  C   UNL A   1      39.969  25.539  27.222  1.00  0.00    -0.020 A 
ATOM     55  C   UNL A   1      39.580  25.725  28.533  1.00  0.00     0.005 A 
ATOM     56  C   UNL A   1      40.760  26.707  26.898  1.00  0.00     0.003 A 
ATOM     57  N   UNL A   1      40.277  26.775  29.064  1.00  0.00    -0.361 N 
ATOM     58  H   UNL A   1      38.875  25.161  29.034  1.00  0.00     0.082 H 
ATOM     59  C   UNL A   1      40.997  27.402  28.085  1.00  0.00     0.046 A 
ATOM     60  C   UNL A   1      41.318  27.228  25.711  1.00  0.00    -0.053 A 
ATOM     61  H   UNL A   1      40.263  27.040  30.012  1.00  0.00     0.166 HD
ATOM     62  C   UNL A   1      41.815  28.532  28.169  1.00  0.00    -0.038 A 
ATOM     63  C   UNL A   1      42.085  28.402  25.764  1.00  0.00    -0.062 A 
ATOM     64  H   UNL A   1      41.164  26.749  24.810  1.00  0.00     0.063 H 
ATOM     65  C   UNL A   1      42.348  29.029  26.980  1.00  0.00    -0.060 A 
ATOM     66  H   UNL A   1      42.016  28.982  29.075  1.00  0.00     0.064 H 
ATOM     67  H   UNL A   1      42.458  28.807  24.893  1.00  0.00     0.062 H 
ATOM     68  H   UNL A   1      42.945  29.871  27.002  1.00  0.00     0.062 H 
ENDBRANCH  51  54
ENDBRANCH   5  51
ENDBRANCH   1   5
BRANCH   3  69
ATOM     69  C   UNL A   1      42.658  23.084  25.699  1.00  0.00     0.017 C 
ATOM     70  H   UNL A   1      42.012  23.908  25.477  1.00  0.00     0.049 H 
ATOM     71  H   UNL A   1      42.729  22.412  24.870  1.00  0.00     0.049 H 
BRANCH  69  72
ATOM     72  C   UNL A   1      44.059  23.622  25.990  1.00  0.00    -0.036 C 
ATOM     73  H   UNL A   1      44.588  23.688  25.063  1.00  0.00     0.028 H 
ATOM     74  H   UNL A   1      44.502  22.942  26.686  1.00  0.00     0.028 H 
BRANCH  72  75
ATOM     75  C   UNL A   1      44.097  25.006  26.660  1.00  0.00    -0.052 C 
ATOM     76  H   UNL A   1      43.370  25.624  26.175  1.00  0.00     0.027 H 
ATOM     77  H   UNL A   1      45.104  25.350  26.554  1.00  0.00     0.027 H 
BRANCH  75  78
ATOM     78  C   UNL A   1      43.806  25.031  28.166  1.00  0.00    -0.052 C 
ATOM     79  H   UNL A   1      42.750  24.928  28.299  1.00  0.00     0.027 H 
ATOM     80  H   UNL A   1      44.198  25.960  28.524  1.00  0.00     0.027 H 
BRANCH  78  81
ATOM     81  C   UNL A   1      44.493  23.942  28.989  1.00  0.00    -0.036 C 
ATOM     82  H   UNL A   1      45.501  24.251  29.177  1.00  0.00     0.028 H 
ATOM     83  H   UNL A   1      44.436  23.041  28.416  1.00  0.00     0.028 H 
BRANCH  81  84
ATOM     84  C   UNL A   1      43.823  23.655  30.326  1.00  0.00     0.018 C 
ATOM     85  H   UNL A   1      43.429  22.661  30.300  1.00  0.00     0.049 H 
ATOM     86  H   UNL A   1      43.060  24.394  30.458  1.00  0.00     0.049 H 
BRANCH  84  87
ATOM     87  N   UNL A   1      44.717  23.763  31.462  1.00  0.00    -0.352 N 
ATOM     88  C   UNL A   1      45.000  24.843  32.283  1.00  0.00     0.251 C 
ATOM     89  H   UNL A   1      45.203  22.936  31.686  1.00  0.00     0.163 HD
ATOM     90  O   UNL A   1      45.956  24.789  33.026  1.00  0.00    -0.269 OA
BRANCH  88  91
ATOM     91  C   UNL A   1      44.040  25.980  32.390  1.00  0.00     0.039 A 
ATOM     92  C   UNL A   1      43.804  26.711  31.214  1.00  0.00    -0.049 A 
ATOM     93  C   UNL A   1      43.560  26.458  33.605  1.00  0.00    -0.049 A 
ATOM     94  C   UNL A   1      43.327  28.018  31.296  1.00  0.00    -0.053 A 
ATOM     95  H   UNL A   1      43.982  26.282  30.293  1.00  0.00     0.063 H 
ATOM     96  C   UNL A   1      43.174  27.778  33.701  1.00  0.00    -0.053 A 
ATOM     97  H   UNL A   1      43.495  25.833  34.423  1.00  0.00     0.063 H 
ATOM     98  C   UNL A   1      43.128  28.574  32.555  1.00  0.00    -0.014 A 
ATOM     99  H   UNL A   1      43.126  28.560  30.441  1.00  0.00     0.063 H 
ATOM    100  H   UNL A   1      42.917  28.176  34.619  1.00  0.00     0.063 H 
BRANCH  98 101
ATOM    101  C   UNL A   1      42.979  29.998  32.793  1.00  0.00     0.031 A 
ATOM    102  C   UNL A   1      41.673  30.653  32.606  1.00  0.00     0.074 A 
ATOM    103  C   UNL A   1      44.026  30.678  33.313  1.00  0.00     0.049 A 
ATOM    104  N   UNL A   1      41.530  31.918  32.402  1.00  0.00    -0.248 NA
ATOM    105  C   UNL A   1      40.410  29.920  32.604  1.00  0.00    -0.034 C 
ATOM    106  C   UNL A   1      44.015  32.010  33.909  1.00  0.00    -0.036 A 
ATOM    107  N   UNL A   1      45.387  30.337  33.242  1.00  0.00    -0.354 N 
ATOM    108  C   UNL A   1      40.190  32.205  32.499  1.00  0.00     0.074 A 
ATOM    109  C   UNL A   1      39.526  30.924  32.572  1.00  0.00    -0.034 C 
ATOM    110  H   UNL A   1      40.244  28.903  32.623  1.00  0.00     0.065 H 
ATOM    111  C   UNL A   1      45.264  32.503  33.891  1.00  0.00    -0.036 A 
ATOM    112  H   UNL A   1      43.183  32.493  34.282  1.00  0.00     0.065 H 
ATOM    113  C   UNL A   1      46.083  31.563  33.145  1.00  0.00     0.049 A 
ATOM    114  H   UNL A   1      45.776  29.433  33.257  1.00  0.00     0.167 HD
ATOM    115  C   UNL A   1      39.794  33.500  32.636  1.00  0.00     0.037 A 
ATOM    116  H   UNL A   1      38.502  30.800  32.596  1.00  0.00     0.065 H 
ATOM    117  H   UNL A   1      45.582  33.382  34.326  1.00  0.00     0.065 H 
ATOM    118  C   UNL A   1      46.802  31.878  32.028  1.00  0.00     0.037 A 
ATOM    119  C   UNL A   1      40.931  34.411  32.611  1.00  0.00     0.049 A 
ATOM    120  C   UNL A   1      46.319  33.127  31.328  1.00  0.00     0.074 A 
ATOM    121  C   UNL A   1      41.699  34.966  33.620  1.00  0.00    -0.036 A 
ATOM    122  N   UNL A   1      41.649  34.573  31.431  1.00  0.00    -0.354 N 
ATOM    123  N   UNL A   1      45.122  33.620  31.473  1.00  0.00    -0.248 NA
ATOM    124  C   UNL A   1      47.136  33.902  30.398  1.00  0.00    -0.034 C 
ATOM    125  C   UNL A   1      42.916  35.414  33.050  1.00  0.00    -0.036 A 
ATOM    126  H   UNL A   1      41.431  35.043  34.613  1.00  0.00     0.065 H 
ATOM    127  C   UNL A   1      42.875  35.155  31.691  1.00  0.00     0.049 A 
ATOM    128  H   UNL A   1      41.329  34.312  30.538  1.00  0.00     0.167 HD
ATOM    129  C   UNL A   1      44.986  34.730  30.682  1.00  0.00     0.074 A 
ATOM    130  C   UNL A   1      46.278  34.874  30.039  1.00  0.00    -0.034 C 
ATOM    131  H   UNL A   1      48.110  33.746  30.096  1.00  0.00     0.065 H 
ATOM    132  H   UNL A   1      43.697  35.856  33.560  1.00  0.00     0.065 H 
ATOM    133  C   UNL A   1      43.817  35.431  30.621  1.00  0.00     0.037 A 
ATOM    134  H   UNL A   1      46.512  35.634  29.381  1.00  0.00     0.065 H 
BRANCH 115 135
ATOM    135  C   UNL A   1      38.408  33.884  33.072  1.00  0.00     0.064 A 
ATOM    136  C   UNL A   1      38.017  33.786  34.425  1.00  0.00     0.173 A 
ATOM    137  C   UNL A   1      37.408  34.318  32.185  1.00  0.00     0.173 A 
ATOM    138  F   UNL A   1      38.886  33.435  35.381  1.00  0.00    -0.203 F 
ATOM    139  C   UNL A   1      36.706  34.022  34.840  1.00  0.00     0.198 A 
ATOM    140  C   UNL A   1      36.083  34.505  32.592  1.00  0.00     0.198 A 
ATOM    141  F   UNL A   1      37.696  34.588  30.904  1.00  0.00    -0.203 F 
ATOM    142  F   UNL A   1      36.389  33.907  36.137  1.00  0.00    -0.200 F 
ATOM    143  C   UNL A   1      35.731  34.351  33.920  1.00  0.00     0.200 A 
ATOM    144  F   UNL A   1      35.148  34.827  31.689  1.00  0.00    -0.200 F 
ATOM    145  F   UNL A   1      34.463  34.529  34.312  1.00  0.00    -0.200 F 
ENDBRANCH 115 135
BRANCH 118 146
ATOM    146  C   UNL A   1      47.373  30.682  31.351  1.00  0.00     0.064 A 
ATOM    147  C   UNL A   1      48.490  30.059  31.942  1.00  0.00     0.173 A 
ATOM    148  C   UNL A   1      46.629  29.936  30.430  1.00  0.00     0.173 A 
ATOM    149  F   UNL A   1      49.236  30.730  32.836  1.00  0.00    -0.203 F 
ATOM    150  C   UNL A   1      48.770  28.713  31.722  1.00  0.00     0.198 A 
ATOM    151  C   UNL A   1      46.922  28.589  30.200  1.00  0.00     0.198 A 
ATOM    152  F   UNL A   1      45.547  30.468  29.844  1.00  0.00    -0.203 F 
ATOM    153  F   UNL A   1      49.765  28.119  32.398  1.00  0.00    -0.200 F 
ATOM    154  C   UNL A   1      47.966  27.971  30.874  1.00  0.00     0.200 A 
ATOM    155  F   UNL A   1      46.132  27.864  29.395  1.00  0.00    -0.200 F 
ATOM    156  F   UNL A   1      48.173  26.654  30.736  1.00  0.00    -0.200 F 
ENDBRANCH 118 146
BRANCH 133 157
ATOM    157  C   UNL A   1      43.475  36.507  29.620  1.00  0.00     0.064 A 
ATOM    158  C   UNL A   1      43.733  37.872  29.821  1.00  0.00     0.173 A 
ATOM    159  C   UNL A   1      43.008  36.158  28.328  1.00  0.00     0.173 A 
ATOM    160  F   UNL A   1      44.284  38.316  30.958  1.00  0.00    -0.203 F 
ATOM    161  C   UNL A   1      43.490  38.824  28.826  1.00  0.00     0.198 A 
ATOM    162  C   UNL A   1      42.823  37.103  27.320  1.00  0.00     0.198 A 
ATOM    163  F   UNL A   1      42.745  34.885  27.997  1.00  0.00    -0.203 F 
ATOM    164  F   UNL A   1      43.716  40.120  29.081  1.00  0.00    -0.200 F 
ATOM    165  C   UNL A   1      43.049  38.438  27.574  1.00  0.00     0.200 A 
ATOM    166  F   UNL A   1      42.448  36.705  26.096  1.00  0.00    -0.200 F 
ATOM    167  F   UNL A   1      42.865  39.349  26.610  1.00  0.00    -0.200 F 
ENDBRANCH 133 157
ENDBRANCH  98 101
ENDBRANCH  88  91
ENDBRANCH  84  87
ENDBRANCH  81  84
ENDBRANCH  78  81
ENDBRANCH  75  78
ENDBRANCH  72  75
ENDBRANCH  69  72
ENDBRANCH   3  69
TORSDOF 23
ENDMDL
MODEL 9
REMARK VINA RESULT:     -11.3      4.001      7.051
REMARK SMILES Cc1ccc(S(=O)(=O)n2cc(C(=O)C(=O)NCC(=O)N[C@H](Cc3c[nH]c4ccccc34)C(=O)NCCCCCCNC(=O)c3ccc(-c4c5nc(c(-c6c(F)c(F)c(F)c(F)c6F)c6ccc([nH]6)c(-c6c(F)c(F)c(F)c(F)c6F)c6nc(c(-c7c(F)c(F)c(F)c(F)c7F)c7ccc4[nH]7)C=C6)C=C5)cc3)c3ccccc32)cc1
REMARK SMILES IDX 32 1 33 2 34 3 21 5 20 7 18 8 19 9 17 11 16 14 14 15 15 16
REMARK SMILES IDX 12 18 13 19 11 20 9 21 10 22 112 23 107 25 111 26 108 27
REMARK SMILES IDX 110 28 109 30 6 34 7 35 8 36 5 37 2 38 3 39 114 40 4 41
REMARK SMILES IDX 113 43 1 47 22 51 23 54 24 55 31 56 25 57 26 59 30 60 27 62
REMARK SMILES IDX 29 63 28 65 35 69 36 72 37 75 38 78 39 81 40 84 41 87 42 88
REMARK SMILES IDX 43 90 44 91 45 92 106 93 46 94 105 96 47 98 48 101 49 102
REMARK SMILES IDX 99 103 50 104 104 105 98 106 100 107 51 108 103 109 97 111
REMARK SMILES IDX 96 113 52 115 84 118 64 119 83 120 65 121 68 122 82 123
REMARK SMILES IDX 101 124 66 125 67 127 81 129 102 130 69 133 53 135 54 136
REMARK SMILES IDX 62 137 55 138 56 139 60 140 63 141 57 142 58 143 61 144
REMARK SMILES IDX 59 145 85 146 86 147 94 148 87 149 88 150 92 151 95 152
REMARK SMILES IDX 89 153 90 154 93 155 91 156 70 157 71 158 79 159 72 160
REMARK SMILES IDX 73 161 77 162 80 163 74 164 75 165 78 166 76 167
REMARK H PARENT 34 4 21 6 20 10 17 12 17 13 16 17 10 24 111 29 108 31 110 32
REMARK H PARENT 109 33 3 42 114 44 4 45 113 46 1 48 1 49 1 50 22 52 22 53
REMARK H PARENT 24 58 25 61 30 64 27 66 29 67 28 68 35 70 35 71 36 73 36 74
REMARK H PARENT 37 76 37 77 38 79 38 80 39 82 39 83 40 85 40 86 41 89 45 95
REMARK H PARENT 106 97 46 99 105 100 104 110 98 112 100 114 103 116 97 117
REMARK H PARENT 65 126 68 128 101 131 66 132 102 134
REMARK Flexibility Score: inf
ROOT
ATOM      1  C   UNL A   1      33.526  28.617  25.034  1.00  0.00     0.242 C 
ATOM      2  O   UNL A   1      34.357  28.094  24.281  1.00  0.00    -0.273 OA
ATOM      3  N   UNL A   1      33.971  29.683  25.747  1.00  0.00    -0.354 N 
ATOM      4  H   UNL A   1      34.835  30.035  25.433  1.00  0.00     0.163 HD
ENDROOT
BRANCH   1   5
ATOM      5  C   UNL A   1      32.108  28.035  25.132  1.00  0.00     0.112 C 
ATOM      6  H   UNL A   1      31.952  27.800  26.165  1.00  0.00     0.064 H 
BRANCH   5   7
ATOM      7  N   UNL A   1      32.065  26.842  24.270  1.00  0.00    -0.342 N 
ATOM      8  C   UNL A   1      31.283  25.729  24.374  1.00  0.00     0.240 C 
ATOM      9  O   UNL A   1      31.545  24.797  23.608  1.00  0.00    -0.273 OA
ATOM     10  H   UNL A   1      32.691  26.849  23.510  1.00  0.00     0.164 HD
BRANCH   8  11
ATOM     11  C   UNL A   1      30.011  25.700  25.250  1.00  0.00     0.097 C 
ATOM     12  H   UNL A   1      30.131  26.444  26.010  1.00  0.00     0.059 H 
ATOM     13  H   UNL A   1      29.210  25.862  24.559  1.00  0.00     0.059 H 
BRANCH  11  14
ATOM     14  N   UNL A   1      29.662  24.450  25.921  1.00  0.00    -0.340 N 
ATOM     15  C   UNL A   1      30.459  23.638  26.714  1.00  0.00     0.292 C 
ATOM     16  O   UNL A   1      30.017  22.654  27.294  1.00  0.00    -0.265 OA
ATOM     17  H   UNL A   1      28.735  24.143  25.793  1.00  0.00     0.164 HD
BRANCH  15  18
ATOM     18  C   UNL A   1      31.928  24.003  26.897  1.00  0.00     0.252 C 
ATOM     19  O   UNL A   1      32.158  25.179  27.177  1.00  0.00    -0.283 OA
BRANCH  18  20
ATOM     20  C   UNL A   1      33.003  23.057  26.566  1.00  0.00     0.054 A 
ATOM     21  N   UNL A   1      34.920  21.863  26.403  1.00  0.00    -0.240 N 
ATOM     22  C   UNL A   1      34.314  22.942  27.047  1.00  0.00     0.033 A 
ATOM     23  C   UNL A   1      33.911  21.169  25.709  1.00  0.00     0.065 A 
ATOM     24  H   UNL A   1      34.755  23.551  27.755  1.00  0.00     0.084 H 
ATOM     25  C   UNL A   1      32.876  22.082  25.532  1.00  0.00     0.012 A 
ATOM     26  C   UNL A   1      33.958  19.963  24.981  1.00  0.00    -0.037 A 
ATOM     27  C   UNL A   1      31.965  21.876  24.475  1.00  0.00    -0.052 A 
ATOM     28  C   UNL A   1      33.101  19.825  23.890  1.00  0.00    -0.060 A 
ATOM     29  H   UNL A   1      34.607  19.207  25.246  1.00  0.00     0.065 H 
ATOM     30  C   UNL A   1      32.140  20.788  23.616  1.00  0.00    -0.061 A 
ATOM     31  H   UNL A   1      31.174  22.524  24.337  1.00  0.00     0.063 H 
ATOM     32  H   UNL A   1      33.181  18.997  23.280  1.00  0.00     0.062 H 
ATOM     33  H   UNL A   1      31.552  20.701  22.772  1.00  0.00     0.062 H 
BRANCH  21  34
ATOM     34  S   UNL A   1      36.395  21.918  25.463  1.00  0.00     0.268 S 
ATOM     35  O   UNL A   1      35.989  22.645  24.270  1.00  0.00    -0.201 OA
ATOM     36  O   UNL A   1      36.766  20.509  25.395  1.00  0.00    -0.201 OA
BRANCH  34  37
ATOM     37  C   UNL A   1      37.924  22.639  25.934  1.00  0.00     0.088 A 
ATOM     38  C   UNL A   1      40.550  23.153  26.826  1.00  0.00    -0.051 A 
ATOM     39  C   UNL A   1      40.227  21.891  26.350  1.00  0.00    -0.058 A 
ATOM     40  C   UNL A   1      39.556  24.158  26.832  1.00  0.00    -0.058 A 
ATOM     41  C   UNL A   1      38.942  21.652  25.903  1.00  0.00    -0.041 A 
ATOM     42  H   UNL A   1      40.936  21.142  26.331  1.00  0.00     0.063 H 
ATOM     43  C   UNL A   1      38.229  23.909  26.390  1.00  0.00    -0.041 A 
ATOM     44  H   UNL A   1      39.802  25.102  27.168  1.00  0.00     0.063 H 
ATOM     45  H   UNL A   1      38.713  20.716  25.530  1.00  0.00     0.064 H 
ATOM     46  H   UNL A   1      37.514  24.654  26.409  1.00  0.00     0.064 H 
BRANCH  38  47
ATOM     47  C   UNL A   1      41.940  23.347  27.367  1.00  0.00    -0.040 C 
ATOM     48  H   UNL A   1      42.131  24.392  27.494  1.00  0.00     0.028 H 
ATOM     49  H   UNL A   1      42.650  22.935  26.679  1.00  0.00     0.028 H 
ATOM     50  H   UNL A   1      42.028  22.850  28.309  1.00  0.00     0.028 H 
ENDBRANCH  38  47
ENDBRANCH  34  37
ENDBRANCH  21  34
ENDBRANCH  18  20
ENDBRANCH  15  18
ENDBRANCH  11  14
ENDBRANCH   8  11
ENDBRANCH   5   7
BRANCH   5  51
ATOM     51  C   UNL A   1      30.913  28.986  24.882  1.00  0.00     0.004 C 
ATOM     52  H   UNL A   1      31.090  29.856  25.480  1.00  0.00     0.034 H 
ATOM     53  H   UNL A   1      30.074  28.363  25.113  1.00  0.00     0.034 H 
BRANCH  51  54
ATOM     54  C   UNL A   1      30.573  29.486  23.497  1.00  0.00    -0.020 A 
ATOM     55  C   UNL A   1      31.003  29.046  22.261  1.00  0.00     0.005 A 
ATOM     56  C   UNL A   1      29.664  30.575  23.210  1.00  0.00     0.003 A 
ATOM     57  N   UNL A   1      30.239  29.626  21.286  1.00  0.00    -0.361 N 
ATOM     58  H   UNL A   1      31.779  28.385  22.098  1.00  0.00     0.082 H 
ATOM     59  C   UNL A   1      29.421  30.574  21.836  1.00  0.00     0.046 A 
ATOM     60  C   UNL A   1      29.006  31.549  23.991  1.00  0.00    -0.053 A 
ATOM     61  H   UNL A   1      30.273  29.395  20.330  1.00  0.00     0.166 HD
ATOM     62  C   UNL A   1      28.508  31.429  21.211  1.00  0.00    -0.038 A 
ATOM     63  C   UNL A   1      28.139  32.463  23.372  1.00  0.00    -0.062 A 
ATOM     64  H   UNL A   1      29.161  31.589  25.011  1.00  0.00     0.063 H 
ATOM     65  C   UNL A   1      27.876  32.385  22.006  1.00  0.00    -0.060 A 
ATOM     66  H   UNL A   1      28.308  31.356  20.202  1.00  0.00     0.064 H 
ATOM     67  H   UNL A   1      27.691  33.200  23.935  1.00  0.00     0.062 H 
ATOM     68  H   UNL A   1      27.207  33.043  21.577  1.00  0.00     0.062 H 
ENDBRANCH  51  54
ENDBRANCH   5  51
ENDBRANCH   1   5
BRANCH   3  69
ATOM     69  C   UNL A   1      33.428  30.405  26.879  1.00  0.00     0.017 C 
ATOM     70  H   UNL A   1      33.146  29.702  27.635  1.00  0.00     0.049 H 
ATOM     71  H   UNL A   1      32.584  30.966  26.537  1.00  0.00     0.049 H 
BRANCH  69  72
ATOM     72  C   UNL A   1      34.437  31.388  27.472  1.00  0.00    -0.036 C 
ATOM     73  H   UNL A   1      34.966  31.849  26.665  1.00  0.00     0.028 H 
ATOM     74  H   UNL A   1      35.066  30.815  28.121  1.00  0.00     0.028 H 
BRANCH  72  75
ATOM     75  C   UNL A   1      33.828  32.501  28.340  1.00  0.00    -0.052 C 
ATOM     76  H   UNL A   1      33.021  32.074  28.898  1.00  0.00     0.027 H 
ATOM     77  H   UNL A   1      33.530  33.269  27.658  1.00  0.00     0.027 H 
BRANCH  75  78
ATOM     78  C   UNL A   1      34.782  33.175  29.335  1.00  0.00    -0.052 C 
ATOM     79  H   UNL A   1      34.542  34.217  29.366  1.00  0.00     0.027 H 
ATOM     80  H   UNL A   1      35.770  32.970  28.977  1.00  0.00     0.027 H 
BRANCH  78  81
ATOM     81  C   UNL A   1      34.734  32.637  30.764  1.00  0.00    -0.036 C 
ATOM     82  H   UNL A   1      33.772  32.195  30.923  1.00  0.00     0.028 H 
ATOM     83  H   UNL A   1      34.920  33.467  31.412  1.00  0.00     0.028 H 
BRANCH  81  84
ATOM     84  C   UNL A   1      35.798  31.592  31.073  1.00  0.00     0.018 C 
ATOM     85  H   UNL A   1      35.548  31.120  31.999  1.00  0.00     0.049 H 
ATOM     86  H   UNL A   1      36.736  32.105  31.115  1.00  0.00     0.049 H 
BRANCH  84  87
ATOM     87  N   UNL A   1      35.922  30.567  30.055  1.00  0.00    -0.352 N 
ATOM     88  C   UNL A   1      37.050  29.978  29.507  1.00  0.00     0.251 C 
ATOM     89  H   UNL A   1      35.066  30.236  29.695  1.00  0.00     0.163 HD
ATOM     90  O   UNL A   1      36.941  29.314  28.498  1.00  0.00    -0.269 OA
BRANCH  88  91
ATOM     91  C   UNL A   1      38.346  30.003  30.243  1.00  0.00     0.039 A 
ATOM     92  C   UNL A   1      39.339  30.855  29.731  1.00  0.00    -0.049 A 
ATOM     93  C   UNL A   1      38.671  29.091  31.241  1.00  0.00    -0.049 A 
ATOM     94  C   UNL A   1      40.679  30.615  30.030  1.00  0.00    -0.053 A 
ATOM     95  H   UNL A   1      39.078  31.656  29.136  1.00  0.00     0.063 H 
ATOM     96  C   UNL A   1      39.997  28.791  31.471  1.00  0.00    -0.053 A 
ATOM     97  H   UNL A   1      37.929  28.644  31.802  1.00  0.00     0.063 H 
ATOM     98  C   UNL A   1      40.996  29.507  30.809  1.00  0.00    -0.014 A 
ATOM     99  H   UNL A   1      41.418  31.246  29.682  1.00  0.00     0.063 H 
ATOM    100  H   UNL A   1      40.250  28.040  32.133  1.00  0.00     0.063 H 
BRANCH  98 101
ATOM    101  C   UNL A   1      42.331  28.944  30.904  1.00  0.00     0.031 A 
ATOM    102  C   UNL A   1      42.730  27.822  30.037  1.00  0.00     0.074 A 
ATOM    103  C   UNL A   1      43.232  29.554  31.706  1.00  0.00     0.049 A 
ATOM    104  N   UNL A   1      43.702  27.020  30.308  1.00  0.00    -0.248 NA
ATOM    105  C   UNL A   1      42.039  27.494  28.794  1.00  0.00    -0.034 C 
ATOM    106  C   UNL A   1      44.679  29.362  31.726  1.00  0.00    -0.036 A 
ATOM    107  N   UNL A   1      42.972  30.376  32.815  1.00  0.00    -0.354 N 
ATOM    108  C   UNL A   1      43.931  26.253  29.192  1.00  0.00     0.074 A 
ATOM    109  C   UNL A   1      42.838  26.545  28.293  1.00  0.00    -0.034 C 
ATOM    110  H   UNL A   1      41.169  27.888  28.405  1.00  0.00     0.065 H 
ATOM    111  C   UNL A   1      45.154  29.780  32.911  1.00  0.00    -0.036 A 
ATOM    112  H   UNL A   1      45.243  28.970  30.957  1.00  0.00     0.065 H 
ATOM    113  C   UNL A   1      44.007  30.108  33.740  1.00  0.00     0.049 A 
ATOM    114  H   UNL A   1      42.225  31.007  32.926  1.00  0.00     0.167 HD
ATOM    115  C   UNL A   1      45.091  25.546  29.094  1.00  0.00     0.037 A 
ATOM    116  H   UNL A   1      42.692  26.080  27.383  1.00  0.00     0.065 H 
ATOM    117  H   UNL A   1      46.146  29.854  33.182  1.00  0.00     0.065 H 
ATOM    118  C   UNL A   1      43.739  29.543  34.953  1.00  0.00     0.037 A 
ATOM    119  C   UNL A   1      45.914  25.708  30.285  1.00  0.00     0.049 A 
ATOM    120  C   UNL A   1      44.425  28.214  35.167  1.00  0.00     0.074 A 
ATOM    121  C   UNL A   1      46.947  26.578  30.590  1.00  0.00    -0.036 A 
ATOM    122  N   UNL A   1      45.484  25.166  31.491  1.00  0.00    -0.354 N 
ATOM    123  N   UNL A   1      44.862  27.461  34.196  1.00  0.00    -0.248 NA
ATOM    124  C   UNL A   1      44.652  27.621  36.482  1.00  0.00    -0.034 C 
ATOM    125  C   UNL A   1      47.098  26.605  31.997  1.00  0.00    -0.036 A 
ATOM    126  H   UNL A   1      47.510  27.113  29.910  1.00  0.00     0.065 H 
ATOM    127  C   UNL A   1      46.176  25.730  32.545  1.00  0.00     0.049 A 
ATOM    128  H   UNL A   1      44.785  24.480  31.581  1.00  0.00     0.167 HD
ATOM    129  C   UNL A   1      45.400  26.313  34.716  1.00  0.00     0.074 A 
ATOM    130  C   UNL A   1      45.257  26.466  36.151  1.00  0.00    -0.034 C 
ATOM    131  H   UNL A   1      44.412  27.989  37.415  1.00  0.00     0.065 H 
ATOM    132  H   UNL A   1      47.778  27.176  32.523  1.00  0.00     0.065 H 
ATOM    133  C   UNL A   1      45.910  25.332  33.916  1.00  0.00     0.037 A 
ATOM    134  H   UNL A   1      45.582  25.769  36.839  1.00  0.00     0.065 H 
BRANCH 115 135
ATOM    135  C   UNL A   1      45.575  24.953  27.801  1.00  0.00     0.064 A 
ATOM    136  C   UNL A   1      46.115  25.768  26.784  1.00  0.00     0.173 A 
ATOM    137  C   UNL A   1      45.488  23.585  27.495  1.00  0.00     0.173 A 
ATOM    138  F   UNL A   1      46.302  27.082  26.964  1.00  0.00    -0.203 F 
ATOM    139  C   UNL A   1      46.462  25.263  25.530  1.00  0.00     0.198 A 
ATOM    140  C   UNL A   1      45.788  23.086  26.223  1.00  0.00     0.198 A 
ATOM    141  F   UNL A   1      45.127  22.693  28.430  1.00  0.00    -0.203 F 
ATOM    142  F   UNL A   1      46.966  26.084  24.598  1.00  0.00    -0.200 F 
ATOM    143  C   UNL A   1      46.270  23.928  25.238  1.00  0.00     0.200 A 
ATOM    144  F   UNL A   1      45.598  21.787  25.955  1.00  0.00    -0.200 F 
ATOM    145  F   UNL A   1      46.557  23.453  24.019  1.00  0.00    -0.200 F 
ENDBRANCH 115 135
BRANCH 118 146
ATOM    146  C   UNL A   1      42.395  29.908  35.477  1.00  0.00     0.064 A 
ATOM    147  C   UNL A   1      42.279  31.099  36.221  1.00  0.00     0.173 A 
ATOM    148  C   UNL A   1      41.224  29.368  34.934  1.00  0.00     0.173 A 
ATOM    149  F   UNL A   1      43.373  31.661  36.760  1.00  0.00    -0.203 F 
ATOM    150  C   UNL A   1      41.070  31.786  36.305  1.00  0.00     0.198 A 
ATOM    151  C   UNL A   1      40.010  30.052  35.034  1.00  0.00     0.198 A 
ATOM    152  F   UNL A   1      41.271  28.244  34.206  1.00  0.00    -0.203 F 
ATOM    153  F   UNL A   1      41.022  32.980  36.913  1.00  0.00    -0.200 F 
ATOM    154  C   UNL A   1      39.943  31.276  35.684  1.00  0.00     0.200 A 
ATOM    155  F   UNL A   1      38.922  29.570  34.416  1.00  0.00    -0.200 F 
ATOM    156  F   UNL A   1      38.803  31.981  35.679  1.00  0.00    -0.200 F 
ENDBRANCH 118 146
BRANCH 133 157
ATOM    157  C   UNL A   1      46.301  23.941  34.352  1.00  0.00     0.064 A 
ATOM    158  C   UNL A   1      45.413  22.854  34.383  1.00  0.00     0.173 A 
ATOM    159  C   UNL A   1      47.660  23.627  34.605  1.00  0.00     0.173 A 
ATOM    160  F   UNL A   1      44.124  22.999  34.049  1.00  0.00    -0.203 F 
ATOM    161  C   UNL A   1      45.840  21.561  34.699  1.00  0.00     0.198 A 
ATOM    162  C   UNL A   1      48.090  22.327  34.861  1.00  0.00     0.198 A 
ATOM    163  F   UNL A   1      48.614  24.569  34.583  1.00  0.00    -0.203 F 
ATOM    164  F   UNL A   1      44.947  20.564  34.753  1.00  0.00    -0.200 F 
ATOM    165  C   UNL A   1      47.178  21.296  34.924  1.00  0.00     0.200 A 
ATOM    166  F   UNL A   1      49.398  22.079  35.023  1.00  0.00    -0.200 F 
ATOM    167  F   UNL A   1      47.589  20.047  35.177  1.00  0.00    -0.200 F 
ENDBRANCH 133 157
ENDBRANCH  98 101
ENDBRANCH  88  91
ENDBRANCH  84  87
ENDBRANCH  81  84
ENDBRANCH  78  81
ENDBRANCH  75  78
ENDBRANCH  72  75
ENDBRANCH  69  72
ENDBRANCH   3  69
TORSDOF 23
ENDMDL
MODEL 10
REMARK VINA RESULT:     -11.2      4.869      7.902
REMARK SMILES Cc1ccc(S(=O)(=O)n2cc(C(=O)C(=O)NCC(=O)N[C@H](Cc3c[nH]c4ccccc34)C(=O)NCCCCCCNC(=O)c3ccc(-c4c5nc(c(-c6c(F)c(F)c(F)c(F)c6F)c6ccc([nH]6)c(-c6c(F)c(F)c(F)c(F)c6F)c6nc(c(-c7c(F)c(F)c(F)c(F)c7F)c7ccc4[nH]7)C=C6)C=C5)cc3)c3ccccc32)cc1
REMARK SMILES IDX 32 1 33 2 34 3 21 5 20 7 18 8 19 9 17 11 16 14 14 15 15 16
REMARK SMILES IDX 12 18 13 19 11 20 9 21 10 22 112 23 107 25 111 26 108 27
REMARK SMILES IDX 110 28 109 30 6 34 7 35 8 36 5 37 2 38 3 39 114 40 4 41
REMARK SMILES IDX 113 43 1 47 22 51 23 54 24 55 31 56 25 57 26 59 30 60 27 62
REMARK SMILES IDX 29 63 28 65 35 69 36 72 37 75 38 78 39 81 40 84 41 87 42 88
REMARK SMILES IDX 43 90 44 91 45 92 106 93 46 94 105 96 47 98 48 101 49 102
REMARK SMILES IDX 99 103 50 104 104 105 98 106 100 107 51 108 103 109 97 111
REMARK SMILES IDX 96 113 52 115 84 118 64 119 83 120 65 121 68 122 82 123
REMARK SMILES IDX 101 124 66 125 67 127 81 129 102 130 69 133 53 135 54 136
REMARK SMILES IDX 62 137 55 138 56 139 60 140 63 141 57 142 58 143 61 144
REMARK SMILES IDX 59 145 85 146 86 147 94 148 87 149 88 150 92 151 95 152
REMARK SMILES IDX 89 153 90 154 93 155 91 156 70 157 71 158 79 159 72 160
REMARK SMILES IDX 73 161 77 162 80 163 74 164 75 165 78 166 76 167
REMARK H PARENT 34 4 21 6 20 10 17 12 17 13 16 17 10 24 111 29 108 31 110 32
REMARK H PARENT 109 33 3 42 114 44 4 45 113 46 1 48 1 49 1 50 22 52 22 53
REMARK H PARENT 24 58 25 61 30 64 27 66 29 67 28 68 35 70 35 71 36 73 36 74
REMARK H PARENT 37 76 37 77 38 79 38 80 39 82 39 83 40 85 40 86 41 89 45 95
REMARK H PARENT 106 97 46 99 105 100 104 110 98 112 100 114 103 116 97 117
REMARK H PARENT 65 126 68 128 101 131 66 132 102 134
REMARK Flexibility Score: inf
ROOT
ATOM      1  C   UNL A   1      33.452  28.332  24.011  1.00  0.00     0.242 C 
ATOM      2  O   UNL A   1      34.043  28.284  22.926  1.00  0.00    -0.273 OA
ATOM      3  N   UNL A   1      33.304  29.571  24.543  1.00  0.00    -0.354 N 
ATOM      4  H   UNL A   1      33.503  30.299  23.910  1.00  0.00     0.163 HD
ENDROOT
BRANCH   1   5
ATOM      5  C   UNL A   1      32.966  27.035  24.677  1.00  0.00     0.112 C 
ATOM      6  H   UNL A   1      33.607  26.873  25.519  1.00  0.00     0.064 H 
BRANCH   5   7
ATOM      7  N   UNL A   1      33.074  25.963  23.674  1.00  0.00    -0.342 N 
ATOM      8  C   UNL A   1      34.028  24.997  23.542  1.00  0.00     0.240 C 
ATOM      9  O   UNL A   1      33.973  24.303  22.521  1.00  0.00    -0.273 OA
ATOM     10  H   UNL A   1      32.353  25.939  23.002  1.00  0.00     0.164 HD
BRANCH   8  11
ATOM     11  C   UNL A   1      35.002  24.644  24.687  1.00  0.00     0.097 C 
ATOM     12  H   UNL A   1      35.976  24.545  24.257  1.00  0.00     0.059 H 
ATOM     13  H   UNL A   1      34.880  25.439  25.394  1.00  0.00     0.059 H 
BRANCH  11  14
ATOM     14  N   UNL A   1      34.748  23.431  25.462  1.00  0.00    -0.340 N 
ATOM     15  C   UNL A   1      35.609  22.379  25.736  1.00  0.00     0.292 C 
ATOM     16  O   UNL A   1      35.298  21.455  26.478  1.00  0.00    -0.265 OA
ATOM     17  H   UNL A   1      33.842  23.350  25.841  1.00  0.00     0.164 HD
BRANCH  15  18
ATOM     18  C   UNL A   1      37.005  22.392  25.121  1.00  0.00     0.252 C 
ATOM     19  O   UNL A   1      37.104  21.881  24.006  1.00  0.00    -0.283 OA
BRANCH  18  20
ATOM     20  C   UNL A   1      38.183  22.808  25.896  1.00  0.00     0.054 A 
ATOM     21  N   UNL A   1      39.782  23.909  27.061  1.00  0.00    -0.240 N 
ATOM     22  C   UNL A   1      38.574  24.063  26.378  1.00  0.00     0.033 A 
ATOM     23  C   UNL A   1      40.007  22.527  27.205  1.00  0.00     0.065 A 
ATOM     24  H   UNL A   1      38.060  24.949  26.251  1.00  0.00     0.084 H 
ATOM     25  C   UNL A   1      39.247  21.914  26.214  1.00  0.00     0.012 A 
ATOM     26  C   UNL A   1      41.019  21.827  27.893  1.00  0.00    -0.037 A 
ATOM     27  C   UNL A   1      39.625  20.628  25.769  1.00  0.00    -0.052 A 
ATOM     28  C   UNL A   1      41.426  20.596  27.379  1.00  0.00    -0.060 A 
ATOM     29  H   UNL A   1      41.444  22.212  28.749  1.00  0.00     0.065 H 
ATOM     30  C   UNL A   1      40.763  20.021  26.305  1.00  0.00    -0.061 A 
ATOM     31  H   UNL A   1      39.064  20.141  25.053  1.00  0.00     0.063 H 
ATOM     32  H   UNL A   1      42.230  20.108  27.803  1.00  0.00     0.062 H 
ATOM     33  H   UNL A   1      41.113  19.138  25.898  1.00  0.00     0.062 H 
BRANCH  21  34
ATOM     34  S   UNL A   1      41.277  24.748  26.717  1.00  0.00     0.268 S 
ATOM     35  O   UNL A   1      41.720  25.171  28.036  1.00  0.00    -0.201 OA
ATOM     36  O   UNL A   1      40.856  25.722  25.717  1.00  0.00    -0.201 OA
BRANCH  34  37
ATOM     37  C   UNL A   1      42.710  24.087  25.950  1.00  0.00     0.088 A 
ATOM     38  C   UNL A   1      45.273  23.637  24.858  1.00  0.00    -0.051 A 
ATOM     39  C   UNL A   1      45.106  24.619  25.823  1.00  0.00    -0.058 A 
ATOM     40  C   UNL A   1      44.153  22.870  24.462  1.00  0.00    -0.058 A 
ATOM     41  C   UNL A   1      43.850  24.824  26.362  1.00  0.00    -0.041 A 
ATOM     42  H   UNL A   1      45.908  25.189  26.133  1.00  0.00     0.063 H 
ATOM     43  C   UNL A   1      42.858  23.091  25.001  1.00  0.00    -0.041 A 
ATOM     44  H   UNL A   1      44.281  22.126  23.759  1.00  0.00     0.063 H 
ATOM     45  H   UNL A   1      43.737  25.542  27.095  1.00  0.00     0.064 H 
ATOM     46  H   UNL A   1      42.050  22.526  24.693  1.00  0.00     0.064 H 
BRANCH  38  47
ATOM     47  C   UNL A   1      46.641  23.498  24.251  1.00  0.00    -0.040 C 
ATOM     48  H   UNL A   1      47.244  22.867  24.871  1.00  0.00     0.028 H 
ATOM     49  H   UNL A   1      47.096  24.464  24.175  1.00  0.00     0.028 H 
ATOM     50  H   UNL A   1      46.557  23.066  23.277  1.00  0.00     0.028 H 
ENDBRANCH  38  47
ENDBRANCH  34  37
ENDBRANCH  21  34
ENDBRANCH  18  20
ENDBRANCH  15  18
ENDBRANCH  11  14
ENDBRANCH   8  11
ENDBRANCH   5   7
BRANCH   5  51
ATOM     51  C   UNL A   1      31.586  27.050  25.378  1.00  0.00     0.004 C 
ATOM     52  H   UNL A   1      31.538  27.967  25.928  1.00  0.00     0.034 H 
ATOM     53  H   UNL A   1      31.594  26.125  25.915  1.00  0.00     0.034 H 
BRANCH  51  54
ATOM     54  C   UNL A   1      30.297  26.958  24.594  1.00  0.00    -0.020 A 
ATOM     55  C   UNL A   1      29.452  25.885  24.394  1.00  0.00     0.005 A 
ATOM     56  C   UNL A   1      29.680  28.057  23.883  1.00  0.00     0.003 A 
ATOM     57  N   UNL A   1      28.285  26.330  23.836  1.00  0.00    -0.361 N 
ATOM     58  H   UNL A   1      29.666  24.903  24.628  1.00  0.00     0.082 H 
ATOM     59  C   UNL A   1      28.401  27.651  23.501  1.00  0.00     0.046 A 
ATOM     60  C   UNL A   1      30.079  29.368  23.547  1.00  0.00    -0.053 A 
ATOM     61  H   UNL A   1      27.480  25.780  23.696  1.00  0.00     0.166 HD
ATOM     62  C   UNL A   1      27.475  28.493  22.879  1.00  0.00    -0.038 A 
ATOM     63  C   UNL A   1      29.188  30.207  22.859  1.00  0.00    -0.062 A 
ATOM     64  H   UNL A   1      31.018  29.709  23.806  1.00  0.00     0.063 H 
ATOM     65  C   UNL A   1      27.898  29.782  22.554  1.00  0.00    -0.060 A 
ATOM     66  H   UNL A   1      26.517  28.175  22.669  1.00  0.00     0.064 H 
ATOM     67  H   UNL A   1      29.493  31.151  22.577  1.00  0.00     0.062 H 
ATOM     68  H   UNL A   1      27.246  30.428  22.080  1.00  0.00     0.062 H 
ENDBRANCH  51  54
ENDBRANCH   5  51
ENDBRANCH   1   5
BRANCH   3  69
ATOM     69  C   UNL A   1      32.910  30.037  25.857  1.00  0.00     0.017 C 
ATOM     70  H   UNL A   1      31.953  29.622  26.098  1.00  0.00     0.049 H 
ATOM     71  H   UNL A   1      32.874  31.106  25.832  1.00  0.00     0.049 H 
BRANCH  69  72
ATOM     72  C   UNL A   1      33.911  29.625  26.937  1.00  0.00    -0.036 C 
ATOM     73  H   UNL A   1      34.655  29.007  26.481  1.00  0.00     0.028 H 
ATOM     74  H   UNL A   1      33.345  29.123  27.694  1.00  0.00     0.028 H 
BRANCH  72  75
ATOM     75  C   UNL A   1      34.625  30.791  27.639  1.00  0.00    -0.052 C 
ATOM     76  H   UNL A   1      34.112  30.983  28.558  1.00  0.00     0.027 H 
ATOM     77  H   UNL A   1      34.600  31.605  26.946  1.00  0.00     0.027 H 
BRANCH  75  78
ATOM     78  C   UNL A   1      36.108  30.571  27.966  1.00  0.00    -0.052 C 
ATOM     79  H   UNL A   1      36.580  30.165  27.097  1.00  0.00     0.027 H 
ATOM     80  H   UNL A   1      36.127  29.916  28.813  1.00  0.00     0.027 H 
BRANCH  78  81
ATOM     81  C   UNL A   1      36.884  31.819  28.385  1.00  0.00    -0.036 C 
ATOM     82  H   UNL A   1      36.256  32.404  29.024  1.00  0.00     0.028 H 
ATOM     83  H   UNL A   1      37.152  32.331  27.486  1.00  0.00     0.028 H 
BRANCH  81  84
ATOM     84  C   UNL A   1      38.182  31.527  29.127  1.00  0.00     0.018 C 
ATOM     85  H   UNL A   1      37.992  31.592  30.177  1.00  0.00     0.049 H 
ATOM     86  H   UNL A   1      38.900  32.248  28.795  1.00  0.00     0.049 H 
BRANCH  84  87
ATOM     87  N   UNL A   1      38.735  30.218  28.842  1.00  0.00    -0.352 N 
ATOM     88  C   UNL A   1      39.999  29.704  29.085  1.00  0.00     0.251 C 
ATOM     89  H   UNL A   1      38.113  29.592  28.404  1.00  0.00     0.163 HD
ATOM     90  O   UNL A   1      40.330  28.668  28.553  1.00  0.00    -0.269 OA
BRANCH  88  91
ATOM     91  C   UNL A   1      40.872  30.315  30.129  1.00  0.00     0.039 A 
ATOM     92  C   UNL A   1      40.789  29.761  31.417  1.00  0.00    -0.049 A 
ATOM     93  C   UNL A   1      41.570  31.502  29.936  1.00  0.00    -0.049 A 
ATOM     94  C   UNL A   1      41.173  30.517  32.523  1.00  0.00    -0.053 A 
ATOM     95  H   UNL A   1      40.444  28.797  31.544  1.00  0.00     0.063 H 
ATOM     96  C   UNL A   1      41.870  32.290  31.027  1.00  0.00    -0.053 A 
ATOM     97  H   UNL A   1      41.860  31.789  28.989  1.00  0.00     0.063 H 
ATOM     98  C   UNL A   1      41.603  31.823  32.315  1.00  0.00    -0.014 A 
ATOM     99  H   UNL A   1      41.140  30.115  33.473  1.00  0.00     0.063 H 
ATOM    100  H   UNL A   1      42.291  33.223  30.891  1.00  0.00     0.063 H 
BRANCH  98 101
ATOM    101  C   UNL A   1      41.694  32.818  33.368  1.00  0.00     0.031 A 
ATOM    102  C   UNL A   1      42.923  32.943  34.172  1.00  0.00     0.074 A 
ATOM    103  C   UNL A   1      40.685  33.707  33.505  1.00  0.00     0.049 A 
ATOM    104  N   UNL A   1      42.961  33.486  35.340  1.00  0.00    -0.248 NA
ATOM    105  C   UNL A   1      44.217  32.433  33.728  1.00  0.00    -0.034 C 
ATOM    106  C   UNL A   1      40.692  34.952  34.266  1.00  0.00    -0.036 A 
ATOM    107  N   UNL A   1      39.349  33.553  33.097  1.00  0.00    -0.354 N 
ATOM    108  C   UNL A   1      44.282  33.632  35.687  1.00  0.00     0.074 A 
ATOM    109  C   UNL A   1      45.026  32.914  34.678  1.00  0.00    -0.034 C 
ATOM    110  H   UNL A   1      44.445  31.857  32.904  1.00  0.00     0.065 H 
ATOM    111  C   UNL A   1      39.423  35.308  34.526  1.00  0.00    -0.036 A 
ATOM    112  H   UNL A   1      41.534  35.473  34.556  1.00  0.00     0.065 H 
ATOM    113  C   UNL A   1      38.573  34.222  34.071  1.00  0.00     0.049 A 
ATOM    114  H   UNL A   1      39.021  33.079  32.299  1.00  0.00     0.167 HD
ATOM    115  C   UNL A   1      44.613  34.452  36.722  1.00  0.00     0.037 A 
ATOM    116  H   UNL A   1      46.051  32.789  34.690  1.00  0.00     0.065 H 
ATOM    117  H   UNL A   1      39.111  36.188  34.964  1.00  0.00     0.065 H 
ATOM    118  C   UNL A   1      37.697  33.538  34.865  1.00  0.00     0.037 A 
ATOM    119  C   UNL A   1      43.429  35.032  37.342  1.00  0.00     0.049 A 
ATOM    120  C   UNL A   1      38.008  33.642  36.339  1.00  0.00     0.074 A 
ATOM    121  C   UNL A   1      42.767  36.231  37.138  1.00  0.00    -0.036 A 
ATOM    122  N   UNL A   1      42.556  34.211  38.045  1.00  0.00    -0.354 N 
ATOM    123  N   UNL A   1      39.182  33.954  36.811  1.00  0.00    -0.248 NA
ATOM    124  C   UNL A   1      37.032  33.380  37.394  1.00  0.00    -0.034 C 
ATOM    125  C   UNL A   1      41.461  36.107  37.673  1.00  0.00    -0.036 A 
ATOM    126  H   UNL A   1      43.155  37.069  36.679  1.00  0.00     0.065 H 
ATOM    127  C   UNL A   1      41.341  34.844  38.225  1.00  0.00     0.049 A 
ATOM    128  H   UNL A   1      42.773  33.308  38.370  1.00  0.00     0.167 HD
ATOM    129  C   UNL A   1      39.146  33.929  38.180  1.00  0.00     0.074 A 
ATOM    130  C   UNL A   1      37.775  33.577  38.498  1.00  0.00    -0.034 C 
ATOM    131  H   UNL A   1      36.038  33.115  37.314  1.00  0.00     0.065 H 
ATOM    132  H   UNL A   1      40.727  36.833  37.654  1.00  0.00     0.065 H 
ATOM    133  C   UNL A   1      40.253  34.193  38.934  1.00  0.00     0.037 A 
ATOM    134  H   UNL A   1      37.413  33.488  39.459  1.00  0.00     0.065 H 
BRANCH 115 135
ATOM    135  C   UNL A   1      46.018  34.928  36.964  1.00  0.00     0.064 A 
ATOM    136  C   UNL A   1      46.797  34.394  38.012  1.00  0.00     0.173 A 
ATOM    137  C   UNL A   1      46.633  35.944  36.213  1.00  0.00     0.173 A 
ATOM    138  F   UNL A   1      46.352  33.384  38.771  1.00  0.00    -0.203 F 
ATOM    139  C   UNL A   1      48.058  34.897  38.335  1.00  0.00     0.198 A 
ATOM    140  C   UNL A   1      47.874  36.483  36.567  1.00  0.00     0.198 A 
ATOM    141  F   UNL A   1      46.051  36.429  35.106  1.00  0.00    -0.203 F 
ATOM    142  F   UNL A   1      48.752  34.356  39.345  1.00  0.00    -0.200 F 
ATOM    143  C   UNL A   1      48.584  35.963  37.632  1.00  0.00     0.200 A 
ATOM    144  F   UNL A   1      48.374  37.516  35.875  1.00  0.00    -0.200 F 
ATOM    145  F   UNL A   1      49.773  36.478  37.973  1.00  0.00    -0.200 F 
ENDBRANCH 115 135
BRANCH 118 146
ATOM    146  C   UNL A   1      37.117  32.345  34.192  1.00  0.00     0.064 A 
ATOM    147  C   UNL A   1      36.128  32.556  33.210  1.00  0.00     0.173 A 
ATOM    148  C   UNL A   1      37.778  31.111  34.189  1.00  0.00     0.173 A 
ATOM    149  F   UNL A   1      35.467  33.724  33.167  1.00  0.00    -0.203 F 
ATOM    150  C   UNL A   1      35.905  31.628  32.196  1.00  0.00     0.198 A 
ATOM    151  C   UNL A   1      37.541  30.177  33.178  1.00  0.00     0.198 A 
ATOM    152  F   UNL A   1      38.738  30.855  35.089  1.00  0.00    -0.203 F 
ATOM    153  F   UNL A   1      35.047  31.915  31.206  1.00  0.00    -0.200 F 
ATOM    154  C   UNL A   1      36.635  30.452  32.163  1.00  0.00     0.200 A 
ATOM    155  F   UNL A   1      38.261  29.047  33.133  1.00  0.00    -0.200 F 
ATOM    156  F   UNL A   1      36.493  29.604  31.136  1.00  0.00    -0.200 F 
ENDBRANCH 118 146
BRANCH 133 157
ATOM    157  C   UNL A   1      40.396  33.961  40.417  1.00  0.00     0.064 A 
ATOM    158  C   UNL A   1      41.100  32.883  40.975  1.00  0.00     0.173 A 
ATOM    159  C   UNL A   1      39.946  34.939  41.340  1.00  0.00     0.173 A 
ATOM    160  F   UNL A   1      41.675  31.952  40.202  1.00  0.00    -0.203 F 
ATOM    161  C   UNL A   1      41.291  32.760  42.355  1.00  0.00     0.198 A 
ATOM    162  C   UNL A   1      40.190  34.843  42.708  1.00  0.00     0.198 A 
ATOM    163  F   UNL A   1      39.281  36.031  40.936  1.00  0.00    -0.203 F 
ATOM    164  F   UNL A   1      41.937  31.691  42.841  1.00  0.00    -0.200 F 
ATOM    165  C   UNL A   1      40.850  33.745  43.218  1.00  0.00     0.200 A 
ATOM    166  F   UNL A   1      39.803  35.834  43.524  1.00  0.00    -0.200 F 
ATOM    167  F   UNL A   1      41.078  33.647  44.534  1.00  0.00    -0.200 F 
ENDBRANCH 133 157
ENDBRANCH  98 101
ENDBRANCH  88  91
ENDBRANCH  84  87
ENDBRANCH  81  84
ENDBRANCH  78  81
ENDBRANCH  75  78
ENDBRANCH  72  75
ENDBRANCH  69  72
ENDBRANCH   3  69
TORSDOF 23
ENDMDL
