MODEL 1
REMARK VINA RESULT:     -12.9      0.000      0.000
REMARK SMILES CC1(C)Cc2c(-c3ccccc3)c(-c3ccc(Cl)cc3)c(CC(=O)NCCCCCCNC(=O)c3ccc(-c4c5nc(c(-c6c(F)c(F)c(F)c(F)c6F)c6ccc([nH]6)c(-c6c(F)c(F)c(F)c(F)c6F)c6nc(c(-c7c(F)c(F)c(F)c(F)c7F)c7ccc4[nH]7)C=C6)C=C5)cc3)n2C1
REMARK SMILES IDX 28 1 27 4 26 7 25 10 23 11 24 12 22 14 21 17 2 18 4 19 99 20
REMARK SMILES IDX 5 21 98 24 6 27 13 28 1 29 3 33 7 37 8 38 12 39 9 40 11 42
REMARK SMILES IDX 10 44 14 48 15 49 20 50 16 51 19 53 17 55 18 58 29 59 30 62
REMARK SMILES IDX 31 65 32 68 33 69 34 71 35 72 36 73 97 74 37 75 96 77 38 79
REMARK SMILES IDX 39 82 40 83 90 84 41 85 95 86 89 87 91 88 42 89 94 90 88 92
REMARK SMILES IDX 87 94 43 96 75 99 55 100 74 101 56 102 59 103 73 104 92 105
REMARK SMILES IDX 57 106 58 108 72 110 93 111 60 114 44 116 45 117 53 118
REMARK SMILES IDX 46 119 47 120 51 121 54 122 48 123 49 124 52 125 50 126
REMARK SMILES IDX 76 127 77 128 85 129 78 130 79 131 83 132 86 133 80 134
REMARK SMILES IDX 81 135 84 136 82 137 61 138 62 139 70 140 63 141 64 142
REMARK SMILES IDX 68 143 71 144 65 145 66 146 69 147 67 148
REMARK H PARENT 28 2 28 3 27 5 27 6 26 8 26 9 25 13 22 15 22 16 4 22 4 23
REMARK H PARENT 99 25 99 26 1 30 1 31 1 32 3 34 3 35 3 36 8 41 12 43 9 45
REMARK H PARENT 11 46 10 47 15 52 20 54 16 56 19 57 29 60 29 61 30 63 30 64
REMARK H PARENT 31 66 31 67 32 70 36 76 97 78 37 80 96 81 95 91 89 93 91 95
REMARK H PARENT 94 97 88 98 56 107 59 109 92 112 57 113 93 115
REMARK Flexibility Score: inf
ROOT
ATOM      1  C   UNL A   1      39.784  21.925  26.137  1.00  0.00    -0.052 C 
ATOM      2  H   UNL A   1      39.665  22.793  26.751  1.00  0.00     0.027 H 
ATOM      3  H   UNL A   1      40.314  22.107  25.227  1.00  0.00     0.027 H 
ENDROOT
BRANCH   1   4
ATOM      4  C   UNL A   1      38.389  21.448  25.723  1.00  0.00    -0.036 C 
ATOM      5  H   UNL A   1      38.484  20.893  24.812  1.00  0.00     0.028 H 
ATOM      6  H   UNL A   1      38.016  20.860  26.535  1.00  0.00     0.028 H 
BRANCH   4   7
ATOM      7  C   UNL A   1      37.376  22.567  25.496  1.00  0.00     0.017 C 
ATOM      8  H   UNL A   1      37.853  23.505  25.693  1.00  0.00     0.049 H 
ATOM      9  H   UNL A   1      37.041  22.499  24.482  1.00  0.00     0.049 H 
BRANCH   7  10
ATOM     10  N   UNL A   1      36.217  22.450  26.347  1.00  0.00    -0.356 N 
ATOM     11  C   UNL A   1      35.163  23.308  26.489  1.00  0.00     0.225 C 
ATOM     12  O   UNL A   1      34.238  22.955  27.226  1.00  0.00    -0.275 OA
ATOM     13  H   UNL A   1      36.180  21.638  26.904  1.00  0.00     0.163 HD
BRANCH  11  14
ATOM     14  C   UNL A   1      35.093  24.607  25.699  1.00  0.00     0.068 C 
ATOM     15  H   UNL A   1      35.290  25.418  26.370  1.00  0.00     0.043 H 
ATOM     16  H   UNL A   1      35.818  24.529  24.916  1.00  0.00     0.043 H 
BRANCH  14  17
ATOM     17  C   UNL A   1      33.769  24.857  25.036  1.00  0.00     0.036 A 
ATOM     18  C   UNL A   1      32.486  22.362  22.621  1.00  0.00    -0.012 C 
ATOM     19  C   UNL A   1      31.297  23.326  22.941  1.00  0.00    -0.005 C 
ATOM     20  C   UNL A   1      33.471  22.566  23.810  1.00  0.00     0.028 C 
ATOM     21  C   UNL A   1      31.945  24.344  23.800  1.00  0.00     0.027 A 
ATOM     22  H   UNL A   1      30.515  22.817  23.463  1.00  0.00     0.034 H 
ATOM     23  H   UNL A   1      30.828  23.733  22.069  1.00  0.00     0.034 H 
ATOM     24  N   UNL A   1      33.149  23.912  24.271  1.00  0.00    -0.346 N 
ATOM     25  H   UNL A   1      34.488  22.504  23.484  1.00  0.00     0.050 H 
ATOM     26  H   UNL A   1      33.371  21.822  24.574  1.00  0.00     0.050 H 
ATOM     27  C   UNL A   1      31.733  25.611  24.270  1.00  0.00     0.011 A 
ATOM     28  C   UNL A   1      32.883  25.940  25.076  1.00  0.00     0.011 A 
BRANCH  18  29
ATOM     29  C   UNL A   1      32.027  20.907  22.524  1.00  0.00    -0.058 C 
ATOM     30  H   UNL A   1      32.848  20.258  22.748  1.00  0.00     0.024 H 
ATOM     31  H   UNL A   1      31.677  20.709  21.532  1.00  0.00     0.024 H 
ATOM     32  H   UNL A   1      31.235  20.735  23.222  1.00  0.00     0.024 H 
ENDBRANCH  18  29
BRANCH  18  33
ATOM     33  C   UNL A   1      33.137  22.768  21.285  1.00  0.00    -0.058 C 
ATOM     34  H   UNL A   1      32.392  22.794  20.518  1.00  0.00     0.024 H 
ATOM     35  H   UNL A   1      33.892  22.056  21.025  1.00  0.00     0.024 H 
ATOM     36  H   UNL A   1      33.580  23.737  21.385  1.00  0.00     0.024 H 
ENDBRANCH  18  33
BRANCH  27  37
ATOM     37  C   UNL A   1      30.570  26.418  23.961  1.00  0.00    -0.016 A 
ATOM     38  C   UNL A   1      30.693  27.597  23.220  1.00  0.00    -0.054 A 
ATOM     39  C   UNL A   1      29.300  25.975  24.351  1.00  0.00    -0.054 A 
ATOM     40  C   UNL A   1      29.553  28.318  22.864  1.00  0.00    -0.062 A 
ATOM     41  H   UNL A   1      31.627  27.933  22.937  1.00  0.00     0.063 H 
ATOM     42  C   UNL A   1      28.162  26.696  23.995  1.00  0.00    -0.062 A 
ATOM     43  H   UNL A   1      29.206  25.110  24.906  1.00  0.00     0.063 H 
ATOM     44  C   UNL A   1      28.290  27.864  23.247  1.00  0.00    -0.062 A 
ATOM     45  H   UNL A   1      29.644  29.189  22.317  1.00  0.00     0.062 H 
ATOM     46  H   UNL A   1      27.228  26.366  24.283  1.00  0.00     0.062 H 
ATOM     47  H   UNL A   1      27.448  28.397  22.976  1.00  0.00     0.062 H 
ENDBRANCH  27  37
BRANCH  28  48
ATOM     48  C   UNL A   1      33.068  27.178  25.824  1.00  0.00    -0.016 A 
ATOM     49  C   UNL A   1      32.127  27.541  26.798  1.00  0.00    -0.053 A 
ATOM     50  C   UNL A   1      34.069  28.091  25.474  1.00  0.00    -0.053 A 
ATOM     51  C   UNL A   1      32.182  28.799  27.407  1.00  0.00    -0.043 A 
ATOM     52  H   UNL A   1      31.388  26.874  27.069  1.00  0.00     0.063 H 
ATOM     53  C   UNL A   1      34.139  29.340  26.096  1.00  0.00    -0.043 A 
ATOM     54  H   UNL A   1      34.759  27.841  24.749  1.00  0.00     0.063 H 
ATOM     55  C   UNL A   1      33.189  29.693  27.052  1.00  0.00     0.041 A 
ATOM     56  H   UNL A   1      31.480  29.063  28.116  1.00  0.00     0.064 H 
ATOM     57  H   UNL A   1      34.893  30.000  25.849  1.00  0.00     0.064 H 
ATOM     58  Cl  UNL A   1      33.240  31.256  27.771  1.00  0.00    -0.084 Cl
ENDBRANCH  28  48
ENDBRANCH  14  17
ENDBRANCH  11  14
ENDBRANCH   7  10
ENDBRANCH   4   7
ENDBRANCH   1   4
BRANCH   1  59
ATOM     59  C   UNL A   1      40.628  20.906  26.920  1.00  0.00    -0.052 C 
ATOM     60  H   UNL A   1      39.997  20.462  27.660  1.00  0.00     0.027 H 
ATOM     61  H   UNL A   1      41.451  21.464  27.315  1.00  0.00     0.027 H 
BRANCH  59  62
ATOM     62  C   UNL A   1      41.260  19.770  26.101  1.00  0.00    -0.036 C 
ATOM     63  H   UNL A   1      41.354  20.096  25.086  1.00  0.00     0.028 H 
ATOM     64  H   UNL A   1      40.618  18.920  26.201  1.00  0.00     0.028 H 
BRANCH  62  65
ATOM     65  C   UNL A   1      42.633  19.346  26.597  1.00  0.00     0.018 C 
ATOM     66  H   UNL A   1      42.547  18.390  27.071  1.00  0.00     0.049 H 
ATOM     67  H   UNL A   1      42.980  20.092  27.280  1.00  0.00     0.049 H 
BRANCH  65  68
ATOM     68  N   UNL A   1      43.604  19.245  25.515  1.00  0.00    -0.352 N 
ATOM     69  C   UNL A   1      44.157  20.260  24.763  1.00  0.00     0.251 C 
ATOM     70  H   UNL A   1      43.903  18.334  25.290  1.00  0.00     0.163 HD
ATOM     71  O   UNL A   1      44.678  20.032  23.683  1.00  0.00    -0.269 OA
BRANCH  69  72
ATOM     72  C   UNL A   1      44.093  21.640  25.279  1.00  0.00     0.039 A 
ATOM     73  C   UNL A   1      43.175  22.549  24.748  1.00  0.00    -0.049 A 
ATOM     74  C   UNL A   1      44.954  22.018  26.308  1.00  0.00    -0.049 A 
ATOM     75  C   UNL A   1      43.076  23.815  25.318  1.00  0.00    -0.053 A 
ATOM     76  H   UNL A   1      42.579  22.285  23.948  1.00  0.00     0.063 H 
ATOM     77  C   UNL A   1      44.772  23.222  26.950  1.00  0.00    -0.053 A 
ATOM     78  H   UNL A   1      45.729  21.396  26.588  1.00  0.00     0.063 H 
ATOM     79  C   UNL A   1      43.861  24.139  26.437  1.00  0.00    -0.014 A 
ATOM     80  H   UNL A   1      42.428  24.512  24.919  1.00  0.00     0.063 H 
ATOM     81  H   UNL A   1      45.306  23.441  27.805  1.00  0.00     0.063 H 
BRANCH  79  82
ATOM     82  C   UNL A   1      43.647  25.406  27.131  1.00  0.00     0.031 A 
ATOM     83  C   UNL A   1      44.621  26.483  26.795  1.00  0.00     0.074 A 
ATOM     84  C   UNL A   1      42.560  25.679  27.881  1.00  0.00     0.049 A 
ATOM     85  N   UNL A   1      45.479  27.049  27.580  1.00  0.00    -0.248 NA
ATOM     86  C   UNL A   1      44.726  26.914  25.392  1.00  0.00    -0.034 C 
ATOM     87  C   UNL A   1      41.349  24.874  28.070  1.00  0.00    -0.036 A 
ATOM     88  N   UNL A   1      42.277  26.815  28.578  1.00  0.00    -0.354 N 
ATOM     89  C   UNL A   1      46.127  28.022  26.821  1.00  0.00     0.074 A 
ATOM     90  C   UNL A   1      45.723  27.799  25.456  1.00  0.00    -0.034 C 
ATOM     91  H   UNL A   1      44.173  26.613  24.574  1.00  0.00     0.065 H 
ATOM     92  C   UNL A   1      40.385  25.632  28.638  1.00  0.00    -0.036 A 
ATOM     93  H   UNL A   1      41.248  23.880  27.809  1.00  0.00     0.065 H 
ATOM     94  C   UNL A   1      40.963  26.909  29.014  1.00  0.00     0.049 A 
ATOM     95  H   UNL A   1      42.949  27.510  28.757  1.00  0.00     0.167 HD
ATOM     96  C   UNL A   1      46.788  29.054  27.418  1.00  0.00     0.037 A 
ATOM     97  H   UNL A   1      46.148  28.262  24.637  1.00  0.00     0.065 H 
ATOM     98  H   UNL A   1      39.403  25.351  28.781  1.00  0.00     0.065 H 
ATOM     99  C   UNL A   1      40.386  27.972  29.625  1.00  0.00     0.037 A 
ATOM    100  C   UNL A   1      47.060  28.755  28.803  1.00  0.00     0.049 A 
ATOM    101  C   UNL A   1      41.477  28.803  30.189  1.00  0.00     0.074 A 
ATOM    102  C   UNL A   1      47.780  27.781  29.464  1.00  0.00    -0.036 A 
ATOM    103  N   UNL A   1      46.249  29.322  29.756  1.00  0.00    -0.354 N 
ATOM    104  N   UNL A   1      42.233  28.435  31.184  1.00  0.00    -0.248 NA
ATOM    105  C   UNL A   1      42.008  29.874  29.361  1.00  0.00    -0.034 C 
ATOM    106  C   UNL A   1      47.011  27.479  30.627  1.00  0.00    -0.036 A 
ATOM    107  H   UNL A   1      48.679  27.361  29.179  1.00  0.00     0.065 H 
ATOM    108  C   UNL A   1      45.905  28.332  30.637  1.00  0.00     0.049 A 
ATOM    109  H   UNL A   1      45.968  30.264  29.798  1.00  0.00     0.167 HD
ATOM    110  C   UNL A   1      43.496  28.899  30.852  1.00  0.00     0.074 A 
ATOM    111  C   UNL A   1      43.276  29.865  29.779  1.00  0.00    -0.034 C 
ATOM    112  H   UNL A   1      41.542  30.467  28.656  1.00  0.00     0.065 H 
ATOM    113  H   UNL A   1      47.231  26.761  31.335  1.00  0.00     0.065 H 
ATOM    114  C   UNL A   1      44.618  28.250  31.283  1.00  0.00     0.037 A 
ATOM    115  H   UNL A   1      44.016  30.471  29.389  1.00  0.00     0.065 H 
BRANCH  96 116
ATOM    116  C   UNL A   1      46.868  30.467  26.879  1.00  0.00     0.064 A 
ATOM    117  C   UNL A   1      48.107  31.143  26.921  1.00  0.00     0.173 A 
ATOM    118  C   UNL A   1      45.746  31.284  26.626  1.00  0.00     0.173 A 
ATOM    119  F   UNL A   1      49.248  30.472  27.147  1.00  0.00    -0.203 F 
ATOM    120  C   UNL A   1      48.198  32.535  26.838  1.00  0.00     0.198 A 
ATOM    121  C   UNL A   1      45.846  32.669  26.491  1.00  0.00     0.198 A 
ATOM    122  F   UNL A   1      44.499  30.804  26.607  1.00  0.00    -0.203 F 
ATOM    123  F   UNL A   1      49.379  33.138  27.030  1.00  0.00    -0.200 F 
ATOM    124  C   UNL A   1      47.065  33.298  26.636  1.00  0.00     0.200 A 
ATOM    125  F   UNL A   1      44.734  33.393  26.304  1.00  0.00    -0.200 F 
ATOM    126  F   UNL A   1      47.135  34.636  26.629  1.00  0.00    -0.200 F 
ENDBRANCH  96 116
BRANCH  99 127
ATOM    127  C   UNL A   1      38.992  28.456  29.533  1.00  0.00     0.064 A 
ATOM    128  C   UNL A   1      38.199  28.599  30.683  1.00  0.00     0.173 A 
ATOM    129  C   UNL A   1      38.513  29.067  28.359  1.00  0.00     0.173 A 
ATOM    130  F   UNL A   1      38.606  28.081  31.851  1.00  0.00    -0.203 F 
ATOM    131  C   UNL A   1      37.014  29.340  30.670  1.00  0.00     0.198 A 
ATOM    132  C   UNL A   1      37.328  29.806  28.348  1.00  0.00     0.198 A 
ATOM    133  F   UNL A   1      39.234  29.045  27.229  1.00  0.00    -0.203 F 
ATOM    134  F   UNL A   1      36.319  29.514  31.803  1.00  0.00    -0.200 F 
ATOM    135  C   UNL A   1      36.587  29.955  29.505  1.00  0.00     0.200 A 
ATOM    136  F   UNL A   1      36.944  30.434  27.228  1.00  0.00    -0.200 F 
ATOM    137  F   UNL A   1      35.490  30.724  29.505  1.00  0.00    -0.200 F 
ENDBRANCH  99 127
BRANCH 114 138
ATOM    138  C   UNL A   1      44.456  27.202  32.349  1.00  0.00     0.064 A 
ATOM    139  C   UNL A   1      44.261  25.834  32.092  1.00  0.00     0.173 A 
ATOM    140  C   UNL A   1      44.648  27.585  33.684  1.00  0.00     0.173 A 
ATOM    141  F   UNL A   1      44.170  25.372  30.839  1.00  0.00    -0.203 F 
ATOM    142  C   UNL A   1      44.214  24.902  33.128  1.00  0.00     0.198 A 
ATOM    143  C   UNL A   1      44.640  26.647  34.713  1.00  0.00     0.198 A 
ATOM    144  F   UNL A   1      44.892  28.869  33.987  1.00  0.00    -0.203 F 
ATOM    145  F   UNL A   1      44.010  23.604  32.857  1.00  0.00    -0.200 F 
ATOM    146  C   UNL A   1      44.411  25.309  34.437  1.00  0.00     0.200 A 
ATOM    147  F   UNL A   1      44.880  27.040  35.971  1.00  0.00    -0.200 F 
ATOM    148  F   UNL A   1      44.407  24.409  35.430  1.00  0.00    -0.200 F 
ENDBRANCH 114 138
ENDBRANCH  79  82
ENDBRANCH  69  72
ENDBRANCH  65  68
ENDBRANCH  62  65
ENDBRANCH  59  62
ENDBRANCH   1  59
TORSDOF 18
ENDMDL
MODEL 2
REMARK VINA RESULT:     -12.4      3.852      9.472
REMARK SMILES CC1(C)Cc2c(-c3ccccc3)c(-c3ccc(Cl)cc3)c(CC(=O)NCCCCCCNC(=O)c3ccc(-c4c5nc(c(-c6c(F)c(F)c(F)c(F)c6F)c6ccc([nH]6)c(-c6c(F)c(F)c(F)c(F)c6F)c6nc(c(-c7c(F)c(F)c(F)c(F)c7F)c7ccc4[nH]7)C=C6)C=C5)cc3)n2C1
REMARK SMILES IDX 28 1 27 4 26 7 25 10 23 11 24 12 22 14 21 17 2 18 4 19 99 20
REMARK SMILES IDX 5 21 98 24 6 27 13 28 1 29 3 33 7 37 8 38 12 39 9 40 11 42
REMARK SMILES IDX 10 44 14 48 15 49 20 50 16 51 19 53 17 55 18 58 29 59 30 62
REMARK SMILES IDX 31 65 32 68 33 69 34 71 35 72 36 73 97 74 37 75 96 77 38 79
REMARK SMILES IDX 39 82 40 83 90 84 41 85 95 86 89 87 91 88 42 89 94 90 88 92
REMARK SMILES IDX 87 94 43 96 75 99 55 100 74 101 56 102 59 103 73 104 92 105
REMARK SMILES IDX 57 106 58 108 72 110 93 111 60 114 44 116 45 117 53 118
REMARK SMILES IDX 46 119 47 120 51 121 54 122 48 123 49 124 52 125 50 126
REMARK SMILES IDX 76 127 77 128 85 129 78 130 79 131 83 132 86 133 80 134
REMARK SMILES IDX 81 135 84 136 82 137 61 138 62 139 70 140 63 141 64 142
REMARK SMILES IDX 68 143 71 144 65 145 66 146 69 147 67 148
REMARK H PARENT 28 2 28 3 27 5 27 6 26 8 26 9 25 13 22 15 22 16 4 22 4 23
REMARK H PARENT 99 25 99 26 1 30 1 31 1 32 3 34 3 35 3 36 8 41 12 43 9 45
REMARK H PARENT 11 46 10 47 15 52 20 54 16 56 19 57 29 60 29 61 30 63 30 64
REMARK H PARENT 31 66 31 67 32 70 36 76 97 78 37 80 96 81 95 91 89 93 91 95
REMARK H PARENT 94 97 88 98 56 107 59 109 92 112 57 113 93 115
REMARK Flexibility Score: inf
ROOT
ATOM      1  C   UNL A   1      34.191  31.751  28.295  1.00  0.00    -0.052 C 
ATOM      2  H   UNL A   1      35.169  31.328  28.399  1.00  0.00     0.027 H 
ATOM      3  H   UNL A   1      33.589  31.670  29.175  1.00  0.00     0.027 H 
ENDROOT
BRANCH   1   4
ATOM      4  C   UNL A   1      33.453  30.964  27.208  1.00  0.00    -0.036 C 
ATOM      5  H   UNL A   1      32.450  30.796  27.541  1.00  0.00     0.028 H 
ATOM      6  H   UNL A   1      33.505  31.557  26.318  1.00  0.00     0.028 H 
BRANCH   4   7
ATOM      7  C   UNL A   1      34.075  29.613  26.867  1.00  0.00     0.017 C 
ATOM      8  H   UNL A   1      35.104  29.624  27.166  1.00  0.00     0.049 H 
ATOM      9  H   UNL A   1      33.520  28.861  27.387  1.00  0.00     0.049 H 
BRANCH   7  10
ATOM     10  N   UNL A   1      34.008  29.308  25.458  1.00  0.00    -0.356 N 
ATOM     11  C   UNL A   1      34.016  28.090  24.840  1.00  0.00     0.225 C 
ATOM     12  O   UNL A   1      33.868  28.074  23.615  1.00  0.00    -0.275 OA
ATOM     13  H   UNL A   1      33.949  30.087  24.858  1.00  0.00     0.163 HD
BRANCH  11  14
ATOM     14  C   UNL A   1      34.116  26.800  25.642  1.00  0.00     0.068 C 
ATOM     15  H   UNL A   1      35.146  26.511  25.686  1.00  0.00     0.043 H 
ATOM     16  H   UNL A   1      33.700  27.006  26.606  1.00  0.00     0.043 H 
BRANCH  14  17
ATOM     17  C   UNL A   1      33.331  25.654  25.070  1.00  0.00     0.036 A 
ATOM     18  C   UNL A   1      29.690  26.076  24.545  1.00  0.00    -0.012 C 
ATOM     19  C   UNL A   1      30.102  24.772  23.788  1.00  0.00    -0.005 C 
ATOM     20  C   UNL A   1      31.029  26.850  24.725  1.00  0.00     0.028 C 
ATOM     21  C   UNL A   1      31.528  24.630  24.165  1.00  0.00     0.027 A 
ATOM     22  H   UNL A   1      29.990  24.885  22.729  1.00  0.00     0.034 H 
ATOM     23  H   UNL A   1      29.503  23.921  24.039  1.00  0.00     0.034 H 
ATOM     24  N   UNL A   1      32.027  25.786  24.687  1.00  0.00    -0.346 N 
ATOM     25  H   UNL A   1      31.053  27.366  25.662  1.00  0.00     0.050 H 
ATOM     26  H   UNL A   1      31.186  27.603  23.981  1.00  0.00     0.050 H 
ATOM     27  C   UNL A   1      32.522  23.691  24.179  1.00  0.00     0.011 A 
ATOM     28  C   UNL A   1      33.683  24.341  24.737  1.00  0.00     0.011 A 
BRANCH  18  29
ATOM     29  C   UNL A   1      28.676  26.898  23.750  1.00  0.00    -0.058 C 
ATOM     30  H   UNL A   1      28.871  27.940  23.893  1.00  0.00     0.024 H 
ATOM     31  H   UNL A   1      27.687  26.670  24.089  1.00  0.00     0.024 H 
ATOM     32  H   UNL A   1      28.760  26.659  22.710  1.00  0.00     0.024 H 
ENDBRANCH  18  29
BRANCH  18  33
ATOM     33  C   UNL A   1      29.073  25.709  25.908  1.00  0.00    -0.058 C 
ATOM     34  H   UNL A   1      29.522  26.306  26.675  1.00  0.00     0.024 H 
ATOM     35  H   UNL A   1      29.247  24.674  26.113  1.00  0.00     0.024 H 
ATOM     36  H   UNL A   1      28.019  25.896  25.884  1.00  0.00     0.024 H 
ENDBRANCH  18  33
BRANCH  27  37
ATOM     37  C   UNL A   1      32.368  22.322  23.729  1.00  0.00    -0.016 A 
ATOM     38  C   UNL A   1      32.162  22.033  22.377  1.00  0.00    -0.054 A 
ATOM     39  C   UNL A   1      32.496  21.276  24.650  1.00  0.00    -0.054 A 
ATOM     40  C   UNL A   1      32.096  20.705  21.952  1.00  0.00    -0.062 A 
ATOM     41  H   UNL A   1      32.057  22.800  21.695  1.00  0.00     0.063 H 
ATOM     42  C   UNL A   1      32.431  19.950  24.224  1.00  0.00    -0.062 A 
ATOM     43  H   UNL A   1      32.640  21.486  25.650  1.00  0.00     0.063 H 
ATOM     44  C   UNL A   1      32.236  19.667  22.874  1.00  0.00    -0.062 A 
ATOM     45  H   UNL A   1      31.943  20.491  20.954  1.00  0.00     0.062 H 
ATOM     46  H   UNL A   1      32.527  19.181  24.905  1.00  0.00     0.062 H 
ATOM     47  H   UNL A   1      32.193  18.686  22.554  1.00  0.00     0.062 H 
ENDBRANCH  27  37
BRANCH  28  48
ATOM     48  C   UNL A   1      35.001  23.737  24.896  1.00  0.00    -0.016 A 
ATOM     49  C   UNL A   1      35.668  23.236  23.769  1.00  0.00    -0.053 A 
ATOM     50  C   UNL A   1      35.536  23.492  26.165  1.00  0.00    -0.053 A 
ATOM     51  C   UNL A   1      36.848  22.499  23.909  1.00  0.00    -0.043 A 
ATOM     52  H   UNL A   1      35.286  23.414  22.827  1.00  0.00     0.063 H 
ATOM     53  C   UNL A   1      36.726  22.774  26.307  1.00  0.00    -0.043 A 
ATOM     54  H   UNL A   1      35.047  23.844  27.003  1.00  0.00     0.063 H 
ATOM     55  C   UNL A   1      37.372  22.271  25.179  1.00  0.00     0.041 A 
ATOM     56  H   UNL A   1      37.329  22.125  23.076  1.00  0.00     0.064 H 
ATOM     57  H   UNL A   1      37.127  22.618  27.245  1.00  0.00     0.064 H 
ATOM     58  Cl  UNL A   1      38.803  21.334  25.362  1.00  0.00    -0.084 Cl
ENDBRANCH  28  48
ENDBRANCH  14  17
ENDBRANCH  11  14
ENDBRANCH   7  10
ENDBRANCH   4   7
ENDBRANCH   1   4
BRANCH   1  59
ATOM     59  C   UNL A   1      34.353  33.256  28.031  1.00  0.00    -0.052 C 
ATOM     60  H   UNL A   1      34.447  33.392  26.974  1.00  0.00     0.027 H 
ATOM     61  H   UNL A   1      35.213  33.551  28.595  1.00  0.00     0.027 H 
BRANCH  59  62
ATOM     62  C   UNL A   1      33.213  34.162  28.520  1.00  0.00    -0.036 C 
ATOM     63  H   UNL A   1      32.639  33.623  29.244  1.00  0.00     0.028 H 
ATOM     64  H   UNL A   1      32.638  34.431  27.659  1.00  0.00     0.028 H 
BRANCH  62  65
ATOM     65  C   UNL A   1      33.688  35.459  29.155  1.00  0.00     0.018 C 
ATOM     66  H   UNL A   1      33.413  36.274  28.518  1.00  0.00     0.049 H 
ATOM     67  H   UNL A   1      34.749  35.397  29.274  1.00  0.00     0.049 H 
BRANCH  65  68
ATOM     68  N   UNL A   1      33.102  35.676  30.472  1.00  0.00    -0.352 N 
ATOM     69  C   UNL A   1      33.342  34.984  31.640  1.00  0.00     0.251 C 
ATOM     70  H   UNL A   1      32.450  36.411  30.536  1.00  0.00     0.163 HD
ATOM     71  O   UNL A   1      32.555  35.030  32.571  1.00  0.00    -0.269 OA
BRANCH  69  72
ATOM     72  C   UNL A   1      34.566  34.167  31.742  1.00  0.00     0.039 A 
ATOM     73  C   UNL A   1      34.481  32.773  31.781  1.00  0.00    -0.049 A 
ATOM     74  C   UNL A   1      35.804  34.805  31.788  1.00  0.00    -0.049 A 
ATOM     75  C   UNL A   1      35.656  32.028  31.785  1.00  0.00    -0.053 A 
ATOM     76  H   UNL A   1      33.561  32.305  31.806  1.00  0.00     0.063 H 
ATOM     77  C   UNL A   1      36.961  34.071  31.667  1.00  0.00    -0.053 A 
ATOM     78  H   UNL A   1      35.853  35.829  31.914  1.00  0.00     0.063 H 
ATOM     79  C   UNL A   1      36.897  32.682  31.702  1.00  0.00    -0.014 A 
ATOM     80  H   UNL A   1      35.616  30.999  31.848  1.00  0.00     0.063 H 
ATOM     81  H   UNL A   1      37.869  34.547  31.549  1.00  0.00     0.063 H 
BRANCH  79  82
ATOM     82  C   UNL A   1      38.121  31.900  31.548  1.00  0.00     0.031 A 
ATOM     83  C   UNL A   1      38.850  31.612  32.815  1.00  0.00     0.074 A 
ATOM     84  C   UNL A   1      38.496  31.311  30.395  1.00  0.00     0.049 A 
ATOM     85  N   UNL A   1      40.031  32.012  33.159  1.00  0.00    -0.248 NA
ATOM     86  C   UNL A   1      38.143  30.872  33.873  1.00  0.00    -0.034 C 
ATOM     87  C   UNL A   1      37.758  31.210  29.131  1.00  0.00    -0.036 A 
ATOM     88  N   UNL A   1      39.619  30.581  30.145  1.00  0.00    -0.354 N 
ATOM     89  C   UNL A   1      40.292  31.449  34.407  1.00  0.00     0.074 A 
ATOM     90  C   UNL A   1      39.048  30.876  34.854  1.00  0.00    -0.034 C 
ATOM     91  H   UNL A   1      37.198  30.458  33.858  1.00  0.00     0.065 H 
ATOM     92  C   UNL A   1      38.343  30.287  28.337  1.00  0.00    -0.036 A 
ATOM     93  H   UNL A   1      36.919  31.760  28.887  1.00  0.00     0.065 H 
ATOM     94  C   UNL A   1      39.587  29.868  28.955  1.00  0.00     0.049 A 
ATOM     95  H   UNL A   1      40.388  30.561  30.758  1.00  0.00     0.167 HD
ATOM     96  C   UNL A   1      41.568  31.332  34.871  1.00  0.00     0.037 A 
ATOM     97  H   UNL A   1      38.879  30.516  35.807  1.00  0.00     0.065 H 
ATOM     98  H   UNL A   1      37.969  29.938  27.441  1.00  0.00     0.065 H 
ATOM     99  C   UNL A   1      40.513  28.980  28.518  1.00  0.00     0.037 A 
ATOM    100  C   UNL A   1      42.460  32.201  34.144  1.00  0.00     0.049 A 
ATOM    101  C   UNL A   1      41.772  29.256  29.251  1.00  0.00     0.074 A 
ATOM    102  C   UNL A   1      42.548  33.566  33.955  1.00  0.00    -0.036 A 
ATOM    103  N   UNL A   1      43.249  31.644  33.168  1.00  0.00    -0.354 N 
ATOM    104  N   UNL A   1      42.489  30.331  29.087  1.00  0.00    -0.248 NA
ATOM    105  C   UNL A   1      42.008  28.527  30.487  1.00  0.00    -0.034 C 
ATOM    106  C   UNL A   1      42.959  33.724  32.597  1.00  0.00    -0.036 A 
ATOM    107  H   UNL A   1      42.357  34.311  34.644  1.00  0.00     0.065 H 
ATOM    108  C   UNL A   1      43.159  32.449  32.064  1.00  0.00     0.049 A 
ATOM    109  H   UNL A   1      43.781  30.820  33.247  1.00  0.00     0.167 HD
ATOM    110  C   UNL A   1      42.928  30.654  30.361  1.00  0.00     0.074 A 
ATOM    111  C   UNL A   1      42.692  29.455  31.161  1.00  0.00    -0.034 C 
ATOM    112  H   UNL A   1      41.729  27.572  30.762  1.00  0.00     0.065 H 
ATOM    113  H   UNL A   1      43.087  34.618  32.099  1.00  0.00     0.065 H 
ATOM    114  C   UNL A   1      43.177  31.951  30.710  1.00  0.00     0.037 A 
ATOM    115  H   UNL A   1      43.017  29.338  32.134  1.00  0.00     0.065 H 
BRANCH  96 116
ATOM    116  C   UNL A   1      42.087  30.188  35.718  1.00  0.00     0.064 A 
ATOM    117  C   UNL A   1      43.043  30.462  36.720  1.00  0.00     0.173 A 
ATOM    118  C   UNL A   1      41.937  28.825  35.387  1.00  0.00     0.173 A 
ATOM    119  F   UNL A   1      43.272  31.721  37.126  1.00  0.00    -0.203 F 
ATOM    120  C   UNL A   1      43.864  29.465  37.257  1.00  0.00     0.198 A 
ATOM    121  C   UNL A   1      42.721  27.826  35.963  1.00  0.00     0.198 A 
ATOM    122  F   UNL A   1      41.110  28.409  34.422  1.00  0.00    -0.203 F 
ATOM    123  F   UNL A   1      44.853  29.799  38.096  1.00  0.00    -0.200 F 
ATOM    124  C   UNL A   1      43.711  28.149  36.867  1.00  0.00     0.200 A 
ATOM    125  F   UNL A   1      42.564  26.556  35.564  1.00  0.00    -0.200 F 
ATOM    126  F   UNL A   1      44.541  27.202  37.321  1.00  0.00    -0.200 F 
ENDBRANCH  96 116
BRANCH  99 127
ATOM    127  C   UNL A   1      40.321  27.754  27.713  1.00  0.00     0.064 A 
ATOM    128  C   UNL A   1      41.089  27.518  26.561  1.00  0.00     0.173 A 
ATOM    129  C   UNL A   1      39.597  26.659  28.221  1.00  0.00     0.173 A 
ATOM    130  F   UNL A   1      41.840  28.498  26.038  1.00  0.00    -0.203 F 
ATOM    131  C   UNL A   1      41.158  26.252  25.972  1.00  0.00     0.198 A 
ATOM    132  C   UNL A   1      39.666  25.396  27.631  1.00  0.00     0.198 A 
ATOM    133  F   UNL A   1      38.891  26.769  29.355  1.00  0.00    -0.203 F 
ATOM    134  F   UNL A   1      41.956  26.047  24.915  1.00  0.00    -0.200 F 
ATOM    135  C   UNL A   1      40.457  25.189  26.516  1.00  0.00     0.200 A 
ATOM    136  F   UNL A   1      39.020  24.363  28.187  1.00  0.00    -0.200 F 
ATOM    137  F   UNL A   1      40.576  23.960  25.997  1.00  0.00    -0.200 F 
ENDBRANCH  99 127
BRANCH 114 138
ATOM    138  C   UNL A   1      43.239  32.974  29.610  1.00  0.00     0.064 A 
ATOM    139  C   UNL A   1      42.183  33.837  29.270  1.00  0.00     0.173 A 
ATOM    140  C   UNL A   1      44.468  33.179  28.969  1.00  0.00     0.173 A 
ATOM    141  F   UNL A   1      41.006  33.774  29.905  1.00  0.00    -0.203 F 
ATOM    142  C   UNL A   1      42.340  34.827  28.301  1.00  0.00     0.198 A 
ATOM    143  C   UNL A   1      44.635  34.194  28.031  1.00  0.00     0.198 A 
ATOM    144  F   UNL A   1      45.529  32.422  29.291  1.00  0.00    -0.203 F 
ATOM    145  F   UNL A   1      41.312  35.628  27.983  1.00  0.00    -0.200 F 
ATOM    146  C   UNL A   1      43.569  35.010  27.688  1.00  0.00     0.200 A 
ATOM    147  F   UNL A   1      45.838  34.397  27.478  1.00  0.00    -0.200 F 
ATOM    148  F   UNL A   1      43.733  35.988  26.787  1.00  0.00    -0.200 F 
ENDBRANCH 114 138
ENDBRANCH  79  82
ENDBRANCH  69  72
ENDBRANCH  65  68
ENDBRANCH  62  65
ENDBRANCH  59  62
ENDBRANCH   1  59
TORSDOF 18
ENDMDL
MODEL 3
REMARK VINA RESULT:     -12.1      2.403      3.279
REMARK SMILES CC1(C)Cc2c(-c3ccccc3)c(-c3ccc(Cl)cc3)c(CC(=O)NCCCCCCNC(=O)c3ccc(-c4c5nc(c(-c6c(F)c(F)c(F)c(F)c6F)c6ccc([nH]6)c(-c6c(F)c(F)c(F)c(F)c6F)c6nc(c(-c7c(F)c(F)c(F)c(F)c7F)c7ccc4[nH]7)C=C6)C=C5)cc3)n2C1
REMARK SMILES IDX 28 1 27 4 26 7 25 10 23 11 24 12 22 14 21 17 2 18 4 19 99 20
REMARK SMILES IDX 5 21 98 24 6 27 13 28 1 29 3 33 7 37 8 38 12 39 9 40 11 42
REMARK SMILES IDX 10 44 14 48 15 49 20 50 16 51 19 53 17 55 18 58 29 59 30 62
REMARK SMILES IDX 31 65 32 68 33 69 34 71 35 72 36 73 97 74 37 75 96 77 38 79
REMARK SMILES IDX 39 82 40 83 90 84 41 85 95 86 89 87 91 88 42 89 94 90 88 92
REMARK SMILES IDX 87 94 43 96 75 99 55 100 74 101 56 102 59 103 73 104 92 105
REMARK SMILES IDX 57 106 58 108 72 110 93 111 60 114 44 116 45 117 53 118
REMARK SMILES IDX 46 119 47 120 51 121 54 122 48 123 49 124 52 125 50 126
REMARK SMILES IDX 76 127 77 128 85 129 78 130 79 131 83 132 86 133 80 134
REMARK SMILES IDX 81 135 84 136 82 137 61 138 62 139 70 140 63 141 64 142
REMARK SMILES IDX 68 143 71 144 65 145 66 146 69 147 67 148
REMARK H PARENT 28 2 28 3 27 5 27 6 26 8 26 9 25 13 22 15 22 16 4 22 4 23
REMARK H PARENT 99 25 99 26 1 30 1 31 1 32 3 34 3 35 3 36 8 41 12 43 9 45
REMARK H PARENT 11 46 10 47 15 52 20 54 16 56 19 57 29 60 29 61 30 63 30 64
REMARK H PARENT 31 66 31 67 32 70 36 76 97 78 37 80 96 81 95 91 89 93 91 95
REMARK H PARENT 94 97 88 98 56 107 59 109 92 112 57 113 93 115
REMARK Flexibility Score: inf
ROOT
ATOM      1  C   UNL A   1      39.292  21.664  26.091  1.00  0.00    -0.052 C 
ATOM      2  H   UNL A   1      39.044  22.087  27.042  1.00  0.00     0.027 H 
ATOM      3  H   UNL A   1      39.886  22.305  25.475  1.00  0.00     0.027 H 
ENDROOT
BRANCH   1   4
ATOM      4  C   UNL A   1      37.987  21.435  25.323  1.00  0.00    -0.036 C 
ATOM      5  H   UNL A   1      38.235  21.175  24.315  1.00  0.00     0.028 H 
ATOM      6  H   UNL A   1      37.465  20.657  25.840  1.00  0.00     0.028 H 
BRANCH   4   7
ATOM      7  C   UNL A   1      37.050  22.639  25.289  1.00  0.00     0.017 C 
ATOM      8  H   UNL A   1      37.615  23.520  25.516  1.00  0.00     0.049 H 
ATOM      9  H   UNL A   1      36.621  22.687  24.310  1.00  0.00     0.049 H 
BRANCH   7  10
ATOM     10  N   UNL A   1      35.966  22.529  26.235  1.00  0.00    -0.356 N 
ATOM     11  C   UNL A   1      34.967  23.421  26.508  1.00  0.00     0.225 C 
ATOM     12  O   UNL A   1      34.097  23.071  27.309  1.00  0.00    -0.275 OA
ATOM     13  H   UNL A   1      35.944  21.695  26.758  1.00  0.00     0.163 HD
BRANCH  11  14
ATOM     14  C   UNL A   1      34.885  24.757  25.783  1.00  0.00     0.068 C 
ATOM     15  H   UNL A   1      35.002  25.538  26.506  1.00  0.00     0.043 H 
ATOM     16  H   UNL A   1      35.659  24.753  25.045  1.00  0.00     0.043 H 
BRANCH  14  17
ATOM     17  C   UNL A   1      33.593  24.984  25.051  1.00  0.00     0.036 A 
ATOM     18  C   UNL A   1      32.447  22.432  22.625  1.00  0.00    -0.012 C 
ATOM     19  C   UNL A   1      31.238  23.393  22.867  1.00  0.00    -0.005 C 
ATOM     20  C   UNL A   1      33.371  22.667  23.857  1.00  0.00     0.028 C 
ATOM     21  C   UNL A   1      31.836  24.433  23.737  1.00  0.00     0.027 A 
ATOM     22  H   UNL A   1      30.434  22.889  23.360  1.00  0.00     0.034 H 
ATOM     23  H   UNL A   1      30.810  23.781  21.965  1.00  0.00     0.034 H 
ATOM     24  N   UNL A   1      33.018  24.020  24.275  1.00  0.00    -0.346 N 
ATOM     25  H   UNL A   1      34.403  22.606  23.583  1.00  0.00     0.050 H 
ATOM     26  H   UNL A   1      33.239  21.938  24.629  1.00  0.00     0.050 H 
ATOM     27  C   UNL A   1      31.593  25.707  24.171  1.00  0.00     0.011 A 
ATOM     28  C   UNL A   1      32.699  26.061  25.026  1.00  0.00     0.011 A 
BRANCH  18  29
ATOM     29  C   UNL A   1      32.004  20.973  22.534  1.00  0.00    -0.058 C 
ATOM     30  H   UNL A   1      31.468  20.707  23.420  1.00  0.00     0.024 H 
ATOM     31  H   UNL A   1      32.864  20.344  22.434  1.00  0.00     0.024 H 
ATOM     32  H   UNL A   1      31.369  20.846  21.682  1.00  0.00     0.024 H 
ENDBRANCH  18  29
BRANCH  18  33
ATOM     33  C   UNL A   1      33.161  22.817  21.315  1.00  0.00    -0.058 C 
ATOM     34  H   UNL A   1      32.865  23.803  21.024  1.00  0.00     0.024 H 
ATOM     35  H   UNL A   1      32.896  22.123  20.547  1.00  0.00     0.024 H 
ATOM     36  H   UNL A   1      34.220  22.794  21.467  1.00  0.00     0.024 H 
ENDBRANCH  18  33
BRANCH  27  37
ATOM     37  C   UNL A   1      30.441  26.500  23.789  1.00  0.00    -0.016 A 
ATOM     38  C   UNL A   1      29.157  26.147  24.215  1.00  0.00    -0.054 A 
ATOM     39  C   UNL A   1      30.626  27.670  23.043  1.00  0.00    -0.054 A 
ATOM     40  C   UNL A   1      28.072  26.967  23.905  1.00  0.00    -0.062 A 
ATOM     41  H   UNL A   1      29.013  25.281  24.758  1.00  0.00     0.063 H 
ATOM     42  C   UNL A   1      29.541  28.489  22.735  1.00  0.00    -0.062 A 
ATOM     43  H   UNL A   1      31.572  27.929  22.719  1.00  0.00     0.063 H 
ATOM     44  C   UNL A   1      28.266  28.138  23.171  1.00  0.00    -0.062 A 
ATOM     45  H   UNL A   1      27.123  26.707  24.219  1.00  0.00     0.062 H 
ATOM     46  H   UNL A   1      29.682  29.351  22.186  1.00  0.00     0.062 H 
ATOM     47  H   UNL A   1      27.461  28.746  22.949  1.00  0.00     0.062 H 
ENDBRANCH  27  37
BRANCH  28  48
ATOM     48  C   UNL A   1      32.840  27.314  25.758  1.00  0.00    -0.016 A 
ATOM     49  C   UNL A   1      31.841  27.697  26.664  1.00  0.00    -0.053 A 
ATOM     50  C   UNL A   1      33.860  28.220  25.450  1.00  0.00    -0.053 A 
ATOM     51  C   UNL A   1      31.859  28.968  27.248  1.00  0.00    -0.043 A 
ATOM     52  H   UNL A   1      31.086  27.036  26.903  1.00  0.00     0.063 H 
ATOM     53  C   UNL A   1      33.893  29.482  26.049  1.00  0.00    -0.043 A 
ATOM     54  H   UNL A   1      34.594  27.955  24.774  1.00  0.00     0.063 H 
ATOM     55  C   UNL A   1      32.886  29.855  26.938  1.00  0.00     0.041 A 
ATOM     56  H   UNL A   1      31.116  29.246  27.907  1.00  0.00     0.064 H 
ATOM     57  H   UNL A   1      34.662  30.137  25.835  1.00  0.00     0.064 H 
ATOM     58  Cl  UNL A   1      32.895  31.432  27.625  1.00  0.00    -0.084 Cl
ENDBRANCH  28  48
ENDBRANCH  14  17
ENDBRANCH  11  14
ENDBRANCH   7  10
ENDBRANCH   4   7
ENDBRANCH   1   4
BRANCH   1  59
ATOM     59  C   UNL A   1      40.145  20.410  26.340  1.00  0.00    -0.052 C 
ATOM     60  H   UNL A   1      40.645  20.170  25.425  1.00  0.00     0.027 H 
ATOM     61  H   UNL A   1      39.457  19.663  26.679  1.00  0.00     0.027 H 
BRANCH  59  62
ATOM     62  C   UNL A   1      41.210  20.516  27.442  1.00  0.00    -0.036 C 
ATOM     63  H   UNL A   1      41.997  19.826  27.219  1.00  0.00     0.028 H 
ATOM     64  H   UNL A   1      40.722  20.297  28.368  1.00  0.00     0.028 H 
BRANCH  62  65
ATOM     65  C   UNL A   1      41.816  21.904  27.579  1.00  0.00     0.018 C 
ATOM     66  H   UNL A   1      42.431  21.925  28.455  1.00  0.00     0.049 H 
ATOM     67  H   UNL A   1      41.013  22.607  27.649  1.00  0.00     0.049 H 
BRANCH  65  68
ATOM     68  N   UNL A   1      42.630  22.268  26.427  1.00  0.00    -0.352 N 
ATOM     69  C   UNL A   1      42.793  23.511  25.852  1.00  0.00     0.251 C 
ATOM     70  H   UNL A   1      43.127  21.531  26.002  1.00  0.00     0.163 HD
ATOM     71  O   UNL A   1      43.211  23.626  24.711  1.00  0.00    -0.269 OA
BRANCH  69  72
ATOM     72  C   UNL A   1      42.436  24.707  26.636  1.00  0.00     0.039 A 
ATOM     73  C   UNL A   1      43.148  25.028  27.795  1.00  0.00    -0.049 A 
ATOM     74  C   UNL A   1      41.387  25.515  26.200  1.00  0.00    -0.049 A 
ATOM     75  C   UNL A   1      42.847  26.211  28.462  1.00  0.00    -0.053 A 
ATOM     76  H   UNL A   1      43.885  24.398  28.148  1.00  0.00     0.063 H 
ATOM     77  C   UNL A   1      41.173  26.740  26.786  1.00  0.00    -0.053 A 
ATOM     78  H   UNL A   1      40.770  25.192  25.437  1.00  0.00     0.063 H 
ATOM     79  C   UNL A   1      41.873  27.078  27.940  1.00  0.00    -0.014 A 
ATOM     80  H   UNL A   1      43.337  26.450  29.338  1.00  0.00     0.063 H 
ATOM     81  H   UNL A   1      40.499  27.404  26.374  1.00  0.00     0.063 H 
BRANCH  79  82
ATOM     82  C   UNL A   1      41.666  28.390  28.549  1.00  0.00     0.031 A 
ATOM     83  C   UNL A   1      42.713  29.403  28.238  1.00  0.00     0.074 A 
ATOM     84  C   UNL A   1      40.538  28.749  29.194  1.00  0.00     0.049 A 
ATOM     85  N   UNL A   1      43.533  29.974  29.059  1.00  0.00    -0.248 NA
ATOM     86  C   UNL A   1      42.947  29.753  26.828  1.00  0.00    -0.034 C 
ATOM     87  C   UNL A   1      39.279  28.008  29.326  1.00  0.00    -0.036 A 
ATOM     88  N   UNL A   1      40.255  29.932  29.808  1.00  0.00    -0.354 N 
ATOM     89  C   UNL A   1      44.284  30.875  28.307  1.00  0.00     0.074 A 
ATOM     90  C   UNL A   1      43.977  30.596  26.927  1.00  0.00    -0.034 C 
ATOM     91  H   UNL A   1      42.446  29.432  25.985  1.00  0.00     0.065 H 
ATOM     92  C   UNL A   1      38.311  28.837  29.776  1.00  0.00    -0.036 A 
ATOM     93  H   UNL A   1      39.152  27.007  29.109  1.00  0.00     0.065 H 
ATOM     94  C   UNL A   1      38.917  30.107  30.131  1.00  0.00     0.049 A 
ATOM     95  H   UNL A   1      40.944  30.607  30.005  1.00  0.00     0.167 HD
ATOM     96  C   UNL A   1      44.944  31.909  28.903  1.00  0.00     0.037 A 
ATOM     97  H   UNL A   1      44.486  30.995  26.123  1.00  0.00     0.065 H 
ATOM     98  H   UNL A   1      37.308  28.607  29.853  1.00  0.00     0.065 H 
ATOM     99  C   UNL A   1      38.345  31.225  30.639  1.00  0.00     0.037 A 
ATOM    100  C   UNL A   1      45.092  31.674  30.318  1.00  0.00     0.049 A 
ATOM    101  C   UNL A   1      39.427  32.038  31.246  1.00  0.00     0.074 A 
ATOM    102  C   UNL A   1      45.712  30.707  31.083  1.00  0.00    -0.036 A 
ATOM    103  N   UNL A   1      44.238  32.326  31.172  1.00  0.00    -0.354 N 
ATOM    104  N   UNL A   1      40.085  31.692  32.316  1.00  0.00    -0.248 NA
ATOM    105  C   UNL A   1      40.072  33.038  30.410  1.00  0.00    -0.034 C 
ATOM    106  C   UNL A   1      44.841  30.502  32.195  1.00  0.00    -0.036 A 
ATOM    107  H   UNL A   1      46.610  30.234  30.893  1.00  0.00     0.065 H 
ATOM    108  C   UNL A   1      43.779  31.401  32.073  1.00  0.00     0.049 A 
ATOM    109  H   UNL A   1      43.999  33.281  31.144  1.00  0.00     0.167 HD
ATOM    110  C   UNL A   1      41.390  32.083  32.064  1.00  0.00     0.074 A 
ATOM    111  C   UNL A   1      41.301  32.998  30.929  1.00  0.00    -0.034 C 
ATOM    112  H   UNL A   1      39.690  33.612  29.642  1.00  0.00     0.065 H 
ATOM    113  H   UNL A   1      44.971  29.815  32.953  1.00  0.00     0.065 H 
ATOM    114  C   UNL A   1      42.443  31.410  32.616  1.00  0.00     0.037 A 
ATOM    115  H   UNL A   1      42.097  33.549  30.569  1.00  0.00     0.065 H 
BRANCH  96 116
ATOM    116  C   UNL A   1      45.132  33.286  28.301  1.00  0.00     0.064 A 
ATOM    117  C   UNL A   1      46.443  33.791  28.153  1.00  0.00     0.173 A 
ATOM    118  C   UNL A   1      44.102  34.239  28.163  1.00  0.00     0.173 A 
ATOM    119  F   UNL A   1      47.507  32.979  28.255  1.00  0.00    -0.203 F 
ATOM    120  C   UNL A   1      46.700  35.156  28.002  1.00  0.00     0.198 A 
ATOM    121  C   UNL A   1      44.361  35.595  27.960  1.00  0.00     0.198 A 
ATOM    122  F   UNL A   1      42.812  33.929  28.326  1.00  0.00    -0.203 F 
ATOM    123  F   UNL A   1      47.964  35.600  28.014  1.00  0.00    -0.200 F 
ATOM    124  C   UNL A   1      45.659  36.059  27.919  1.00  0.00     0.200 A 
ATOM    125  F   UNL A   1      43.336  36.456  27.891  1.00  0.00    -0.200 F 
ATOM    126  F   UNL A   1      45.899  37.374  27.849  1.00  0.00    -0.200 F 
ENDBRANCH  96 116
BRANCH  99 127
ATOM    127  C   UNL A   1      36.987  31.764  30.411  1.00  0.00     0.064 A 
ATOM    128  C   UNL A   1      36.044  31.811  31.451  1.00  0.00     0.173 A 
ATOM    129  C   UNL A   1      36.688  32.511  29.256  1.00  0.00     0.173 A 
ATOM    130  F   UNL A   1      36.274  31.160  32.600  1.00  0.00    -0.203 F 
ATOM    131  C   UNL A   1      34.887  32.590  31.357  1.00  0.00     0.198 A 
ATOM    132  C   UNL A   1      35.531  33.286  29.164  1.00  0.00     0.198 A 
ATOM    133  F   UNL A   1      37.559  32.583  28.240  1.00  0.00    -0.203 F 
ATOM    134  F   UNL A   1      34.045  32.666  32.397  1.00  0.00    -0.200 F 
ATOM    135  C   UNL A   1      34.638  33.338  30.218  1.00  0.00     0.200 A 
ATOM    136  F   UNL A   1      35.319  34.041  28.078  1.00  0.00    -0.200 F 
ATOM    137  F   UNL A   1      33.568  34.139  30.152  1.00  0.00    -0.200 F 
ENDBRANCH  99 127
BRANCH 114 138
ATOM    138  C   UNL A   1      42.150  30.430  33.718  1.00  0.00     0.064 A 
ATOM    139  C   UNL A   1      41.777  29.091  33.507  1.00  0.00     0.173 A 
ATOM    140  C   UNL A   1      42.394  30.830  35.038  1.00  0.00     0.173 A 
ATOM    141  F   UNL A   1      41.622  28.601  32.271  1.00  0.00    -0.203 F 
ATOM    142  C   UNL A   1      41.611  28.210  34.575  1.00  0.00     0.198 A 
ATOM    143  C   UNL A   1      42.267  29.937  36.099  1.00  0.00     0.198 A 
ATOM    144  F   UNL A   1      42.805  32.081  35.297  1.00  0.00    -0.203 F 
ATOM    145  F   UNL A   1      41.239  26.941  34.349  1.00  0.00    -0.200 F 
ATOM    146  C   UNL A   1      41.865  28.632  35.870  1.00  0.00     0.200 A 
ATOM    147  F   UNL A   1      42.560  30.338  37.343  1.00  0.00    -0.200 F 
ATOM    148  F   UNL A   1      41.746  27.774  36.893  1.00  0.00    -0.200 F 
ENDBRANCH 114 138
ENDBRANCH  79  82
ENDBRANCH  69  72
ENDBRANCH  65  68
ENDBRANCH  62  65
ENDBRANCH  59  62
ENDBRANCH   1  59
TORSDOF 18
ENDMDL
MODEL 4
REMARK VINA RESULT:     -12.0      3.053      8.642
REMARK SMILES CC1(C)Cc2c(-c3ccccc3)c(-c3ccc(Cl)cc3)c(CC(=O)NCCCCCCNC(=O)c3ccc(-c4c5nc(c(-c6c(F)c(F)c(F)c(F)c6F)c6ccc([nH]6)c(-c6c(F)c(F)c(F)c(F)c6F)c6nc(c(-c7c(F)c(F)c(F)c(F)c7F)c7ccc4[nH]7)C=C6)C=C5)cc3)n2C1
REMARK SMILES IDX 28 1 27 4 26 7 25 10 23 11 24 12 22 14 21 17 2 18 4 19 99 20
REMARK SMILES IDX 5 21 98 24 6 27 13 28 1 29 3 33 7 37 8 38 12 39 9 40 11 42
REMARK SMILES IDX 10 44 14 48 15 49 20 50 16 51 19 53 17 55 18 58 29 59 30 62
REMARK SMILES IDX 31 65 32 68 33 69 34 71 35 72 36 73 97 74 37 75 96 77 38 79
REMARK SMILES IDX 39 82 40 83 90 84 41 85 95 86 89 87 91 88 42 89 94 90 88 92
REMARK SMILES IDX 87 94 43 96 75 99 55 100 74 101 56 102 59 103 73 104 92 105
REMARK SMILES IDX 57 106 58 108 72 110 93 111 60 114 44 116 45 117 53 118
REMARK SMILES IDX 46 119 47 120 51 121 54 122 48 123 49 124 52 125 50 126
REMARK SMILES IDX 76 127 77 128 85 129 78 130 79 131 83 132 86 133 80 134
REMARK SMILES IDX 81 135 84 136 82 137 61 138 62 139 70 140 63 141 64 142
REMARK SMILES IDX 68 143 71 144 65 145 66 146 69 147 67 148
REMARK H PARENT 28 2 28 3 27 5 27 6 26 8 26 9 25 13 22 15 22 16 4 22 4 23
REMARK H PARENT 99 25 99 26 1 30 1 31 1 32 3 34 3 35 3 36 8 41 12 43 9 45
REMARK H PARENT 11 46 10 47 15 52 20 54 16 56 19 57 29 60 29 61 30 63 30 64
REMARK H PARENT 31 66 31 67 32 70 36 76 97 78 37 80 96 81 95 91 89 93 91 95
REMARK H PARENT 94 97 88 98 56 107 59 109 92 112 57 113 93 115
REMARK Flexibility Score: inf
ROOT
ATOM      1  C   UNL A   1      35.269  31.116  27.626  1.00  0.00    -0.052 C 
ATOM      2  H   UNL A   1      35.827  31.399  26.758  1.00  0.00     0.027 H 
ATOM      3  H   UNL A   1      35.865  31.015  28.508  1.00  0.00     0.027 H 
ENDROOT
BRANCH   1   4
ATOM      4  C   UNL A   1      34.666  29.733  27.366  1.00  0.00    -0.036 C 
ATOM      5  H   UNL A   1      35.414  29.124  26.902  1.00  0.00     0.028 H 
ATOM      6  H   UNL A   1      34.350  29.357  28.317  1.00  0.00     0.028 H 
BRANCH   4   7
ATOM      7  C   UNL A   1      33.431  29.736  26.470  1.00  0.00     0.017 C 
ATOM      8  H   UNL A   1      32.714  29.050  26.872  1.00  0.00     0.049 H 
ATOM      9  H   UNL A   1      33.051  30.737  26.447  1.00  0.00     0.049 H 
BRANCH   7  10
ATOM     10  N   UNL A   1      33.727  29.351  25.111  1.00  0.00    -0.356 N 
ATOM     11  C   UNL A   1      34.012  28.111  24.611  1.00  0.00     0.225 C 
ATOM     12  O   UNL A   1      34.155  28.012  23.389  1.00  0.00    -0.275 OA
ATOM     13  H   UNL A   1      33.723  30.083  24.453  1.00  0.00     0.163 HD
BRANCH  11  14
ATOM     14  C   UNL A   1      34.064  26.889  25.516  1.00  0.00     0.068 C 
ATOM     15  H   UNL A   1      35.087  26.594  25.623  1.00  0.00     0.043 H 
ATOM     16  H   UNL A   1      33.614  27.175  26.444  1.00  0.00     0.043 H 
BRANCH  14  17
ATOM     17  C   UNL A   1      33.285  25.710  25.007  1.00  0.00     0.036 A 
ATOM     18  C   UNL A   1      29.632  26.061  24.523  1.00  0.00    -0.012 C 
ATOM     19  C   UNL A   1      30.050  24.731  23.816  1.00  0.00    -0.005 C 
ATOM     20  C   UNL A   1      30.963  26.859  24.648  1.00  0.00     0.028 C 
ATOM     21  C   UNL A   1      31.483  24.624  24.176  1.00  0.00     0.027 A 
ATOM     22  H   UNL A   1      29.920  24.797  22.756  1.00  0.00     0.034 H 
ATOM     23  H   UNL A   1      29.466  23.884  24.114  1.00  0.00     0.034 H 
ATOM     24  N   UNL A   1      31.974  25.807  24.639  1.00  0.00    -0.346 N 
ATOM     25  H   UNL A   1      30.995  27.416  25.561  1.00  0.00     0.050 H 
ATOM     26  H   UNL A   1      31.098  27.581  23.869  1.00  0.00     0.050 H 
ATOM     27  C   UNL A   1      32.490  23.699  24.215  1.00  0.00     0.011 A 
ATOM     28  C   UNL A   1      33.650  24.388  24.726  1.00  0.00     0.011 A 
BRANCH  18  29
ATOM     29  C   UNL A   1      28.595  26.835  23.709  1.00  0.00    -0.058 C 
ATOM     30  H   UNL A   1      28.258  27.680  24.272  1.00  0.00     0.024 H 
ATOM     31  H   UNL A   1      27.763  26.197  23.492  1.00  0.00     0.024 H 
ATOM     32  H   UNL A   1      29.037  27.169  22.794  1.00  0.00     0.024 H 
ENDBRANCH  18  29
BRANCH  18  33
ATOM     33  C   UNL A   1      29.040  25.747  25.910  1.00  0.00    -0.058 C 
ATOM     34  H   UNL A   1      29.398  26.463  26.621  1.00  0.00     0.024 H 
ATOM     35  H   UNL A   1      29.339  24.765  26.211  1.00  0.00     0.024 H 
ATOM     36  H   UNL A   1      27.972  25.796  25.862  1.00  0.00     0.024 H 
ENDBRANCH  18  33
BRANCH  27  37
ATOM     37  C   UNL A   1      32.347  22.310  23.827  1.00  0.00    -0.016 A 
ATOM     38  C   UNL A   1      32.154  21.958  22.488  1.00  0.00    -0.054 A 
ATOM     39  C   UNL A   1      32.473  21.308  24.796  1.00  0.00    -0.054 A 
ATOM     40  C   UNL A   1      32.099  20.612  22.124  1.00  0.00    -0.062 A 
ATOM     41  H   UNL A   1      32.052  22.693  21.771  1.00  0.00     0.063 H 
ATOM     42  C   UNL A   1      32.419  19.964  24.431  1.00  0.00    -0.062 A 
ATOM     43  H   UNL A   1      32.607  21.564  25.787  1.00  0.00     0.063 H 
ATOM     44  C   UNL A   1      32.237  19.618  23.094  1.00  0.00    -0.062 A 
ATOM     45  H   UNL A   1      31.956  20.351  21.135  1.00  0.00     0.062 H 
ATOM     46  H   UNL A   1      32.513  19.228  25.148  1.00  0.00     0.062 H 
ATOM     47  H   UNL A   1      32.203  18.623  22.819  1.00  0.00     0.062 H 
ENDBRANCH  27  37
BRANCH  28  48
ATOM     48  C   UNL A   1      34.978  23.808  24.889  1.00  0.00    -0.016 A 
ATOM     49  C   UNL A   1      35.662  23.328  23.763  1.00  0.00    -0.053 A 
ATOM     50  C   UNL A   1      35.510  23.565  26.160  1.00  0.00    -0.053 A 
ATOM     51  C   UNL A   1      36.855  22.611  23.907  1.00  0.00    -0.043 A 
ATOM     52  H   UNL A   1      35.283  23.504  22.820  1.00  0.00     0.063 H 
ATOM     53  C   UNL A   1      36.713  22.869  26.306  1.00  0.00    -0.043 A 
ATOM     54  H   UNL A   1      35.009  23.902  26.997  1.00  0.00     0.063 H 
ATOM     55  C   UNL A   1      37.375  22.386  25.179  1.00  0.00     0.041 A 
ATOM     56  H   UNL A   1      37.348  22.253  23.075  1.00  0.00     0.064 H 
ATOM     57  H   UNL A   1      37.110  22.715  27.246  1.00  0.00     0.064 H 
ATOM     58  Cl  UNL A   1      38.822  21.475  25.365  1.00  0.00    -0.084 Cl
ENDBRANCH  28  48
ENDBRANCH  14  17
ENDBRANCH  11  14
ENDBRANCH   7  10
ENDBRANCH   4   7
ENDBRANCH   1   4
BRANCH   1  59
ATOM     59  C   UNL A   1      34.259  32.235  27.925  1.00  0.00    -0.052 C 
ATOM     60  H   UNL A   1      33.782  32.002  28.853  1.00  0.00     0.027 H 
ATOM     61  H   UNL A   1      33.602  32.256  27.080  1.00  0.00     0.027 H 
BRANCH  59  62
ATOM     62  C   UNL A   1      34.829  33.658  28.035  1.00  0.00    -0.036 C 
ATOM     63  H   UNL A   1      34.031  34.322  28.295  1.00  0.00     0.028 H 
ATOM     64  H   UNL A   1      35.266  33.892  27.088  1.00  0.00     0.028 H 
BRANCH  62  65
ATOM     65  C   UNL A   1      35.928  33.800  29.076  1.00  0.00     0.018 C 
ATOM     66  H   UNL A   1      36.298  34.804  29.049  1.00  0.00     0.049 H 
ATOM     67  H   UNL A   1      36.696  33.094  28.841  1.00  0.00     0.049 H 
BRANCH  65  68
ATOM     68  N   UNL A   1      35.454  33.512  30.423  1.00  0.00    -0.352 N 
ATOM     69  C   UNL A   1      35.750  32.427  31.222  1.00  0.00     0.251 C 
ATOM     70  H   UNL A   1      34.842  34.177  30.815  1.00  0.00     0.163 HD
ATOM     71  O   UNL A   1      35.038  32.129  32.167  1.00  0.00    -0.269 OA
BRANCH  69  72
ATOM     72  C   UNL A   1      36.941  31.617  30.904  1.00  0.00     0.039 A 
ATOM     73  C   UNL A   1      38.202  32.214  30.841  1.00  0.00    -0.049 A 
ATOM     74  C   UNL A   1      36.788  30.250  30.678  1.00  0.00    -0.049 A 
ATOM     75  C   UNL A   1      39.316  31.408  30.629  1.00  0.00    -0.053 A 
ATOM     76  H   UNL A   1      38.305  33.235  30.951  1.00  0.00     0.063 H 
ATOM     77  C   UNL A   1      37.897  29.440  30.592  1.00  0.00    -0.053 A 
ATOM     78  H   UNL A   1      35.844  29.846  30.574  1.00  0.00     0.063 H 
ATOM     79  C   UNL A   1      39.161  30.015  30.530  1.00  0.00    -0.014 A 
ATOM     80  H   UNL A   1      40.253  31.833  30.545  1.00  0.00     0.063 H 
ATOM     81  H   UNL A   1      37.791  28.414  30.576  1.00  0.00     0.063 H 
BRANCH  79  82
ATOM     82  C   UNL A   1      40.341  29.156  30.465  1.00  0.00     0.031 A 
ATOM     83  C   UNL A   1      41.003  28.892  31.773  1.00  0.00     0.074 A 
ATOM     84  C   UNL A   1      40.723  28.486  29.358  1.00  0.00     0.049 A 
ATOM     85  N   UNL A   1      42.192  29.239  32.145  1.00  0.00    -0.248 NA
ATOM     86  C   UNL A   1      40.213  28.250  32.836  1.00  0.00    -0.034 C 
ATOM     87  C   UNL A   1      40.029  28.364  28.072  1.00  0.00    -0.036 A 
ATOM     88  N   UNL A   1      41.808  27.680  29.191  1.00  0.00    -0.354 N 
ATOM     89  C   UNL A   1      42.371  28.727  33.429  1.00  0.00     0.074 A 
ATOM     90  C   UNL A   1      41.079  28.252  33.852  1.00  0.00    -0.034 C 
ATOM     91  H   UNL A   1      39.246  27.892  32.804  1.00  0.00     0.065 H 
ATOM     92  C   UNL A   1      40.587  27.368  27.349  1.00  0.00    -0.036 A 
ATOM     93  H   UNL A   1      39.235  28.949  27.766  1.00  0.00     0.065 H 
ATOM     94  C   UNL A   1      41.779  26.909  28.037  1.00  0.00     0.049 A 
ATOM     95  H   UNL A   1      42.552  27.648  29.835  1.00  0.00     0.167 HD
ATOM     96  C   UNL A   1      43.619  28.560  33.950  1.00  0.00     0.037 A 
ATOM     97  H   UNL A   1      40.852  27.952  34.814  1.00  0.00     0.065 H 
ATOM     98  H   UNL A   1      40.226  26.996  26.457  1.00  0.00     0.065 H 
ATOM     99  C   UNL A   1      42.665  25.948  27.683  1.00  0.00     0.037 A 
ATOM    100  C   UNL A   1      44.589  29.337  33.218  1.00  0.00     0.049 A 
ATOM    101  C   UNL A   1      43.909  26.187  28.453  1.00  0.00     0.074 A 
ATOM    102  C   UNL A   1      44.766  30.682  32.965  1.00  0.00    -0.036 A 
ATOM    103  N   UNL A   1      45.379  28.684  32.304  1.00  0.00    -0.354 N 
ATOM    104  N   UNL A   1      44.696  27.208  28.266  1.00  0.00    -0.248 NA
ATOM    105  C   UNL A   1      44.054  25.511  29.732  1.00  0.00    -0.034 C 
ATOM    106  C   UNL A   1      45.237  30.745  31.619  1.00  0.00    -0.036 A 
ATOM    107  H   UNL A   1      44.595  31.472  33.608  1.00  0.00     0.065 H 
ATOM    108  C   UNL A   1      45.380  29.435  31.158  1.00  0.00     0.049 A 
ATOM    109  H   UNL A   1      45.857  27.836  32.446  1.00  0.00     0.167 HD
ATOM    110  C   UNL A   1      45.106  27.571  29.539  1.00  0.00     0.074 A 
ATOM    111  C   UNL A   1      44.767  26.430  30.386  1.00  0.00    -0.034 C 
ATOM    112  H   UNL A   1      43.708  24.589  30.042  1.00  0.00     0.065 H 
ATOM    113  H   UNL A   1      45.438  31.603  31.083  1.00  0.00     0.065 H 
ATOM    114  C   UNL A   1      45.419  28.867  29.832  1.00  0.00     0.037 A 
ATOM    115  H   UNL A   1      45.047  26.345  31.376  1.00  0.00     0.065 H 
BRANCH  96 116
ATOM    116  C   UNL A   1      44.035  27.434  34.873  1.00  0.00     0.064 A 
ATOM    117  C   UNL A   1      44.687  27.750  36.084  1.00  0.00     0.173 A 
ATOM    118  C   UNL A   1      44.113  26.079  34.485  1.00  0.00     0.173 A 
ATOM    119  F   UNL A   1      44.678  29.005  36.562  1.00  0.00    -0.203 F 
ATOM    120  C   UNL A   1      45.454  26.813  36.784  1.00  0.00     0.198 A 
ATOM    121  C   UNL A   1      44.836  25.134  35.214  1.00  0.00     0.198 A 
ATOM    122  F   UNL A   1      43.592  25.630  33.339  1.00  0.00    -0.203 F 
ATOM    123  F   UNL A   1      46.171  27.201  37.847  1.00  0.00    -0.200 F 
ATOM    124  C   UNL A   1      45.538  25.509  36.339  1.00  0.00     0.200 A 
ATOM    125  F   UNL A   1      44.913  23.875  34.761  1.00  0.00    -0.200 F 
ATOM    126  F   UNL A   1      46.329  24.626  36.963  1.00  0.00    -0.200 F 
ENDBRANCH  96 116
BRANCH  99 127
ATOM    127  C   UNL A   1      42.430  24.694  26.933  1.00  0.00     0.064 A 
ATOM    128  C   UNL A   1      43.051  24.466  25.694  1.00  0.00     0.173 A 
ATOM    129  C   UNL A   1      41.833  23.580  27.552  1.00  0.00     0.173 A 
ATOM    130  F   UNL A   1      43.678  25.467  25.060  1.00  0.00    -0.203 F 
ATOM    131  C   UNL A   1      43.104  23.191  25.124  1.00  0.00     0.198 A 
ATOM    132  C   UNL A   1      41.886  22.308  26.980  1.00  0.00     0.198 A 
ATOM    133  F   UNL A   1      41.277  23.685  28.767  1.00  0.00    -0.203 F 
ATOM    134  F   UNL A   1      43.767  22.998  23.975  1.00  0.00    -0.200 F 
ATOM    135  C   UNL A   1      42.533  22.110  25.775  1.00  0.00     0.200 A 
ATOM    136  F   UNL A   1      41.370  21.260  27.636  1.00  0.00    -0.200 F 
ATOM    137  F   UNL A   1      42.644  20.876  25.267  1.00  0.00    -0.200 F 
ENDBRANCH  99 127
BRANCH 114 138
ATOM    138  C   UNL A   1      45.585  29.827  28.686  1.00  0.00     0.064 A 
ATOM    139  C   UNL A   1      44.533  30.556  28.106  1.00  0.00     0.173 A 
ATOM    140  C   UNL A   1      46.885  30.119  28.255  1.00  0.00     0.173 A 
ATOM    141  F   UNL A   1      43.272  30.410  28.530  1.00  0.00    -0.203 F 
ATOM    142  C   UNL A   1      44.772  31.500  27.108  1.00  0.00     0.198 A 
ATOM    143  C   UNL A   1      47.125  31.090  27.286  1.00  0.00     0.198 A 
ATOM    144  F   UNL A   1      47.935  29.494  28.811  1.00  0.00    -0.203 F 
ATOM    145  F   UNL A   1      43.748  32.171  26.558  1.00  0.00    -0.200 F 
ATOM    146  C   UNL A   1      46.069  31.772  26.705  1.00  0.00     0.200 A 
ATOM    147  F   UNL A   1      48.384  31.383  26.936  1.00  0.00    -0.200 F 
ATOM    148  F   UNL A   1      46.303  32.708  25.775  1.00  0.00    -0.200 F 
ENDBRANCH 114 138
ENDBRANCH  79  82
ENDBRANCH  69  72
ENDBRANCH  65  68
ENDBRANCH  62  65
ENDBRANCH  59  62
ENDBRANCH   1  59
TORSDOF 18
ENDMDL
MODEL 5
REMARK VINA RESULT:     -11.9      4.846      9.592
REMARK SMILES CC1(C)Cc2c(-c3ccccc3)c(-c3ccc(Cl)cc3)c(CC(=O)NCCCCCCNC(=O)c3ccc(-c4c5nc(c(-c6c(F)c(F)c(F)c(F)c6F)c6ccc([nH]6)c(-c6c(F)c(F)c(F)c(F)c6F)c6nc(c(-c7c(F)c(F)c(F)c(F)c7F)c7ccc4[nH]7)C=C6)C=C5)cc3)n2C1
REMARK SMILES IDX 28 1 27 4 26 7 25 10 23 11 24 12 22 14 21 17 2 18 4 19 99 20
REMARK SMILES IDX 5 21 98 24 6 27 13 28 1 29 3 33 7 37 8 38 12 39 9 40 11 42
REMARK SMILES IDX 10 44 14 48 15 49 20 50 16 51 19 53 17 55 18 58 29 59 30 62
REMARK SMILES IDX 31 65 32 68 33 69 34 71 35 72 36 73 97 74 37 75 96 77 38 79
REMARK SMILES IDX 39 82 40 83 90 84 41 85 95 86 89 87 91 88 42 89 94 90 88 92
REMARK SMILES IDX 87 94 43 96 75 99 55 100 74 101 56 102 59 103 73 104 92 105
REMARK SMILES IDX 57 106 58 108 72 110 93 111 60 114 44 116 45 117 53 118
REMARK SMILES IDX 46 119 47 120 51 121 54 122 48 123 49 124 52 125 50 126
REMARK SMILES IDX 76 127 77 128 85 129 78 130 79 131 83 132 86 133 80 134
REMARK SMILES IDX 81 135 84 136 82 137 61 138 62 139 70 140 63 141 64 142
REMARK SMILES IDX 68 143 71 144 65 145 66 146 69 147 67 148
REMARK H PARENT 28 2 28 3 27 5 27 6 26 8 26 9 25 13 22 15 22 16 4 22 4 23
REMARK H PARENT 99 25 99 26 1 30 1 31 1 32 3 34 3 35 3 36 8 41 12 43 9 45
REMARK H PARENT 11 46 10 47 15 52 20 54 16 56 19 57 29 60 29 61 30 63 30 64
REMARK H PARENT 31 66 31 67 32 70 36 76 97 78 37 80 96 81 95 91 89 93 91 95
REMARK H PARENT 94 97 88 98 56 107 59 109 92 112 57 113 93 115
REMARK Flexibility Score: inf
ROOT
ATOM      1  C   UNL A   1      44.674  24.240  25.047  1.00  0.00    -0.052 C 
ATOM      2  H   UNL A   1      45.106  23.857  25.948  1.00  0.00     0.027 H 
ATOM      3  H   UNL A   1      45.358  24.291  24.227  1.00  0.00     0.027 H 
ENDROOT
BRANCH   1   4
ATOM      4  C   UNL A   1      44.230  25.680  25.313  1.00  0.00    -0.036 C 
ATOM      5  H   UNL A   1      44.899  26.337  24.797  1.00  0.00     0.028 H 
ATOM      6  H   UNL A   1      43.220  25.755  24.966  1.00  0.00     0.028 H 
BRANCH   4   7
ATOM      7  C   UNL A   1      44.212  26.078  26.786  1.00  0.00     0.017 C 
ATOM      8  H   UNL A   1      45.138  26.562  27.021  1.00  0.00     0.049 H 
ATOM      9  H   UNL A   1      43.376  26.729  26.936  1.00  0.00     0.049 H 
BRANCH   7  10
ATOM     10  N   UNL A   1      44.047  24.946  27.667  1.00  0.00    -0.356 N 
ATOM     11  C   UNL A   1      44.042  24.913  29.033  1.00  0.00     0.225 C 
ATOM     12  O   UNL A   1      43.802  23.830  29.573  1.00  0.00    -0.275 OA
ATOM     13  H   UNL A   1      43.921  24.078  27.221  1.00  0.00     0.163 HD
BRANCH  11  14
ATOM     14  C   UNL A   1      44.239  26.180  29.853  1.00  0.00     0.068 C 
ATOM     15  H   UNL A   1      44.203  27.018  29.188  1.00  0.00     0.043 H 
ATOM     16  H   UNL A   1      43.458  26.195  30.585  1.00  0.00     0.043 H 
BRANCH  14  17
ATOM     17  C   UNL A   1      45.536  26.233  30.607  1.00  0.00     0.036 A 
ATOM     18  C   UNL A   1      45.443  26.570  34.293  1.00  0.00    -0.012 C 
ATOM     19  C   UNL A   1      46.913  26.193  33.917  1.00  0.00    -0.005 C 
ATOM     20  C   UNL A   1      44.610  26.135  33.052  1.00  0.00     0.028 C 
ATOM     21  C   UNL A   1      46.869  26.210  32.436  1.00  0.00     0.027 A 
ATOM     22  H   UNL A   1      47.172  25.222  34.286  1.00  0.00     0.034 H 
ATOM     23  H   UNL A   1      47.646  26.852  34.333  1.00  0.00     0.034 H 
ATOM     24  N   UNL A   1      45.588  26.182  31.970  1.00  0.00    -0.346 N 
ATOM     25  H   UNL A   1      43.803  26.815  32.871  1.00  0.00     0.050 H 
ATOM     26  H   UNL A   1      44.151  25.174  33.166  1.00  0.00     0.050 H 
ATOM     27  C   UNL A   1      47.712  26.266  31.360  1.00  0.00     0.011 A 
ATOM     28  C   UNL A   1      46.871  26.261  30.188  1.00  0.00     0.011 A 
BRANCH  18  29
ATOM     29  C   UNL A   1      44.977  25.846  35.556  1.00  0.00    -0.058 C 
ATOM     30  H   UNL A   1      45.827  25.569  36.143  1.00  0.00     0.024 H 
ATOM     31  H   UNL A   1      44.431  24.967  35.282  1.00  0.00     0.024 H 
ATOM     32  H   UNL A   1      44.346  26.494  36.127  1.00  0.00     0.024 H 
ENDBRANCH  18  29
BRANCH  18  33
ATOM     33  C   UNL A   1      45.342  28.089  34.526  1.00  0.00    -0.058 C 
ATOM     34  H   UNL A   1      44.465  28.466  34.042  1.00  0.00     0.024 H 
ATOM     35  H   UNL A   1      46.208  28.571  34.123  1.00  0.00     0.024 H 
ATOM     36  H   UNL A   1      45.281  28.285  35.576  1.00  0.00     0.024 H 
ENDBRANCH  18  33
BRANCH  27  37
ATOM     37  C   UNL A   1      49.157  26.337  31.450  1.00  0.00    -0.016 A 
ATOM     38  C   UNL A   1      49.931  25.173  31.462  1.00  0.00    -0.054 A 
ATOM     39  C   UNL A   1      49.786  27.588  31.456  1.00  0.00    -0.054 A 
ATOM     40  C   UNL A   1      51.323  25.264  31.468  1.00  0.00    -0.062 A 
ATOM     41  H   UNL A   1      49.473  24.248  31.466  1.00  0.00     0.063 H 
ATOM     42  C   UNL A   1      51.177  27.677  31.462  1.00  0.00    -0.062 A 
ATOM     43  H   UNL A   1      49.217  28.449  31.457  1.00  0.00     0.063 H 
ATOM     44  C   UNL A   1      51.943  26.514  31.462  1.00  0.00    -0.062 A 
ATOM     45  H   UNL A   1      51.896  24.405  31.477  1.00  0.00     0.062 H 
ATOM     46  H   UNL A   1      51.636  28.601  31.465  1.00  0.00     0.062 H 
ATOM     47  H   UNL A   1      52.974  26.578  31.460  1.00  0.00     0.062 H 
ENDBRANCH  27  37
BRANCH  28  48
ATOM     48  C   UNL A   1      47.340  26.256  28.807  1.00  0.00    -0.016 A 
ATOM     49  C   UNL A   1      47.357  27.456  28.082  1.00  0.00    -0.053 A 
ATOM     50  C   UNL A   1      47.612  25.057  28.140  1.00  0.00    -0.053 A 
ATOM     51  C   UNL A   1      47.633  27.456  26.711  1.00  0.00    -0.043 A 
ATOM     52  H   UNL A   1      47.163  28.348  28.564  1.00  0.00     0.063 H 
ATOM     53  C   UNL A   1      47.911  25.056  26.775  1.00  0.00    -0.043 A 
ATOM     54  H   UNL A   1      47.590  24.166  28.660  1.00  0.00     0.063 H 
ATOM     55  C   UNL A   1      47.910  26.255  26.064  1.00  0.00     0.041 A 
ATOM     56  H   UNL A   1      47.634  28.342  26.182  1.00  0.00     0.064 H 
ATOM     57  H   UNL A   1      48.133  24.170  26.294  1.00  0.00     0.064 H 
ATOM     58  Cl  UNL A   1      48.215  26.243  24.371  1.00  0.00    -0.084 Cl
ENDBRANCH  28  48
ENDBRANCH  14  17
ENDBRANCH  11  14
ENDBRANCH   7  10
ENDBRANCH   4   7
ENDBRANCH   1   4
BRANCH   1  59
ATOM     59  C   UNL A   1      43.563  23.273  24.608  1.00  0.00    -0.052 C 
ATOM     60  H   UNL A   1      43.730  23.030  23.580  1.00  0.00     0.027 H 
ATOM     61  H   UNL A   1      42.646  23.790  24.799  1.00  0.00     0.027 H 
BRANCH  59  62
ATOM     62  C   UNL A   1      43.458  21.953  25.389  1.00  0.00    -0.036 C 
ATOM     63  H   UNL A   1      44.425  21.715  25.782  1.00  0.00     0.028 H 
ATOM     64  H   UNL A   1      43.100  21.214  24.704  1.00  0.00     0.028 H 
BRANCH  62  65
ATOM     65  C   UNL A   1      42.471  22.000  26.544  1.00  0.00     0.018 C 
ATOM     66  H   UNL A   1      42.606  22.919  27.075  1.00  0.00     0.049 H 
ATOM     67  H   UNL A   1      42.660  21.155  27.172  1.00  0.00     0.049 H 
BRANCH  65  68
ATOM     68  N   UNL A   1      41.088  21.920  26.092  1.00  0.00    -0.352 N 
ATOM     69  C   UNL A   1      40.043  22.775  26.375  1.00  0.00     0.251 C 
ATOM     70  H   UNL A   1      40.869  21.157  25.509  1.00  0.00     0.163 HD
ATOM     71  O   UNL A   1      38.884  22.422  26.230  1.00  0.00    -0.269 OA
BRANCH  69  72
ATOM     72  C   UNL A   1      40.350  24.127  26.878  1.00  0.00     0.039 A 
ATOM     73  C   UNL A   1      40.390  25.213  26.000  1.00  0.00    -0.049 A 
ATOM     74  C   UNL A   1      40.590  24.305  28.240  1.00  0.00    -0.049 A 
ATOM     75  C   UNL A   1      40.592  26.488  26.517  1.00  0.00    -0.053 A 
ATOM     76  H   UNL A   1      40.270  25.070  24.985  1.00  0.00     0.063 H 
ATOM     77  C   UNL A   1      40.666  25.574  28.764  1.00  0.00    -0.053 A 
ATOM     78  H   UNL A   1      40.712  23.484  28.854  1.00  0.00     0.063 H 
ATOM     79  C   UNL A   1      40.705  26.668  27.906  1.00  0.00    -0.014 A 
ATOM     80  H   UNL A   1      40.658  27.300  25.883  1.00  0.00     0.063 H 
ATOM     81  H   UNL A   1      40.693  25.714  29.786  1.00  0.00     0.063 H 
BRANCH  79  82
ATOM     82  C   UNL A   1      40.760  28.018  28.462  1.00  0.00     0.031 A 
ATOM     83  C   UNL A   1      41.890  28.857  27.973  1.00  0.00     0.074 A 
ATOM     84  C   UNL A   1      39.782  28.561  29.215  1.00  0.00     0.049 A 
ATOM     85  N   UNL A   1      42.877  29.335  28.658  1.00  0.00    -0.248 NA
ATOM     86  C   UNL A   1      41.991  29.115  26.527  1.00  0.00    -0.034 C 
ATOM     87  C   UNL A   1      38.459  28.015  29.537  1.00  0.00    -0.036 A 
ATOM     88  N   UNL A   1      39.745  29.795  29.791  1.00  0.00    -0.354 N 
ATOM     89  C   UNL A   1      43.645  30.088  27.773  1.00  0.00     0.074 A 
ATOM     90  C   UNL A   1      43.132  29.804  26.457  1.00  0.00    -0.034 C 
ATOM     91  H   UNL A   1      41.349  28.837  25.769  1.00  0.00     0.065 H 
ATOM     92  C   UNL A   1      37.679  28.991  30.051  1.00  0.00    -0.036 A 
ATOM     93  H   UNL A   1      38.168  27.035  29.392  1.00  0.00     0.065 H 
ATOM     94  C   UNL A   1      38.495  30.173  30.261  1.00  0.00     0.049 A 
ATOM     95  H   UNL A   1      40.540  30.370  29.868  1.00  0.00     0.167 HD
ATOM     96  C   UNL A   1      44.511  31.038  28.228  1.00  0.00     0.037 A 
ATOM     97  H   UNL A   1      43.587  30.094  25.577  1.00  0.00     0.065 H 
ATOM     98  H   UNL A   1      36.672  28.911  30.260  1.00  0.00     0.065 H 
ATOM     99  C   UNL A   1      38.152  31.380  30.770  1.00  0.00     0.037 A 
ATOM    100  C   UNL A   1      44.802  30.839  29.626  1.00  0.00     0.049 A 
ATOM    101  C   UNL A   1      39.403  32.052  31.198  1.00  0.00     0.074 A 
ATOM    102  C   UNL A   1      45.373  29.822  30.365  1.00  0.00    -0.036 A 
ATOM    103  N   UNL A   1      44.160  31.640  30.538  1.00  0.00    -0.354 N 
ATOM    104  N   UNL A   1      40.136  31.656  32.200  1.00  0.00    -0.248 NA
ATOM    105  C   UNL A   1      40.070  32.915  30.237  1.00  0.00    -0.034 C 
ATOM    106  C   UNL A   1      44.628  29.788  31.582  1.00  0.00    -0.036 A 
ATOM    107  H   UNL A   1      46.166  29.218  30.097  1.00  0.00     0.065 H 
ATOM    108  C   UNL A   1      43.694  30.825  31.537  1.00  0.00     0.049 A 
ATOM    109  H   UNL A   1      44.054  32.617  30.485  1.00  0.00     0.167 HD
ATOM    110  C   UNL A   1      41.441  31.844  31.774  1.00  0.00     0.074 A 
ATOM    111  C   UNL A   1      41.337  32.718  30.608  1.00  0.00    -0.034 C 
ATOM    112  H   UNL A   1      39.678  33.509  29.488  1.00  0.00     0.065 H 
ATOM    113  H   UNL A   1      44.756  29.119  32.356  1.00  0.00     0.065 H 
ATOM    114  C   UNL A   1      42.451  31.048  32.233  1.00  0.00     0.037 A 
ATOM    115  H   UNL A   1      42.150  33.134  30.126  1.00  0.00     0.065 H 
BRANCH  96 116
ATOM    116  C   UNL A   1      44.812  32.349  27.532  1.00  0.00     0.064 A 
ATOM    117  C   UNL A   1      46.023  32.479  26.817  1.00  0.00     0.173 A 
ATOM    118  C   UNL A   1      44.136  33.560  27.794  1.00  0.00     0.173 A 
ATOM    119  F   UNL A   1      46.753  31.398  26.500  1.00  0.00    -0.203 F 
ATOM    120  C   UNL A   1      46.569  33.726  26.500  1.00  0.00     0.198 A 
ATOM    121  C   UNL A   1      44.659  34.801  27.430  1.00  0.00     0.198 A 
ATOM    122  F   UNL A   1      43.005  33.610  28.505  1.00  0.00    -0.203 F 
ATOM    123  F   UNL A   1      47.789  33.798  25.952  1.00  0.00    -0.200 F 
ATOM    124  C   UNL A   1      45.893  34.887  26.820  1.00  0.00     0.200 A 
ATOM    125  F   UNL A   1      43.992  35.916  27.757  1.00  0.00    -0.200 F 
ATOM    126  F   UNL A   1      46.444  36.085  26.586  1.00  0.00    -0.200 F 
ENDBRANCH  96 116
BRANCH  99 127
ATOM    127  C   UNL A   1      36.863  32.100  30.675  1.00  0.00     0.064 A 
ATOM    128  C   UNL A   1      35.981  32.150  31.767  1.00  0.00     0.173 A 
ATOM    129  C   UNL A   1      36.610  32.996  29.620  1.00  0.00     0.173 A 
ATOM    130  F   UNL A   1      36.178  31.357  32.830  1.00  0.00    -0.203 F 
ATOM    131  C   UNL A   1      34.928  33.068  31.817  1.00  0.00     0.198 A 
ATOM    132  C   UNL A   1      35.557  33.912  29.672  1.00  0.00     0.198 A 
ATOM    133  F   UNL A   1      37.437  33.071  28.568  1.00  0.00    -0.203 F 
ATOM    134  F   UNL A   1      34.150  33.135  32.906  1.00  0.00    -0.200 F 
ATOM    135  C   UNL A   1      34.726  33.958  30.775  1.00  0.00     0.200 A 
ATOM    136  F   UNL A   1      35.394  34.798  28.681  1.00  0.00    -0.200 F 
ATOM    137  F   UNL A   1      33.763  34.885  30.851  1.00  0.00    -0.200 F 
ENDBRANCH  99 127
BRANCH 114 138
ATOM    138  C   UNL A   1      42.165  30.163  33.415  1.00  0.00     0.064 A 
ATOM    139  C   UNL A   1      41.757  28.821  33.319  1.00  0.00     0.173 A 
ATOM    140  C   UNL A   1      42.452  30.658  34.694  1.00  0.00     0.173 A 
ATOM    141  F   UNL A   1      41.559  28.241  32.129  1.00  0.00    -0.203 F 
ATOM    142  C   UNL A   1      41.601  28.030  34.455  1.00  0.00     0.198 A 
ATOM    143  C   UNL A   1      42.334  29.854  35.824  1.00  0.00     0.198 A 
ATOM    144  F   UNL A   1      42.898  31.915  34.844  1.00  0.00    -0.203 F 
ATOM    145  F   UNL A   1      41.195  26.756  34.338  1.00  0.00    -0.200 F 
ATOM    146  C   UNL A   1      41.897  28.545  35.707  1.00  0.00     0.200 A 
ATOM    147  F   UNL A   1      42.668  30.342  37.026  1.00  0.00    -0.200 F 
ATOM    148  F   UNL A   1      41.787  27.772  36.796  1.00  0.00    -0.200 F 
ENDBRANCH 114 138
ENDBRANCH  79  82
ENDBRANCH  69  72
ENDBRANCH  65  68
ENDBRANCH  62  65
ENDBRANCH  59  62
ENDBRANCH   1  59
TORSDOF 18
ENDMDL
MODEL 6
REMARK VINA RESULT:     -11.9      9.249     15.661
REMARK SMILES CC1(C)Cc2c(-c3ccccc3)c(-c3ccc(Cl)cc3)c(CC(=O)NCCCCCCNC(=O)c3ccc(-c4c5nc(c(-c6c(F)c(F)c(F)c(F)c6F)c6ccc([nH]6)c(-c6c(F)c(F)c(F)c(F)c6F)c6nc(c(-c7c(F)c(F)c(F)c(F)c7F)c7ccc4[nH]7)C=C6)C=C5)cc3)n2C1
REMARK SMILES IDX 28 1 27 4 26 7 25 10 23 11 24 12 22 14 21 17 2 18 4 19 99 20
REMARK SMILES IDX 5 21 98 24 6 27 13 28 1 29 3 33 7 37 8 38 12 39 9 40 11 42
REMARK SMILES IDX 10 44 14 48 15 49 20 50 16 51 19 53 17 55 18 58 29 59 30 62
REMARK SMILES IDX 31 65 32 68 33 69 34 71 35 72 36 73 97 74 37 75 96 77 38 79
REMARK SMILES IDX 39 82 40 83 90 84 41 85 95 86 89 87 91 88 42 89 94 90 88 92
REMARK SMILES IDX 87 94 43 96 75 99 55 100 74 101 56 102 59 103 73 104 92 105
REMARK SMILES IDX 57 106 58 108 72 110 93 111 60 114 44 116 45 117 53 118
REMARK SMILES IDX 46 119 47 120 51 121 54 122 48 123 49 124 52 125 50 126
REMARK SMILES IDX 76 127 77 128 85 129 78 130 79 131 83 132 86 133 80 134
REMARK SMILES IDX 81 135 84 136 82 137 61 138 62 139 70 140 63 141 64 142
REMARK SMILES IDX 68 143 71 144 65 145 66 146 69 147 67 148
REMARK H PARENT 28 2 28 3 27 5 27 6 26 8 26 9 25 13 22 15 22 16 4 22 4 23
REMARK H PARENT 99 25 99 26 1 30 1 31 1 32 3 34 3 35 3 36 8 41 12 43 9 45
REMARK H PARENT 11 46 10 47 15 52 20 54 16 56 19 57 29 60 29 61 30 63 30 64
REMARK H PARENT 31 66 31 67 32 70 36 76 97 78 37 80 96 81 95 91 89 93 91 95
REMARK H PARENT 94 97 88 98 56 107 59 109 92 112 57 113 93 115
REMARK Flexibility Score: inf
ROOT
ATOM      1  C   UNL A   1      41.637  41.062  25.584  1.00  0.00    -0.052 C 
ATOM      2  H   UNL A   1      41.445  40.525  24.678  1.00  0.00     0.027 H 
ATOM      3  H   UNL A   1      40.985  41.895  25.739  1.00  0.00     0.027 H 
ENDROOT
BRANCH   1   4
ATOM      4  C   UNL A   1      43.050  41.644  25.495  1.00  0.00    -0.036 C 
ATOM      5  H   UNL A   1      43.208  42.267  26.351  1.00  0.00     0.028 H 
ATOM      6  H   UNL A   1      43.719  40.810  25.454  1.00  0.00     0.028 H 
BRANCH   4   7
ATOM      7  C   UNL A   1      43.316  42.476  24.244  1.00  0.00     0.017 C 
ATOM      8  H   UNL A   1      43.732  43.418  24.540  1.00  0.00     0.049 H 
ATOM      9  H   UNL A   1      43.993  41.923  23.625  1.00  0.00     0.049 H 
BRANCH   7  10
ATOM     10  N   UNL A   1      42.122  42.721  23.472  1.00  0.00    -0.356 N 
ATOM     11  C   UNL A   1      41.960  42.729  22.115  1.00  0.00     0.225 C 
ATOM     12  O   UNL A   1      40.815  42.886  21.681  1.00  0.00    -0.275 OA
ATOM     13  H   UNL A   1      41.310  42.909  23.997  1.00  0.00     0.163 HD
BRANCH  11  14
ATOM     14  C   UNL A   1      43.132  42.465  21.180  1.00  0.00     0.068 C 
ATOM     15  H   UNL A   1      43.895  41.959  21.735  1.00  0.00     0.043 H 
ATOM     16  H   UNL A   1      42.751  41.881  20.369  1.00  0.00     0.043 H 
BRANCH  14  17
ATOM     17  C   UNL A   1      43.731  43.702  20.577  1.00  0.00     0.036 A 
ATOM     18  C   UNL A   1      42.554  44.811  17.246  1.00  0.00    -0.012 C 
ATOM     19  C   UNL A   1      43.388  45.992  17.841  1.00  0.00    -0.005 C 
ATOM     20  C   UNL A   1      42.176  43.950  18.488  1.00  0.00     0.028 C 
ATOM     21  C   UNL A   1      43.911  45.403  19.096  1.00  0.00     0.027 A 
ATOM     22  H   UNL A   1      42.770  46.843  18.038  1.00  0.00     0.034 H 
ATOM     23  H   UNL A   1      44.153  46.352  17.183  1.00  0.00     0.034 H 
ATOM     24  N   UNL A   1      43.234  44.272  19.440  1.00  0.00    -0.346 N 
ATOM     25  H   UNL A   1      42.177  42.908  18.249  1.00  0.00     0.050 H 
ATOM     26  H   UNL A   1      41.194  44.156  18.862  1.00  0.00     0.050 H 
ATOM     27  C   UNL A   1      44.885  45.619  20.031  1.00  0.00     0.011 A 
ATOM     28  C   UNL A   1      44.766  44.549  20.992  1.00  0.00     0.011 A 
BRANCH  18  29
ATOM     29  C   UNL A   1      41.307  45.308  16.515  1.00  0.00    -0.058 C 
ATOM     30  H   UNL A   1      40.544  45.538  17.227  1.00  0.00     0.024 H 
ATOM     31  H   UNL A   1      40.957  44.546  15.849  1.00  0.00     0.024 H 
ATOM     32  H   UNL A   1      41.549  46.187  15.955  1.00  0.00     0.024 H 
ENDBRANCH  18  29
BRANCH  18  33
ATOM     33  C   UNL A   1      43.423  44.009  16.259  1.00  0.00    -0.058 C 
ATOM     34  H   UNL A   1      43.614  43.036  16.660  1.00  0.00     0.024 H 
ATOM     35  H   UNL A   1      44.350  44.519  16.102  1.00  0.00     0.024 H 
ATOM     36  H   UNL A   1      42.906  43.914  15.326  1.00  0.00     0.024 H 
ENDBRANCH  18  33
BRANCH  27  37
ATOM     37  C   UNL A   1      45.834  46.714  19.994  1.00  0.00    -0.016 A 
ATOM     38  C   UNL A   1      45.403  48.037  20.124  1.00  0.00    -0.054 A 
ATOM     39  C   UNL A   1      47.202  46.437  19.896  1.00  0.00    -0.054 A 
ATOM     40  C   UNL A   1      46.339  49.072  20.166  1.00  0.00    -0.062 A 
ATOM     41  H   UNL A   1      44.395  48.249  20.188  1.00  0.00     0.063 H 
ATOM     42  C   UNL A   1      48.136  47.471  19.939  1.00  0.00    -0.062 A 
ATOM     43  H   UNL A   1      47.523  45.461  19.791  1.00  0.00     0.063 H 
ATOM     44  C   UNL A   1      47.702  48.787  20.079  1.00  0.00    -0.062 A 
ATOM     45  H   UNL A   1      46.021  50.050  20.262  1.00  0.00     0.062 H 
ATOM     46  H   UNL A   1      49.143  47.262  19.868  1.00  0.00     0.062 H 
ATOM     47  H   UNL A   1      48.392  49.555  20.118  1.00  0.00     0.062 H 
ENDBRANCH  27  37
BRANCH  28  48
ATOM     48  C   UNL A   1      45.569  44.400  22.200  1.00  0.00    -0.016 A 
ATOM     49  C   UNL A   1      46.462  43.324  22.303  1.00  0.00    -0.053 A 
ATOM     50  C   UNL A   1      45.343  45.205  23.322  1.00  0.00    -0.053 A 
ATOM     51  C   UNL A   1      47.115  43.055  23.510  1.00  0.00    -0.043 A 
ATOM     52  H   UNL A   1      46.640  42.727  21.481  1.00  0.00     0.063 H 
ATOM     53  C   UNL A   1      46.011  44.951  24.523  1.00  0.00    -0.043 A 
ATOM     54  H   UNL A   1      44.678  45.991  23.262  1.00  0.00     0.063 H 
ATOM     55  C   UNL A   1      46.886  43.870  24.615  1.00  0.00     0.041 A 
ATOM     56  H   UNL A   1      47.764  42.256  23.582  1.00  0.00     0.064 H 
ATOM     57  H   UNL A   1      45.857  45.563  25.340  1.00  0.00     0.064 H 
ATOM     58  Cl  UNL A   1      47.658  43.522  26.113  1.00  0.00    -0.084 Cl
ENDBRANCH  28  48
ENDBRANCH  14  17
ENDBRANCH  11  14
ENDBRANCH   7  10
ENDBRANCH   4   7
ENDBRANCH   1   4
BRANCH   1  59
ATOM     59  C   UNL A   1      41.386  40.106  26.761  1.00  0.00    -0.052 C 
ATOM     60  H   UNL A   1      40.383  39.743  26.677  1.00  0.00     0.027 H 
ATOM     61  H   UNL A   1      41.577  40.684  27.641  1.00  0.00     0.027 H 
BRANCH  59  62
ATOM     62  C   UNL A   1      42.316  38.888  26.863  1.00  0.00    -0.036 C 
ATOM     63  H   UNL A   1      42.814  38.763  25.924  1.00  0.00     0.028 H 
ATOM     64  H   UNL A   1      41.703  38.048  27.117  1.00  0.00     0.028 H 
BRANCH  62  65
ATOM     65  C   UNL A   1      43.371  39.009  27.951  1.00  0.00     0.018 C 
ATOM     66  H   UNL A   1      42.982  38.589  28.855  1.00  0.00     0.049 H 
ATOM     67  H   UNL A   1      43.602  40.047  28.071  1.00  0.00     0.049 H 
BRANCH  65  68
ATOM     68  N   UNL A   1      44.604  38.314  27.605  1.00  0.00    -0.352 N 
ATOM     69  C   UNL A   1      45.151  37.194  28.195  1.00  0.00     0.251 C 
ATOM     70  H   UNL A   1      45.115  38.694  26.853  1.00  0.00     0.163 HD
ATOM     71  O   UNL A   1      46.330  36.918  28.049  1.00  0.00    -0.269 OA
BRANCH  69  72
ATOM     72  C   UNL A   1      44.285  36.336  29.025  1.00  0.00     0.039 A 
ATOM     73  C   UNL A   1      44.219  36.530  30.407  1.00  0.00    -0.049 A 
ATOM     74  C   UNL A   1      43.528  35.340  28.410  1.00  0.00    -0.049 A 
ATOM     75  C   UNL A   1      43.325  35.767  31.151  1.00  0.00    -0.053 A 
ATOM     76  H   UNL A   1      44.823  37.230  30.867  1.00  0.00     0.063 H 
ATOM     77  C   UNL A   1      42.560  34.673  29.123  1.00  0.00    -0.053 A 
ATOM     78  H   UNL A   1      43.697  35.101  27.420  1.00  0.00     0.063 H 
ATOM     79  C   UNL A   1      42.477  34.855  30.500  1.00  0.00    -0.014 A 
ATOM     80  H   UNL A   1      43.285  35.871  32.177  1.00  0.00     0.063 H 
ATOM     81  H   UNL A   1      41.898  34.045  28.641  1.00  0.00     0.063 H 
BRANCH  79  82
ATOM     82  C   UNL A   1      41.433  34.168  31.256  1.00  0.00     0.031 A 
ATOM     83  C   UNL A   1      41.801  33.801  32.652  1.00  0.00     0.074 A 
ATOM     84  C   UNL A   1      40.163  34.025  30.824  1.00  0.00     0.049 A 
ATOM     85  N   UNL A   1      41.911  32.616  33.157  1.00  0.00    -0.248 NA
ATOM     86  C   UNL A   1      42.190  34.878  33.576  1.00  0.00    -0.034 C 
ATOM     87  C   UNL A   1      39.529  34.592  29.628  1.00  0.00    -0.036 A 
ATOM     88  N   UNL A   1      39.127  33.390  31.440  1.00  0.00    -0.354 N 
ATOM     89  C   UNL A   1      42.229  32.787  34.503  1.00  0.00     0.074 A 
ATOM     90  C   UNL A   1      42.522  34.188  34.669  1.00  0.00    -0.034 C 
ATOM     91  H   UNL A   1      42.202  35.898  33.419  1.00  0.00     0.065 H 
ATOM     92  C   UNL A   1      38.188  34.465  29.725  1.00  0.00    -0.036 A 
ATOM     93  H   UNL A   1      40.032  35.021  28.836  1.00  0.00     0.065 H 
ATOM     94  C   UNL A   1      37.881  33.656  30.889  1.00  0.00     0.049 A 
ATOM     95  H   UNL A   1      39.252  32.793  32.212  1.00  0.00     0.167 HD
ATOM     96  C   UNL A   1      42.026  31.786  35.406  1.00  0.00     0.037 A 
ATOM     97  H   UNL A   1      42.934  34.603  35.520  1.00  0.00     0.065 H 
ATOM     98  H   UNL A   1      37.496  34.876  29.079  1.00  0.00     0.065 H 
ATOM     99  C   UNL A   1      36.680  33.253  31.369  1.00  0.00     0.037 A 
ATOM    100  C   UNL A   1      41.875  30.517  34.738  1.00  0.00     0.049 A 
ATOM    101  C   UNL A   1      36.928  32.098  32.267  1.00  0.00     0.074 A 
ATOM    102  C   UNL A   1      42.677  29.749  33.917  1.00  0.00    -0.036 A 
ATOM    103  N   UNL A   1      40.606  30.016  34.583  1.00  0.00    -0.354 N 
ATOM    104  N   UNL A   1      37.338  30.932  31.856  1.00  0.00    -0.248 NA
ATOM    105  C   UNL A   1      37.130  32.372  33.681  1.00  0.00    -0.034 C 
ATOM    106  C   UNL A   1      41.787  29.186  32.955  1.00  0.00    -0.036 A 
ATOM    107  H   UNL A   1      43.698  29.612  33.985  1.00  0.00     0.065 H 
ATOM    108  C   UNL A   1      40.493  29.591  33.286  1.00  0.00     0.049 A 
ATOM    109  H   UNL A   1      39.908  29.971  35.275  1.00  0.00     0.167 HD
ATOM    110  C   UNL A   1      38.231  30.514  32.830  1.00  0.00     0.074 A 
ATOM    111  C   UNL A   1      37.982  31.387  33.974  1.00  0.00    -0.034 C 
ATOM    112  H   UNL A   1      36.731  33.111  34.281  1.00  0.00     0.065 H 
ATOM    113  H   UNL A   1      42.051  28.586  32.158  1.00  0.00     0.065 H 
ATOM    114  C   UNL A   1      39.276  29.692  32.517  1.00  0.00     0.037 A 
ATOM    115  H   UNL A   1      38.415  31.257  34.903  1.00  0.00     0.065 H 
BRANCH  96 116
ATOM    116  C   UNL A   1      41.598  31.983  36.845  1.00  0.00     0.064 A 
ATOM    117  C   UNL A   1      40.380  32.647  37.109  1.00  0.00     0.173 A 
ATOM    118  C   UNL A   1      42.458  31.841  37.955  1.00  0.00     0.173 A 
ATOM    119  F   UNL A   1      39.476  32.837  36.135  1.00  0.00    -0.203 F 
ATOM    120  C   UNL A   1      40.103  33.227  38.351  1.00  0.00     0.198 A 
ATOM    121  C   UNL A   1      42.155  32.375  39.207  1.00  0.00     0.198 A 
ATOM    122  F   UNL A   1      43.668  31.282  37.857  1.00  0.00    -0.203 F 
ATOM    123  F   UNL A   1      39.001  33.971  38.507  1.00  0.00    -0.200 F 
ATOM    124  C   UNL A   1      40.998  33.102  39.396  1.00  0.00     0.200 A 
ATOM    125  F   UNL A   1      43.040  32.251  40.206  1.00  0.00    -0.200 F 
ATOM    126  F   UNL A   1      40.773  33.716  40.564  1.00  0.00    -0.200 F 
ENDBRANCH  96 116
BRANCH  99 127
ATOM    127  C   UNL A   1      35.375  33.947  31.319  1.00  0.00     0.064 A 
ATOM    128  C   UNL A   1      35.058  34.959  32.239  1.00  0.00     0.173 A 
ATOM    129  C   UNL A   1      34.540  33.838  30.191  1.00  0.00     0.173 A 
ATOM    130  F   UNL A   1      35.829  35.154  33.319  1.00  0.00    -0.203 F 
ATOM    131  C   UNL A   1      33.990  35.835  32.026  1.00  0.00     0.198 A 
ATOM    132  C   UNL A   1      33.473  34.713  29.981  1.00  0.00     0.198 A 
ATOM    133  F   UNL A   1      34.804  32.948  29.223  1.00  0.00    -0.203 F 
ATOM    134  F   UNL A   1      33.760  36.833  32.890  1.00  0.00    -0.200 F 
ATOM    135  C   UNL A   1      33.207  35.720  30.890  1.00  0.00     0.200 A 
ATOM    136  F   UNL A   1      32.747  34.624  28.859  1.00  0.00    -0.200 F 
ATOM    137  F   UNL A   1      32.228  36.601  30.647  1.00  0.00    -0.200 F 
ENDBRANCH  99 127
BRANCH 114 138
ATOM    138  C   UNL A   1      39.268  29.028  31.168  1.00  0.00     0.064 A 
ATOM    139  C   UNL A   1      39.788  29.607  29.997  1.00  0.00     0.173 A 
ATOM    140  C   UNL A   1      38.840  27.696  31.092  1.00  0.00     0.173 A 
ATOM    141  F   UNL A   1      40.309  30.839  30.006  1.00  0.00    -0.203 F 
ATOM    142  C   UNL A   1      39.833  28.897  28.798  1.00  0.00     0.198 A 
ATOM    143  C   UNL A   1      38.922  26.976  29.903  1.00  0.00     0.198 A 
ATOM    144  F   UNL A   1      38.383  27.072  32.189  1.00  0.00    -0.203 F 
ATOM    145  F   UNL A   1      40.320  29.477  27.690  1.00  0.00    -0.200 F 
ATOM    146  C   UNL A   1      39.408  27.580  28.754  1.00  0.00     0.200 A 
ATOM    147  F   UNL A   1      38.555  25.688  29.878  1.00  0.00    -0.200 F 
ATOM    148  F   UNL A   1      39.489  26.883  27.611  1.00  0.00    -0.200 F 
ENDBRANCH 114 138
ENDBRANCH  79  82
ENDBRANCH  69  72
ENDBRANCH  65  68
ENDBRANCH  62  65
ENDBRANCH  59  62
ENDBRANCH   1  59
TORSDOF 18
ENDMDL
MODEL 7
REMARK VINA RESULT:     -11.8      1.622      5.969
REMARK SMILES CC1(C)Cc2c(-c3ccccc3)c(-c3ccc(Cl)cc3)c(CC(=O)NCCCCCCNC(=O)c3ccc(-c4c5nc(c(-c6c(F)c(F)c(F)c(F)c6F)c6ccc([nH]6)c(-c6c(F)c(F)c(F)c(F)c6F)c6nc(c(-c7c(F)c(F)c(F)c(F)c7F)c7ccc4[nH]7)C=C6)C=C5)cc3)n2C1
REMARK SMILES IDX 28 1 27 4 26 7 25 10 23 11 24 12 22 14 21 17 2 18 4 19 99 20
REMARK SMILES IDX 5 21 98 24 6 27 13 28 1 29 3 33 7 37 8 38 12 39 9 40 11 42
REMARK SMILES IDX 10 44 14 48 15 49 20 50 16 51 19 53 17 55 18 58 29 59 30 62
REMARK SMILES IDX 31 65 32 68 33 69 34 71 35 72 36 73 97 74 37 75 96 77 38 79
REMARK SMILES IDX 39 82 40 83 90 84 41 85 95 86 89 87 91 88 42 89 94 90 88 92
REMARK SMILES IDX 87 94 43 96 75 99 55 100 74 101 56 102 59 103 73 104 92 105
REMARK SMILES IDX 57 106 58 108 72 110 93 111 60 114 44 116 45 117 53 118
REMARK SMILES IDX 46 119 47 120 51 121 54 122 48 123 49 124 52 125 50 126
REMARK SMILES IDX 76 127 77 128 85 129 78 130 79 131 83 132 86 133 80 134
REMARK SMILES IDX 81 135 84 136 82 137 61 138 62 139 70 140 63 141 64 142
REMARK SMILES IDX 68 143 71 144 65 145 66 146 69 147 67 148
REMARK H PARENT 28 2 28 3 27 5 27 6 26 8 26 9 25 13 22 15 22 16 4 22 4 23
REMARK H PARENT 99 25 99 26 1 30 1 31 1 32 3 34 3 35 3 36 8 41 12 43 9 45
REMARK H PARENT 11 46 10 47 15 52 20 54 16 56 19 57 29 60 29 61 30 63 30 64
REMARK H PARENT 31 66 31 67 32 70 36 76 97 78 37 80 96 81 95 91 89 93 91 95
REMARK H PARENT 94 97 88 98 56 107 59 109 92 112 57 113 93 115
REMARK Flexibility Score: inf
ROOT
ATOM      1  C   UNL A   1      39.031  22.116  26.135  1.00  0.00    -0.052 C 
ATOM      2  H   UNL A   1      38.538  22.607  26.948  1.00  0.00     0.027 H 
ATOM      3  H   UNL A   1      39.540  22.783  25.472  1.00  0.00     0.027 H 
ENDROOT
BRANCH   1   4
ATOM      4  C   UNL A   1      37.963  21.417  25.290  1.00  0.00    -0.036 C 
ATOM      5  H   UNL A   1      38.404  21.148  24.352  1.00  0.00     0.028 H 
ATOM      6  H   UNL A   1      37.635  20.571  25.857  1.00  0.00     0.028 H 
BRANCH   4   7
ATOM      7  C   UNL A   1      36.722  22.260  25.010  1.00  0.00     0.017 C 
ATOM      8  H   UNL A   1      37.029  23.266  24.808  1.00  0.00     0.049 H 
ATOM      9  H   UNL A   1      36.218  21.825  24.172  1.00  0.00     0.049 H 
BRANCH   7  10
ATOM     10  N   UNL A   1      35.797  22.274  26.117  1.00  0.00    -0.356 N 
ATOM     11  C   UNL A   1      34.964  23.275  26.530  1.00  0.00     0.225 C 
ATOM     12  O   UNL A   1      34.197  23.026  27.464  1.00  0.00    -0.275 OA
ATOM     13  H   UNL A   1      35.760  21.446  26.649  1.00  0.00     0.163 HD
BRANCH  11  14
ATOM     14  C   UNL A   1      34.924  24.615  25.808  1.00  0.00     0.068 C 
ATOM     15  H   UNL A   1      35.086  25.389  26.529  1.00  0.00     0.043 H 
ATOM     16  H   UNL A   1      35.683  24.580  25.056  1.00  0.00     0.043 H 
BRANCH  14  17
ATOM     17  C   UNL A   1      33.629  24.896  25.100  1.00  0.00     0.036 A 
ATOM     18  C   UNL A   1      32.383  22.443  22.623  1.00  0.00    -0.012 C 
ATOM     19  C   UNL A   1      31.203  23.430  22.907  1.00  0.00    -0.005 C 
ATOM     20  C   UNL A   1      33.328  22.619  23.848  1.00  0.00     0.028 C 
ATOM     21  C   UNL A   1      31.841  24.429  23.796  1.00  0.00     0.027 A 
ATOM     22  H   UNL A   1      30.392  22.934  23.398  1.00  0.00     0.034 H 
ATOM     23  H   UNL A   1      30.774  23.853  22.022  1.00  0.00     0.034 H 
ATOM     24  N   UNL A   1      33.017  23.969  24.307  1.00  0.00    -0.346 N 
ATOM     25  H   UNL A   1      34.355  22.538  23.558  1.00  0.00     0.050 H 
ATOM     26  H   UNL A   1      33.186  21.873  24.603  1.00  0.00     0.050 H 
ATOM     27  C   UNL A   1      31.638  25.697  24.267  1.00  0.00     0.011 A 
ATOM     28  C   UNL A   1      32.765  25.997  25.116  1.00  0.00     0.011 A 
BRANCH  18  29
ATOM     29  C   UNL A   1      31.898  20.999  22.499  1.00  0.00    -0.058 C 
ATOM     30  H   UNL A   1      31.629  20.799  21.483  1.00  0.00     0.024 H 
ATOM     31  H   UNL A   1      31.045  20.854  23.130  1.00  0.00     0.024 H 
ATOM     32  H   UNL A   1      32.680  20.333  22.799  1.00  0.00     0.024 H 
ENDBRANCH  18  29
BRANCH  18  33
ATOM     33  C   UNL A   1      33.090  22.844  21.314  1.00  0.00    -0.058 C 
ATOM     34  H   UNL A   1      33.928  23.469  21.539  1.00  0.00     0.024 H 
ATOM     35  H   UNL A   1      32.406  23.375  20.687  1.00  0.00     0.024 H 
ATOM     36  H   UNL A   1      33.428  21.964  20.808  1.00  0.00     0.024 H 
ENDBRANCH  18  33
BRANCH  27  37
ATOM     37  C   UNL A   1      30.504  26.531  23.922  1.00  0.00    -0.016 A 
ATOM     38  C   UNL A   1      30.675  27.698  23.173  1.00  0.00    -0.054 A 
ATOM     39  C   UNL A   1      29.214  26.124  24.286  1.00  0.00    -0.054 A 
ATOM     40  C   UNL A   1      29.562  28.444  22.783  1.00  0.00    -0.062 A 
ATOM     41  H   UNL A   1      31.624  28.008  22.909  1.00  0.00     0.063 H 
ATOM     42  C   UNL A   1      28.103  26.870  23.895  1.00  0.00    -0.062 A 
ATOM     43  H   UNL A   1      29.085  25.267  24.847  1.00  0.00     0.063 H 
ATOM     44  C   UNL A   1      28.280  28.027  23.140  1.00  0.00    -0.062 A 
ATOM     45  H   UNL A   1      29.689  29.307  22.230  1.00  0.00     0.062 H 
ATOM     46  H   UNL A   1      27.155  26.566  24.165  1.00  0.00     0.062 H 
ATOM     47  H   UNL A   1      27.458  28.578  22.843  1.00  0.00     0.062 H 
ENDBRANCH  27  37
BRANCH  28  48
ATOM     48  C   UNL A   1      32.949  27.226  25.879  1.00  0.00    -0.016 A 
ATOM     49  C   UNL A   1      31.964  27.622  26.794  1.00  0.00    -0.053 A 
ATOM     50  C   UNL A   1      34.002  28.103  25.595  1.00  0.00    -0.053 A 
ATOM     51  C   UNL A   1      32.026  28.876  27.410  1.00  0.00    -0.043 A 
ATOM     52  H   UNL A   1      31.185  26.982  27.016  1.00  0.00     0.063 H 
ATOM     53  C   UNL A   1      34.079  29.347  26.225  1.00  0.00    -0.043 A 
ATOM     54  H   UNL A   1      34.726  27.828  24.913  1.00  0.00     0.063 H 
ATOM     55  C   UNL A   1      33.085  29.733  27.122  1.00  0.00     0.041 A 
ATOM     56  H   UNL A   1      31.293  29.165  28.075  1.00  0.00     0.064 H 
ATOM     57  H   UNL A   1      34.871  29.979  26.027  1.00  0.00     0.064 H 
ATOM     58  Cl  UNL A   1      33.149  31.291  27.849  1.00  0.00    -0.084 Cl
ENDBRANCH  28  48
ENDBRANCH  14  17
ENDBRANCH  11  14
ENDBRANCH   7  10
ENDBRANCH   4   7
ENDBRANCH   1   4
BRANCH   1  59
ATOM     59  C   UNL A   1      40.116  21.200  26.724  1.00  0.00    -0.052 C 
ATOM     60  H   UNL A   1      39.780  20.876  27.687  1.00  0.00     0.027 H 
ATOM     61  H   UNL A   1      41.008  21.792  26.742  1.00  0.00     0.027 H 
BRANCH  59  62
ATOM     62  C   UNL A   1      40.472  19.949  25.907  1.00  0.00    -0.036 C 
ATOM     63  H   UNL A   1      40.682  20.250  24.902  1.00  0.00     0.028 H 
ATOM     64  H   UNL A   1      39.633  19.287  25.971  1.00  0.00     0.028 H 
BRANCH  62  65
ATOM     65  C   UNL A   1      41.675  19.188  26.441  1.00  0.00     0.018 C 
ATOM     66  H   UNL A   1      41.402  18.162  26.575  1.00  0.00     0.049 H 
ATOM     67  H   UNL A   1      41.965  19.639  27.366  1.00  0.00     0.049 H 
BRANCH  65  68
ATOM     68  N   UNL A   1      42.816  19.255  25.536  1.00  0.00    -0.352 N 
ATOM     69  C   UNL A   1      43.599  20.346  25.223  1.00  0.00     0.251 C 
ATOM     70  H   UNL A   1      43.059  18.412  25.088  1.00  0.00     0.163 HD
ATOM     71  O   UNL A   1      44.285  20.359  24.215  1.00  0.00    -0.269 OA
BRANCH  69  72
ATOM     72  C   UNL A   1      43.579  21.514  26.123  1.00  0.00     0.039 A 
ATOM     73  C   UNL A   1      43.681  22.806  25.602  1.00  0.00    -0.049 A 
ATOM     74  C   UNL A   1      43.447  21.309  27.496  1.00  0.00    -0.049 A 
ATOM     75  C   UNL A   1      43.568  23.890  26.467  1.00  0.00    -0.053 A 
ATOM     76  H   UNL A   1      43.837  22.953  24.593  1.00  0.00     0.063 H 
ATOM     77  C   UNL A   1      43.212  22.376  28.331  1.00  0.00    -0.053 A 
ATOM     78  H   UNL A   1      43.528  20.356  27.885  1.00  0.00     0.063 H 
ATOM     79  C   UNL A   1      43.308  23.670  27.831  1.00  0.00    -0.014 A 
ATOM     80  H   UNL A   1      43.674  24.852  26.109  1.00  0.00     0.063 H 
ATOM     81  H   UNL A   1      42.966  22.218  29.320  1.00  0.00     0.063 H 
BRANCH  79  82
ATOM     82  C   UNL A   1      43.033  24.804  28.710  1.00  0.00     0.031 A 
ATOM     83  C   UNL A   1      41.797  25.571  28.384  1.00  0.00     0.074 A 
ATOM     84  C   UNL A   1      43.715  25.058  29.845  1.00  0.00     0.049 A 
ATOM     85  N   UNL A   1      41.707  26.801  27.997  1.00  0.00    -0.248 NA
ATOM     86  C   UNL A   1      40.511  24.855  28.394  1.00  0.00    -0.034 C 
ATOM     87  C   UNL A   1      44.747  24.245  30.498  1.00  0.00    -0.036 A 
ATOM     88  N   UNL A   1      43.550  26.091  30.718  1.00  0.00    -0.354 N 
ATOM     89  C   UNL A   1      40.347  27.075  27.865  1.00  0.00     0.074 A 
ATOM     90  C   UNL A   1      39.671  25.809  27.986  1.00  0.00    -0.034 C 
ATOM     91  H   UNL A   1      40.312  23.876  28.650  1.00  0.00     0.065 H 
ATOM     92  C   UNL A   1      44.949  24.696  31.756  1.00  0.00    -0.036 A 
ATOM     93  H   UNL A   1      45.243  23.451  30.063  1.00  0.00     0.065 H 
ATOM     94  C   UNL A   1      44.201  25.927  31.932  1.00  0.00     0.049 A 
ATOM     95  H   UNL A   1      43.013  26.887  30.504  1.00  0.00     0.167 HD
ATOM     96  C   UNL A   1      39.885  28.358  27.865  1.00  0.00     0.037 A 
ATOM     97  H   UNL A   1      38.670  25.658  27.785  1.00  0.00     0.065 H 
ATOM     98  H   UNL A   1      45.537  24.242  32.472  1.00  0.00     0.065 H 
ATOM     99  C   UNL A   1      44.115  26.738  33.014  1.00  0.00     0.037 A 
ATOM    100  C   UNL A   1      40.955  29.287  27.597  1.00  0.00     0.049 A 
ATOM    101  C   UNL A   1      43.626  28.055  32.541  1.00  0.00     0.074 A 
ATOM    102  C   UNL A   1      41.822  29.494  26.542  1.00  0.00    -0.036 A 
ATOM    103  N   UNL A   1      41.501  29.965  28.659  1.00  0.00    -0.354 N 
ATOM    104  N   UNL A   1      44.319  28.862  31.788  1.00  0.00    -0.248 NA
ATOM    105  C   UNL A   1      42.191  28.288  32.552  1.00  0.00    -0.034 C 
ATOM    106  C   UNL A   1      43.065  29.844  27.150  1.00  0.00    -0.036 A 
ATOM    107  H   UNL A   1      41.616  29.413  25.534  1.00  0.00     0.065 H 
ATOM    108  C   UNL A   1      42.863  29.892  28.531  1.00  0.00     0.049 A 
ATOM    109  H   UNL A   1      41.006  30.420  29.378  1.00  0.00     0.167 HD
ATOM    110  C   UNL A   1      43.394  29.399  30.907  1.00  0.00     0.074 A 
ATOM    111  C   UNL A   1      42.091  29.094  31.492  1.00  0.00    -0.034 C 
ATOM    112  H   UNL A   1      41.462  27.935  33.193  1.00  0.00     0.065 H 
ATOM    113  H   UNL A   1      43.953  30.029  26.659  1.00  0.00     0.065 H 
ATOM    114  C   UNL A   1      43.765  29.789  29.652  1.00  0.00     0.037 A 
ATOM    115  H   UNL A   1      41.196  29.459  31.127  1.00  0.00     0.065 H 
BRANCH  96 116
ATOM    116  C   UNL A   1      38.569  28.811  28.461  1.00  0.00     0.064 A 
ATOM    117  C   UNL A   1      37.789  29.752  27.754  1.00  0.00     0.173 A 
ATOM    118  C   UNL A   1      38.199  28.615  29.809  1.00  0.00     0.173 A 
ATOM    119  F   UNL A   1      38.039  30.020  26.463  1.00  0.00    -0.203 F 
ATOM    120  C   UNL A   1      36.802  30.520  28.380  1.00  0.00     0.198 A 
ATOM    121  C   UNL A   1      37.178  29.346  30.417  1.00  0.00     0.198 A 
ATOM    122  F   UNL A   1      38.871  27.797  30.625  1.00  0.00    -0.203 F 
ATOM    123  F   UNL A   1      36.193  31.501  27.701  1.00  0.00    -0.200 F 
ATOM    124  C   UNL A   1      36.507  30.325  29.715  1.00  0.00     0.200 A 
ATOM    125  F   UNL A   1      36.913  29.148  31.716  1.00  0.00    -0.200 F 
ATOM    126  F   UNL A   1      35.615  31.106  30.338  1.00  0.00    -0.200 F 
ENDBRANCH  96 116
BRANCH  99 127
ATOM    127  C   UNL A   1      44.171  26.387  34.450  1.00  0.00     0.064 A 
ATOM    128  C   UNL A   1      43.042  25.886  35.117  1.00  0.00     0.173 A 
ATOM    129  C   UNL A   1      45.405  26.255  35.115  1.00  0.00     0.173 A 
ATOM    130  F   UNL A   1      41.836  25.936  34.532  1.00  0.00    -0.203 F 
ATOM    131  C   UNL A   1      43.143  25.257  36.361  1.00  0.00     0.198 A 
ATOM    132  C   UNL A   1      45.504  25.628  36.359  1.00  0.00     0.198 A 
ATOM    133  F   UNL A   1      46.547  26.640  34.529  1.00  0.00    -0.203 F 
ATOM    134  F   UNL A   1      42.054  24.729  36.935  1.00  0.00    -0.200 F 
ATOM    135  C   UNL A   1      44.377  25.117  36.974  1.00  0.00     0.200 A 
ATOM    136  F   UNL A   1      46.705  25.457  36.926  1.00  0.00    -0.200 F 
ATOM    137  F   UNL A   1      44.488  24.453  38.132  1.00  0.00    -0.200 F 
ENDBRANCH  99 127
BRANCH 114 138
ATOM    138  C   UNL A   1      45.235  29.888  29.353  1.00  0.00     0.064 A 
ATOM    139  C   UNL A   1      46.018  28.827  28.866  1.00  0.00     0.173 A 
ATOM    140  C   UNL A   1      45.840  31.149  29.432  1.00  0.00     0.173 A 
ATOM    141  F   UNL A   1      45.490  27.613  28.665  1.00  0.00    -0.203 F 
ATOM    142  C   UNL A   1      47.355  29.013  28.521  1.00  0.00     0.198 A 
ATOM    143  C   UNL A   1      47.165  31.342  29.049  1.00  0.00     0.198 A 
ATOM    144  F   UNL A   1      45.128  32.213  29.839  1.00  0.00    -0.203 F 
ATOM    145  F   UNL A   1      48.086  27.980  28.073  1.00  0.00    -0.200 F 
ATOM    146  C   UNL A   1      47.925  30.273  28.605  1.00  0.00     0.200 A 
ATOM    147  F   UNL A   1      47.695  32.571  29.086  1.00  0.00    -0.200 F 
ATOM    148  F   UNL A   1      49.199  30.462  28.233  1.00  0.00    -0.200 F 
ENDBRANCH 114 138
ENDBRANCH  79  82
ENDBRANCH  69  72
ENDBRANCH  65  68
ENDBRANCH  62  65
ENDBRANCH  59  62
ENDBRANCH   1  59
TORSDOF 18
ENDMDL
MODEL 8
REMARK VINA RESULT:     -11.7      4.898     11.985
REMARK SMILES CC1(C)Cc2c(-c3ccccc3)c(-c3ccc(Cl)cc3)c(CC(=O)NCCCCCCNC(=O)c3ccc(-c4c5nc(c(-c6c(F)c(F)c(F)c(F)c6F)c6ccc([nH]6)c(-c6c(F)c(F)c(F)c(F)c6F)c6nc(c(-c7c(F)c(F)c(F)c(F)c7F)c7ccc4[nH]7)C=C6)C=C5)cc3)n2C1
REMARK SMILES IDX 28 1 27 4 26 7 25 10 23 11 24 12 22 14 21 17 2 18 4 19 99 20
REMARK SMILES IDX 5 21 98 24 6 27 13 28 1 29 3 33 7 37 8 38 12 39 9 40 11 42
REMARK SMILES IDX 10 44 14 48 15 49 20 50 16 51 19 53 17 55 18 58 29 59 30 62
REMARK SMILES IDX 31 65 32 68 33 69 34 71 35 72 36 73 97 74 37 75 96 77 38 79
REMARK SMILES IDX 39 82 40 83 90 84 41 85 95 86 89 87 91 88 42 89 94 90 88 92
REMARK SMILES IDX 87 94 43 96 75 99 55 100 74 101 56 102 59 103 73 104 92 105
REMARK SMILES IDX 57 106 58 108 72 110 93 111 60 114 44 116 45 117 53 118
REMARK SMILES IDX 46 119 47 120 51 121 54 122 48 123 49 124 52 125 50 126
REMARK SMILES IDX 76 127 77 128 85 129 78 130 79 131 83 132 86 133 80 134
REMARK SMILES IDX 81 135 84 136 82 137 61 138 62 139 70 140 63 141 64 142
REMARK SMILES IDX 68 143 71 144 65 145 66 146 69 147 67 148
REMARK H PARENT 28 2 28 3 27 5 27 6 26 8 26 9 25 13 22 15 22 16 4 22 4 23
REMARK H PARENT 99 25 99 26 1 30 1 31 1 32 3 34 3 35 3 36 8 41 12 43 9 45
REMARK H PARENT 11 46 10 47 15 52 20 54 16 56 19 57 29 60 29 61 30 63 30 64
REMARK H PARENT 31 66 31 67 32 70 36 76 97 78 37 80 96 81 95 91 89 93 91 95
REMARK H PARENT 94 97 88 98 56 107 59 109 92 112 57 113 93 115
REMARK Flexibility Score: inf
ROOT
ATOM      1  C   UNL A   1      35.938  32.321  33.023  1.00  0.00    -0.052 C 
ATOM      2  H   UNL A   1      36.663  33.103  32.930  1.00  0.00     0.027 H 
ATOM      3  H   UNL A   1      35.509  32.243  33.999  1.00  0.00     0.027 H 
ENDROOT
BRANCH   1   4
ATOM      4  C   UNL A   1      36.649  30.989  32.770  1.00  0.00    -0.036 C 
ATOM      5  H   UNL A   1      36.094  30.216  33.261  1.00  0.00     0.028 H 
ATOM      6  H   UNL A   1      36.689  30.864  31.707  1.00  0.00     0.028 H 
BRANCH   4   7
ATOM      7  C   UNL A   1      38.090  30.932  33.268  1.00  0.00     0.017 C 
ATOM      8  H   UNL A   1      38.666  30.340  32.587  1.00  0.00     0.049 H 
ATOM      9  H   UNL A   1      38.453  31.937  33.322  1.00  0.00     0.049 H 
BRANCH   7  10
ATOM     10  N   UNL A   1      38.202  30.357  34.587  1.00  0.00    -0.356 N 
ATOM     11  C   UNL A   1      38.146  30.977  35.804  1.00  0.00     0.225 C 
ATOM     12  O   UNL A   1      38.186  30.261  36.808  1.00  0.00    -0.275 OA
ATOM     13  H   UNL A   1      38.337  29.382  34.614  1.00  0.00     0.163 HD
BRANCH  11  14
ATOM     14  C   UNL A   1      37.951  32.483  35.913  1.00  0.00     0.068 C 
ATOM     15  H   UNL A   1      37.402  32.813  35.055  1.00  0.00     0.043 H 
ATOM     16  H   UNL A   1      37.433  32.659  36.832  1.00  0.00     0.043 H 
BRANCH  14  17
ATOM     17  C   UNL A   1      39.230  33.267  35.982  1.00  0.00     0.036 A 
ATOM     18  C   UNL A   1      40.691  34.006  39.303  1.00  0.00    -0.012 C 
ATOM     19  C   UNL A   1      41.788  34.353  38.245  1.00  0.00    -0.005 C 
ATOM     20  C   UNL A   1      39.718  33.056  38.543  1.00  0.00     0.028 C 
ATOM     21  C   UNL A   1      41.066  34.147  36.968  1.00  0.00     0.027 A 
ATOM     22  H   UNL A   1      42.628  33.695  38.327  1.00  0.00     0.034 H 
ATOM     23  H   UNL A   1      42.196  35.337  38.356  1.00  0.00     0.034 H 
ATOM     24  N   UNL A   1      39.920  33.432  37.148  1.00  0.00    -0.346 N 
ATOM     25  H   UNL A   1      38.705  33.220  38.843  1.00  0.00     0.050 H 
ATOM     26  H   UNL A   1      39.906  32.019  38.733  1.00  0.00     0.050 H 
ATOM     27  C   UNL A   1      41.167  34.465  35.641  1.00  0.00     0.011 A 
ATOM     28  C   UNL A   1      40.009  33.891  35.000  1.00  0.00     0.011 A 
BRANCH  18  29
ATOM     29  C   UNL A   1      41.284  33.324  40.535  1.00  0.00    -0.058 C 
ATOM     30  H   UNL A   1      41.700  34.063  41.187  1.00  0.00     0.024 H 
ATOM     31  H   UNL A   1      42.053  32.644  40.230  1.00  0.00     0.024 H 
ATOM     32  H   UNL A   1      40.516  32.786  41.050  1.00  0.00     0.024 H 
ENDBRANCH  18  29
BRANCH  18  33
ATOM     33  C   UNL A   1      39.973  35.295  39.746  1.00  0.00    -0.058 C 
ATOM     34  H   UNL A   1      38.924  35.106  39.840  1.00  0.00     0.024 H 
ATOM     35  H   UNL A   1      40.134  36.062  39.018  1.00  0.00     0.024 H 
ATOM     36  H   UNL A   1      40.363  35.613  40.691  1.00  0.00     0.024 H 
ENDBRANCH  18  33
BRANCH  27  37
ATOM     37  C   UNL A   1      42.240  35.248  35.062  1.00  0.00    -0.016 A 
ATOM     38  C   UNL A   1      43.441  34.644  34.681  1.00  0.00    -0.054 A 
ATOM     39  C   UNL A   1      42.043  36.612  34.818  1.00  0.00    -0.054 A 
ATOM     40  C   UNL A   1      44.431  35.400  34.052  1.00  0.00    -0.062 A 
ATOM     41  H   UNL A   1      43.596  33.640  34.866  1.00  0.00     0.063 H 
ATOM     42  C   UNL A   1      43.032  37.366  34.189  1.00  0.00    -0.062 A 
ATOM     43  H   UNL A   1      41.160  37.064  35.106  1.00  0.00     0.063 H 
ATOM     44  C   UNL A   1      44.223  36.756  33.802  1.00  0.00    -0.062 A 
ATOM     45  H   UNL A   1      45.319  34.954  33.771  1.00  0.00     0.062 H 
ATOM     46  H   UNL A   1      42.883  38.371  34.010  1.00  0.00     0.062 H 
ATOM     47  H   UNL A   1      44.956  37.311  33.329  1.00  0.00     0.062 H 
ENDBRANCH  27  37
BRANCH  28  48
ATOM     48  C   UNL A   1      39.723  33.932  33.571  1.00  0.00    -0.016 A 
ATOM     49  C   UNL A   1      40.681  33.459  32.663  1.00  0.00    -0.053 A 
ATOM     50  C   UNL A   1      38.588  34.586  33.079  1.00  0.00    -0.053 A 
ATOM     51  C   UNL A   1      40.511  33.644  31.287  1.00  0.00    -0.043 A 
ATOM     52  H   UNL A   1      41.520  32.971  33.013  1.00  0.00     0.063 H 
ATOM     53  C   UNL A   1      38.405  34.752  31.704  1.00  0.00    -0.043 A 
ATOM     54  H   UNL A   1      37.882  34.950  33.738  1.00  0.00     0.063 H 
ATOM     55  C   UNL A   1      39.373  34.290  30.814  1.00  0.00     0.041 A 
ATOM     56  H   UNL A   1      41.225  33.302  30.626  1.00  0.00     0.064 H 
ATOM     57  H   UNL A   1      37.554  35.216  31.348  1.00  0.00     0.064 H 
ATOM     58  Cl  UNL A   1      39.174  34.553  29.126  1.00  0.00    -0.084 Cl
ENDBRANCH  28  48
ENDBRANCH  14  17
ENDBRANCH  11  14
ENDBRANCH   7  10
ENDBRANCH   4   7
ENDBRANCH   1   4
BRANCH   1  59
ATOM     59  C   UNL A   1      34.773  32.642  32.075  1.00  0.00    -0.052 C 
ATOM     60  H   UNL A   1      33.901  32.801  32.673  1.00  0.00     0.027 H 
ATOM     61  H   UNL A   1      34.709  31.806  31.410  1.00  0.00     0.027 H 
BRANCH  59  62
ATOM     62  C   UNL A   1      34.947  33.872  31.169  1.00  0.00    -0.036 C 
ATOM     63  H   UNL A   1      35.691  34.508  31.603  1.00  0.00     0.028 H 
ATOM     64  H   UNL A   1      33.991  34.346  31.101  1.00  0.00     0.028 H 
BRANCH  62  65
ATOM     65  C   UNL A   1      35.374  33.534  29.750  1.00  0.00     0.018 C 
ATOM     66  H   UNL A   1      36.354  33.103  29.779  1.00  0.00     0.049 H 
ATOM     67  H   UNL A   1      35.362  34.438  29.179  1.00  0.00     0.049 H 
BRANCH  65  68
ATOM     68  N   UNL A   1      34.467  32.589  29.110  1.00  0.00    -0.352 N 
ATOM     69  C   UNL A   1      34.779  31.501  28.322  1.00  0.00     0.251 C 
ATOM     70  H   UNL A   1      33.507  32.748  29.259  1.00  0.00     0.163 HD
ATOM     71  O   UNL A   1      33.950  31.006  27.577  1.00  0.00    -0.269 OA
BRANCH  69  72
ATOM     72  C   UNL A   1      36.147  30.952  28.382  1.00  0.00     0.039 A 
ATOM     73  C   UNL A   1      37.150  31.635  29.073  1.00  0.00    -0.049 A 
ATOM     74  C   UNL A   1      36.419  29.741  27.748  1.00  0.00    -0.049 A 
ATOM     75  C   UNL A   1      38.406  31.048  29.189  1.00  0.00    -0.053 A 
ATOM     76  H   UNL A   1      36.962  32.559  29.492  1.00  0.00     0.063 H 
ATOM     77  C   UNL A   1      37.618  29.105  27.965  1.00  0.00    -0.053 A 
ATOM     78  H   UNL A   1      35.719  29.322  27.113  1.00  0.00     0.063 H 
ATOM     79  C   UNL A   1      38.629  29.768  28.653  1.00  0.00    -0.014 A 
ATOM     80  H   UNL A   1      39.171  31.550  29.666  1.00  0.00     0.063 H 
ATOM     81  H   UNL A   1      37.767  28.143  27.622  1.00  0.00     0.063 H 
BRANCH  79  82
ATOM     82  C   UNL A   1      39.895  29.085  28.908  1.00  0.00     0.031 A 
ATOM     83  C   UNL A   1      40.205  28.845  30.346  1.00  0.00     0.074 A 
ATOM     84  C   UNL A   1      40.659  28.534  27.943  1.00  0.00     0.049 A 
ATOM     85  N   UNL A   1      41.183  29.333  31.037  1.00  0.00    -0.248 NA
ATOM     86  C   UNL A   1      39.259  28.045  31.138  1.00  0.00    -0.034 C 
ATOM     87  C   UNL A   1      40.369  28.385  26.513  1.00  0.00    -0.036 A 
ATOM     88  N   UNL A   1      41.856  27.896  28.074  1.00  0.00    -0.354 N 
ATOM     89  C   UNL A   1      41.077  28.784  32.314  1.00  0.00     0.074 A 
ATOM     90  C   UNL A   1      39.803  28.112  32.355  1.00  0.00    -0.034 C 
ATOM     91  H   UNL A   1      38.401  27.559  30.833  1.00  0.00     0.065 H 
ATOM     92  C   UNL A   1      41.244  27.516  25.961  1.00  0.00    -0.036 A 
ATOM     93  H   UNL A   1      39.612  28.870  26.006  1.00  0.00     0.065 H 
ATOM     94  C   UNL A   1      42.257  27.191  26.948  1.00  0.00     0.049 A 
ATOM     95  H   UNL A   1      42.391  27.932  28.899  1.00  0.00     0.167 HD
ATOM     96  C   UNL A   1      42.146  28.763  33.160  1.00  0.00     0.037 A 
ATOM     97  H   UNL A   1      39.369  27.734  33.212  1.00  0.00     0.065 H 
ATOM     98  H   UNL A   1      41.200  27.145  25.000  1.00  0.00     0.065 H 
ATOM     99  C   UNL A   1      43.338  26.381  26.842  1.00  0.00     0.037 A 
ATOM    100  C   UNL A   1      43.153  29.704  32.736  1.00  0.00     0.049 A 
ATOM    101  C   UNL A   1      44.275  26.749  27.931  1.00  0.00     0.074 A 
ATOM    102  C   UNL A   1      43.193  31.073  32.560  1.00  0.00    -0.036 A 
ATOM    103  N   UNL A   1      44.251  29.217  32.070  1.00  0.00    -0.354 N 
ATOM    104  N   UNL A   1      44.923  27.877  27.983  1.00  0.00    -0.248 NA
ATOM    105  C   UNL A   1      44.163  26.032  29.191  1.00  0.00    -0.034 C 
ATOM    106  C   UNL A   1      43.999  31.272  31.399  1.00  0.00    -0.036 A 
ATOM    107  H   UNL A   1      42.737  31.796  33.140  1.00  0.00     0.065 H 
ATOM    108  C   UNL A   1      44.454  30.020  30.979  1.00  0.00     0.049 A 
ATOM    109  H   UNL A   1      44.792  28.436  32.328  1.00  0.00     0.167 HD
ATOM    110  C   UNL A   1      44.911  28.225  29.324  1.00  0.00     0.074 A 
ATOM    111  C   UNL A   1      44.526  27.005  30.029  1.00  0.00    -0.034 C 
ATOM    112  H   UNL A   1      43.885  25.056  29.381  1.00  0.00     0.065 H 
ATOM    113  H   UNL A   1      44.210  32.177  30.951  1.00  0.00     0.065 H 
ATOM    114  C   UNL A   1      44.937  29.535  29.710  1.00  0.00     0.037 A 
ATOM    115  H   UNL A   1      44.534  26.907  31.057  1.00  0.00     0.065 H 
BRANCH  96 116
ATOM    116  C   UNL A   1      42.456  27.658  34.147  1.00  0.00     0.064 A 
ATOM    117  C   UNL A   1      43.074  26.478  33.678  1.00  0.00     0.173 A 
ATOM    118  C   UNL A   1      41.898  27.569  35.440  1.00  0.00     0.173 A 
ATOM    119  F   UNL A   1      43.648  26.440  32.465  1.00  0.00    -0.203 F 
ATOM    120  C   UNL A   1      43.029  25.279  34.394  1.00  0.00     0.198 A 
ATOM    121  C   UNL A   1      41.900  26.384  36.175  1.00  0.00     0.198 A 
ATOM    122  F   UNL A   1      41.233  28.582  36.005  1.00  0.00    -0.203 F 
ATOM    123  F   UNL A   1      43.502  24.155  33.840  1.00  0.00    -0.200 F 
ATOM    124  C   UNL A   1      42.429  25.230  35.637  1.00  0.00     0.200 A 
ATOM    125  F   UNL A   1      41.305  26.354  37.376  1.00  0.00    -0.200 F 
ATOM    126  F   UNL A   1      42.318  24.069  36.296  1.00  0.00    -0.200 F 
ENDBRANCH  96 116
BRANCH  99 127
ATOM    127  C   UNL A   1      43.505  25.149  26.040  1.00  0.00     0.064 A 
ATOM    128  C   UNL A   1      44.647  24.951  25.248  1.00  0.00     0.173 A 
ATOM    129  C   UNL A   1      42.693  24.021  26.266  1.00  0.00     0.173 A 
ATOM    130  F   UNL A   1      45.494  25.966  25.020  1.00  0.00    -0.203 F 
ATOM    131  C   UNL A   1      44.980  23.691  24.743  1.00  0.00     0.198 A 
ATOM    132  C   UNL A   1      43.026  22.764  25.759  1.00  0.00     0.198 A 
ATOM    133  F   UNL A   1      41.620  24.096  27.066  1.00  0.00    -0.203 F 
ATOM    134  F   UNL A   1      46.116  23.525  24.051  1.00  0.00    -0.200 F 
ATOM    135  C   UNL A   1      44.176  22.596  25.011  1.00  0.00     0.200 A 
ATOM    136  F   UNL A   1      42.268  21.701  26.059  1.00  0.00    -0.200 F 
ATOM    137  F   UNL A   1      44.529  21.374  24.588  1.00  0.00    -0.200 F 
ENDBRANCH  99 127
BRANCH 114 138
ATOM    138  C   UNL A   1      45.267  30.567  28.668  1.00  0.00     0.064 A 
ATOM    139  C   UNL A   1      44.326  31.134  27.790  1.00  0.00     0.173 A 
ATOM    140  C   UNL A   1      46.562  31.102  28.656  1.00  0.00     0.173 A 
ATOM    141  F   UNL A   1      43.044  30.751  27.807  1.00  0.00    -0.203 F 
ATOM    142  C   UNL A   1      44.682  32.156  26.911  1.00  0.00     0.198 A 
ATOM    143  C   UNL A   1      46.905  32.149  27.805  1.00  0.00     0.198 A 
ATOM    144  F   UNL A   1      47.489  30.638  29.509  1.00  0.00    -0.203 F 
ATOM    145  F   UNL A   1      43.770  32.670  26.071  1.00  0.00    -0.200 F 
ATOM    146  C   UNL A   1      45.969  32.668  26.925  1.00  0.00     0.200 A 
ATOM    147  F   UNL A   1      48.136  32.672  27.857  1.00  0.00    -0.200 F 
ATOM    148  F   UNL A   1      46.301  33.679  26.109  1.00  0.00    -0.200 F 
ENDBRANCH 114 138
ENDBRANCH  79  82
ENDBRANCH  69  72
ENDBRANCH  65  68
ENDBRANCH  62  65
ENDBRANCH  59  62
ENDBRANCH   1  59
TORSDOF 18
ENDMDL
MODEL 9
REMARK VINA RESULT:     -11.7      5.021     10.364
REMARK SMILES CC1(C)Cc2c(-c3ccccc3)c(-c3ccc(Cl)cc3)c(CC(=O)NCCCCCCNC(=O)c3ccc(-c4c5nc(c(-c6c(F)c(F)c(F)c(F)c6F)c6ccc([nH]6)c(-c6c(F)c(F)c(F)c(F)c6F)c6nc(c(-c7c(F)c(F)c(F)c(F)c7F)c7ccc4[nH]7)C=C6)C=C5)cc3)n2C1
REMARK SMILES IDX 28 1 27 4 26 7 25 10 23 11 24 12 22 14 21 17 2 18 4 19 99 20
REMARK SMILES IDX 5 21 98 24 6 27 13 28 1 29 3 33 7 37 8 38 12 39 9 40 11 42
REMARK SMILES IDX 10 44 14 48 15 49 20 50 16 51 19 53 17 55 18 58 29 59 30 62
REMARK SMILES IDX 31 65 32 68 33 69 34 71 35 72 36 73 97 74 37 75 96 77 38 79
REMARK SMILES IDX 39 82 40 83 90 84 41 85 95 86 89 87 91 88 42 89 94 90 88 92
REMARK SMILES IDX 87 94 43 96 75 99 55 100 74 101 56 102 59 103 73 104 92 105
REMARK SMILES IDX 57 106 58 108 72 110 93 111 60 114 44 116 45 117 53 118
REMARK SMILES IDX 46 119 47 120 51 121 54 122 48 123 49 124 52 125 50 126
REMARK SMILES IDX 76 127 77 128 85 129 78 130 79 131 83 132 86 133 80 134
REMARK SMILES IDX 81 135 84 136 82 137 61 138 62 139 70 140 63 141 64 142
REMARK SMILES IDX 68 143 71 144 65 145 66 146 69 147 67 148
REMARK H PARENT 28 2 28 3 27 5 27 6 26 8 26 9 25 13 22 15 22 16 4 22 4 23
REMARK H PARENT 99 25 99 26 1 30 1 31 1 32 3 34 3 35 3 36 8 41 12 43 9 45
REMARK H PARENT 11 46 10 47 15 52 20 54 16 56 19 57 29 60 29 61 30 63 30 64
REMARK H PARENT 31 66 31 67 32 70 36 76 97 78 37 80 96 81 95 91 89 93 91 95
REMARK H PARENT 94 97 88 98 56 107 59 109 92 112 57 113 93 115
REMARK Flexibility Score: inf
ROOT
ATOM      1  C   UNL A   1      43.820  25.725  25.457  1.00  0.00    -0.052 C 
ATOM      2  H   UNL A   1      44.080  26.441  24.706  1.00  0.00     0.027 H 
ATOM      3  H   UNL A   1      42.766  25.586  25.576  1.00  0.00     0.027 H 
ENDROOT
BRANCH   1   4
ATOM      4  C   UNL A   1      44.329  26.249  26.803  1.00  0.00    -0.036 C 
ATOM      5  H   UNL A   1      43.747  27.107  27.068  1.00  0.00     0.028 H 
ATOM      6  H   UNL A   1      44.228  25.443  27.499  1.00  0.00     0.028 H 
BRANCH   4   7
ATOM      7  C   UNL A   1      45.802  26.649  26.812  1.00  0.00     0.017 C 
ATOM      8  H   UNL A   1      46.142  26.678  27.827  1.00  0.00     0.049 H 
ATOM      9  H   UNL A   1      46.338  25.924  26.236  1.00  0.00     0.049 H 
BRANCH   7  10
ATOM     10  N   UNL A   1      46.032  27.941  26.211  1.00  0.00    -0.356 N 
ATOM     11  C   UNL A   1      46.618  28.241  25.014  1.00  0.00     0.225 C 
ATOM     12  O   UNL A   1      46.633  29.426  24.670  1.00  0.00    -0.275 OA
ATOM     13  H   UNL A   1      45.724  28.714  26.737  1.00  0.00     0.163 HD
BRANCH  11  14
ATOM     14  C   UNL A   1      47.151  27.146  24.101  1.00  0.00     0.068 C 
ATOM     15  H   UNL A   1      46.753  26.209  24.433  1.00  0.00     0.043 H 
ATOM     16  H   UNL A   1      46.845  27.399  23.108  1.00  0.00     0.043 H 
BRANCH  14  17
ATOM     17  C   UNL A   1      48.649  27.037  24.076  1.00  0.00     0.036 A 
ATOM     18  C   UNL A   1      50.404  27.345  20.831  1.00  0.00    -0.012 C 
ATOM     19  C   UNL A   1      51.500  27.440  21.942  1.00  0.00    -0.005 C 
ATOM     20  C   UNL A   1      49.078  27.677  21.576  1.00  0.00     0.028 C 
ATOM     21  C   UNL A   1      50.718  27.179  23.173  1.00  0.00     0.027 A 
ATOM     22  H   UNL A   1      51.947  28.412  21.964  1.00  0.00     0.034 H 
ATOM     23  H   UNL A   1      52.317  26.763  21.799  1.00  0.00     0.034 H 
ATOM     24  N   UNL A   1      49.379  27.310  22.956  1.00  0.00    -0.346 N 
ATOM     25  H   UNL A   1      48.264  27.099  21.193  1.00  0.00     0.050 H 
ATOM     26  H   UNL A   1      48.777  28.699  21.468  1.00  0.00     0.050 H 
ATOM     27  C   UNL A   1      50.905  26.823  24.480  1.00  0.00     0.011 A 
ATOM     28  C   UNL A   1      49.591  26.749  25.070  1.00  0.00     0.011 A 
BRANCH  18  29
ATOM     29  C   UNL A   1      50.663  28.331  19.692  1.00  0.00    -0.058 C 
ATOM     30  H   UNL A   1      50.724  27.799  18.766  1.00  0.00     0.024 H 
ATOM     31  H   UNL A   1      51.585  28.846  19.869  1.00  0.00     0.024 H 
ATOM     32  H   UNL A   1      49.862  29.039  19.644  1.00  0.00     0.024 H 
ENDBRANCH  18  29
BRANCH  18  33
ATOM     33  C   UNL A   1      50.374  25.917  20.254  1.00  0.00    -0.058 C 
ATOM     34  H   UNL A   1      51.283  25.411  20.505  1.00  0.00     0.024 H 
ATOM     35  H   UNL A   1      50.273  25.963  19.191  1.00  0.00     0.024 H 
ATOM     36  H   UNL A   1      49.544  25.383  20.668  1.00  0.00     0.024 H 
ENDBRANCH  18  33
BRANCH  27  37
ATOM     37  C   UNL A   1      52.196  26.563  25.086  1.00  0.00    -0.016 A 
ATOM     38  C   UNL A   1      52.609  25.256  25.356  1.00  0.00    -0.054 A 
ATOM     39  C   UNL A   1      53.066  27.630  25.337  1.00  0.00    -0.054 A 
ATOM     40  C   UNL A   1      53.888  25.021  25.865  1.00  0.00    -0.062 A 
ATOM     41  H   UNL A   1      51.969  24.465  25.181  1.00  0.00     0.063 H 
ATOM     42  C   UNL A   1      54.343  27.395  25.844  1.00  0.00    -0.062 A 
ATOM     43  H   UNL A   1      52.761  28.598  25.147  1.00  0.00     0.063 H 
ATOM     44  C   UNL A   1      54.753  26.089  26.103  1.00  0.00    -0.062 A 
ATOM     45  H   UNL A   1      54.193  24.055  26.065  1.00  0.00     0.062 H 
ATOM     46  H   UNL A   1      54.982  28.184  26.028  1.00  0.00     0.062 H 
ATOM     47  H   UNL A   1      55.701  25.911  26.472  1.00  0.00     0.062 H 
ENDBRANCH  27  37
BRANCH  28  48
ATOM     48  C   UNL A   1      49.304  26.453  26.469  1.00  0.00    -0.016 A 
ATOM     49  C   UNL A   1      49.381  27.481  27.420  1.00  0.00    -0.053 A 
ATOM     50  C   UNL A   1      49.121  25.137  26.907  1.00  0.00    -0.053 A 
ATOM     51  C   UNL A   1      49.283  27.197  28.785  1.00  0.00    -0.043 A 
ATOM     52  H   UNL A   1      49.511  28.457  27.109  1.00  0.00     0.063 H 
ATOM     53  C   UNL A   1      49.001  24.853  28.270  1.00  0.00    -0.043 A 
ATOM     54  H   UNL A   1      49.076  24.370  26.218  1.00  0.00     0.063 H 
ATOM     55  C   UNL A   1      49.093  25.883  29.204  1.00  0.00     0.041 A 
ATOM     56  H   UNL A   1      49.350  27.957  29.479  1.00  0.00     0.064 H 
ATOM     57  H   UNL A   1      48.843  23.882  28.585  1.00  0.00     0.064 H 
ATOM     58  Cl  UNL A   1      49.008  25.522  30.884  1.00  0.00    -0.084 Cl
ENDBRANCH  28  48
ENDBRANCH  14  17
ENDBRANCH  11  14
ENDBRANCH   7  10
ENDBRANCH   4   7
ENDBRANCH   1   4
BRANCH   1  59
ATOM     59  C   UNL A   1      44.378  24.360  25.023  1.00  0.00    -0.052 C 
ATOM     60  H   UNL A   1      44.996  23.994  25.815  1.00  0.00     0.027 H 
ATOM     61  H   UNL A   1      44.896  24.546  24.105  1.00  0.00     0.027 H 
BRANCH  59  62
ATOM     62  C   UNL A   1      43.344  23.272  24.696  1.00  0.00    -0.036 C 
ATOM     63  H   UNL A   1      43.754  22.631  23.944  1.00  0.00     0.028 H 
ATOM     64  H   UNL A   1      42.457  23.773  24.370  1.00  0.00     0.028 H 
BRANCH  62  65
ATOM     65  C   UNL A   1      42.953  22.417  25.891  1.00  0.00     0.018 C 
ATOM     66  H   UNL A   1      43.177  22.957  26.788  1.00  0.00     0.049 H 
ATOM     67  H   UNL A   1      43.507  21.504  25.837  1.00  0.00     0.049 H 
BRANCH  65  68
ATOM     68  N   UNL A   1      41.535  22.081  25.890  1.00  0.00    -0.352 N 
ATOM     69  C   UNL A   1      40.499  22.735  26.522  1.00  0.00     0.251 C 
ATOM     70  H   UNL A   1      41.283  21.283  25.370  1.00  0.00     0.163 HD
ATOM     71  O   UNL A   1      39.435  22.175  26.729  1.00  0.00    -0.269 OA
BRANCH  69  72
ATOM     72  C   UNL A   1      40.704  24.127  26.964  1.00  0.00     0.039 A 
ATOM     73  C   UNL A   1      40.237  25.189  26.186  1.00  0.00    -0.049 A 
ATOM     74  C   UNL A   1      41.360  24.365  28.171  1.00  0.00    -0.049 A 
ATOM     75  C   UNL A   1      40.364  26.486  26.673  1.00  0.00    -0.053 A 
ATOM     76  H   UNL A   1      39.803  25.013  25.266  1.00  0.00     0.063 H 
ATOM     77  C   UNL A   1      41.376  25.631  28.707  1.00  0.00    -0.053 A 
ATOM     78  H   UNL A   1      41.836  23.590  28.661  1.00  0.00     0.063 H 
ATOM     79  C   UNL A   1      40.913  26.701  27.948  1.00  0.00    -0.014 A 
ATOM     80  H   UNL A   1      40.056  27.287  26.099  1.00  0.00     0.063 H 
ATOM     81  H   UNL A   1      41.726  25.786  29.665  1.00  0.00     0.063 H 
BRANCH  79  82
ATOM     82  C   UNL A   1      40.905  28.043  28.525  1.00  0.00     0.031 A 
ATOM     83  C   UNL A   1      42.012  28.932  28.074  1.00  0.00     0.074 A 
ATOM     84  C   UNL A   1      39.891  28.536  29.265  1.00  0.00     0.049 A 
ATOM     85  N   UNL A   1      42.966  29.435  28.788  1.00  0.00    -0.248 NA
ATOM     86  C   UNL A   1      42.134  29.217  26.635  1.00  0.00    -0.034 C 
ATOM     87  C   UNL A   1      38.584  27.936  29.550  1.00  0.00    -0.036 A 
ATOM     88  N   UNL A   1      39.796  29.759  29.859  1.00  0.00    -0.354 N 
ATOM     89  C   UNL A   1      43.723  30.232  27.931  1.00  0.00     0.074 A 
ATOM     90  C   UNL A   1      43.250  29.949  26.600  1.00  0.00    -0.034 C 
ATOM     91  H   UNL A   1      41.519  28.927  25.859  1.00  0.00     0.065 H 
ATOM     92  C   UNL A   1      37.757  28.874  30.062  1.00  0.00    -0.036 A 
ATOM     93  H   UNL A   1      38.334  26.948  29.384  1.00  0.00     0.065 H 
ATOM     94  C   UNL A   1      38.523  30.082  30.307  1.00  0.00     0.049 A 
ATOM     95  H   UNL A   1      40.566  30.362  29.962  1.00  0.00     0.167 HD
ATOM     96  C   UNL A   1      44.543  31.206  28.419  1.00  0.00     0.037 A 
ATOM     97  H   UNL A   1      43.711  30.271  25.734  1.00  0.00     0.065 H 
ATOM     98  H   UNL A   1      36.749  28.752  30.247  1.00  0.00     0.065 H 
ATOM     99  C   UNL A   1      38.123  31.267  30.827  1.00  0.00     0.037 A 
ATOM    100  C   UNL A   1      44.812  30.996  29.820  1.00  0.00     0.049 A 
ATOM    101  C   UNL A   1      39.338  31.978  31.293  1.00  0.00     0.074 A 
ATOM    102  C   UNL A   1      45.405  29.989  30.556  1.00  0.00    -0.036 A 
ATOM    103  N   UNL A   1      44.120  31.757  30.730  1.00  0.00    -0.354 N 
ATOM    104  N   UNL A   1      40.064  31.594  32.304  1.00  0.00    -0.248 NA
ATOM    105  C   UNL A   1      39.992  32.882  30.360  1.00  0.00    -0.034 C 
ATOM    106  C   UNL A   1      44.636  29.908  31.755  1.00  0.00    -0.036 A 
ATOM    107  H   UNL A   1      46.226  29.420  30.295  1.00  0.00     0.065 H 
ATOM    108  C   UNL A   1      43.665  30.910  31.705  1.00  0.00     0.049 A 
ATOM    109  H   UNL A   1      43.978  32.730  30.690  1.00  0.00     0.167 HD
ATOM    110  C   UNL A   1      41.370  31.839  31.909  1.00  0.00     0.074 A 
ATOM    111  C   UNL A   1      41.258  32.726  30.754  1.00  0.00    -0.034 C 
ATOM    112  H   UNL A   1      39.594  33.472  29.612  1.00  0.00     0.065 H 
ATOM    113  H   UNL A   1      44.773  29.231  32.522  1.00  0.00     0.065 H 
ATOM    114  C   UNL A   1      42.400  31.074  32.378  1.00  0.00     0.037 A 
ATOM    115  H   UNL A   1      42.064  33.181  30.297  1.00  0.00     0.065 H 
BRANCH  96 116
ATOM    116  C   UNL A   1      44.808  32.539  27.749  1.00  0.00     0.064 A 
ATOM    117  C   UNL A   1      46.054  32.748  27.118  1.00  0.00     0.173 A 
ATOM    118  C   UNL A   1      44.043  33.703  27.970  1.00  0.00     0.173 A 
ATOM    119  F   UNL A   1      46.868  31.716  26.848  1.00  0.00    -0.203 F 
ATOM    120  C   UNL A   1      46.542  34.029  26.844  1.00  0.00     0.198 A 
ATOM    121  C   UNL A   1      44.512  34.977  27.647  1.00  0.00     0.198 A 
ATOM    122  F   UNL A   1      42.866  33.679  28.603  1.00  0.00    -0.203 F 
ATOM    123  F   UNL A   1      47.790  34.180  26.380  1.00  0.00    -0.200 F 
ATOM    124  C   UNL A   1      45.775  35.143  27.122  1.00  0.00     0.200 A 
ATOM    125  F   UNL A   1      43.756  36.047  27.933  1.00  0.00    -0.200 F 
ATOM    126  F   UNL A   1      46.266  36.374  26.930  1.00  0.00    -0.200 F 
ENDBRANCH  96 116
BRANCH  99 127
ATOM    127  C   UNL A   1      36.810  31.939  30.716  1.00  0.00     0.064 A 
ATOM    128  C   UNL A   1      35.928  31.989  31.807  1.00  0.00     0.173 A 
ATOM    129  C   UNL A   1      36.525  32.797  29.636  1.00  0.00     0.173 A 
ATOM    130  F   UNL A   1      36.154  31.233  32.892  1.00  0.00    -0.203 F 
ATOM    131  C   UNL A   1      34.844  32.872  31.835  1.00  0.00     0.198 A 
ATOM    132  C   UNL A   1      35.441  33.676  29.665  1.00  0.00     0.198 A 
ATOM    133  F   UNL A   1      37.347  32.870  28.581  1.00  0.00    -0.203 F 
ATOM    134  F   UNL A   1      34.065  32.942  32.923  1.00  0.00    -0.200 F 
ATOM    135  C   UNL A   1      34.610  33.724  30.769  1.00  0.00     0.200 A 
ATOM    136  F   UNL A   1      35.246  34.528  28.650  1.00  0.00    -0.200 F 
ATOM    137  F   UNL A   1      33.615  34.620  30.822  1.00  0.00    -0.200 F 
ENDBRANCH  99 127
BRANCH 114 138
ATOM    138  C   UNL A   1      42.123  30.160  33.540  1.00  0.00     0.064 A 
ATOM    139  C   UNL A   1      41.684  28.830  33.414  1.00  0.00     0.173 A 
ATOM    140  C   UNL A   1      42.451  30.610  34.825  1.00  0.00     0.173 A 
ATOM    141  F   UNL A   1      41.445  28.291  32.212  1.00  0.00    -0.203 F 
ATOM    142  C   UNL A   1      41.537  28.008  34.530  1.00  0.00     0.198 A 
ATOM    143  C   UNL A   1      42.342  29.775  35.934  1.00  0.00     0.198 A 
ATOM    144  F   UNL A   1      42.927  31.853  35.002  1.00  0.00    -0.203 F 
ATOM    145  F   UNL A   1      41.101  26.748  34.385  1.00  0.00    -0.200 F 
ATOM    146  C   UNL A   1      41.874  28.479  35.789  1.00  0.00     0.200 A 
ATOM    147  F   UNL A   1      42.715  30.220  37.141  1.00  0.00    -0.200 F 
ATOM    148  F   UNL A   1      41.773  27.676  36.857  1.00  0.00    -0.200 F 
ENDBRANCH 114 138
ENDBRANCH  79  82
ENDBRANCH  69  72
ENDBRANCH  65  68
ENDBRANCH  62  65
ENDBRANCH  59  62
ENDBRANCH   1  59
TORSDOF 18
ENDMDL
MODEL 10
REMARK VINA RESULT:     -11.6      4.768      9.519
REMARK SMILES CC1(C)Cc2c(-c3ccccc3)c(-c3ccc(Cl)cc3)c(CC(=O)NCCCCCCNC(=O)c3ccc(-c4c5nc(c(-c6c(F)c(F)c(F)c(F)c6F)c6ccc([nH]6)c(-c6c(F)c(F)c(F)c(F)c6F)c6nc(c(-c7c(F)c(F)c(F)c(F)c7F)c7ccc4[nH]7)C=C6)C=C5)cc3)n2C1
REMARK SMILES IDX 28 1 27 4 26 7 25 10 23 11 24 12 22 14 21 17 2 18 4 19 99 20
REMARK SMILES IDX 5 21 98 24 6 27 13 28 1 29 3 33 7 37 8 38 12 39 9 40 11 42
REMARK SMILES IDX 10 44 14 48 15 49 20 50 16 51 19 53 17 55 18 58 29 59 30 62
REMARK SMILES IDX 31 65 32 68 33 69 34 71 35 72 36 73 97 74 37 75 96 77 38 79
REMARK SMILES IDX 39 82 40 83 90 84 41 85 95 86 89 87 91 88 42 89 94 90 88 92
REMARK SMILES IDX 87 94 43 96 75 99 55 100 74 101 56 102 59 103 73 104 92 105
REMARK SMILES IDX 57 106 58 108 72 110 93 111 60 114 44 116 45 117 53 118
REMARK SMILES IDX 46 119 47 120 51 121 54 122 48 123 49 124 52 125 50 126
REMARK SMILES IDX 76 127 77 128 85 129 78 130 79 131 83 132 86 133 80 134
REMARK SMILES IDX 81 135 84 136 82 137 61 138 62 139 70 140 63 141 64 142
REMARK SMILES IDX 68 143 71 144 65 145 66 146 69 147 67 148
REMARK H PARENT 28 2 28 3 27 5 27 6 26 8 26 9 25 13 22 15 22 16 4 22 4 23
REMARK H PARENT 99 25 99 26 1 30 1 31 1 32 3 34 3 35 3 36 8 41 12 43 9 45
REMARK H PARENT 11 46 10 47 15 52 20 54 16 56 19 57 29 60 29 61 30 63 30 64
REMARK H PARENT 31 66 31 67 32 70 36 76 97 78 37 80 96 81 95 91 89 93 91 95
REMARK H PARENT 94 97 88 98 56 107 59 109 92 112 57 113 93 115
REMARK Flexibility Score: inf
ROOT
ATOM      1  C   UNL A   1      43.086  24.491  28.594  1.00  0.00    -0.052 C 
ATOM      2  H   UNL A   1      42.769  24.608  27.579  1.00  0.00     0.027 H 
ATOM      3  H   UNL A   1      42.331  24.729  29.312  1.00  0.00     0.027 H 
ENDROOT
BRANCH   1   4
ATOM      4  C   UNL A   1      44.231  25.476  28.846  1.00  0.00    -0.036 C 
ATOM      5  H   UNL A   1      44.224  26.203  28.061  1.00  0.00     0.028 H 
ATOM      6  H   UNL A   1      44.057  25.901  29.813  1.00  0.00     0.028 H 
BRANCH   4   7
ATOM      7  C   UNL A   1      45.617  24.840  28.894  1.00  0.00     0.017 C 
ATOM      8  H   UNL A   1      45.574  23.972  29.520  1.00  0.00     0.049 H 
ATOM      9  H   UNL A   1      45.894  24.591  27.891  1.00  0.00     0.049 H 
BRANCH   7  10
ATOM     10  N   UNL A   1      46.623  25.734  29.415  1.00  0.00    -0.356 N 
ATOM     11  C   UNL A   1      47.936  25.857  29.055  1.00  0.00     0.225 C 
ATOM     12  O   UNL A   1      48.589  26.756  29.591  1.00  0.00    -0.275 OA
ATOM     13  H   UNL A   1      46.321  26.341  30.129  1.00  0.00     0.163 HD
BRANCH  11  14
ATOM     14  C   UNL A   1      48.541  24.975  27.973  1.00  0.00     0.068 C 
ATOM     15  H   UNL A   1      49.461  24.572  28.344  1.00  0.00     0.043 H 
ATOM     16  H   UNL A   1      47.816  24.220  27.751  1.00  0.00     0.043 H 
BRANCH  14  17
ATOM     17  C   UNL A   1      48.828  25.689  26.683  1.00  0.00     0.036 A 
ATOM     18  C   UNL A   1      51.803  27.884  26.485  1.00  0.00    -0.012 C 
ATOM     19  C   UNL A   1      51.296  27.685  25.019  1.00  0.00    -0.005 C 
ATOM     20  C   UNL A   1      51.170  26.697  27.270  1.00  0.00     0.028 C 
ATOM     21  C   UNL A   1      50.049  26.912  25.223  1.00  0.00     0.027 A 
ATOM     22  H   UNL A   1      52.004  27.135  24.435  1.00  0.00     0.034 H 
ATOM     23  H   UNL A   1      51.152  28.603  24.486  1.00  0.00     0.034 H 
ATOM     24  N   UNL A   1      49.990  26.374  26.474  1.00  0.00    -0.346 N 
ATOM     25  H   UNL A   1      50.896  26.992  28.261  1.00  0.00     0.050 H 
ATOM     26  H   UNL A   1      51.836  25.868  27.393  1.00  0.00     0.050 H 
ATOM     27  C   UNL A   1      48.904  26.571  24.558  1.00  0.00     0.011 A 
ATOM     28  C   UNL A   1      48.127  25.773  25.474  1.00  0.00     0.011 A 
BRANCH  18  29
ATOM     29  C   UNL A   1      53.329  27.853  26.568  1.00  0.00    -0.058 C 
ATOM     30  H   UNL A   1      53.726  27.424  25.672  1.00  0.00     0.024 H 
ATOM     31  H   UNL A   1      53.628  27.263  27.409  1.00  0.00     0.024 H 
ATOM     32  H   UNL A   1      53.700  28.850  26.681  1.00  0.00     0.024 H 
ENDBRANCH  18  29
BRANCH  18  33
ATOM     33  C   UNL A   1      51.304  29.237  27.027  1.00  0.00    -0.058 C 
ATOM     34  H   UNL A   1      51.916  30.024  26.639  1.00  0.00     0.024 H 
ATOM     35  H   UNL A   1      51.358  29.236  28.095  1.00  0.00     0.024 H 
ATOM     36  H   UNL A   1      50.290  29.391  26.721  1.00  0.00     0.024 H 
ENDBRANCH  18  33
BRANCH  27  37
ATOM     37  C   UNL A   1      48.586  26.982  23.205  1.00  0.00    -0.016 A 
ATOM     38  C   UNL A   1      47.641  27.984  22.966  1.00  0.00    -0.054 A 
ATOM     39  C   UNL A   1      49.283  26.417  22.131  1.00  0.00    -0.054 A 
ATOM     40  C   UNL A   1      47.406  28.422  21.662  1.00  0.00    -0.062 A 
ATOM     41  H   UNL A   1      47.117  28.398  23.752  1.00  0.00     0.063 H 
ATOM     42  C   UNL A   1      49.048  26.856  20.829  1.00  0.00    -0.062 A 
ATOM     43  H   UNL A   1      49.975  25.670  22.303  1.00  0.00     0.063 H 
ATOM     44  C   UNL A   1      48.113  27.862  20.597  1.00  0.00    -0.062 A 
ATOM     45  H   UNL A   1      46.708  29.162  21.485  1.00  0.00     0.062 H 
ATOM     46  H   UNL A   1      49.565  26.437  20.040  1.00  0.00     0.062 H 
ATOM     47  H   UNL A   1      47.942  28.194  19.634  1.00  0.00     0.062 H 
ENDBRANCH  27  37
BRANCH  28  48
ATOM     48  C   UNL A   1      46.846  25.142  25.176  1.00  0.00    -0.016 A 
ATOM     49  C   UNL A   1      45.665  25.884  25.315  1.00  0.00    -0.053 A 
ATOM     50  C   UNL A   1      46.759  23.770  24.919  1.00  0.00    -0.053 A 
ATOM     51  C   UNL A   1      44.417  25.263  25.206  1.00  0.00    -0.043 A 
ATOM     52  H   UNL A   1      45.717  26.898  25.500  1.00  0.00     0.063 H 
ATOM     53  C   UNL A   1      45.513  23.150  24.788  1.00  0.00    -0.043 A 
ATOM     54  H   UNL A   1      47.621  23.210  24.827  1.00  0.00     0.063 H 
ATOM     55  C   UNL A   1      44.347  23.898  24.942  1.00  0.00     0.041 A 
ATOM     56  H   UNL A   1      43.552  25.813  25.319  1.00  0.00     0.064 H 
ATOM     57  H   UNL A   1      45.457  22.142  24.575  1.00  0.00     0.064 H 
ATOM     58  Cl  UNL A   1      42.816  23.120  24.843  1.00  0.00    -0.084 Cl
ENDBRANCH  28  48
ENDBRANCH  14  17
ENDBRANCH  11  14
ENDBRANCH   7  10
ENDBRANCH   4   7
ENDBRANCH   1   4
BRANCH   1  59
ATOM     59  C   UNL A   1      43.425  23.009  28.815  1.00  0.00    -0.052 C 
ATOM     60  H   UNL A   1      43.208  22.774  29.835  1.00  0.00     0.027 H 
ATOM     61  H   UNL A   1      44.457  22.911  28.547  1.00  0.00     0.027 H 
BRANCH  59  62
ATOM     62  C   UNL A   1      42.677  21.997  27.933  1.00  0.00    -0.036 C 
ATOM     63  H   UNL A   1      43.114  21.032  28.079  1.00  0.00     0.028 H 
ATOM     64  H   UNL A   1      42.765  22.339  26.923  1.00  0.00     0.028 H 
BRANCH  62  65
ATOM     65  C   UNL A   1      41.190  21.900  28.236  1.00  0.00     0.018 C 
ATOM     66  H   UNL A   1      40.898  22.759  28.803  1.00  0.00     0.049 H 
ATOM     67  H   UNL A   1      41.025  20.996  28.784  1.00  0.00     0.049 H 
BRANCH  65  68
ATOM     68  N   UNL A   1      40.382  21.842  27.025  1.00  0.00    -0.352 N 
ATOM     69  C   UNL A   1      39.511  22.790  26.530  1.00  0.00     0.251 C 
ATOM     70  H   UNL A   1      40.467  21.019  26.490  1.00  0.00     0.163 HD
ATOM     71  O   UNL A   1      38.652  22.491  25.716  1.00  0.00    -0.269 OA
BRANCH  69  72
ATOM     72  C   UNL A   1      39.624  24.178  27.015  1.00  0.00     0.039 A 
ATOM     73  C   UNL A   1      39.120  24.528  28.270  1.00  0.00    -0.049 A 
ATOM     74  C   UNL A   1      40.248  25.129  26.210  1.00  0.00    -0.049 A 
ATOM     75  C   UNL A   1      39.322  25.822  28.739  1.00  0.00    -0.053 A 
ATOM     76  H   UNL A   1      38.607  23.836  28.840  1.00  0.00     0.063 H 
ATOM     77  C   UNL A   1      40.556  26.368  26.721  1.00  0.00    -0.053 A 
ATOM     78  H   UNL A   1      40.478  24.903  25.228  1.00  0.00     0.063 H 
ATOM     79  C   UNL A   1      40.064  26.734  27.969  1.00  0.00    -0.014 A 
ATOM     80  H   UNL A   1      38.928  26.111  29.648  1.00  0.00     0.063 H 
ATOM     81  H   UNL A   1      41.147  27.021  26.183  1.00  0.00     0.063 H 
BRANCH  79  82
ATOM     82  C   UNL A   1      40.411  28.040  28.525  1.00  0.00     0.031 A 
ATOM     83  C   UNL A   1      41.660  28.645  27.984  1.00  0.00     0.074 A 
ATOM     84  C   UNL A   1      39.596  28.756  29.327  1.00  0.00     0.049 A 
ATOM     85  N   UNL A   1      42.753  28.910  28.622  1.00  0.00    -0.248 NA
ATOM     86  C   UNL A   1      41.743  28.895  26.537  1.00  0.00    -0.034 C 
ATOM     87  C   UNL A   1      38.208  28.478  29.711  1.00  0.00    -0.036 A 
ATOM     88  N   UNL A   1      39.832  29.966  29.907  1.00  0.00    -0.354 N 
ATOM     89  C   UNL A   1      43.613  29.507  27.703  1.00  0.00     0.074 A 
ATOM     90  C   UNL A   1      42.993  29.346  26.413  1.00  0.00    -0.034 C 
ATOM     91  H   UNL A   1      41.023  28.759  25.810  1.00  0.00     0.065 H 
ATOM     92  C   UNL A   1      37.662  29.583  30.265  1.00  0.00    -0.036 A 
ATOM     93  H   UNL A   1      37.723  27.577  29.578  1.00  0.00     0.065 H 
ATOM     94  C   UNL A   1      38.705  30.577  30.438  1.00  0.00     0.049 A 
ATOM     95  H   UNL A   1      40.727  30.372  29.947  1.00  0.00     0.167 HD
ATOM     96  C   UNL A   1      44.671  30.262  28.117  1.00  0.00     0.037 A 
ATOM     97  H   UNL A   1      43.454  29.552  25.512  1.00  0.00     0.065 H 
ATOM     98  H   UNL A   1      36.670  29.701  30.522  1.00  0.00     0.065 H 
ATOM     99  C   UNL A   1      38.632  31.823  30.967  1.00  0.00     0.037 A 
ATOM    100  C   UNL A   1      44.982  29.992  29.499  1.00  0.00     0.049 A 
ATOM    101  C   UNL A   1      40.010  32.228  31.335  1.00  0.00     0.074 A 
ATOM    102  C   UNL A   1      45.375  28.873  30.207  1.00  0.00    -0.036 A 
ATOM    103  N   UNL A   1      44.555  30.893  30.444  1.00  0.00    -0.354 N 
ATOM    104  N   UNL A   1      40.696  31.683  32.299  1.00  0.00    -0.248 NA
ATOM    105  C   UNL A   1      40.789  32.955  30.345  1.00  0.00    -0.034 C 
ATOM    106  C   UNL A   1      44.696  28.972  31.459  1.00  0.00    -0.036 A 
ATOM    107  H   UNL A   1      46.018  28.127  29.899  1.00  0.00     0.065 H 
ATOM    108  C   UNL A   1      43.985  30.174  31.462  1.00  0.00     0.049 A 
ATOM    109  H   UNL A   1      44.642  31.872  30.399  1.00  0.00     0.167 HD
ATOM    110  C   UNL A   1      41.991  31.615  31.811  1.00  0.00     0.074 A 
ATOM    111  C   UNL A   1      42.008  32.506  30.653  1.00  0.00    -0.034 C 
ATOM    112  H   UNL A   1      40.487  33.623  29.618  1.00  0.00     0.065 H 
ATOM    113  H   UNL A   1      44.725  28.282  32.224  1.00  0.00     0.065 H 
ATOM    114  C   UNL A   1      42.844  30.630  32.218  1.00  0.00     0.037 A 
ATOM    115  H   UNL A   1      42.864  32.760  30.134  1.00  0.00     0.065 H 
BRANCH  96 116
ATOM    116  C   UNL A   1      45.192  31.496  27.411  1.00  0.00     0.064 A 
ATOM    117  C   UNL A   1      46.522  31.499  26.937  1.00  0.00     0.173 A 
ATOM    118  C   UNL A   1      44.569  32.761  27.461  1.00  0.00     0.173 A 
ATOM    119  F   UNL A   1      47.218  30.355  26.836  1.00  0.00    -0.203 F 
ATOM    120  C   UNL A   1      47.208  32.683  26.653  1.00  0.00     0.198 A 
ATOM    121  C   UNL A   1      45.241  33.937  27.127  1.00  0.00     0.198 A 
ATOM    122  F   UNL A   1      43.331  32.932  27.935  1.00  0.00    -0.203 F 
ATOM    123  F   UNL A   1      48.511  32.641  26.348  1.00  0.00    -0.200 F 
ATOM    124  C   UNL A   1      46.570  33.903  26.762  1.00  0.00     0.200 A 
ATOM    125  F   UNL A   1      44.606  35.112  27.248  1.00  0.00    -0.200 F 
ATOM    126  F   UNL A   1      47.241  35.045  26.564  1.00  0.00    -0.200 F 
ENDBRANCH  96 116
BRANCH  99 127
ATOM    127  C   UNL A   1      37.508  32.784  30.936  1.00  0.00     0.064 A 
ATOM    128  C   UNL A   1      37.103  33.385  29.734  1.00  0.00     0.173 A 
ATOM    129  C   UNL A   1      36.627  32.903  32.028  1.00  0.00     0.173 A 
ATOM    130  F   UNL A   1      37.868  33.282  28.637  1.00  0.00    -0.203 F 
ATOM    131  C   UNL A   1      35.871  34.036  29.618  1.00  0.00     0.198 A 
ATOM    132  C   UNL A   1      35.398  33.554  31.910  1.00  0.00     0.198 A 
ATOM    133  F   UNL A   1      36.895  32.303  33.196  1.00  0.00    -0.203 F 
ATOM    134  F   UNL A   1      35.487  34.536  28.435  1.00  0.00    -0.200 F 
ATOM    135  C   UNL A   1      35.014  34.107  30.703  1.00  0.00     0.200 A 
ATOM    136  F   UNL A   1      34.554  33.581  32.950  1.00  0.00    -0.200 F 
ATOM    137  F   UNL A   1      33.803  34.667  30.576  1.00  0.00    -0.200 F 
ENDBRANCH  99 127
BRANCH 114 138
ATOM    138  C   UNL A   1      42.445  29.804  33.410  1.00  0.00     0.064 A 
ATOM    139  C   UNL A   1      41.793  28.561  33.330  1.00  0.00     0.173 A 
ATOM    140  C   UNL A   1      42.866  30.229  34.677  1.00  0.00     0.173 A 
ATOM    141  F   UNL A   1      41.447  28.036  32.148  1.00  0.00    -0.203 F 
ATOM    142  C   UNL A   1      41.536  27.804  34.472  1.00  0.00     0.198 A 
ATOM    143  C   UNL A   1      42.644  29.452  35.811  1.00  0.00     0.198 A 
ATOM    144  F   UNL A   1      43.541  31.382  34.810  1.00  0.00    -0.203 F 
ATOM    145  F   UNL A   1      40.899  26.628  34.370  1.00  0.00    -0.200 F 
ATOM    146  C   UNL A   1      41.969  28.247  35.711  1.00  0.00     0.200 A 
ATOM    147  F   UNL A   1      43.107  29.863  36.999  1.00  0.00    -0.200 F 
ATOM    148  F   UNL A   1      41.759  27.500  36.804  1.00  0.00    -0.200 F 
ENDBRANCH 114 138
ENDBRANCH  79  82
ENDBRANCH  69  72
ENDBRANCH  65  68
ENDBRANCH  62  65
ENDBRANCH  59  62
ENDBRANCH   1  59
TORSDOF 18
ENDMDL
