MODEL 1
REMARK VINA RESULT:     -11.5      0.000      0.000
REMARK SMILES C[C@@H](C(=O)NCCCCCCNC(=O)c1ccc(-c2c3nc(c(-c4c(F)c(F)c(F)c(F)c4F)c4ccc([nH]4)c(-c4c(F)c(F)c(F)c(F)c4F)c4nc(c(-c5c(F)c(F)c(F)c(F)c5F)c5ccc2[nH]5)C=C4)C=C3)cc1)c1ccc(NC2CCCC2)cc1F
REMARK SMILES IDX 8 1 7 4 6 7 5 10 3 11 4 12 2 14 1 16 78 20 79 21 89 22 80 23
REMARK SMILES IDX 88 25 90 26 81 27 82 30 83 32 84 33 87 34 85 36 86 39 9 46
REMARK SMILES IDX 10 49 11 52 12 55 13 56 14 58 15 59 16 60 77 61 17 62 76 64
REMARK SMILES IDX 18 66 19 69 20 70 70 71 21 72 75 73 69 74 71 75 22 76 74 77
REMARK SMILES IDX 68 79 67 81 23 83 55 86 35 87 54 88 36 89 39 90 53 91 72 92
REMARK SMILES IDX 37 93 38 95 52 97 73 98 40 101 24 103 25 104 33 105 26 106
REMARK SMILES IDX 27 107 31 108 34 109 28 110 29 111 32 112 30 113 56 114
REMARK SMILES IDX 57 115 65 116 58 117 59 118 63 119 66 120 60 121 61 122
REMARK SMILES IDX 64 123 62 124 41 125 42 126 50 127 43 128 44 129 48 130
REMARK SMILES IDX 51 131 45 132 46 133 49 134 47 135
REMARK H PARENT 8 2 8 3 7 5 7 6 6 8 6 9 5 13 2 15 1 17 1 18 1 19 79 24 80 28
REMARK H PARENT 88 29 82 31 83 35 84 37 84 38 87 40 87 41 85 42 85 43 86 44
REMARK H PARENT 86 45 9 47 9 48 10 50 10 51 11 53 11 54 12 57 16 63 77 65
REMARK H PARENT 17 67 76 68 75 78 69 80 71 82 74 84 68 85 36 94 39 96 72 99
REMARK H PARENT 37 100 73 102
REMARK Flexibility Score: inf
ROOT
ATOM      1  C   UNL A   1      32.000  29.007  26.337  1.00  0.00    -0.052 C 
ATOM      2  H   UNL A   1      31.923  29.294  27.365  1.00  0.00     0.027 H 
ATOM      3  H   UNL A   1      31.403  28.156  26.085  1.00  0.00     0.027 H 
ENDROOT
BRANCH   1   4
ATOM      4  C   UNL A   1      33.455  28.603  26.065  1.00  0.00    -0.036 C 
ATOM      5  H   UNL A   1      33.794  29.137  25.202  1.00  0.00     0.028 H 
ATOM      6  H   UNL A   1      34.009  28.844  26.947  1.00  0.00     0.028 H 
BRANCH   4   7
ATOM      7  C   UNL A   1      33.660  27.106  25.814  1.00  0.00     0.017 C 
ATOM      8  H   UNL A   1      34.476  26.756  26.411  1.00  0.00     0.049 H 
ATOM      9  H   UNL A   1      32.765  26.583  26.075  1.00  0.00     0.049 H 
BRANCH   7  10
ATOM     10  N   UNL A   1      33.955  26.869  24.415  1.00  0.00    -0.356 N 
ATOM     11  C   UNL A   1      33.362  26.009  23.535  1.00  0.00     0.227 C 
ATOM     12  O   UNL A   1      33.997  25.738  22.514  1.00  0.00    -0.274 OA
ATOM     13  H   UNL A   1      34.691  27.407  24.044  1.00  0.00     0.163 HD
BRANCH  11  14
ATOM     14  C   UNL A   1      31.954  25.457  23.832  1.00  0.00     0.063 C 
ATOM     15  H   UNL A   1      31.842  25.265  24.879  1.00  0.00     0.045 H 
BRANCH  14  16
ATOM     16  C   UNL A   1      31.803  24.129  23.081  1.00  0.00    -0.049 C 
ATOM     17  H   UNL A   1      30.826  23.731  23.253  1.00  0.00     0.024 H 
ATOM     18  H   UNL A   1      32.538  23.435  23.432  1.00  0.00     0.024 H 
ATOM     19  H   UNL A   1      31.942  24.294  22.032  1.00  0.00     0.024 H 
ENDBRANCH  14  16
BRANCH  14  20
ATOM     20  C   UNL A   1      30.847  26.478  23.555  1.00  0.00     0.000 A 
ATOM     21  C   UNL A   1      31.061  27.520  22.642  1.00  0.00    -0.053 A 
ATOM     22  C   UNL A   1      29.605  26.464  24.193  1.00  0.00     0.129 A 
ATOM     23  C   UNL A   1      30.042  28.423  22.305  1.00  0.00    -0.038 A 
ATOM     24  H   UNL A   1      31.991  27.627  22.207  1.00  0.00     0.063 H 
ATOM     25  C   UNL A   1      28.599  27.383  23.877  1.00  0.00    -0.003 A 
ATOM     26  F   UNL A   1      29.324  25.558  25.141  1.00  0.00    -0.207 F 
ATOM     27  C   UNL A   1      28.784  28.367  22.903  1.00  0.00     0.037 A 
ATOM     28  H   UNL A   1      30.227  29.148  21.595  1.00  0.00     0.064 H 
ATOM     29  H   UNL A   1      27.697  27.332  24.376  1.00  0.00     0.068 H 
BRANCH  27  30
ATOM     30  N   UNL A   1      27.725  29.190  22.584  1.00  0.00    -0.382 N 
ATOM     31  H   UNL A   1      26.897  28.726  22.321  1.00  0.00     0.160 HD
BRANCH  30  32
ATOM     32  C   UNL A   1      27.652  30.640  22.576  1.00  0.00     0.026 C 
ATOM     33  C   UNL A   1      28.495  31.326  23.644  1.00  0.00    -0.033 C 
ATOM     34  C   UNL A   1      28.026  31.293  21.244  1.00  0.00    -0.033 C 
ATOM     35  H   UNL A   1      26.612  30.792  22.779  1.00  0.00     0.053 H 
ATOM     36  C   UNL A   1      28.621  32.749  23.121  1.00  0.00    -0.051 C 
ATOM     37  H   UNL A   1      29.455  30.862  23.732  1.00  0.00     0.029 H 
ATOM     38  H   UNL A   1      28.061  31.273  24.621  1.00  0.00     0.029 H 
ATOM     39  C   UNL A   1      28.715  32.608  21.606  1.00  0.00    -0.051 C 
ATOM     40  H   UNL A   1      27.148  31.479  20.662  1.00  0.00     0.029 H 
ATOM     41  H   UNL A   1      28.662  30.661  20.661  1.00  0.00     0.029 H 
ATOM     42  H   UNL A   1      29.502  33.214  23.510  1.00  0.00     0.027 H 
ATOM     43  H   UNL A   1      27.793  33.359  23.417  1.00  0.00     0.027 H 
ATOM     44  H   UNL A   1      29.739  32.584  21.300  1.00  0.00     0.027 H 
ATOM     45  H   UNL A   1      28.249  33.436  21.113  1.00  0.00     0.027 H 
ENDBRANCH  30  32
ENDBRANCH  27  30
ENDBRANCH  14  20
ENDBRANCH  11  14
ENDBRANCH   7  10
ENDBRANCH   4   7
ENDBRANCH   1   4
BRANCH   1  46
ATOM     46  C   UNL A   1      31.475  30.163  25.483  1.00  0.00    -0.052 C 
ATOM     47  H   UNL A   1      30.536  29.865  25.064  1.00  0.00     0.027 H 
ATOM     48  H   UNL A   1      32.228  30.357  24.748  1.00  0.00     0.027 H 
BRANCH  46  49
ATOM     49  C   UNL A   1      31.261  31.482  26.230  1.00  0.00    -0.036 C 
ATOM     50  H   UNL A   1      30.539  31.313  27.001  1.00  0.00     0.028 H 
ATOM     51  H   UNL A   1      30.945  32.193  25.495  1.00  0.00     0.028 H 
BRANCH  49  52
ATOM     52  C   UNL A   1      32.513  32.071  26.877  1.00  0.00     0.018 C 
ATOM     53  H   UNL A   1      33.326  31.998  26.184  1.00  0.00     0.049 H 
ATOM     54  H   UNL A   1      32.709  31.517  27.772  1.00  0.00     0.049 H 
BRANCH  52  55
ATOM     55  N   UNL A   1      32.343  33.465  27.250  1.00  0.00    -0.352 N 
ATOM     56  C   UNL A   1      33.021  34.210  28.177  1.00  0.00     0.251 C 
ATOM     57  H   UNL A   1      31.635  33.945  26.763  1.00  0.00     0.163 HD
ATOM     58  O   UNL A   1      32.622  35.341  28.465  1.00  0.00    -0.269 OA
BRANCH  56  59
ATOM     59  C   UNL A   1      34.213  33.665  28.861  1.00  0.00     0.039 A 
ATOM     60  C   UNL A   1      34.028  32.712  29.866  1.00  0.00    -0.049 A 
ATOM     61  C   UNL A   1      35.502  34.110  28.549  1.00  0.00    -0.049 A 
ATOM     62  C   UNL A   1      35.134  32.166  30.520  1.00  0.00    -0.053 A 
ATOM     63  H   UNL A   1      33.075  32.412  30.124  1.00  0.00     0.063 H 
ATOM     64  C   UNL A   1      36.609  33.525  29.164  1.00  0.00    -0.053 A 
ATOM     65  H   UNL A   1      35.634  34.870  27.863  1.00  0.00     0.063 H 
ATOM     66  C   UNL A   1      36.435  32.549  30.156  1.00  0.00    -0.014 A 
ATOM     67  H   UNL A   1      34.995  31.477  31.276  1.00  0.00     0.063 H 
ATOM     68  H   UNL A   1      37.562  33.811  28.887  1.00  0.00     0.063 H 
BRANCH  66  69
ATOM     69  C   UNL A   1      37.613  31.922  30.807  1.00  0.00     0.031 A 
ATOM     70  C   UNL A   1      38.048  32.350  32.180  1.00  0.00     0.074 A 
ATOM     71  C   UNL A   1      38.312  30.983  30.141  1.00  0.00     0.049 A 
ATOM     72  N   UNL A   1      39.054  31.921  32.899  1.00  0.00    -0.248 NA
ATOM     73  C   UNL A   1      37.261  33.414  32.823  1.00  0.00    -0.034 C 
ATOM     74  C   UNL A   1      38.023  30.520  28.782  1.00  0.00    -0.036 A 
ATOM     75  N   UNL A   1      39.411  30.251  30.515  1.00  0.00    -0.354 N 
ATOM     76  C   UNL A   1      39.022  32.659  34.075  1.00  0.00     0.074 A 
ATOM     77  C   UNL A   1      37.928  33.599  33.953  1.00  0.00    -0.034 C 
ATOM     78  H   UNL A   1      36.413  33.891  32.482  1.00  0.00     0.065 H 
ATOM     79  C   UNL A   1      38.911  29.572  28.443  1.00  0.00    -0.036 A 
ATOM     80  H   UNL A   1      37.260  30.868  28.181  1.00  0.00     0.065 H 
ATOM     81  C   UNL A   1      39.842  29.374  29.550  1.00  0.00     0.049 A 
ATOM     82  H   UNL A   1      39.849  30.345  31.391  1.00  0.00     0.167 HD
ATOM     83  C   UNL A   1      39.817  32.546  35.166  1.00  0.00     0.037 A 
ATOM     84  H   UNL A   1      37.696  34.319  34.656  1.00  0.00     0.065 H 
ATOM     85  H   UNL A   1      38.932  29.064  27.545  1.00  0.00     0.065 H 
ATOM     86  C   UNL A   1      40.871  28.505  29.559  1.00  0.00     0.037 A 
ATOM     87  C   UNL A   1      40.895  31.601  35.295  1.00  0.00     0.049 A 
ATOM     88  C   UNL A   1      41.722  28.385  30.792  1.00  0.00     0.074 A 
ATOM     89  C   UNL A   1      41.735  31.390  36.375  1.00  0.00    -0.036 A 
ATOM     90  N   UNL A   1      41.280  30.705  34.309  1.00  0.00    -0.354 N 
ATOM     91  N   UNL A   1      41.643  29.050  31.919  1.00  0.00    -0.248 NA
ATOM     92  C   UNL A   1      42.797  27.384  30.760  1.00  0.00    -0.034 C 
ATOM     93  C   UNL A   1      42.646  30.384  36.033  1.00  0.00    -0.036 A 
ATOM     94  H   UNL A   1      41.696  31.888  37.278  1.00  0.00     0.065 H 
ATOM     95  C   UNL A   1      42.350  29.944  34.754  1.00  0.00     0.049 A 
ATOM     96  H   UNL A   1      40.856  30.622  33.424  1.00  0.00     0.167 HD
ATOM     97  C   UNL A   1      42.644  28.537  32.734  1.00  0.00     0.074 A 
ATOM     98  C   UNL A   1      43.301  27.489  31.981  1.00  0.00    -0.034 C 
ATOM     99  H   UNL A   1      43.085  26.761  29.988  1.00  0.00     0.065 H 
ATOM    100  H   UNL A   1      43.409  30.031  36.632  1.00  0.00     0.065 H 
ATOM    101  C   UNL A   1      42.991  28.906  33.990  1.00  0.00     0.037 A 
ATOM    102  H   UNL A   1      44.064  26.900  32.348  1.00  0.00     0.065 H 
BRANCH  83 103
ATOM    103  C   UNL A   1      39.538  33.458  36.323  1.00  0.00     0.064 A 
ATOM    104  C   UNL A   1      38.739  33.046  37.400  1.00  0.00     0.173 A 
ATOM    105  C   UNL A   1      40.114  34.736  36.384  1.00  0.00     0.173 A 
ATOM    106  F   UNL A   1      38.156  31.838  37.383  1.00  0.00    -0.203 F 
ATOM    107  C   UNL A   1      38.513  33.886  38.487  1.00  0.00     0.198 A 
ATOM    108  C   UNL A   1      39.905  35.564  37.485  1.00  0.00     0.198 A 
ATOM    109  F   UNL A   1      40.890  35.176  35.382  1.00  0.00    -0.203 F 
ATOM    110  F   UNL A   1      37.718  33.483  39.488  1.00  0.00    -0.200 F 
ATOM    111  C   UNL A   1      39.102  35.140  38.532  1.00  0.00     0.200 A 
ATOM    112  F   UNL A   1      40.483  36.773  37.532  1.00  0.00    -0.200 F 
ATOM    113  F   UNL A   1      38.891  35.943  39.584  1.00  0.00    -0.200 F 
ENDBRANCH  83 103
BRANCH  86 114
ATOM    114  C   UNL A   1      41.137  27.659  28.369  1.00  0.00     0.064 A 
ATOM    115  C   UNL A   1      42.030  28.076  27.372  1.00  0.00     0.173 A 
ATOM    116  C   UNL A   1      40.496  26.423  28.198  1.00  0.00     0.173 A 
ATOM    117  F   UNL A   1      42.649  29.260  27.482  1.00  0.00    -0.203 F 
ATOM    118  C   UNL A   1      42.254  27.300  26.237  1.00  0.00     0.198 A 
ATOM    119  C   UNL A   1      40.741  25.635  27.076  1.00  0.00     0.198 A 
ATOM    120  F   UNL A   1      39.637  25.978  29.128  1.00  0.00    -0.203 F 
ATOM    121  F   UNL A   1      43.076  27.744  25.277  1.00  0.00    -0.200 F 
ATOM    122  C   UNL A   1      41.612  26.079  26.093  1.00  0.00     0.200 A 
ATOM    123  F   UNL A   1      40.129  24.451  26.945  1.00  0.00    -0.200 F 
ATOM    124  F   UNL A   1      41.829  25.332  25.001  1.00  0.00    -0.200 F 
ENDBRANCH  86 114
BRANCH 101 125
ATOM    125  C   UNL A   1      44.122  28.158  34.631  1.00  0.00     0.064 A 
ATOM    126  C   UNL A   1      43.900  26.980  35.360  1.00  0.00     0.173 A 
ATOM    127  C   UNL A   1      45.443  28.612  34.499  1.00  0.00     0.173 A 
ATOM    128  F   UNL A   1      42.653  26.515  35.527  1.00  0.00    -0.203 F 
ATOM    129  C   UNL A   1      44.957  26.300  35.958  1.00  0.00     0.198 A 
ATOM    130  C   UNL A   1      46.500  27.915  35.077  1.00  0.00     0.198 A 
ATOM    131  F   UNL A   1      45.707  29.731  33.808  1.00  0.00    -0.203 F 
ATOM    132  F   UNL A   1      44.715  25.204  36.691  1.00  0.00    -0.200 F 
ATOM    133  C   UNL A   1      46.255  26.765  35.813  1.00  0.00     0.200 A 
ATOM    134  F   UNL A   1      47.755  28.361  34.930  1.00  0.00    -0.200 F 
ATOM    135  F   UNL A   1      47.271  26.110  36.391  1.00  0.00    -0.200 F 
ENDBRANCH 101 125
ENDBRANCH  66  69
ENDBRANCH  56  59
ENDBRANCH  52  55
ENDBRANCH  49  52
ENDBRANCH  46  49
ENDBRANCH   1  46
TORSDOF 17
ENDMDL
MODEL 2
REMARK VINA RESULT:     -11.4      1.541      2.547
REMARK SMILES C[C@@H](C(=O)NCCCCCCNC(=O)c1ccc(-c2c3nc(c(-c4c(F)c(F)c(F)c(F)c4F)c4ccc([nH]4)c(-c4c(F)c(F)c(F)c(F)c4F)c4nc(c(-c5c(F)c(F)c(F)c(F)c5F)c5ccc2[nH]5)C=C4)C=C3)cc1)c1ccc(NC2CCCC2)cc1F
REMARK SMILES IDX 8 1 7 4 6 7 5 10 3 11 4 12 2 14 1 16 78 20 79 21 89 22 80 23
REMARK SMILES IDX 88 25 90 26 81 27 82 30 83 32 84 33 87 34 85 36 86 39 9 46
REMARK SMILES IDX 10 49 11 52 12 55 13 56 14 58 15 59 16 60 77 61 17 62 76 64
REMARK SMILES IDX 18 66 19 69 20 70 70 71 21 72 75 73 69 74 71 75 22 76 74 77
REMARK SMILES IDX 68 79 67 81 23 83 55 86 35 87 54 88 36 89 39 90 53 91 72 92
REMARK SMILES IDX 37 93 38 95 52 97 73 98 40 101 24 103 25 104 33 105 26 106
REMARK SMILES IDX 27 107 31 108 34 109 28 110 29 111 32 112 30 113 56 114
REMARK SMILES IDX 57 115 65 116 58 117 59 118 63 119 66 120 60 121 61 122
REMARK SMILES IDX 64 123 62 124 41 125 42 126 50 127 43 128 44 129 48 130
REMARK SMILES IDX 51 131 45 132 46 133 49 134 47 135
REMARK H PARENT 8 2 8 3 7 5 7 6 6 8 6 9 5 13 2 15 1 17 1 18 1 19 79 24 80 28
REMARK H PARENT 88 29 82 31 83 35 84 37 84 38 87 40 87 41 85 42 85 43 86 44
REMARK H PARENT 86 45 9 47 9 48 10 50 10 51 11 53 11 54 12 57 16 63 77 65
REMARK H PARENT 17 67 76 68 75 78 69 80 71 82 74 84 68 85 36 94 39 96 72 99
REMARK H PARENT 37 100 73 102
REMARK Flexibility Score: inf
ROOT
ATOM      1  C   UNL A   1      32.446  26.639  26.699  1.00  0.00    -0.052 C 
ATOM      2  H   UNL A   1      32.968  26.804  25.780  1.00  0.00     0.027 H 
ATOM      3  H   UNL A   1      33.092  26.419  27.524  1.00  0.00     0.027 H 
ENDROOT
BRANCH   1   4
ATOM      4  C   UNL A   1      31.549  25.406  26.520  1.00  0.00    -0.036 C 
ATOM      5  H   UNL A   1      30.918  25.324  27.379  1.00  0.00     0.028 H 
ATOM      6  H   UNL A   1      31.001  25.557  25.614  1.00  0.00     0.028 H 
BRANCH   4   7
ATOM      7  C   UNL A   1      32.311  24.087  26.356  1.00  0.00     0.017 C 
ATOM      8  H   UNL A   1      32.480  23.655  27.320  1.00  0.00     0.049 H 
ATOM      9  H   UNL A   1      31.730  23.422  25.754  1.00  0.00     0.049 H 
BRANCH   7  10
ATOM     10  N   UNL A   1      33.585  24.322  25.707  1.00  0.00    -0.356 N 
ATOM     11  C   UNL A   1      33.919  24.226  24.386  1.00  0.00     0.227 C 
ATOM     12  O   UNL A   1      35.120  24.138  24.125  1.00  0.00    -0.274 OA
ATOM     13  H   UNL A   1      34.318  24.591  26.306  1.00  0.00     0.163 HD
BRANCH  11  14
ATOM     14  C   UNL A   1      32.815  24.262  23.311  1.00  0.00     0.063 C 
ATOM     15  H   UNL A   1      31.948  23.733  23.648  1.00  0.00     0.045 H 
BRANCH  14  16
ATOM     16  C   UNL A   1      33.354  23.555  22.062  1.00  0.00    -0.049 C 
ATOM     17  H   UNL A   1      33.327  22.496  22.212  1.00  0.00     0.024 H 
ATOM     18  H   UNL A   1      34.363  23.864  21.884  1.00  0.00     0.024 H 
ATOM     19  H   UNL A   1      32.749  23.811  21.217  1.00  0.00     0.024 H 
ENDBRANCH  14  16
BRANCH  14  20
ATOM     20  C   UNL A   1      32.275  25.673  23.064  1.00  0.00     0.000 A 
ATOM     21  C   UNL A   1      33.159  26.733  22.812  1.00  0.00    -0.053 A 
ATOM     22  C   UNL A   1      30.918  25.999  23.104  1.00  0.00     0.129 A 
ATOM     23  C   UNL A   1      32.694  28.019  22.502  1.00  0.00    -0.038 A 
ATOM     24  H   UNL A   1      34.176  26.562  22.857  1.00  0.00     0.063 H 
ATOM     25  C   UNL A   1      30.458  27.290  22.822  1.00  0.00    -0.003 A 
ATOM     26  F   UNL A   1      29.994  25.079  23.413  1.00  0.00    -0.207 F 
ATOM     27  C   UNL A   1      31.334  28.324  22.485  1.00  0.00     0.037 A 
ATOM     28  H   UNL A   1      33.376  28.759  22.279  1.00  0.00     0.064 H 
ATOM     29  H   UNL A   1      29.445  27.482  22.864  1.00  0.00     0.068 H 
BRANCH  27  30
ATOM     30  N   UNL A   1      30.809  29.552  22.142  1.00  0.00    -0.382 N 
ATOM     31  H   UNL A   1      31.441  30.173  21.713  1.00  0.00     0.160 HD
BRANCH  30  32
ATOM     32  C   UNL A   1      29.461  30.063  22.320  1.00  0.00     0.026 C 
ATOM     33  C   UNL A   1      29.213  30.749  23.658  1.00  0.00    -0.033 C 
ATOM     34  C   UNL A   1      28.999  31.040  21.239  1.00  0.00    -0.033 C 
ATOM     35  H   UNL A   1      28.892  29.158  22.264  1.00  0.00     0.053 H 
ATOM     36  C   UNL A   1      27.963  31.575  23.392  1.00  0.00    -0.051 C 
ATOM     37  H   UNL A   1      30.037  31.375  23.928  1.00  0.00     0.029 H 
ATOM     38  H   UNL A   1      29.098  30.061  24.469  1.00  0.00     0.029 H 
ATOM     39  C   UNL A   1      28.100  32.052  21.950  1.00  0.00    -0.051 C 
ATOM     40  H   UNL A   1      28.451  30.523  20.480  1.00  0.00     0.029 H 
ATOM     41  H   UNL A   1      29.828  31.518  20.759  1.00  0.00     0.029 H 
ATOM     42  H   UNL A   1      27.917  32.410  24.061  1.00  0.00     0.027 H 
ATOM     43  H   UNL A   1      27.069  31.009  23.544  1.00  0.00     0.027 H 
ATOM     44  H   UNL A   1      28.545  33.024  21.923  1.00  0.00     0.027 H 
ATOM     45  H   UNL A   1      27.144  32.120  21.475  1.00  0.00     0.027 H 
ENDBRANCH  30  32
ENDBRANCH  27  30
ENDBRANCH  14  20
ENDBRANCH  11  14
ENDBRANCH   7  10
ENDBRANCH   4   7
ENDBRANCH   1   4
BRANCH   1  46
ATOM     46  C   UNL A   1      31.712  27.930  27.066  1.00  0.00    -0.052 C 
ATOM     47  H   UNL A   1      32.196  28.355  27.920  1.00  0.00     0.027 H 
ATOM     48  H   UNL A   1      30.694  27.653  27.245  1.00  0.00     0.027 H 
BRANCH  46  49
ATOM     49  C   UNL A   1      31.674  28.994  25.965  1.00  0.00    -0.036 C 
ATOM     50  H   UNL A   1      30.834  29.632  26.150  1.00  0.00     0.028 H 
ATOM     51  H   UNL A   1      31.612  28.462  25.039  1.00  0.00     0.028 H 
BRANCH  49  52
ATOM     52  C   UNL A   1      32.920  29.872  25.868  1.00  0.00     0.018 C 
ATOM     53  H   UNL A   1      33.254  29.883  24.851  1.00  0.00     0.049 H 
ATOM     54  H   UNL A   1      33.661  29.460  26.521  1.00  0.00     0.049 H 
BRANCH  52  55
ATOM     55  N   UNL A   1      32.671  31.239  26.291  1.00  0.00    -0.352 N 
ATOM     56  C   UNL A   1      33.314  31.991  27.237  1.00  0.00     0.251 C 
ATOM     57  H   UNL A   1      31.930  31.692  25.827  1.00  0.00     0.163 HD
ATOM     58  O   UNL A   1      32.851  33.086  27.567  1.00  0.00    -0.269 OA
BRANCH  56  59
ATOM     59  C   UNL A   1      34.544  31.496  27.890  1.00  0.00     0.039 A 
ATOM     60  C   UNL A   1      35.624  32.372  28.029  1.00  0.00    -0.049 A 
ATOM     61  C   UNL A   1      34.656  30.174  28.333  1.00  0.00    -0.049 A 
ATOM     62  C   UNL A   1      36.794  31.941  28.656  1.00  0.00    -0.053 A 
ATOM     63  H   UNL A   1      35.556  33.337  27.668  1.00  0.00     0.063 H 
ATOM     64  C   UNL A   1      35.804  29.760  29.008  1.00  0.00    -0.053 A 
ATOM     65  H   UNL A   1      33.889  29.505  28.161  1.00  0.00     0.063 H 
ATOM     66  C   UNL A   1      36.884  30.639  29.174  1.00  0.00    -0.014 A 
ATOM     67  H   UNL A   1      37.598  32.583  28.739  1.00  0.00     0.063 H 
ATOM     68  H   UNL A   1      35.860  28.801  29.388  1.00  0.00     0.063 H 
BRANCH  66  69
ATOM     69  C   UNL A   1      38.104  30.200  29.897  1.00  0.00     0.031 A 
ATOM     70  C   UNL A   1      38.382  30.681  31.293  1.00  0.00     0.074 A 
ATOM     71  C   UNL A   1      38.981  29.386  29.278  1.00  0.00     0.049 A 
ATOM     72  N   UNL A   1      39.397  30.409  32.075  1.00  0.00    -0.248 NA
ATOM     73  C   UNL A   1      37.401  31.604  31.884  1.00  0.00    -0.034 C 
ATOM     74  C   UNL A   1      38.851  28.893  27.905  1.00  0.00    -0.036 A 
ATOM     75  N   UNL A   1      40.156  28.832  29.721  1.00  0.00    -0.354 N 
ATOM     76  C   UNL A   1      39.178  31.125  33.244  1.00  0.00     0.074 A 
ATOM     77  C   UNL A   1      37.960  31.883  33.053  1.00  0.00    -0.034 C 
ATOM     78  H   UNL A   1      36.510  31.945  31.490  1.00  0.00     0.065 H 
ATOM     79  C   UNL A   1      39.896  28.098  27.624  1.00  0.00    -0.036 A 
ATOM     80  H   UNL A   1      38.082  29.122  27.258  1.00  0.00     0.065 H 
ATOM     81  C   UNL A   1      40.777  28.040  28.787  1.00  0.00     0.049 A 
ATOM     82  H   UNL A   1      40.520  28.988  30.622  1.00  0.00     0.167 HD
ATOM     83  C   UNL A   1      39.913  31.130  34.382  1.00  0.00     0.037 A 
ATOM     84  H   UNL A   1      37.576  32.553  33.738  1.00  0.00     0.065 H 
ATOM     85  H   UNL A   1      40.051  27.606  26.730  1.00  0.00     0.065 H 
ATOM     86  C   UNL A   1      41.926  27.343  28.861  1.00  0.00     0.037 A 
ATOM     87  C   UNL A   1      41.116  30.364  34.580  1.00  0.00     0.049 A 
ATOM     88  C   UNL A   1      42.709  27.349  30.145  1.00  0.00     0.074 A 
ATOM     89  C   UNL A   1      41.911  30.280  35.710  1.00  0.00    -0.036 A 
ATOM     90  N   UNL A   1      41.696  29.546  33.622  1.00  0.00    -0.354 N 
ATOM     91  N   UNL A   1      42.459  27.985  31.263  1.00  0.00    -0.248 NA
ATOM     92  C   UNL A   1      43.928  26.528  30.181  1.00  0.00    -0.034 C 
ATOM     93  C   UNL A   1      42.987  29.431  35.427  1.00  0.00    -0.036 A 
ATOM     94  H   UNL A   1      41.739  30.759  36.607  1.00  0.00     0.065 H 
ATOM     95  C   UNL A   1      42.842  28.959  34.133  1.00  0.00     0.049 A 
ATOM     96  H   UNL A   1      41.345  29.404  32.713  1.00  0.00     0.167 HD
ATOM     97  C   UNL A   1      43.475  27.630  32.139  1.00  0.00     0.074 A 
ATOM     98  C   UNL A   1      44.334  26.702  31.430  1.00  0.00    -0.034 C 
ATOM     99  H   UNL A   1      44.356  25.963  29.430  1.00  0.00     0.065 H 
ATOM    100  H   UNL A   1      43.758  29.197  36.072  1.00  0.00     0.065 H 
ATOM    101  C   UNL A   1      43.683  28.039  33.413  1.00  0.00     0.037 A 
ATOM    102  H   UNL A   1      45.155  26.237  31.845  1.00  0.00     0.065 H 
BRANCH  83 103
ATOM    103  C   UNL A   1      39.424  31.979  35.517  1.00  0.00     0.064 A 
ATOM    104  C   UNL A   1      39.802  33.325  35.635  1.00  0.00     0.173 A 
ATOM    105  C   UNL A   1      38.530  31.461  36.467  1.00  0.00     0.173 A 
ATOM    106  F   UNL A   1      40.663  33.863  34.760  1.00  0.00    -0.203 F 
ATOM    107  C   UNL A   1      39.316  34.117  36.673  1.00  0.00     0.198 A 
ATOM    108  C   UNL A   1      38.027  32.263  37.489  1.00  0.00     0.198 A 
ATOM    109  F   UNL A   1      38.134  30.182  36.395  1.00  0.00    -0.203 F 
ATOM    110  F   UNL A   1      39.718  35.390  36.785  1.00  0.00    -0.200 F 
ATOM    111  C   UNL A   1      38.424  33.588  37.593  1.00  0.00     0.200 A 
ATOM    112  F   UNL A   1      37.158  31.754  38.373  1.00  0.00    -0.200 F 
ATOM    113  F   UNL A   1      37.950  34.354  38.585  1.00  0.00    -0.200 F 
ENDBRANCH  83 103
BRANCH  86 114
ATOM    114  C   UNL A   1      42.393  26.557  27.692  1.00  0.00     0.064 A 
ATOM    115  C   UNL A   1      41.916  25.260  27.456  1.00  0.00     0.173 A 
ATOM    116  C   UNL A   1      43.334  27.081  26.793  1.00  0.00     0.173 A 
ATOM    117  F   UNL A   1      41.032  24.709  28.301  1.00  0.00    -0.203 F 
ATOM    118  C   UNL A   1      42.380  24.507  26.380  1.00  0.00     0.198 A 
ATOM    119  C   UNL A   1      43.777  26.338  25.701  1.00  0.00     0.198 A 
ATOM    120  F   UNL A   1      43.816  28.320  26.972  1.00  0.00    -0.203 F 
ATOM    121  F   UNL A   1      41.943  23.253  26.205  1.00  0.00    -0.200 F 
ATOM    122  C   UNL A   1      43.307  25.049  25.502  1.00  0.00     0.200 A 
ATOM    123  F   UNL A   1      44.664  26.868  24.848  1.00  0.00    -0.200 F 
ATOM    124  F   UNL A   1      43.752  24.325  24.465  1.00  0.00    -0.200 F 
ENDBRANCH  86 114
BRANCH 101 125
ATOM    125  C   UNL A   1      44.877  27.472  34.124  1.00  0.00     0.064 A 
ATOM    126  C   UNL A   1      44.797  26.270  34.842  1.00  0.00     0.173 A 
ATOM    127  C   UNL A   1      46.116  28.128  34.071  1.00  0.00     0.173 A 
ATOM    128  F   UNL A   1      43.630  25.616  34.934  1.00  0.00    -0.203 F 
ATOM    129  C   UNL A   1      45.909  25.759  35.506  1.00  0.00     0.198 A 
ATOM    130  C   UNL A   1      47.231  27.601  34.715  1.00  0.00     0.198 A 
ATOM    131  F   UNL A   1      46.244  29.278  33.393  1.00  0.00    -0.203 F 
ATOM    132  F   UNL A   1      45.797  24.634  36.226  1.00  0.00    -0.200 F 
ATOM    133  C   UNL A   1      47.125  26.422  35.438  1.00  0.00     0.200 A 
ATOM    134  F   UNL A   1      48.408  28.237  34.643  1.00  0.00    -0.200 F 
ATOM    135  F   UNL A   1      48.193  25.930  36.079  1.00  0.00    -0.200 F 
ENDBRANCH 101 125
ENDBRANCH  66  69
ENDBRANCH  56  59
ENDBRANCH  52  55
ENDBRANCH  49  52
ENDBRANCH  46  49
ENDBRANCH   1  46
TORSDOF 17
ENDMDL
MODEL 3
REMARK VINA RESULT:     -11.4      5.698     11.378
REMARK SMILES C[C@@H](C(=O)NCCCCCCNC(=O)c1ccc(-c2c3nc(c(-c4c(F)c(F)c(F)c(F)c4F)c4ccc([nH]4)c(-c4c(F)c(F)c(F)c(F)c4F)c4nc(c(-c5c(F)c(F)c(F)c(F)c5F)c5ccc2[nH]5)C=C4)C=C3)cc1)c1ccc(NC2CCCC2)cc1F
REMARK SMILES IDX 8 1 7 4 6 7 5 10 3 11 4 12 2 14 1 16 78 20 79 21 89 22 80 23
REMARK SMILES IDX 88 25 90 26 81 27 82 30 83 32 84 33 87 34 85 36 86 39 9 46
REMARK SMILES IDX 10 49 11 52 12 55 13 56 14 58 15 59 16 60 77 61 17 62 76 64
REMARK SMILES IDX 18 66 19 69 20 70 70 71 21 72 75 73 69 74 71 75 22 76 74 77
REMARK SMILES IDX 68 79 67 81 23 83 55 86 35 87 54 88 36 89 39 90 53 91 72 92
REMARK SMILES IDX 37 93 38 95 52 97 73 98 40 101 24 103 25 104 33 105 26 106
REMARK SMILES IDX 27 107 31 108 34 109 28 110 29 111 32 112 30 113 56 114
REMARK SMILES IDX 57 115 65 116 58 117 59 118 63 119 66 120 60 121 61 122
REMARK SMILES IDX 64 123 62 124 41 125 42 126 50 127 43 128 44 129 48 130
REMARK SMILES IDX 51 131 45 132 46 133 49 134 47 135
REMARK H PARENT 8 2 8 3 7 5 7 6 6 8 6 9 5 13 2 15 1 17 1 18 1 19 79 24 80 28
REMARK H PARENT 88 29 82 31 83 35 84 37 84 38 87 40 87 41 85 42 85 43 86 44
REMARK H PARENT 86 45 9 47 9 48 10 50 10 51 11 53 11 54 12 57 16 63 77 65
REMARK H PARENT 17 67 76 68 75 78 69 80 71 82 74 84 68 85 36 94 39 96 72 99
REMARK H PARENT 37 100 73 102
REMARK Flexibility Score: inf
ROOT
ATOM      1  C   UNL A   1      36.217  21.810  24.619  1.00  0.00    -0.052 C 
ATOM      2  H   UNL A   1      37.032  22.091  23.986  1.00  0.00     0.027 H 
ATOM      3  H   UNL A   1      35.262  21.878  24.141  1.00  0.00     0.027 H 
ENDROOT
BRANCH   1   4
ATOM      4  C   UNL A   1      36.174  22.791  25.799  1.00  0.00    -0.036 C 
ATOM      5  H   UNL A   1      35.936  22.239  26.684  1.00  0.00     0.028 H 
ATOM      6  H   UNL A   1      37.137  23.254  25.846  1.00  0.00     0.028 H 
BRANCH   4   7
ATOM      7  C   UNL A   1      35.151  23.920  25.647  1.00  0.00     0.017 C 
ATOM      8  H   UNL A   1      35.617  24.854  25.884  1.00  0.00     0.049 H 
ATOM      9  H   UNL A   1      34.795  23.934  24.639  1.00  0.00     0.049 H 
BRANCH   7  10
ATOM     10  N   UNL A   1      34.031  23.704  26.541  1.00  0.00    -0.356 N 
ATOM     11  C   UNL A   1      32.694  23.665  26.266  1.00  0.00     0.227 C 
ATOM     12  O   UNL A   1      31.929  23.810  27.221  1.00  0.00    -0.274 OA
ATOM     13  H   UNL A   1      34.269  23.565  27.486  1.00  0.00     0.163 HD
BRANCH  11  14
ATOM     14  C   UNL A   1      32.214  23.417  24.822  1.00  0.00     0.063 C 
ATOM     15  H   UNL A   1      32.845  23.931  24.126  1.00  0.00     0.045 H 
BRANCH  14  16
ATOM     16  C   UNL A   1      30.796  23.985  24.695  1.00  0.00    -0.049 C 
ATOM     17  H   UNL A   1      30.819  25.042  24.850  1.00  0.00     0.024 H 
ATOM     18  H   UNL A   1      30.163  23.531  25.430  1.00  0.00     0.024 H 
ATOM     19  H   UNL A   1      30.413  23.775  23.718  1.00  0.00     0.024 H 
ENDBRANCH  14  16
BRANCH  14  20
ATOM     20  C   UNL A   1      32.359  21.954  24.393  1.00  0.00     0.000 A 
ATOM     21  C   UNL A   1      32.476  20.944  25.358  1.00  0.00    -0.053 A 
ATOM     22  C   UNL A   1      32.416  21.542  23.060  1.00  0.00     0.129 A 
ATOM     23  C   UNL A   1      32.527  19.589  25.001  1.00  0.00    -0.038 A 
ATOM     24  H   UNL A   1      32.525  21.204  26.357  1.00  0.00     0.063 H 
ATOM     25  C   UNL A   1      32.497  20.192  22.705  1.00  0.00    -0.003 A 
ATOM     26  F   UNL A   1      32.393  22.433  22.058  1.00  0.00    -0.207 F 
ATOM     27  C   UNL A   1      32.525  19.180  23.669  1.00  0.00     0.037 A 
ATOM     28  H   UNL A   1      32.568  18.875  25.744  1.00  0.00     0.064 H 
ATOM     29  H   UNL A   1      32.537  19.936  21.706  1.00  0.00     0.068 H 
BRANCH  27  30
ATOM     30  N   UNL A   1      32.525  17.867  23.250  1.00  0.00    -0.382 N 
ATOM     31  H   UNL A   1      31.892  17.657  22.526  1.00  0.00     0.160 HD
BRANCH  30  32
ATOM     32  C   UNL A   1      33.320  16.747  23.722  1.00  0.00     0.026 C 
ATOM     33  C   UNL A   1      34.743  17.105  24.133  1.00  0.00    -0.033 C 
ATOM     34  C   UNL A   1      32.710  15.978  24.895  1.00  0.00    -0.033 C 
ATOM     35  H   UNL A   1      33.337  16.128  22.849  1.00  0.00     0.053 H 
ATOM     36  C   UNL A   1      35.156  15.925  25.001  1.00  0.00    -0.051 C 
ATOM     37  H   UNL A   1      34.764  18.018  24.690  1.00  0.00     0.029 H 
ATOM     38  H   UNL A   1      35.395  17.262  23.299  1.00  0.00     0.029 H 
ATOM     39  C   UNL A   1      33.892  15.521  25.751  1.00  0.00    -0.051 C 
ATOM     40  H   UNL A   1      32.158  15.134  24.540  1.00  0.00     0.029 H 
ATOM     41  H   UNL A   1      32.030  16.587  25.454  1.00  0.00     0.029 H 
ATOM     42  H   UNL A   1      35.923  16.216  25.687  1.00  0.00     0.027 H 
ATOM     43  H   UNL A   1      35.553  15.120  24.419  1.00  0.00     0.027 H 
ATOM     44  H   UNL A   1      33.861  15.998  26.707  1.00  0.00     0.027 H 
ATOM     45  H   UNL A   1      33.863  14.464  25.915  1.00  0.00     0.027 H 
ENDBRANCH  30  32
ENDBRANCH  27  30
ENDBRANCH  14  20
ENDBRANCH  11  14
ENDBRANCH   7  10
ENDBRANCH   4   7
ENDBRANCH   1   4
BRANCH   1  46
ATOM     46  C   UNL A   1      36.398  20.340  25.001  1.00  0.00    -0.052 C 
ATOM     47  H   UNL A   1      35.701  19.761  24.432  1.00  0.00     0.027 H 
ATOM     48  H   UNL A   1      36.237  20.284  26.058  1.00  0.00     0.027 H 
BRANCH  46  49
ATOM     49  C   UNL A   1      37.798  19.769  24.755  1.00  0.00    -0.036 C 
ATOM     50  H   UNL A   1      38.113  20.074  23.779  1.00  0.00     0.028 H 
ATOM     51  H   UNL A   1      37.710  18.709  24.865  1.00  0.00     0.028 H 
BRANCH  49  52
ATOM     52  C   UNL A   1      38.865  20.212  25.754  1.00  0.00     0.018 C 
ATOM     53  H   UNL A   1      38.406  20.339  26.713  1.00  0.00     0.049 H 
ATOM     54  H   UNL A   1      39.286  21.129  25.396  1.00  0.00     0.049 H 
BRANCH  52  55
ATOM     55  N   UNL A   1      39.945  19.249  25.878  1.00  0.00    -0.352 N 
ATOM     56  C   UNL A   1      41.277  19.457  26.116  1.00  0.00     0.251 C 
ATOM     57  H   UNL A   1      39.679  18.307  25.776  1.00  0.00     0.163 HD
ATOM     58  O   UNL A   1      42.069  18.515  26.028  1.00  0.00    -0.269 OA
BRANCH  56  59
ATOM     59  C   UNL A   1      41.785  20.803  26.451  1.00  0.00     0.039 A 
ATOM     60  C   UNL A   1      41.904  21.746  25.426  1.00  0.00    -0.049 A 
ATOM     61  C   UNL A   1      42.178  21.134  27.753  1.00  0.00    -0.049 A 
ATOM     62  C   UNL A   1      42.366  23.032  25.712  1.00  0.00    -0.053 A 
ATOM     63  H   UNL A   1      41.651  21.491  24.459  1.00  0.00     0.063 H 
ATOM     64  C   UNL A   1      42.588  22.434  28.048  1.00  0.00    -0.053 A 
ATOM     65  H   UNL A   1      42.166  20.416  28.494  1.00  0.00     0.063 H 
ATOM     66  C   UNL A   1      42.687  23.394  27.030  1.00  0.00    -0.014 A 
ATOM     67  H   UNL A   1      42.472  23.720  24.951  1.00  0.00     0.063 H 
ATOM     68  H   UNL A   1      42.819  22.692  29.021  1.00  0.00     0.063 H 
BRANCH  66  69
ATOM     69  C   UNL A   1      43.117  24.780  27.346  1.00  0.00     0.031 A 
ATOM     70  C   UNL A   1      44.526  25.224  27.077  1.00  0.00     0.074 A 
ATOM     71  C   UNL A   1      42.237  25.632  27.907  1.00  0.00     0.049 A 
ATOM     72  N   UNL A   1      45.081  26.391  27.294  1.00  0.00    -0.248 NA
ATOM     73  C   UNL A   1      45.440  24.223  26.506  1.00  0.00    -0.034 C 
ATOM     74  C   UNL A   1      40.856  25.304  28.267  1.00  0.00    -0.036 A 
ATOM     75  N   UNL A   1      42.374  26.946  28.277  1.00  0.00    -0.354 N 
ATOM     76  C   UNL A   1      46.403  26.263  26.888  1.00  0.00     0.074 A 
ATOM     77  C   UNL A   1      46.582  24.893  26.458  1.00  0.00    -0.034 C 
ATOM     78  H   UNL A   1      45.242  23.252  26.218  1.00  0.00     0.065 H 
ATOM     79  C   UNL A   1      40.269  26.392  28.790  1.00  0.00    -0.036 A 
ATOM     80  H   UNL A   1      40.408  24.384  28.141  1.00  0.00     0.065 H 
ATOM     81  C   UNL A   1      41.234  27.487  28.820  1.00  0.00     0.049 A 
ATOM     82  H   UNL A   1      43.209  27.454  28.163  1.00  0.00     0.167 HD
ATOM     83  C   UNL A   1      47.372  27.210  26.854  1.00  0.00     0.037 A 
ATOM     84  H   UNL A   1      47.483  24.490  26.153  1.00  0.00     0.065 H 
ATOM     85  H   UNL A   1      39.291  26.447  29.117  1.00  0.00     0.065 H 
ATOM     86  C   UNL A   1      40.995  28.726  29.287  1.00  0.00     0.037 A 
ATOM     87  C   UNL A   1      47.190  28.578  27.266  1.00  0.00     0.049 A 
ATOM     88  C   UNL A   1      42.082  29.763  29.216  1.00  0.00     0.074 A 
ATOM     89  C   UNL A   1      48.104  29.617  27.237  1.00  0.00    -0.036 A 
ATOM     90  N   UNL A   1      46.011  29.096  27.779  1.00  0.00    -0.354 N 
ATOM     91  N   UNL A   1      43.310  29.643  28.775  1.00  0.00    -0.248 NA
ATOM     92  C   UNL A   1      41.744  31.110  29.694  1.00  0.00    -0.034 C 
ATOM     93  C   UNL A   1      47.485  30.759  27.759  1.00  0.00    -0.036 A 
ATOM     94  H   UNL A   1      49.074  29.560  26.891  1.00  0.00     0.065 H 
ATOM     95  C   UNL A   1      46.176  30.439  28.078  1.00  0.00     0.049 A 
ATOM     96  H   UNL A   1      45.180  28.586  27.912  1.00  0.00     0.167 HD
ATOM     97  C   UNL A   1      43.886  30.899  28.907  1.00  0.00     0.074 A 
ATOM     98  C   UNL A   1      42.864  31.774  29.445  1.00  0.00    -0.034 C 
ATOM     99  H   UNL A   1      40.864  31.452  30.113  1.00  0.00     0.065 H 
ATOM    100  H   UNL A   1      47.929  31.682  27.885  1.00  0.00     0.065 H 
ATOM    101  C   UNL A   1      45.148  31.293  28.614  1.00  0.00     0.037 A 
ATOM    102  H   UNL A   1      42.992  32.783  29.614  1.00  0.00     0.065 H 
BRANCH  83 103
ATOM    103  C   UNL A   1      48.718  26.804  26.333  1.00  0.00     0.064 A 
ATOM    104  C   UNL A   1      49.046  26.943  24.976  1.00  0.00     0.173 A 
ATOM    105  C   UNL A   1      49.707  26.321  27.203  1.00  0.00     0.173 A 
ATOM    106  F   UNL A   1      48.130  27.389  24.103  1.00  0.00    -0.203 F 
ATOM    107  C   UNL A   1      50.310  26.597  24.506  1.00  0.00     0.198 A 
ATOM    108  C   UNL A   1      50.978  25.999  26.732  1.00  0.00     0.198 A 
ATOM    109  F   UNL A   1      49.446  26.174  28.510  1.00  0.00    -0.203 F 
ATOM    110  F   UNL A   1      50.589  26.705  23.200  1.00  0.00    -0.200 F 
ATOM    111  C   UNL A   1      51.276  26.133  25.385  1.00  0.00     0.200 A 
ATOM    112  F   UNL A   1      51.915  25.559  27.585  1.00  0.00    -0.200 F 
ATOM    113  F   UNL A   1      52.496  25.809  24.932  1.00  0.00    -0.200 F 
ENDBRANCH  83 103
BRANCH  86 114
ATOM    114  C   UNL A   1      39.660  29.065  29.839  1.00  0.00     0.064 A 
ATOM    115  C   UNL A   1      39.361  28.845  31.192  1.00  0.00     0.173 A 
ATOM    116  C   UNL A   1      38.652  29.604  29.027  1.00  0.00     0.173 A 
ATOM    117  F   UNL A   1      40.286  28.311  32.003  1.00  0.00    -0.203 F 
ATOM    118  C   UNL A   1      38.097  29.129  31.704  1.00  0.00     0.198 A 
ATOM    119  C   UNL A   1      37.397  29.912  29.546  1.00  0.00     0.198 A 
ATOM    120  F   UNL A   1      38.891  29.838  27.727  1.00  0.00    -0.203 F 
ATOM    121  F   UNL A   1      37.824  28.865  32.989  1.00  0.00    -0.200 F 
ATOM    122  C   UNL A   1      37.118  29.666  30.882  1.00  0.00     0.200 A 
ATOM    123  F   UNL A   1      36.457  30.442  28.751  1.00  0.00    -0.200 F 
ATOM    124  F   UNL A   1      35.903  29.940  31.375  1.00  0.00    -0.200 F 
ENDBRANCH  86 114
BRANCH 101 125
ATOM    125  C   UNL A   1      45.485  32.734  28.856  1.00  0.00     0.064 A 
ATOM    126  C   UNL A   1      45.260  33.712  27.876  1.00  0.00     0.173 A 
ATOM    127  C   UNL A   1      46.021  33.144  30.085  1.00  0.00     0.173 A 
ATOM    128  F   UNL A   1      44.763  33.366  26.679  1.00  0.00    -0.203 F 
ATOM    129  C   UNL A   1      45.586  35.046  28.109  1.00  0.00     0.198 A 
ATOM    130  C   UNL A   1      46.323  34.482  30.324  1.00  0.00     0.198 A 
ATOM    131  F   UNL A   1      46.252  32.247  31.056  1.00  0.00    -0.203 F 
ATOM    132  F   UNL A   1      45.407  35.955  27.141  1.00  0.00    -0.200 F 
ATOM    133  C   UNL A   1      46.113  35.429  29.333  1.00  0.00     0.200 A 
ATOM    134  F   UNL A   1      46.825  34.854  31.509  1.00  0.00    -0.200 F 
ATOM    135  F   UNL A   1      46.428  36.713  29.554  1.00  0.00    -0.200 F 
ENDBRANCH 101 125
ENDBRANCH  66  69
ENDBRANCH  56  59
ENDBRANCH  52  55
ENDBRANCH  49  52
ENDBRANCH  46  49
ENDBRANCH   1  46
TORSDOF 17
ENDMDL
MODEL 4
REMARK VINA RESULT:     -11.4      2.383      4.882
REMARK SMILES C[C@@H](C(=O)NCCCCCCNC(=O)c1ccc(-c2c3nc(c(-c4c(F)c(F)c(F)c(F)c4F)c4ccc([nH]4)c(-c4c(F)c(F)c(F)c(F)c4F)c4nc(c(-c5c(F)c(F)c(F)c(F)c5F)c5ccc2[nH]5)C=C4)C=C3)cc1)c1ccc(NC2CCCC2)cc1F
REMARK SMILES IDX 8 1 7 4 6 7 5 10 3 11 4 12 2 14 1 16 78 20 79 21 89 22 80 23
REMARK SMILES IDX 88 25 90 26 81 27 82 30 83 32 84 33 87 34 85 36 86 39 9 46
REMARK SMILES IDX 10 49 11 52 12 55 13 56 14 58 15 59 16 60 77 61 17 62 76 64
REMARK SMILES IDX 18 66 19 69 20 70 70 71 21 72 75 73 69 74 71 75 22 76 74 77
REMARK SMILES IDX 68 79 67 81 23 83 55 86 35 87 54 88 36 89 39 90 53 91 72 92
REMARK SMILES IDX 37 93 38 95 52 97 73 98 40 101 24 103 25 104 33 105 26 106
REMARK SMILES IDX 27 107 31 108 34 109 28 110 29 111 32 112 30 113 56 114
REMARK SMILES IDX 57 115 65 116 58 117 59 118 63 119 66 120 60 121 61 122
REMARK SMILES IDX 64 123 62 124 41 125 42 126 50 127 43 128 44 129 48 130
REMARK SMILES IDX 51 131 45 132 46 133 49 134 47 135
REMARK H PARENT 8 2 8 3 7 5 7 6 6 8 6 9 5 13 2 15 1 17 1 18 1 19 79 24 80 28
REMARK H PARENT 88 29 82 31 83 35 84 37 84 38 87 40 87 41 85 42 85 43 86 44
REMARK H PARENT 86 45 9 47 9 48 10 50 10 51 11 53 11 54 12 57 16 63 77 65
REMARK H PARENT 17 67 76 68 75 78 69 80 71 82 74 84 68 85 36 94 39 96 72 99
REMARK H PARENT 37 100 73 102
REMARK Flexibility Score: inf
ROOT
ATOM      1  C   UNL A   1      32.361  29.920  26.685  1.00  0.00    -0.052 C 
ATOM      2  H   UNL A   1      33.150  29.668  26.009  1.00  0.00     0.027 H 
ATOM      3  H   UNL A   1      32.692  30.468  27.543  1.00  0.00     0.027 H 
ENDROOT
BRANCH   1   4
ATOM      4  C   UNL A   1      31.759  28.613  27.221  1.00  0.00    -0.036 C 
ATOM      5  H   UNL A   1      32.022  28.524  28.254  1.00  0.00     0.028 H 
ATOM      6  H   UNL A   1      30.703  28.677  27.065  1.00  0.00     0.028 H 
BRANCH   4   7
ATOM      7  C   UNL A   1      32.235  27.352  26.494  1.00  0.00     0.017 C 
ATOM      8  H   UNL A   1      32.158  27.503  25.437  1.00  0.00     0.049 H 
ATOM      9  H   UNL A   1      33.252  27.158  26.762  1.00  0.00     0.049 H 
BRANCH   7  10
ATOM     10  N   UNL A   1      31.420  26.217  26.875  1.00  0.00    -0.356 N 
ATOM     11  C   UNL A   1      31.025  25.140  26.133  1.00  0.00     0.227 C 
ATOM     12  O   UNL A   1      30.069  24.493  26.564  1.00  0.00    -0.274 OA
ATOM     13  H   UNL A   1      31.104  26.221  27.808  1.00  0.00     0.163 HD
BRANCH  11  14
ATOM     14  C   UNL A   1      31.788  24.776  24.844  1.00  0.00     0.063 C 
ATOM     15  H   UNL A   1      32.654  25.395  24.735  1.00  0.00     0.045 H 
BRANCH  14  16
ATOM     16  C   UNL A   1      30.855  25.039  23.657  1.00  0.00    -0.049 C 
ATOM     17  H   UNL A   1      31.150  24.430  22.829  1.00  0.00     0.024 H 
ATOM     18  H   UNL A   1      30.913  26.071  23.378  1.00  0.00     0.024 H 
ATOM     19  H   UNL A   1      29.849  24.801  23.934  1.00  0.00     0.024 H 
ENDBRANCH  14  16
BRANCH  14  20
ATOM     20  C   UNL A   1      32.385  23.366  24.889  1.00  0.00     0.000 A 
ATOM     21  C   UNL A   1      31.989  22.402  23.951  1.00  0.00    -0.053 A 
ATOM     22  C   UNL A   1      33.307  22.948  25.851  1.00  0.00     0.129 A 
ATOM     23  C   UNL A   1      32.576  21.129  23.914  1.00  0.00    -0.038 A 
ATOM     24  H   UNL A   1      31.247  22.634  23.272  1.00  0.00     0.063 H 
ATOM     25  C   UNL A   1      33.870  21.668  25.830  1.00  0.00    -0.003 A 
ATOM     26  F   UNL A   1      33.694  23.766  26.840  1.00  0.00    -0.207 F 
ATOM     27  C   UNL A   1      33.540  20.737  24.842  1.00  0.00     0.037 A 
ATOM     28  H   UNL A   1      32.287  20.464  23.180  1.00  0.00     0.064 H 
ATOM     29  H   UNL A   1      34.547  21.405  26.563  1.00  0.00     0.068 H 
BRANCH  27  30
ATOM     30  N   UNL A   1      34.190  19.521  24.833  1.00  0.00    -0.382 N 
ATOM     31  H   UNL A   1      35.156  19.561  25.016  1.00  0.00     0.160 HD
BRANCH  30  32
ATOM     32  C   UNL A   1      33.659  18.191  24.591  1.00  0.00     0.026 C 
ATOM     33  C   UNL A   1      34.697  17.076  24.626  1.00  0.00    -0.033 C 
ATOM     34  C   UNL A   1      32.536  17.768  25.539  1.00  0.00    -0.033 C 
ATOM     35  H   UNL A   1      33.278  18.303  23.598  1.00  0.00     0.053 H 
ATOM     36  C   UNL A   1      33.852  15.828  24.832  1.00  0.00    -0.051 C 
ATOM     37  H   UNL A   1      35.383  17.214  25.436  1.00  0.00     0.029 H 
ATOM     38  H   UNL A   1      35.300  17.035  23.743  1.00  0.00     0.029 H 
ATOM     39  C   UNL A   1      32.714  16.265  25.748  1.00  0.00    -0.051 C 
ATOM     40  H   UNL A   1      31.583  17.974  25.101  1.00  0.00     0.029 H 
ATOM     41  H   UNL A   1      32.580  18.303  26.465  1.00  0.00     0.029 H 
ATOM     42  H   UNL A   1      34.431  15.056  25.294  1.00  0.00     0.027 H 
ATOM     43  H   UNL A   1      33.491  15.431  23.906  1.00  0.00     0.027 H 
ATOM     44  H   UNL A   1      32.962  16.061  26.768  1.00  0.00     0.027 H 
ATOM     45  H   UNL A   1      31.813  15.735  25.522  1.00  0.00     0.027 H 
ENDBRANCH  30  32
ENDBRANCH  27  30
ENDBRANCH  14  20
ENDBRANCH  11  14
ENDBRANCH   7  10
ENDBRANCH   4   7
ENDBRANCH   1   4
BRANCH   1  46
ATOM     46  C   UNL A   1      31.380  30.834  25.948  1.00  0.00    -0.052 C 
ATOM     47  H   UNL A   1      30.409  30.386  25.999  1.00  0.00     0.027 H 
ATOM     48  H   UNL A   1      31.755  30.930  24.951  1.00  0.00     0.027 H 
BRANCH  46  49
ATOM     49  C   UNL A   1      31.273  32.258  26.501  1.00  0.00    -0.036 C 
ATOM     50  H   UNL A   1      30.527  32.260  27.269  1.00  0.00     0.028 H 
ATOM     51  H   UNL A   1      31.031  32.883  25.668  1.00  0.00     0.028 H 
BRANCH  49  52
ATOM     52  C   UNL A   1      32.562  32.823  27.094  1.00  0.00     0.018 C 
ATOM     53  H   UNL A   1      33.309  32.851  26.328  1.00  0.00     0.049 H 
ATOM     54  H   UNL A   1      32.855  32.187  27.903  1.00  0.00     0.049 H 
BRANCH  52  55
ATOM     55  N   UNL A   1      32.389  34.163  27.626  1.00  0.00    -0.352 N 
ATOM     56  C   UNL A   1      33.054  34.790  28.645  1.00  0.00     0.251 C 
ATOM     57  H   UNL A   1      31.690  34.700  27.188  1.00  0.00     0.163 HD
ATOM     58  O   UNL A   1      32.653  35.882  29.058  1.00  0.00    -0.269 OA
BRANCH  56  59
ATOM     59  C   UNL A   1      34.234  34.165  29.278  1.00  0.00     0.039 A 
ATOM     60  C   UNL A   1      34.028  33.244  30.309  1.00  0.00    -0.049 A 
ATOM     61  C   UNL A   1      35.536  34.501  28.892  1.00  0.00    -0.049 A 
ATOM     62  C   UNL A   1      35.121  32.623  30.917  1.00  0.00    -0.053 A 
ATOM     63  H   UNL A   1      33.069  33.024  30.621  1.00  0.00     0.063 H 
ATOM     64  C   UNL A   1      36.625  33.841  29.462  1.00  0.00    -0.053 A 
ATOM     65  H   UNL A   1      35.691  35.238  28.186  1.00  0.00     0.063 H 
ATOM     66  C   UNL A   1      36.427  32.897  30.480  1.00  0.00    -0.014 A 
ATOM     67  H   UNL A   1      34.968  31.959  31.692  1.00  0.00     0.063 H 
ATOM     68  H   UNL A   1      37.581  34.047  29.131  1.00  0.00     0.063 H 
BRANCH  66  69
ATOM     69  C   UNL A   1      37.585  32.190  31.082  1.00  0.00     0.031 A 
ATOM     70  C   UNL A   1      38.062  32.538  32.463  1.00  0.00     0.074 A 
ATOM     71  C   UNL A   1      38.228  31.248  30.365  1.00  0.00     0.049 A 
ATOM     72  N   UNL A   1      39.058  32.032  33.146  1.00  0.00    -0.248 NA
ATOM     73  C   UNL A   1      37.337  33.609  33.165  1.00  0.00    -0.034 C 
ATOM     74  C   UNL A   1      37.896  30.858  28.993  1.00  0.00    -0.036 A 
ATOM     75  N   UNL A   1      39.298  30.451  30.687  1.00  0.00    -0.354 N 
ATOM     76  C   UNL A   1      39.080  32.721  34.352  1.00  0.00     0.074 A 
ATOM     77  C   UNL A   1      38.030  33.714  34.290  1.00  0.00    -0.034 C 
ATOM     78  H   UNL A   1      36.505  34.139  32.860  1.00  0.00     0.065 H 
ATOM     79  C   UNL A   1      38.733  29.885  28.599  1.00  0.00    -0.036 A 
ATOM     80  H   UNL A   1      37.140  31.266  28.422  1.00  0.00     0.065 H 
ATOM     81  C   UNL A   1      39.672  29.597  29.679  1.00  0.00     0.049 A 
ATOM     82  H   UNL A   1      39.754  30.488  31.559  1.00  0.00     0.167 HD
ATOM     83  C   UNL A   1      39.886  32.525  35.423  1.00  0.00     0.037 A 
ATOM     84  H   UNL A   1      37.843  34.413  35.026  1.00  0.00     0.065 H 
ATOM     85  H   UNL A   1      38.715  29.415  27.680  1.00  0.00     0.065 H 
ATOM     86  C   UNL A   1      40.658  28.682  29.633  1.00  0.00     0.037 A 
ATOM     87  C   UNL A   1      40.921  31.526  35.492  1.00  0.00     0.049 A 
ATOM     88  C   UNL A   1      41.524  28.471  30.844  1.00  0.00     0.074 A 
ATOM     89  C   UNL A   1      41.768  31.231  36.547  1.00  0.00    -0.036 A 
ATOM     90  N   UNL A   1      41.248  30.657  34.463  1.00  0.00    -0.354 N 
ATOM     91  N   UNL A   1      41.494  29.090  32.000  1.00  0.00    -0.248 NA
ATOM     92  C   UNL A   1      42.550  27.424  30.750  1.00  0.00    -0.034 C 
ATOM     93  C   UNL A   1      42.625  30.200  36.146  1.00  0.00    -0.036 A 
ATOM     94  H   UNL A   1      41.767  31.692  37.470  1.00  0.00     0.065 H 
ATOM     95  C   UNL A   1      42.288  29.829  34.855  1.00  0.00     0.049 A 
ATOM     96  H   UNL A   1      40.806  30.631  33.583  1.00  0.00     0.167 HD
ATOM     97  C   UNL A   1      42.483  28.498  32.773  1.00  0.00     0.074 A 
ATOM     98  C   UNL A   1      43.078  27.453  31.965  1.00  0.00    -0.034 C 
ATOM     99  H   UNL A   1      42.795  26.822  29.948  1.00  0.00     0.065 H 
ATOM    100  H   UNL A   1      43.381  29.787  36.715  1.00  0.00     0.065 H 
ATOM    101  C   UNL A   1      42.868  28.796  34.038  1.00  0.00     0.037 A 
ATOM    102  H   UNL A   1      43.819  26.815  32.293  1.00  0.00     0.065 H 
BRANCH  83 103
ATOM    103  C   UNL A   1      39.669  33.399  36.622  1.00  0.00     0.064 A 
ATOM    104  C   UNL A   1      40.302  34.646  36.739  1.00  0.00     0.173 A 
ATOM    105  C   UNL A   1      38.782  33.013  37.638  1.00  0.00     0.173 A 
ATOM    106  F   UNL A   1      41.167  35.053  35.799  1.00  0.00    -0.203 F 
ATOM    107  C   UNL A   1      40.068  35.467  37.839  1.00  0.00     0.198 A 
ATOM    108  C   UNL A   1      38.532  33.849  38.725  1.00  0.00     0.198 A 
ATOM    109  F   UNL A   1      38.148  31.833  37.571  1.00  0.00    -0.203 F 
ATOM    110  F   UNL A   1      40.710  36.638  37.946  1.00  0.00    -0.200 F 
ATOM    111  C   UNL A   1      39.179  35.072  38.826  1.00  0.00     0.200 A 
ATOM    112  F   UNL A   1      37.665  33.470  39.674  1.00  0.00    -0.200 F 
ATOM    113  F   UNL A   1      38.947  35.867  39.879  1.00  0.00    -0.200 F 
ENDBRANCH  83 103
BRANCH  86 114
ATOM    114  C   UNL A   1      40.865  27.877  28.404  1.00  0.00     0.064 A 
ATOM    115  C   UNL A   1      40.243  26.630  28.245  1.00  0.00     0.173 A 
ATOM    116  C   UNL A   1      41.696  28.329  27.369  1.00  0.00     0.173 A 
ATOM    117  F   UNL A   1      39.456  26.146  29.217  1.00  0.00    -0.203 F 
ATOM    118  C   UNL A   1      40.463  25.856  27.108  1.00  0.00     0.198 A 
ATOM    119  C   UNL A   1      41.895  27.567  26.220  1.00  0.00     0.198 A 
ATOM    120  F   UNL A   1      42.309  29.518  27.472  1.00  0.00    -0.203 F 
ATOM    121  F   UNL A   1      39.894  24.648  27.002  1.00  0.00    -0.200 F 
ATOM    122  C   UNL A   1      41.286  26.327  26.096  1.00  0.00     0.200 A 
ATOM    123  F   UNL A   1      42.681  28.030  25.239  1.00  0.00    -0.200 F 
ATOM    124  F   UNL A   1      41.498  25.583  25.001  1.00  0.00    -0.200 F 
ENDBRANCH  86 114
BRANCH 101 125
ATOM    125  C   UNL A   1      43.973  27.970  34.625  1.00  0.00     0.064 A 
ATOM    126  C   UNL A   1      45.314  28.369  34.529  1.00  0.00     0.173 A 
ATOM    127  C   UNL A   1      43.687  26.778  35.307  1.00  0.00     0.173 A 
ATOM    128  F   UNL A   1      45.638  29.493  33.874  1.00  0.00    -0.203 F 
ATOM    129  C   UNL A   1      46.332  27.588  35.070  1.00  0.00     0.198 A 
ATOM    130  C   UNL A   1      44.705  26.013  35.868  1.00  0.00     0.198 A 
ATOM    131  F   UNL A   1      42.419  26.356  35.429  1.00  0.00    -0.203 F 
ATOM    132  F   UNL A   1      47.610  27.964  34.925  1.00  0.00    -0.200 F 
ATOM    133  C   UNL A   1      46.026  26.414  35.743  1.00  0.00     0.200 A 
ATOM    134  F   UNL A   1      44.409  24.882  36.524  1.00  0.00    -0.200 F 
ATOM    135  F   UNL A   1      47.008  25.663  36.261  1.00  0.00    -0.200 F 
ENDBRANCH 101 125
ENDBRANCH  66  69
ENDBRANCH  56  59
ENDBRANCH  52  55
ENDBRANCH  49  52
ENDBRANCH  46  49
ENDBRANCH   1  46
TORSDOF 17
ENDMDL
MODEL 5
REMARK VINA RESULT:     -11.3      5.720      9.973
REMARK SMILES C[C@@H](C(=O)NCCCCCCNC(=O)c1ccc(-c2c3nc(c(-c4c(F)c(F)c(F)c(F)c4F)c4ccc([nH]4)c(-c4c(F)c(F)c(F)c(F)c4F)c4nc(c(-c5c(F)c(F)c(F)c(F)c5F)c5ccc2[nH]5)C=C4)C=C3)cc1)c1ccc(NC2CCCC2)cc1F
REMARK SMILES IDX 8 1 7 4 6 7 5 10 3 11 4 12 2 14 1 16 78 20 79 21 89 22 80 23
REMARK SMILES IDX 88 25 90 26 81 27 82 30 83 32 84 33 87 34 85 36 86 39 9 46
REMARK SMILES IDX 10 49 11 52 12 55 13 56 14 58 15 59 16 60 77 61 17 62 76 64
REMARK SMILES IDX 18 66 19 69 20 70 70 71 21 72 75 73 69 74 71 75 22 76 74 77
REMARK SMILES IDX 68 79 67 81 23 83 55 86 35 87 54 88 36 89 39 90 53 91 72 92
REMARK SMILES IDX 37 93 38 95 52 97 73 98 40 101 24 103 25 104 33 105 26 106
REMARK SMILES IDX 27 107 31 108 34 109 28 110 29 111 32 112 30 113 56 114
REMARK SMILES IDX 57 115 65 116 58 117 59 118 63 119 66 120 60 121 61 122
REMARK SMILES IDX 64 123 62 124 41 125 42 126 50 127 43 128 44 129 48 130
REMARK SMILES IDX 51 131 45 132 46 133 49 134 47 135
REMARK H PARENT 8 2 8 3 7 5 7 6 6 8 6 9 5 13 2 15 1 17 1 18 1 19 79 24 80 28
REMARK H PARENT 88 29 82 31 83 35 84 37 84 38 87 40 87 41 85 42 85 43 86 44
REMARK H PARENT 86 45 9 47 9 48 10 50 10 51 11 53 11 54 12 57 16 63 77 65
REMARK H PARENT 17 67 76 68 75 78 69 80 71 82 74 84 68 85 36 94 39 96 72 99
REMARK H PARENT 37 100 73 102
REMARK Flexibility Score: inf
ROOT
ATOM      1  C   UNL A   1      36.337  21.860  24.548  1.00  0.00    -0.052 C 
ATOM      2  H   UNL A   1      37.177  22.026  23.906  1.00  0.00     0.027 H 
ATOM      3  H   UNL A   1      35.394  21.961  24.052  1.00  0.00     0.027 H 
ENDROOT
BRANCH   1   4
ATOM      4  C   UNL A   1      36.359  22.934  25.644  1.00  0.00    -0.036 C 
ATOM      5  H   UNL A   1      36.226  22.450  26.589  1.00  0.00     0.028 H 
ATOM      6  H   UNL A   1      37.301  23.434  25.563  1.00  0.00     0.028 H 
BRANCH   4   7
ATOM      7  C   UNL A   1      35.277  24.009  25.500  1.00  0.00     0.017 C 
ATOM      8  H   UNL A   1      35.713  24.973  25.659  1.00  0.00     0.049 H 
ATOM      9  H   UNL A   1      34.860  23.953  24.517  1.00  0.00     0.049 H 
BRANCH   7  10
ATOM     10  N   UNL A   1      34.224  23.793  26.472  1.00  0.00    -0.356 N 
ATOM     11  C   UNL A   1      32.871  23.752  26.294  1.00  0.00     0.227 C 
ATOM     12  O   UNL A   1      32.176  23.898  27.301  1.00  0.00    -0.274 OA
ATOM     13  H   UNL A   1      34.529  23.655  27.398  1.00  0.00     0.163 HD
BRANCH  11  14
ATOM     14  C   UNL A   1      32.289  23.502  24.888  1.00  0.00     0.063 C 
ATOM     15  H   UNL A   1      32.880  23.998  24.146  1.00  0.00     0.045 H 
BRANCH  14  16
ATOM     16  C   UNL A   1      30.876  24.096  24.854  1.00  0.00    -0.049 C 
ATOM     17  H   UNL A   1      30.837  24.961  25.481  1.00  0.00     0.024 H 
ATOM     18  H   UNL A   1      30.174  23.368  25.205  1.00  0.00     0.024 H 
ATOM     19  H   UNL A   1      30.629  24.372  23.849  1.00  0.00     0.024 H 
ENDBRANCH  14  16
BRANCH  14  20
ATOM     20  C   UNL A   1      32.376  22.033  24.465  1.00  0.00     0.000 A 
ATOM     21  C   UNL A   1      32.508  21.026  25.432  1.00  0.00    -0.053 A 
ATOM     22  C   UNL A   1      32.365  21.611  23.134  1.00  0.00     0.129 A 
ATOM     23  C   UNL A   1      32.509  19.668  25.082  1.00  0.00    -0.038 A 
ATOM     24  H   UNL A   1      32.608  21.291  26.425  1.00  0.00     0.063 H 
ATOM     25  C   UNL A   1      32.395  20.257  22.786  1.00  0.00    -0.003 A 
ATOM     26  F   UNL A   1      32.322  22.496  22.127  1.00  0.00    -0.207 F 
ATOM     27  C   UNL A   1      32.437  19.251  23.754  1.00  0.00     0.037 A 
ATOM     28  H   UNL A   1      32.563  18.958  25.829  1.00  0.00     0.064 H 
ATOM     29  H   UNL A   1      32.385  19.994  21.788  1.00  0.00     0.068 H 
BRANCH  27  30
ATOM     30  N   UNL A   1      32.384  17.935  23.346  1.00  0.00    -0.382 N 
ATOM     31  H   UNL A   1      31.680  17.727  22.691  1.00  0.00     0.160 HD
BRANCH  30  32
ATOM     32  C   UNL A   1      33.214  16.811  23.742  1.00  0.00     0.026 C 
ATOM     33  C   UNL A   1      34.653  17.173  24.091  1.00  0.00    -0.033 C 
ATOM     34  C   UNL A   1      32.674  16.000  24.921  1.00  0.00    -0.033 C 
ATOM     35  H   UNL A   1      33.193  16.220  22.850  1.00  0.00     0.053 H 
ATOM     36  C   UNL A   1      35.122  15.973  24.900  1.00  0.00    -0.051 C 
ATOM     37  H   UNL A   1      34.693  18.070  24.674  1.00  0.00     0.029 H 
ATOM     38  H   UNL A   1      35.259  17.364  23.231  1.00  0.00     0.029 H 
ATOM     39  C   UNL A   1      33.902  15.531  25.700  1.00  0.00    -0.051 C 
ATOM     40  H   UNL A   1      32.112  15.161  24.568  1.00  0.00     0.029 H 
ATOM     41  H   UNL A   1      32.017  16.584  25.532  1.00  0.00     0.029 H 
ATOM     42  H   UNL A   1      35.920  16.252  25.555  1.00  0.00     0.027 H 
ATOM     43  H   UNL A   1      35.496  15.190  24.274  1.00  0.00     0.027 H 
ATOM     44  H   UNL A   1      33.915  15.979  26.672  1.00  0.00     0.027 H 
ATOM     45  H   UNL A   1      33.892  14.470  25.833  1.00  0.00     0.027 H 
ENDBRANCH  30  32
ENDBRANCH  27  30
ENDBRANCH  14  20
ENDBRANCH  11  14
ENDBRANCH   7  10
ENDBRANCH   4   7
ENDBRANCH   1   4
BRANCH   1  46
ATOM     46  C   UNL A   1      36.402  20.416  25.050  1.00  0.00    -0.052 C 
ATOM     47  H   UNL A   1      35.647  19.855  24.540  1.00  0.00     0.027 H 
ATOM     48  H   UNL A   1      36.258  20.462  26.109  1.00  0.00     0.027 H 
BRANCH  46  49
ATOM     49  C   UNL A   1      37.743  19.710  24.833  1.00  0.00    -0.036 C 
ATOM     50  H   UNL A   1      38.047  19.879  23.821  1.00  0.00     0.028 H 
ATOM     51  H   UNL A   1      37.576  18.678  25.063  1.00  0.00     0.028 H 
BRANCH  49  52
ATOM     52  C   UNL A   1      38.875  20.171  25.749  1.00  0.00     0.018 C 
ATOM     53  H   UNL A   1      38.475  20.348  26.727  1.00  0.00     0.049 H 
ATOM     54  H   UNL A   1      39.292  21.062  25.329  1.00  0.00     0.049 H 
BRANCH  52  55
ATOM     55  N   UNL A   1      39.941  19.190  25.853  1.00  0.00    -0.352 N 
ATOM     56  C   UNL A   1      41.278  19.375  26.079  1.00  0.00     0.251 C 
ATOM     57  H   UNL A   1      39.660  18.253  25.743  1.00  0.00     0.163 HD
ATOM     58  O   UNL A   1      42.056  18.422  25.974  1.00  0.00    -0.269 OA
BRANCH  56  59
ATOM     59  C   UNL A   1      41.811  20.710  26.424  1.00  0.00     0.039 A 
ATOM     60  C   UNL A   1      42.265  21.534  25.391  1.00  0.00    -0.049 A 
ATOM     61  C   UNL A   1      41.899  21.142  27.752  1.00  0.00    -0.049 A 
ATOM     62  C   UNL A   1      42.759  22.807  25.681  1.00  0.00    -0.053 A 
ATOM     63  H   UNL A   1      42.236  21.201  24.415  1.00  0.00     0.063 H 
ATOM     64  C   UNL A   1      42.341  22.434  28.037  1.00  0.00    -0.053 A 
ATOM     65  H   UNL A   1      41.637  20.505  28.520  1.00  0.00     0.063 H 
ATOM     66  C   UNL A   1      42.776  23.277  27.004  1.00  0.00    -0.014 A 
ATOM     67  H   UNL A   1      43.113  23.406  24.919  1.00  0.00     0.063 H 
ATOM     68  H   UNL A   1      42.348  22.772  29.013  1.00  0.00     0.063 H 
BRANCH  66  69
ATOM     69  C   UNL A   1      43.241  24.654  27.307  1.00  0.00     0.031 A 
ATOM     70  C   UNL A   1      42.298  25.672  27.884  1.00  0.00     0.074 A 
ATOM     71  C   UNL A   1      44.515  24.996  27.031  1.00  0.00     0.049 A 
ATOM     72  N   UNL A   1      42.525  26.921  28.204  1.00  0.00    -0.248 NA
ATOM     73  C   UNL A   1      40.912  25.236  28.114  1.00  0.00    -0.034 C 
ATOM     74  C   UNL A   1      45.512  24.115  26.420  1.00  0.00    -0.036 A 
ATOM     75  N   UNL A   1      45.187  26.177  27.223  1.00  0.00    -0.354 N 
ATOM     76  C   UNL A   1      41.316  27.418  28.672  1.00  0.00     0.074 A 
ATOM     77  C   UNL A   1      40.345  26.353  28.547  1.00  0.00    -0.034 C 
ATOM     78  H   UNL A   1      40.493  24.304  27.974  1.00  0.00     0.065 H 
ATOM     79  C   UNL A   1      46.672  24.780  26.304  1.00  0.00    -0.036 A 
ATOM     80  H   UNL A   1      45.348  23.141  26.125  1.00  0.00     0.065 H 
ATOM     81  C   UNL A   1      46.497  26.138  26.813  1.00  0.00     0.049 A 
ATOM     82  H   UNL A   1      44.771  26.976  27.620  1.00  0.00     0.167 HD
ATOM     83  C   UNL A   1      41.047  28.644  29.181  1.00  0.00     0.037 A 
ATOM     84  H   UNL A   1      39.341  26.449  28.768  1.00  0.00     0.065 H 
ATOM     85  H   UNL A   1      47.549  24.394  25.918  1.00  0.00     0.065 H 
ATOM     86  C   UNL A   1      47.450  27.088  26.845  1.00  0.00     0.037 A 
ATOM     87  C   UNL A   1      42.015  29.701  29.321  1.00  0.00     0.049 A 
ATOM     88  C   UNL A   1      47.128  28.432  27.437  1.00  0.00     0.074 A 
ATOM     89  C   UNL A   1      41.844  30.965  29.856  1.00  0.00    -0.036 A 
ATOM     90  N   UNL A   1      43.341  29.611  28.924  1.00  0.00    -0.354 N 
ATOM     91  N   UNL A   1      45.995  28.869  27.930  1.00  0.00    -0.248 NA
ATOM     92  C   UNL A   1      48.223  29.411  27.492  1.00  0.00    -0.034 C 
ATOM     93  C   UNL A   1      43.060  31.652  29.759  1.00  0.00    -0.036 A 
ATOM     94  H   UNL A   1      40.970  31.339  30.258  1.00  0.00     0.065 H 
ATOM     95  C   UNL A   1      43.997  30.802  29.197  1.00  0.00     0.049 A 
ATOM     96  H   UNL A   1      43.755  28.820  28.511  1.00  0.00     0.167 HD
ATOM     97  C   UNL A   1      46.243  30.163  28.366  1.00  0.00     0.074 A 
ATOM     98  C   UNL A   1      47.642  30.433  28.103  1.00  0.00    -0.034 C 
ATOM     99  H   UNL A   1      49.192  29.324  27.145  1.00  0.00     0.065 H 
ATOM    100  H   UNL A   1      43.229  32.626  30.055  1.00  0.00     0.065 H 
ATOM    101  C   UNL A   1      45.389  31.051  28.928  1.00  0.00     0.037 A 
ATOM    102  H   UNL A   1      48.124  31.308  28.359  1.00  0.00     0.065 H 
BRANCH  83 103
ATOM    103  C   UNL A   1      39.646  28.907  29.648  1.00  0.00     0.064 A 
ATOM    104  C   UNL A   1      39.263  28.668  30.976  1.00  0.00     0.173 A 
ATOM    105  C   UNL A   1      38.691  29.453  28.776  1.00  0.00     0.173 A 
ATOM    106  F   UNL A   1      40.137  28.136  31.844  1.00  0.00    -0.203 F 
ATOM    107  C   UNL A   1      37.970  28.947  31.410  1.00  0.00     0.198 A 
ATOM    108  C   UNL A   1      37.405  29.754  29.221  1.00  0.00     0.198 A 
ATOM    109  F   UNL A   1      39.008  29.706  27.498  1.00  0.00    -0.203 F 
ATOM    110  F   UNL A   1      37.618  28.677  32.675  1.00  0.00    -0.200 F 
ATOM    111  C   UNL A   1      37.046  29.497  30.535  1.00  0.00     0.200 A 
ATOM    112  F   UNL A   1      36.515  30.294  28.377  1.00  0.00    -0.200 F 
ATOM    113  F   UNL A   1      35.805  29.775  30.957  1.00  0.00    -0.200 F 
ENDBRANCH  83 103
BRANCH  86 114
ATOM    114  C   UNL A   1      48.808  26.794  26.325  1.00  0.00     0.064 A 
ATOM    115  C   UNL A   1      49.139  27.045  24.986  1.00  0.00     0.173 A 
ATOM    116  C   UNL A   1      49.800  26.246  27.151  1.00  0.00     0.173 A 
ATOM    117  F   UNL A   1      48.216  27.549  24.153  1.00  0.00    -0.203 F 
ATOM    118  C   UNL A   1      50.402  26.737  24.487  1.00  0.00     0.198 A 
ATOM    119  C   UNL A   1      51.072  25.962  26.658  1.00  0.00     0.198 A 
ATOM    120  F   UNL A   1      49.534  25.993  28.442  1.00  0.00    -0.203 F 
ATOM    121  F   UNL A   1      50.676  26.943  23.192  1.00  0.00    -0.200 F 
ATOM    122  C   UNL A   1      51.368  26.200  25.325  1.00  0.00     0.200 A 
ATOM    123  F   UNL A   1      52.006  25.455  27.473  1.00  0.00    -0.200 F 
ATOM    124  F   UNL A   1      52.584  25.904  24.844  1.00  0.00    -0.200 F 
ENDBRANCH  86 114
BRANCH 101 125
ATOM    125  C   UNL A   1      45.951  32.389  29.309  1.00  0.00     0.064 A 
ATOM    126  C   UNL A   1      45.919  33.475  28.422  1.00  0.00     0.173 A 
ATOM    127  C   UNL A   1      46.509  32.591  30.580  1.00  0.00     0.173 A 
ATOM    128  F   UNL A   1      45.409  33.325  27.191  1.00  0.00    -0.203 F 
ATOM    129  C   UNL A   1      46.453  34.709  28.784  1.00  0.00     0.198 A 
ATOM    130  C   UNL A   1      47.019  33.833  30.947  1.00  0.00     0.198 A 
ATOM    131  F   UNL A   1      46.558  31.585  31.465  1.00  0.00    -0.203 F 
ATOM    132  F   UNL A   1      46.456  35.719  27.903  1.00  0.00    -0.200 F 
ATOM    133  C   UNL A   1      46.998  34.888  30.047  1.00  0.00     0.200 A 
ATOM    134  F   UNL A   1      47.538  34.008  32.170  1.00  0.00    -0.200 F 
ATOM    135  F   UNL A   1      47.513  36.076  30.392  1.00  0.00    -0.200 F 
ENDBRANCH 101 125
ENDBRANCH  66  69
ENDBRANCH  56  59
ENDBRANCH  52  55
ENDBRANCH  49  52
ENDBRANCH  46  49
ENDBRANCH   1  46
TORSDOF 17
ENDMDL
MODEL 6
REMARK VINA RESULT:     -11.3      5.694     11.320
REMARK SMILES C[C@@H](C(=O)NCCCCCCNC(=O)c1ccc(-c2c3nc(c(-c4c(F)c(F)c(F)c(F)c4F)c4ccc([nH]4)c(-c4c(F)c(F)c(F)c(F)c4F)c4nc(c(-c5c(F)c(F)c(F)c(F)c5F)c5ccc2[nH]5)C=C4)C=C3)cc1)c1ccc(NC2CCCC2)cc1F
REMARK SMILES IDX 8 1 7 4 6 7 5 10 3 11 4 12 2 14 1 16 78 20 79 21 89 22 80 23
REMARK SMILES IDX 88 25 90 26 81 27 82 30 83 32 84 33 87 34 85 36 86 39 9 46
REMARK SMILES IDX 10 49 11 52 12 55 13 56 14 58 15 59 16 60 77 61 17 62 76 64
REMARK SMILES IDX 18 66 19 69 20 70 70 71 21 72 75 73 69 74 71 75 22 76 74 77
REMARK SMILES IDX 68 79 67 81 23 83 55 86 35 87 54 88 36 89 39 90 53 91 72 92
REMARK SMILES IDX 37 93 38 95 52 97 73 98 40 101 24 103 25 104 33 105 26 106
REMARK SMILES IDX 27 107 31 108 34 109 28 110 29 111 32 112 30 113 56 114
REMARK SMILES IDX 57 115 65 116 58 117 59 118 63 119 66 120 60 121 61 122
REMARK SMILES IDX 64 123 62 124 41 125 42 126 50 127 43 128 44 129 48 130
REMARK SMILES IDX 51 131 45 132 46 133 49 134 47 135
REMARK H PARENT 8 2 8 3 7 5 7 6 6 8 6 9 5 13 2 15 1 17 1 18 1 19 79 24 80 28
REMARK H PARENT 88 29 82 31 83 35 84 37 84 38 87 40 87 41 85 42 85 43 86 44
REMARK H PARENT 86 45 9 47 9 48 10 50 10 51 11 53 11 54 12 57 16 63 77 65
REMARK H PARENT 17 67 76 68 75 78 69 80 71 82 74 84 68 85 36 94 39 96 72 99
REMARK H PARENT 37 100 73 102
REMARK Flexibility Score: inf
ROOT
ATOM      1  C   UNL A   1      36.864  21.966  24.867  1.00  0.00    -0.052 C 
ATOM      2  H   UNL A   1      36.296  22.466  25.624  1.00  0.00     0.027 H 
ATOM      3  H   UNL A   1      37.921  22.099  24.970  1.00  0.00     0.027 H 
ENDROOT
BRANCH   1   4
ATOM      4  C   UNL A   1      36.488  22.577  23.510  1.00  0.00    -0.036 C 
ATOM      5  H   UNL A   1      37.361  23.038  23.098  1.00  0.00     0.028 H 
ATOM      6  H   UNL A   1      36.116  21.776  22.907  1.00  0.00     0.028 H 
BRANCH   4   7
ATOM      7  C   UNL A   1      35.376  23.628  23.576  1.00  0.00     0.017 C 
ATOM      8  H   UNL A   1      35.773  24.581  23.295  1.00  0.00     0.049 H 
ATOM      9  H   UNL A   1      34.591  23.347  22.906  1.00  0.00     0.049 H 
BRANCH   7  10
ATOM     10  N   UNL A   1      34.842  23.710  24.920  1.00  0.00    -0.356 N 
ATOM     11  C   UNL A   1      33.548  23.846  25.336  1.00  0.00     0.227 C 
ATOM     12  O   UNL A   1      33.378  24.232  26.494  1.00  0.00    -0.274 OA
ATOM     13  H   UNL A   1      35.511  23.658  25.641  1.00  0.00     0.163 HD
BRANCH  11  14
ATOM     14  C   UNL A   1      32.393  23.492  24.379  1.00  0.00     0.063 C 
ATOM     15  H   UNL A   1      32.554  23.937  23.419  1.00  0.00     0.045 H 
BRANCH  14  16
ATOM     16  C   UNL A   1      31.102  24.071  24.968  1.00  0.00    -0.049 C 
ATOM     17  H   UNL A   1      30.258  23.584  24.527  1.00  0.00     0.024 H 
ATOM     18  H   UNL A   1      31.055  25.120  24.763  1.00  0.00     0.024 H 
ATOM     19  H   UNL A   1      31.091  23.914  26.027  1.00  0.00     0.024 H 
ENDBRANCH  14  16
BRANCH  14  20
ATOM     20  C   UNL A   1      32.333  21.997  24.051  1.00  0.00     0.000 A 
ATOM     21  C   UNL A   1      32.131  21.572  22.731  1.00  0.00    -0.053 A 
ATOM     22  C   UNL A   1      32.438  20.990  25.014  1.00  0.00     0.129 A 
ATOM     23  C   UNL A   1      32.153  20.213  22.386  1.00  0.00    -0.038 A 
ATOM     24  H   UNL A   1      31.962  22.275  21.994  1.00  0.00     0.063 H 
ATOM     25  C   UNL A   1      32.431  19.635  24.671  1.00  0.00    -0.003 A 
ATOM     26  F   UNL A   1      32.554  21.287  26.316  1.00  0.00    -0.207 F 
ATOM     27  C   UNL A   1      32.318  19.214  23.344  1.00  0.00     0.037 A 
ATOM     28  H   UNL A   1      32.045  19.944  21.395  1.00  0.00     0.064 H 
ATOM     29  H   UNL A   1      32.511  18.927  25.418  1.00  0.00     0.068 H 
BRANCH  27  30
ATOM     30  N   UNL A   1      32.397  17.865  23.067  1.00  0.00    -0.382 N 
ATOM     31  H   UNL A   1      31.763  17.538  22.389  1.00  0.00     0.160 HD
BRANCH  30  32
ATOM     32  C   UNL A   1      33.278  16.857  23.630  1.00  0.00     0.026 C 
ATOM     33  C   UNL A   1      34.655  17.369  24.034  1.00  0.00    -0.033 C 
ATOM     34  C   UNL A   1      32.715  16.122  24.846  1.00  0.00    -0.033 C 
ATOM     35  H   UNL A   1      33.369  16.183  22.803  1.00  0.00     0.053 H 
ATOM     36  C   UNL A   1      35.153  16.296  24.990  1.00  0.00    -0.051 C 
ATOM     37  H   UNL A   1      34.584  18.318  24.524  1.00  0.00     0.029 H 
ATOM     38  H   UNL A   1      35.308  17.526  23.201  1.00  0.00     0.029 H 
ATOM     39  C   UNL A   1      33.914  15.833  25.749  1.00  0.00    -0.051 C 
ATOM     40  H   UNL A   1      32.246  15.209  24.544  1.00  0.00     0.029 H 
ATOM     41  H   UNL A   1      31.972  16.705  25.350  1.00  0.00     0.029 H 
ATOM     42  H   UNL A   1      35.877  16.702  25.665  1.00  0.00     0.027 H 
ATOM     43  H   UNL A   1      35.631  15.490  24.474  1.00  0.00     0.027 H 
ATOM     44  H   UNL A   1      33.821  16.372  26.669  1.00  0.00     0.027 H 
ATOM     45  H   UNL A   1      33.975  14.793  25.989  1.00  0.00     0.027 H 
ENDBRANCH  30  32
ENDBRANCH  27  30
ENDBRANCH  14  20
ENDBRANCH  11  14
ENDBRANCH   7  10
ENDBRANCH   4   7
ENDBRANCH   1   4
BRANCH   1  46
ATOM     46  C   UNL A   1      36.608  20.464  24.998  1.00  0.00    -0.052 C 
ATOM     47  H   UNL A   1      35.993  20.160  24.176  1.00  0.00     0.027 H 
ATOM     48  H   UNL A   1      36.147  20.322  25.953  1.00  0.00     0.027 H 
BRANCH  46  49
ATOM     49  C   UNL A   1      37.863  19.585  24.998  1.00  0.00    -0.036 C 
ATOM     50  H   UNL A   1      38.185  19.468  23.984  1.00  0.00     0.028 H 
ATOM     51  H   UNL A   1      37.582  18.666  25.468  1.00  0.00     0.028 H 
BRANCH  49  52
ATOM     52  C   UNL A   1      39.038  20.133  25.806  1.00  0.00     0.018 C 
ATOM     53  H   UNL A   1      38.705  20.333  26.804  1.00  0.00     0.049 H 
ATOM     54  H   UNL A   1      39.381  21.022  25.320  1.00  0.00     0.049 H 
BRANCH  52  55
ATOM     55  N   UNL A   1      40.153  19.203  25.865  1.00  0.00    -0.352 N 
ATOM     56  C   UNL A   1      41.485  19.450  26.057  1.00  0.00     0.251 C 
ATOM     57  H   UNL A   1      39.914  18.255  25.750  1.00  0.00     0.163 HD
ATOM     58  O   UNL A   1      42.304  18.537  25.915  1.00  0.00    -0.269 OA
BRANCH  56  59
ATOM     59  C   UNL A   1      41.963  20.804  26.405  1.00  0.00     0.039 A 
ATOM     60  C   UNL A   1      42.156  21.729  25.376  1.00  0.00    -0.049 A 
ATOM     61  C   UNL A   1      42.255  21.159  27.727  1.00  0.00    -0.049 A 
ATOM     62  C   UNL A   1      42.591  23.022  25.673  1.00  0.00    -0.053 A 
ATOM     63  H   UNL A   1      41.978  21.457  24.397  1.00  0.00     0.063 H 
ATOM     64  C   UNL A   1      42.636  22.467  28.029  1.00  0.00    -0.053 A 
ATOM     65  H   UNL A   1      42.188  20.454  28.477  1.00  0.00     0.063 H 
ATOM     66  C   UNL A   1      42.809  23.409  27.005  1.00  0.00    -0.014 A 
ATOM     67  H   UNL A   1      42.752  23.697  24.910  1.00  0.00     0.063 H 
ATOM     68  H   UNL A   1      42.792  22.742  29.012  1.00  0.00     0.063 H 
BRANCH  66  69
ATOM     69  C   UNL A   1      43.209  24.802  27.328  1.00  0.00     0.031 A 
ATOM     70  C   UNL A   1      44.612  25.275  27.071  1.00  0.00     0.074 A 
ATOM     71  C   UNL A   1      42.309  25.635  27.884  1.00  0.00     0.049 A 
ATOM     72  N   UNL A   1      45.142  26.451  27.295  1.00  0.00    -0.248 NA
ATOM     73  C   UNL A   1      45.550  24.293  26.505  1.00  0.00    -0.034 C 
ATOM     74  C   UNL A   1      40.932  25.279  28.232  1.00  0.00    -0.036 A 
ATOM     75  N   UNL A   1      42.417  26.951  28.258  1.00  0.00    -0.354 N 
ATOM     76  C   UNL A   1      46.469  26.351  26.900  1.00  0.00     0.074 A 
ATOM     77  C   UNL A   1      46.679  24.986  26.468  1.00  0.00    -0.034 C 
ATOM     78  H   UNL A   1      45.373  23.319  26.213  1.00  0.00     0.065 H 
ATOM     79  C   UNL A   1      40.319  26.354  28.752  1.00  0.00    -0.036 A 
ATOM     80  H   UNL A   1      40.502  24.351  28.100  1.00  0.00     0.065 H 
ATOM     81  C   UNL A   1      41.262  27.468  28.793  1.00  0.00     0.049 A 
ATOM     82  H   UNL A   1      43.243  27.476  28.152  1.00  0.00     0.167 HD
ATOM     83  C   UNL A   1      47.419  27.316  26.876  1.00  0.00     0.037 A 
ATOM     84  H   UNL A   1      47.589  24.601  26.170  1.00  0.00     0.065 H 
ATOM     85  H   UNL A   1      39.338  26.389  29.072  1.00  0.00     0.065 H 
ATOM     86  C   UNL A   1      40.995  28.701  29.261  1.00  0.00     0.037 A 
ATOM     87  C   UNL A   1      47.208  28.679  27.290  1.00  0.00     0.049 A 
ATOM     88  C   UNL A   1      42.062  29.759  29.202  1.00  0.00     0.074 A 
ATOM     89  C   UNL A   1      48.101  29.736  27.272  1.00  0.00    -0.036 A 
ATOM     90  N   UNL A   1      46.015  29.173  27.795  1.00  0.00    -0.354 N 
ATOM     91  N   UNL A   1      43.296  29.664  28.770  1.00  0.00    -0.248 NA
ATOM     92  C   UNL A   1      41.694  31.098  29.680  1.00  0.00    -0.034 C 
ATOM     93  C   UNL A   1      47.456  30.865  27.791  1.00  0.00    -0.036 A 
ATOM     94  H   UNL A   1      49.075  29.699  26.933  1.00  0.00     0.065 H 
ATOM     95  C   UNL A   1      46.151  30.519  28.099  1.00  0.00     0.049 A 
ATOM     96  H   UNL A   1      45.193  28.646  27.920  1.00  0.00     0.167 HD
ATOM     97  C   UNL A   1      43.845  30.931  28.910  1.00  0.00     0.074 A 
ATOM     98  C   UNL A   1      42.803  31.784  29.442  1.00  0.00    -0.034 C 
ATOM     99  H   UNL A   1      40.804  31.421  30.093  1.00  0.00     0.065 H 
ATOM    100  H   UNL A   1      47.881  31.796  27.923  1.00  0.00     0.065 H 
ATOM    101  C   UNL A   1      45.103  31.350  28.628  1.00  0.00     0.037 A 
ATOM    102  H   UNL A   1      42.909  32.795  29.615  1.00  0.00     0.065 H 
BRANCH  83 103
ATOM    103  C   UNL A   1      48.777  26.938  26.365  1.00  0.00     0.064 A 
ATOM    104  C   UNL A   1      49.764  26.431  27.224  1.00  0.00     0.173 A 
ATOM    105  C   UNL A   1      49.080  27.032  24.998  1.00  0.00     0.173 A 
ATOM    106  F   UNL A   1      49.526  26.333  28.540  1.00  0.00    -0.203 F 
ATOM    107  C   UNL A   1      51.011  26.049  26.736  1.00  0.00     0.198 A 
ATOM    108  C   UNL A   1      50.321  26.627  24.510  1.00  0.00     0.198 A 
ATOM    109  F   UNL A   1      48.170  27.506  24.134  1.00  0.00    -0.203 F 
ATOM    110  F   UNL A   1      51.949  25.600  27.581  1.00  0.00    -0.200 F 
ATOM    111  C   UNL A   1      51.285  26.140  25.380  1.00  0.00     0.200 A 
ATOM    112  F   UNL A   1      50.582  26.706  23.198  1.00  0.00    -0.200 F 
ATOM    113  F   UNL A   1      52.482  25.763  24.910  1.00  0.00    -0.200 F 
ENDBRANCH  83 103
BRANCH  86 114
ATOM    114  C   UNL A   1      39.649  29.012  29.804  1.00  0.00     0.064 A 
ATOM    115  C   UNL A   1      38.636  29.519  28.977  1.00  0.00     0.173 A 
ATOM    116  C   UNL A   1      39.350  28.820  31.161  1.00  0.00     0.173 A 
ATOM    117  F   UNL A   1      38.882  29.738  27.677  1.00  0.00    -0.203 F 
ATOM    118  C   UNL A   1      37.384  29.844  29.491  1.00  0.00     0.198 A 
ATOM    119  C   UNL A   1      38.089  29.122  31.669  1.00  0.00     0.198 A 
ATOM    120  F   UNL A   1      40.284  28.332  31.991  1.00  0.00    -0.203 F 
ATOM    121  F   UNL A   1      36.450  30.372  28.689  1.00  0.00    -0.200 F 
ATOM    122  C   UNL A   1      37.110  29.642  30.836  1.00  0.00     0.200 A 
ATOM    123  F   UNL A   1      37.824  28.913  32.966  1.00  0.00    -0.200 F 
ATOM    124  F   UNL A   1      35.904  29.955  31.330  1.00  0.00    -0.200 F 
ENDBRANCH  86 114
BRANCH 101 125
ATOM    125  C   UNL A   1      45.409  32.797  28.876  1.00  0.00     0.064 A 
ATOM    126  C   UNL A   1      45.178  33.773  27.895  1.00  0.00     0.173 A 
ATOM    127  C   UNL A   1      45.922  33.215  30.113  1.00  0.00     0.173 A 
ATOM    128  F   UNL A   1      44.703  33.419  26.692  1.00  0.00    -0.203 F 
ATOM    129  C   UNL A   1      45.476  35.111  28.134  1.00  0.00     0.198 A 
ATOM    130  C   UNL A   1      46.195  34.558  30.357  1.00  0.00     0.198 A 
ATOM    131  F   UNL A   1      46.157  32.321  31.085  1.00  0.00    -0.203 F 
ATOM    132  F   UNL A   1      45.293  36.019  27.165  1.00  0.00    -0.200 F 
ATOM    133  C   UNL A   1      45.980  35.503  29.366  1.00  0.00     0.200 A 
ATOM    134  F   UNL A   1      46.675  34.937  31.549  1.00  0.00    -0.200 F 
ATOM    135  F   UNL A   1      46.268  36.792  29.592  1.00  0.00    -0.200 F 
ENDBRANCH 101 125
ENDBRANCH  66  69
ENDBRANCH  56  59
ENDBRANCH  52  55
ENDBRANCH  49  52
ENDBRANCH  46  49
ENDBRANCH   1  46
TORSDOF 17
ENDMDL
MODEL 7
REMARK VINA RESULT:     -11.3      2.526      8.557
REMARK SMILES C[C@@H](C(=O)NCCCCCCNC(=O)c1ccc(-c2c3nc(c(-c4c(F)c(F)c(F)c(F)c4F)c4ccc([nH]4)c(-c4c(F)c(F)c(F)c(F)c4F)c4nc(c(-c5c(F)c(F)c(F)c(F)c5F)c5ccc2[nH]5)C=C4)C=C3)cc1)c1ccc(NC2CCCC2)cc1F
REMARK SMILES IDX 8 1 7 4 6 7 5 10 3 11 4 12 2 14 1 16 78 20 79 21 89 22 80 23
REMARK SMILES IDX 88 25 90 26 81 27 82 30 83 32 84 33 87 34 85 36 86 39 9 46
REMARK SMILES IDX 10 49 11 52 12 55 13 56 14 58 15 59 16 60 77 61 17 62 76 64
REMARK SMILES IDX 18 66 19 69 20 70 70 71 21 72 75 73 69 74 71 75 22 76 74 77
REMARK SMILES IDX 68 79 67 81 23 83 55 86 35 87 54 88 36 89 39 90 53 91 72 92
REMARK SMILES IDX 37 93 38 95 52 97 73 98 40 101 24 103 25 104 33 105 26 106
REMARK SMILES IDX 27 107 31 108 34 109 28 110 29 111 32 112 30 113 56 114
REMARK SMILES IDX 57 115 65 116 58 117 59 118 63 119 66 120 60 121 61 122
REMARK SMILES IDX 64 123 62 124 41 125 42 126 50 127 43 128 44 129 48 130
REMARK SMILES IDX 51 131 45 132 46 133 49 134 47 135
REMARK H PARENT 8 2 8 3 7 5 7 6 6 8 6 9 5 13 2 15 1 17 1 18 1 19 79 24 80 28
REMARK H PARENT 88 29 82 31 83 35 84 37 84 38 87 40 87 41 85 42 85 43 86 44
REMARK H PARENT 86 45 9 47 9 48 10 50 10 51 11 53 11 54 12 57 16 63 77 65
REMARK H PARENT 17 67 76 68 75 78 69 80 71 82 74 84 68 85 36 94 39 96 72 99
REMARK H PARENT 37 100 73 102
REMARK Flexibility Score: inf
ROOT
ATOM      1  C   UNL A   1      31.852  29.750  27.079  1.00  0.00    -0.052 C 
ATOM      2  H   UNL A   1      31.748  30.211  28.039  1.00  0.00     0.027 H 
ATOM      3  H   UNL A   1      31.154  28.958  26.909  1.00  0.00     0.027 H 
ENDROOT
BRANCH   1   4
ATOM      4  C   UNL A   1      33.246  29.113  27.008  1.00  0.00    -0.036 C 
ATOM      5  H   UNL A   1      33.910  29.811  26.542  1.00  0.00     0.028 H 
ATOM      6  H   UNL A   1      33.527  28.880  28.014  1.00  0.00     0.028 H 
BRANCH   4   7
ATOM      7  C   UNL A   1      33.303  27.799  26.222  1.00  0.00     0.017 C 
ATOM      8  H   UNL A   1      33.161  28.003  25.182  1.00  0.00     0.049 H 
ATOM      9  H   UNL A   1      34.257  27.341  26.378  1.00  0.00     0.049 H 
BRANCH   7  10
ATOM     10  N   UNL A   1      32.265  26.898  26.679  1.00  0.00    -0.356 N 
ATOM     11  C   UNL A   1      31.829  25.725  26.132  1.00  0.00     0.227 C 
ATOM     12  O   UNL A   1      30.724  25.321  26.500  1.00  0.00    -0.274 OA
ATOM     13  H   UNL A   1      31.806  27.170  27.507  1.00  0.00     0.163 HD
BRANCH  11  14
ATOM     14  C   UNL A   1      32.723  24.965  25.132  1.00  0.00     0.063 C 
ATOM     15  H   UNL A   1      33.743  25.273  25.235  1.00  0.00     0.045 H 
BRANCH  14  16
ATOM     16  C   UNL A   1      32.253  25.321  23.717  1.00  0.00    -0.049 C 
ATOM     17  H   UNL A   1      32.551  24.552  23.038  1.00  0.00     0.024 H 
ATOM     18  H   UNL A   1      32.692  26.250  23.419  1.00  0.00     0.024 H 
ATOM     19  H   UNL A   1      31.186  25.412  23.708  1.00  0.00     0.024 H 
ENDBRANCH  14  16
BRANCH  14  20
ATOM     20  C   UNL A   1      32.793  23.463  25.424  1.00  0.00     0.000 A 
ATOM     21  C   UNL A   1      32.014  22.563  24.683  1.00  0.00    -0.053 A 
ATOM     22  C   UNL A   1      33.583  22.908  26.433  1.00  0.00     0.129 A 
ATOM     23  C   UNL A   1      32.115  21.177  24.870  1.00  0.00    -0.038 A 
ATOM     24  H   UNL A   1      31.348  22.929  23.984  1.00  0.00     0.063 H 
ATOM     25  C   UNL A   1      33.661  21.527  26.637  1.00  0.00    -0.003 A 
ATOM     26  F   UNL A   1      34.307  23.685  27.252  1.00  0.00    -0.207 F 
ATOM     27  C   UNL A   1      32.951  20.626  25.840  1.00  0.00     0.037 A 
ATOM     28  H   UNL A   1      31.557  20.548  24.273  1.00  0.00     0.064 H 
ATOM     29  H   UNL A   1      34.259  21.164  27.396  1.00  0.00     0.068 H 
BRANCH  27  30
ATOM     30  N   UNL A   1      33.134  19.274  26.043  1.00  0.00    -0.382 N 
ATOM     31  H   UNL A   1      33.390  19.018  26.958  1.00  0.00     0.160 HD
BRANCH  30  32
ATOM     32  C   UNL A   1      33.007  18.174  25.103  1.00  0.00     0.026 C 
ATOM     33  C   UNL A   1      34.186  18.008  24.153  1.00  0.00    -0.033 C 
ATOM     34  C   UNL A   1      32.774  16.807  25.748  1.00  0.00    -0.033 C 
ATOM     35  H   UNL A   1      32.137  18.474  24.556  1.00  0.00     0.053 H 
ATOM     36  C   UNL A   1      34.029  16.578  23.658  1.00  0.00    -0.051 C 
ATOM     37  H   UNL A   1      35.115  18.137  24.668  1.00  0.00     0.029 H 
ATOM     38  H   UNL A   1      34.194  18.729  23.363  1.00  0.00     0.029 H 
ATOM     39  C   UNL A   1      33.497  15.799  24.855  1.00  0.00    -0.051 C 
ATOM     40  H   UNL A   1      31.727  16.587  25.786  1.00  0.00     0.029 H 
ATOM     41  H   UNL A   1      33.139  16.778  26.753  1.00  0.00     0.029 H 
ATOM     42  H   UNL A   1      34.973  16.185  23.343  1.00  0.00     0.027 H 
ATOM     43  H   UNL A   1      33.373  16.516  22.815  1.00  0.00     0.027 H 
ATOM     44  H   UNL A   1      34.306  15.346  25.390  1.00  0.00     0.027 H 
ATOM     45  H   UNL A   1      32.838  15.016  24.544  1.00  0.00     0.027 H 
ENDBRANCH  30  32
ENDBRANCH  27  30
ENDBRANCH  14  20
ENDBRANCH  11  14
ENDBRANCH   7  10
ENDBRANCH   4   7
ENDBRANCH   1   4
BRANCH   1  46
ATOM     46  C   UNL A   1      31.565  30.808  26.012  1.00  0.00    -0.052 C 
ATOM     47  H   UNL A   1      30.659  30.536  25.511  1.00  0.00     0.027 H 
ATOM     48  H   UNL A   1      32.420  30.823  25.370  1.00  0.00     0.027 H 
BRANCH  46  49
ATOM     49  C   UNL A   1      31.403  32.238  26.537  1.00  0.00    -0.036 C 
ATOM     50  H   UNL A   1      30.616  32.237  27.262  1.00  0.00     0.028 H 
ATOM     51  H   UNL A   1      31.196  32.847  25.682  1.00  0.00     0.028 H 
BRANCH  49  52
ATOM     52  C   UNL A   1      32.647  32.834  27.192  1.00  0.00     0.018 C 
ATOM     53  H   UNL A   1      33.451  32.813  26.485  1.00  0.00     0.049 H 
ATOM     54  H   UNL A   1      32.872  32.248  28.058  1.00  0.00     0.049 H 
BRANCH  52  55
ATOM     55  N   UNL A   1      32.444  34.205  27.626  1.00  0.00    -0.352 N 
ATOM     56  C   UNL A   1      33.048  34.897  28.641  1.00  0.00     0.251 C 
ATOM     57  H   UNL A   1      31.772  34.711  27.115  1.00  0.00     0.163 HD
ATOM     58  O   UNL A   1      32.625  36.012  28.959  1.00  0.00    -0.269 OA
BRANCH  56  59
ATOM     59  C   UNL A   1      34.189  34.317  29.380  1.00  0.00     0.039 A 
ATOM     60  C   UNL A   1      33.925  33.551  30.519  1.00  0.00    -0.049 A 
ATOM     61  C   UNL A   1      35.511  34.548  28.985  1.00  0.00    -0.049 A 
ATOM     62  C   UNL A   1      34.979  32.975  31.231  1.00  0.00    -0.053 A 
ATOM     63  H   UNL A   1      32.952  33.412  30.834  1.00  0.00     0.063 H 
ATOM     64  C   UNL A   1      36.560  33.927  29.664  1.00  0.00    -0.053 A 
ATOM     65  H   UNL A   1      35.710  35.176  28.191  1.00  0.00     0.063 H 
ATOM     66  C   UNL A   1      36.303  33.137  30.794  1.00  0.00    -0.014 A 
ATOM     67  H   UNL A   1      34.783  32.428  32.084  1.00  0.00     0.063 H 
ATOM     68  H   UNL A   1      37.530  34.050  29.333  1.00  0.00     0.063 H 
BRANCH  66  69
ATOM     69  C   UNL A   1      37.419  32.472  31.513  1.00  0.00     0.031 A 
ATOM     70  C   UNL A   1      38.153  31.319  30.889  1.00  0.00     0.074 A 
ATOM     71  C   UNL A   1      37.751  32.893  32.749  1.00  0.00     0.049 A 
ATOM     72  N   UNL A   1      39.146  30.614  31.371  1.00  0.00    -0.248 NA
ATOM     73  C   UNL A   1      37.702  30.888  29.557  1.00  0.00    -0.034 C 
ATOM     74  C   UNL A   1      37.079  33.966  33.484  1.00  0.00    -0.036 A 
ATOM     75  N   UNL A   1      38.734  32.467  33.607  1.00  0.00    -0.354 N 
ATOM     76  C   UNL A   1      39.436  29.659  30.405  1.00  0.00     0.074 A 
ATOM     77  C   UNL A   1      38.484  29.842  29.331  1.00  0.00    -0.034 C 
ATOM     78  H   UNL A   1      36.968  31.295  28.956  1.00  0.00     0.065 H 
ATOM     79  C   UNL A   1      37.679  34.126  34.674  1.00  0.00    -0.036 A 
ATOM     80  H   UNL A   1      36.273  34.511  33.142  1.00  0.00     0.065 H 
ATOM     81  C   UNL A   1      38.764  33.155  34.794  1.00  0.00     0.049 A 
ATOM     82  H   UNL A   1      39.359  31.737  33.391  1.00  0.00     0.167 HD
ATOM     83  C   UNL A   1      40.423  28.731  30.403  1.00  0.00     0.037 A 
ATOM     84  H   UNL A   1      38.422  29.237  28.497  1.00  0.00     0.065 H 
ATOM     85  H   UNL A   1      37.418  34.822  35.389  1.00  0.00     0.065 H 
ATOM     86  C   UNL A   1      39.576  33.021  35.859  1.00  0.00     0.037 A 
ATOM     87  C   UNL A   1      41.382  28.559  31.464  1.00  0.00     0.049 A 
ATOM     88  C   UNL A   1      40.677  31.997  35.820  1.00  0.00     0.074 A 
ATOM     89  C   UNL A   1      42.438  27.667  31.537  1.00  0.00    -0.036 A 
ATOM     90  N   UNL A   1      41.401  29.298  32.637  1.00  0.00    -0.354 N 
ATOM     91  N   UNL A   1      40.977  31.140  34.875  1.00  0.00    -0.248 NA
ATOM     92  C   UNL A   1      41.563  31.933  36.991  1.00  0.00    -0.034 C 
ATOM     93  C   UNL A   1      43.081  27.849  32.767  1.00  0.00    -0.036 A 
ATOM     94  H   UNL A   1      42.707  26.986  30.810  1.00  0.00     0.065 H 
ATOM     95  C   UNL A   1      42.447  28.877  33.443  1.00  0.00     0.049 A 
ATOM     96  H   UNL A   1      40.766  30.015  32.863  1.00  0.00     0.167 HD
ATOM     97  C   UNL A   1      42.091  30.448  35.328  1.00  0.00     0.074 A 
ATOM     98  C   UNL A   1      42.431  31.002  36.622  1.00  0.00    -0.034 C 
ATOM     99  H   UNL A   1      41.521  32.472  37.871  1.00  0.00     0.065 H 
ATOM    100  H   UNL A   1      43.889  27.307  33.112  1.00  0.00     0.065 H 
ATOM    101  C   UNL A   1      42.769  29.440  34.728  1.00  0.00     0.037 A 
ATOM    102  H   UNL A   1      43.244  30.708  37.185  1.00  0.00     0.065 H 
BRANCH  83 103
ATOM    103  C   UNL A   1      40.531  27.838  29.204  1.00  0.00     0.064 A 
ATOM    104  C   UNL A   1      39.737  26.689  29.077  1.00  0.00     0.173 A 
ATOM    105  C   UNL A   1      41.397  28.159  28.147  1.00  0.00     0.173 A 
ATOM    106  F   UNL A   1      38.902  26.334  30.065  1.00  0.00    -0.203 F 
ATOM    107  C   UNL A   1      39.818  25.883  27.944  1.00  0.00     0.198 A 
ATOM    108  C   UNL A   1      41.457  27.363  27.005  1.00  0.00     0.198 A 
ATOM    109  F   UNL A   1      42.175  29.249  28.217  1.00  0.00    -0.203 F 
ATOM    110  F   UNL A   1      39.074  24.772  27.861  1.00  0.00    -0.200 F 
ATOM    111  C   UNL A   1      40.671  26.225  26.907  1.00  0.00     0.200 A 
ATOM    112  F   UNL A   1      42.276  27.700  25.998  1.00  0.00    -0.200 F 
ATOM    113  F   UNL A   1      40.741  25.454  25.813  1.00  0.00    -0.200 F 
ENDBRANCH  83 103
BRANCH  86 114
ATOM    114  C   UNL A   1      39.397  33.896  37.044  1.00  0.00     0.064 A 
ATOM    115  C   UNL A   1      39.951  35.183  37.081  1.00  0.00     0.173 A 
ATOM    116  C   UNL A   1      38.678  33.461  38.167  1.00  0.00     0.173 A 
ATOM    117  F   UNL A   1      40.665  35.634  36.039  1.00  0.00    -0.203 F 
ATOM    118  C   UNL A   1      39.814  35.993  38.206  1.00  0.00     0.198 A 
ATOM    119  C   UNL A   1      38.519  34.282  39.281  1.00  0.00     0.198 A 
ATOM    120  F   UNL A   1      38.123  32.239  38.177  1.00  0.00    -0.203 F 
ATOM    121  F   UNL A   1      40.394  37.200  38.234  1.00  0.00    -0.200 F 
ATOM    122  C   UNL A   1      39.095  35.543  39.303  1.00  0.00     0.200 A 
ATOM    123  F   UNL A   1      37.813  33.848  40.334  1.00  0.00    -0.200 F 
ATOM    124  F   UNL A   1      38.962  36.323  40.385  1.00  0.00    -0.200 F 
ENDBRANCH  86 114
BRANCH 101 125
ATOM    125  C   UNL A   1      43.954  28.886  35.462  1.00  0.00     0.064 A 
ATOM    126  C   UNL A   1      45.244  29.397  35.260  1.00  0.00     0.173 A 
ATOM    127  C   UNL A   1      43.795  27.847  36.391  1.00  0.00     0.173 A 
ATOM    128  F   UNL A   1      45.448  30.380  34.371  1.00  0.00    -0.203 F 
ATOM    129  C   UNL A   1      46.338  28.868  35.940  1.00  0.00     0.198 A 
ATOM    130  C   UNL A   1      44.887  27.337  37.087  1.00  0.00     0.198 A 
ATOM    131  F   UNL A   1      42.580  27.327  36.622  1.00  0.00    -0.203 F 
ATOM    132  F   UNL A   1      47.568  29.339  35.695  1.00  0.00    -0.200 F 
ATOM    133  C   UNL A   1      46.157  27.841  36.856  1.00  0.00     0.200 A 
ATOM    134  F   UNL A   1      44.711  26.350  37.977  1.00  0.00    -0.200 F 
ATOM    135  F   UNL A   1      47.211  27.332  37.508  1.00  0.00    -0.200 F 
ENDBRANCH 101 125
ENDBRANCH  66  69
ENDBRANCH  56  59
ENDBRANCH  52  55
ENDBRANCH  49  52
ENDBRANCH  46  49
ENDBRANCH   1  46
TORSDOF 17
ENDMDL
MODEL 8
REMARK VINA RESULT:     -11.3      0.581      7.367
REMARK SMILES C[C@@H](C(=O)NCCCCCCNC(=O)c1ccc(-c2c3nc(c(-c4c(F)c(F)c(F)c(F)c4F)c4ccc([nH]4)c(-c4c(F)c(F)c(F)c(F)c4F)c4nc(c(-c5c(F)c(F)c(F)c(F)c5F)c5ccc2[nH]5)C=C4)C=C3)cc1)c1ccc(NC2CCCC2)cc1F
REMARK SMILES IDX 8 1 7 4 6 7 5 10 3 11 4 12 2 14 1 16 78 20 79 21 89 22 80 23
REMARK SMILES IDX 88 25 90 26 81 27 82 30 83 32 84 33 87 34 85 36 86 39 9 46
REMARK SMILES IDX 10 49 11 52 12 55 13 56 14 58 15 59 16 60 77 61 17 62 76 64
REMARK SMILES IDX 18 66 19 69 20 70 70 71 21 72 75 73 69 74 71 75 22 76 74 77
REMARK SMILES IDX 68 79 67 81 23 83 55 86 35 87 54 88 36 89 39 90 53 91 72 92
REMARK SMILES IDX 37 93 38 95 52 97 73 98 40 101 24 103 25 104 33 105 26 106
REMARK SMILES IDX 27 107 31 108 34 109 28 110 29 111 32 112 30 113 56 114
REMARK SMILES IDX 57 115 65 116 58 117 59 118 63 119 66 120 60 121 61 122
REMARK SMILES IDX 64 123 62 124 41 125 42 126 50 127 43 128 44 129 48 130
REMARK SMILES IDX 51 131 45 132 46 133 49 134 47 135
REMARK H PARENT 8 2 8 3 7 5 7 6 6 8 6 9 5 13 2 15 1 17 1 18 1 19 79 24 80 28
REMARK H PARENT 88 29 82 31 83 35 84 37 84 38 87 40 87 41 85 42 85 43 86 44
REMARK H PARENT 86 45 9 47 9 48 10 50 10 51 11 53 11 54 12 57 16 63 77 65
REMARK H PARENT 17 67 76 68 75 78 69 80 71 82 74 84 68 85 36 94 39 96 72 99
REMARK H PARENT 37 100 73 102
REMARK Flexibility Score: inf
ROOT
ATOM      1  C   UNL A   1      32.365  29.607  26.128  1.00  0.00    -0.052 C 
ATOM      2  H   UNL A   1      32.745  29.061  25.290  1.00  0.00     0.027 H 
ATOM      3  H   UNL A   1      33.119  30.145  26.665  1.00  0.00     0.027 H 
ENDROOT
BRANCH   1   4
ATOM      4  C   UNL A   1      31.773  28.597  27.122  1.00  0.00    -0.036 C 
ATOM      5  H   UNL A   1      31.978  28.945  28.113  1.00  0.00     0.028 H 
ATOM      6  H   UNL A   1      30.727  28.538  26.910  1.00  0.00     0.028 H 
BRANCH   4   7
ATOM      7  C   UNL A   1      32.329  27.176  26.987  1.00  0.00     0.017 C 
ATOM      8  H   UNL A   1      32.842  26.910  27.888  1.00  0.00     0.049 H 
ATOM      9  H   UNL A   1      31.519  26.500  26.814  1.00  0.00     0.049 H 
BRANCH   7  10
ATOM     10  N   UNL A   1      33.252  27.103  25.872  1.00  0.00    -0.356 N 
ATOM     11  C   UNL A   1      33.234  26.282  24.781  1.00  0.00     0.227 C 
ATOM     12  O   UNL A   1      34.290  26.170  24.156  1.00  0.00    -0.274 OA
ATOM     13  H   UNL A   1      34.002  27.740  25.905  1.00  0.00     0.163 HD
BRANCH  11  14
ATOM     14  C   UNL A   1      31.925  25.577  24.372  1.00  0.00     0.063 C 
ATOM     15  H   UNL A   1      31.454  25.139  25.228  1.00  0.00     0.045 H 
BRANCH  14  16
ATOM     16  C   UNL A   1      32.284  24.453  23.394  1.00  0.00    -0.049 C 
ATOM     17  H   UNL A   1      33.095  23.879  23.791  1.00  0.00     0.024 H 
ATOM     18  H   UNL A   1      32.574  24.876  22.454  1.00  0.00     0.024 H 
ATOM     19  H   UNL A   1      31.434  23.818  23.251  1.00  0.00     0.024 H 
ENDBRANCH  14  16
BRANCH  14  20
ATOM     20  C   UNL A   1      30.861  26.553  23.863  1.00  0.00     0.000 A 
ATOM     21  C   UNL A   1      31.198  27.536  22.921  1.00  0.00    -0.053 A 
ATOM     22  C   UNL A   1      29.538  26.555  24.309  1.00  0.00     0.129 A 
ATOM     23  C   UNL A   1      30.230  28.391  22.374  1.00  0.00    -0.038 A 
ATOM     24  H   UNL A   1      32.181  27.633  22.623  1.00  0.00     0.063 H 
ATOM     25  C   UNL A   1      28.580  27.428  23.783  1.00  0.00    -0.003 A 
ATOM     26  F   UNL A   1      29.128  25.709  25.265  1.00  0.00    -0.207 F 
ATOM     27  C   UNL A   1      28.898  28.348  22.781  1.00  0.00     0.037 A 
ATOM     28  H   UNL A   1      30.512  29.070  21.651  1.00  0.00     0.064 H 
ATOM     29  H   UNL A   1      27.614  27.392  24.145  1.00  0.00     0.068 H 
BRANCH  27  30
ATOM     30  N   UNL A   1      27.890  29.125  22.251  1.00  0.00    -0.382 N 
ATOM     31  H   UNL A   1      27.226  28.639  21.709  1.00  0.00     0.160 HD
BRANCH  30  32
ATOM     32  C   UNL A   1      27.664  30.554  22.372  1.00  0.00     0.026 C 
ATOM     33  C   UNL A   1      28.424  31.225  23.510  1.00  0.00    -0.033 C 
ATOM     34  C   UNL A   1      27.972  31.360  21.110  1.00  0.00    -0.033 C 
ATOM     35  H   UNL A   1      26.613  30.577  22.574  1.00  0.00     0.053 H 
ATOM     36  C   UNL A   1      28.401  32.694  23.118  1.00  0.00    -0.051 C 
ATOM     37  H   UNL A   1      29.427  30.858  23.570  1.00  0.00     0.029 H 
ATOM     38  H   UNL A   1      27.993  31.038  24.471  1.00  0.00     0.029 H 
ATOM     39  C   UNL A   1      28.517  32.703  21.598  1.00  0.00    -0.051 C 
ATOM     40  H   UNL A   1      27.082  31.505  20.534  1.00  0.00     0.029 H 
ATOM     41  H   UNL A   1      28.675  30.854  20.482  1.00  0.00     0.029 H 
ATOM     42  H   UNL A   1      29.226  33.213  23.560  1.00  0.00     0.027 H 
ATOM     43  H   UNL A   1      27.512  33.185  23.456  1.00  0.00     0.027 H 
ATOM     44  H   UNL A   1      29.539  32.814  21.306  1.00  0.00     0.027 H 
ATOM     45  H   UNL A   1      27.968  33.518  21.175  1.00  0.00     0.027 H 
ENDBRANCH  30  32
ENDBRANCH  27  30
ENDBRANCH  14  20
ENDBRANCH  11  14
ENDBRANCH   7  10
ENDBRANCH   4   7
ENDBRANCH   1   4
BRANCH   1  46
ATOM     46  C   UNL A   1      31.383  30.657  25.605  1.00  0.00    -0.052 C 
ATOM     47  H   UNL A   1      30.422  30.195  25.514  1.00  0.00     0.027 H 
ATOM     48  H   UNL A   1      31.782  30.999  24.673  1.00  0.00     0.027 H 
BRANCH  46  49
ATOM     49  C   UNL A   1      31.228  31.901  26.484  1.00  0.00    -0.036 C 
ATOM     50  H   UNL A   1      30.596  31.646  27.310  1.00  0.00     0.028 H 
ATOM     51  H   UNL A   1      30.821  32.662  25.852  1.00  0.00     0.028 H 
BRANCH  49  52
ATOM     52  C   UNL A   1      32.531  32.467  27.044  1.00  0.00     0.018 C 
ATOM     53  H   UNL A   1      33.293  32.379  26.297  1.00  0.00     0.049 H 
ATOM     54  H   UNL A   1      32.778  31.909  27.923  1.00  0.00     0.049 H 
BRANCH  52  55
ATOM     55  N   UNL A   1      32.412  33.863  27.426  1.00  0.00    -0.352 N 
ATOM     56  C   UNL A   1      33.098  34.569  28.378  1.00  0.00     0.251 C 
ATOM     57  H   UNL A   1      31.738  34.378  26.926  1.00  0.00     0.163 HD
ATOM     58  O   UNL A   1      32.741  35.714  28.667  1.00  0.00    -0.269 OA
BRANCH  56  59
ATOM     59  C   UNL A   1      34.247  33.967  29.086  1.00  0.00     0.039 A 
ATOM     60  C   UNL A   1      33.994  33.041  30.102  1.00  0.00    -0.049 A 
ATOM     61  C   UNL A   1      35.564  34.330  28.785  1.00  0.00    -0.049 A 
ATOM     62  C   UNL A   1      35.057  32.442  30.780  1.00  0.00    -0.053 A 
ATOM     63  H   UNL A   1      33.022  32.801  30.351  1.00  0.00     0.063 H 
ATOM     64  C   UNL A   1      36.627  33.692  29.424  1.00  0.00    -0.053 A 
ATOM     65  H   UNL A   1      35.749  35.071  28.091  1.00  0.00     0.063 H 
ATOM     66  C   UNL A   1      36.383  32.743  30.428  1.00  0.00    -0.014 A 
ATOM     67  H   UNL A   1      34.868  31.775  31.543  1.00  0.00     0.063 H 
ATOM     68  H   UNL A   1      37.598  33.918  29.157  1.00  0.00     0.063 H 
BRANCH  66  69
ATOM     69  C   UNL A   1      37.514  32.059  31.104  1.00  0.00     0.031 A 
ATOM     70  C   UNL A   1      38.299  30.993  30.394  1.00  0.00     0.074 A 
ATOM     71  C   UNL A   1      37.815  32.382  32.377  1.00  0.00     0.049 A 
ATOM     72  N   UNL A   1      39.311  30.285  30.828  1.00  0.00    -0.248 NA
ATOM     73  C   UNL A   1      37.880  30.663  29.023  1.00  0.00    -0.034 C 
ATOM     74  C   UNL A   1      37.094  33.362  33.192  1.00  0.00    -0.036 A 
ATOM     75  N   UNL A   1      38.802  31.919  33.210  1.00  0.00    -0.354 N 
ATOM     76  C   UNL A   1      39.649  29.429  29.788  1.00  0.00     0.074 A 
ATOM     77  C   UNL A   1      38.704  29.670  28.719  1.00  0.00    -0.034 C 
ATOM     78  H   UNL A   1      37.139  31.094  28.449  1.00  0.00     0.065 H 
ATOM     79  C   UNL A   1      37.673  33.438  34.400  1.00  0.00    -0.036 A 
ATOM     80  H   UNL A   1      36.272  33.905  32.887  1.00  0.00     0.065 H 
ATOM     81  C   UNL A   1      38.791  32.501  34.453  1.00  0.00     0.049 A 
ATOM     82  H   UNL A   1      39.457  31.234  32.942  1.00  0.00     0.167 HD
ATOM     83  C   UNL A   1      40.671  28.542  29.721  1.00  0.00     0.037 A 
ATOM     84  H   UNL A   1      38.675  29.139  27.835  1.00  0.00     0.065 H 
ATOM     85  H   UNL A   1      37.376  34.060  35.169  1.00  0.00     0.065 H 
ATOM     86  C   UNL A   1      39.595  32.304  35.515  1.00  0.00     0.037 A 
ATOM     87  C   UNL A   1      41.622  28.312  30.777  1.00  0.00     0.049 A 
ATOM     88  C   UNL A   1      40.734  31.329  35.405  1.00  0.00     0.074 A 
ATOM     89  C   UNL A   1      42.710  27.457  30.790  1.00  0.00    -0.036 A 
ATOM     90  N   UNL A   1      41.599  28.946  32.010  1.00  0.00    -0.354 N 
ATOM     91  N   UNL A   1      41.077  30.569  34.393  1.00  0.00    -0.248 NA
ATOM     92  C   UNL A   1      41.607  31.195  36.579  1.00  0.00    -0.034 C 
ATOM     93  C   UNL A   1      43.330  27.553  32.041  1.00  0.00    -0.036 A 
ATOM     94  H   UNL A   1      43.013  26.852  30.010  1.00  0.00     0.065 H 
ATOM     95  C   UNL A   1      42.650  28.495  32.793  1.00  0.00     0.049 A 
ATOM     96  H   UNL A   1      40.934  29.617  32.289  1.00  0.00     0.167 HD
ATOM     97  C   UNL A   1      42.211  29.881  34.801  1.00  0.00     0.074 A 
ATOM     98  C   UNL A   1      42.514  30.332  36.145  1.00  0.00    -0.034 C 
ATOM     99  H   UNL A   1      41.533  31.653  37.502  1.00  0.00     0.065 H 
ATOM    100  H   UNL A   1      44.154  27.014  32.350  1.00  0.00     0.065 H 
ATOM    101  C   UNL A   1      42.934  28.955  34.127  1.00  0.00     0.037 A 
ATOM    102  H   UNL A   1      43.330  30.020  36.693  1.00  0.00     0.065 H 
BRANCH  83 103
ATOM    103  C   UNL A   1      40.827  27.761  28.450  1.00  0.00     0.064 A 
ATOM    104  C   UNL A   1      41.639  28.226  27.405  1.00  0.00     0.173 A 
ATOM    105  C   UNL A   1      40.204  26.513  28.294  1.00  0.00     0.173 A 
ATOM    106  F   UNL A   1      42.246  29.418  27.502  1.00  0.00    -0.203 F 
ATOM    107  C   UNL A   1      41.807  27.479  26.242  1.00  0.00     0.198 A 
ATOM    108  C   UNL A   1      40.395  25.758  27.139  1.00  0.00     0.198 A 
ATOM    109  F   UNL A   1      39.422  26.021  29.267  1.00  0.00    -0.203 F 
ATOM    110  F   UNL A   1      42.560  27.959  25.243  1.00  0.00    -0.200 F 
ATOM    111  C   UNL A   1      41.192  26.243  26.114  1.00  0.00     0.200 A 
ATOM    112  F   UNL A   1      39.808  24.559  27.020  1.00  0.00    -0.200 F 
ATOM    113  F   UNL A   1      41.363  25.521  24.998  1.00  0.00    -0.200 F 
ENDBRANCH  83 103
BRANCH  86 114
ATOM    114  C   UNL A   1      39.368  33.066  36.768  1.00  0.00     0.064 A 
ATOM    115  C   UNL A   1      38.462  32.610  37.736  1.00  0.00     0.173 A 
ATOM    116  C   UNL A   1      40.042  34.269  37.020  1.00  0.00     0.173 A 
ATOM    117  F   UNL A   1      37.778  31.475  37.530  1.00  0.00    -0.203 F 
ATOM    118  C   UNL A   1      38.220  33.341  38.897  1.00  0.00     0.198 A 
ATOM    119  C   UNL A   1      39.820  34.987  38.193  1.00  0.00     0.198 A 
ATOM    120  F   UNL A   1      40.924  34.744  36.127  1.00  0.00    -0.203 F 
ATOM    121  F   UNL A   1      37.314  32.907  39.783  1.00  0.00    -0.200 F 
ATOM    122  C   UNL A   1      38.903  34.526  39.125  1.00  0.00     0.200 A 
ATOM    123  F   UNL A   1      40.490  36.125  38.416  1.00  0.00    -0.200 F 
ATOM    124  F   UNL A   1      38.671  35.230  40.243  1.00  0.00    -0.200 F 
ENDBRANCH  86 114
BRANCH 101 125
ATOM    125  C   UNL A   1      44.130  28.382  34.829  1.00  0.00     0.064 A 
ATOM    126  C   UNL A   1      44.038  27.207  35.589  1.00  0.00     0.173 A 
ATOM    127  C   UNL A   1      45.383  29.004  34.726  1.00  0.00     0.173 A 
ATOM    128  F   UNL A   1      42.858  26.585  35.729  1.00  0.00    -0.203 F 
ATOM    129  C   UNL A   1      45.153  26.690  36.244  1.00  0.00     0.198 A 
ATOM    130  C   UNL A   1      46.500  28.471  35.362  1.00  0.00     0.198 A 
ATOM    131  F   UNL A   1      45.523  30.128  34.007  1.00  0.00    -0.203 F 
ATOM    132  F   UNL A   1      45.031  25.593  37.004  1.00  0.00    -0.200 F 
ATOM    133  C   UNL A   1      46.383  27.320  36.126  1.00  0.00     0.200 A 
ATOM    134  F   UNL A   1      47.690  29.075  35.242  1.00  0.00    -0.200 F 
ATOM    135  F   UNL A   1      47.454  26.822  36.759  1.00  0.00    -0.200 F 
ENDBRANCH 101 125
ENDBRANCH  66  69
ENDBRANCH  56  59
ENDBRANCH  52  55
ENDBRANCH  49  52
ENDBRANCH  46  49
ENDBRANCH   1  46
TORSDOF 17
ENDMDL
MODEL 9
REMARK VINA RESULT:     -11.3      2.433      4.640
REMARK SMILES C[C@@H](C(=O)NCCCCCCNC(=O)c1ccc(-c2c3nc(c(-c4c(F)c(F)c(F)c(F)c4F)c4ccc([nH]4)c(-c4c(F)c(F)c(F)c(F)c4F)c4nc(c(-c5c(F)c(F)c(F)c(F)c5F)c5ccc2[nH]5)C=C4)C=C3)cc1)c1ccc(NC2CCCC2)cc1F
REMARK SMILES IDX 8 1 7 4 6 7 5 10 3 11 4 12 2 14 1 16 78 20 79 21 89 22 80 23
REMARK SMILES IDX 88 25 90 26 81 27 82 30 83 32 84 33 87 34 85 36 86 39 9 46
REMARK SMILES IDX 10 49 11 52 12 55 13 56 14 58 15 59 16 60 77 61 17 62 76 64
REMARK SMILES IDX 18 66 19 69 20 70 70 71 21 72 75 73 69 74 71 75 22 76 74 77
REMARK SMILES IDX 68 79 67 81 23 83 55 86 35 87 54 88 36 89 39 90 53 91 72 92
REMARK SMILES IDX 37 93 38 95 52 97 73 98 40 101 24 103 25 104 33 105 26 106
REMARK SMILES IDX 27 107 31 108 34 109 28 110 29 111 32 112 30 113 56 114
REMARK SMILES IDX 57 115 65 116 58 117 59 118 63 119 66 120 60 121 61 122
REMARK SMILES IDX 64 123 62 124 41 125 42 126 50 127 43 128 44 129 48 130
REMARK SMILES IDX 51 131 45 132 46 133 49 134 47 135
REMARK H PARENT 8 2 8 3 7 5 7 6 6 8 6 9 5 13 2 15 1 17 1 18 1 19 79 24 80 28
REMARK H PARENT 88 29 82 31 83 35 84 37 84 38 87 40 87 41 85 42 85 43 86 44
REMARK H PARENT 86 45 9 47 9 48 10 50 10 51 11 53 11 54 12 57 16 63 77 65
REMARK H PARENT 17 67 76 68 75 78 69 80 71 82 74 84 68 85 36 94 39 96 72 99
REMARK H PARENT 37 100 73 102
REMARK Flexibility Score: inf
ROOT
ATOM      1  C   UNL A   1      32.387  30.020  26.847  1.00  0.00    -0.052 C 
ATOM      2  H   UNL A   1      33.157  29.705  26.175  1.00  0.00     0.027 H 
ATOM      3  H   UNL A   1      32.741  30.645  27.640  1.00  0.00     0.027 H 
ENDROOT
BRANCH   1   4
ATOM      4  C   UNL A   1      31.802  28.770  27.518  1.00  0.00    -0.036 C 
ATOM      5  H   UNL A   1      31.950  28.857  28.574  1.00  0.00     0.028 H 
ATOM      6  H   UNL A   1      30.768  28.732  27.245  1.00  0.00     0.028 H 
BRANCH   4   7
ATOM      7  C   UNL A   1      32.427  27.451  27.053  1.00  0.00     0.017 C 
ATOM      8  H   UNL A   1      32.930  27.607  26.122  1.00  0.00     0.049 H 
ATOM      9  H   UNL A   1      33.122  27.115  27.793  1.00  0.00     0.049 H 
BRANCH   7  10
ATOM     10  N   UNL A   1      31.400  26.444  26.879  1.00  0.00    -0.356 N 
ATOM     11  C   UNL A   1      31.379  25.355  26.055  1.00  0.00     0.227 C 
ATOM     12  O   UNL A   1      30.277  24.850  25.833  1.00  0.00    -0.274 OA
ATOM     13  H   UNL A   1      30.597  26.562  27.438  1.00  0.00     0.163 HD
BRANCH  11  14
ATOM     14  C   UNL A   1      32.699  24.802  25.481  1.00  0.00     0.063 C 
ATOM     15  H   UNL A   1      33.531  25.145  26.061  1.00  0.00     0.045 H 
BRANCH  14  16
ATOM     16  C   UNL A   1      32.851  25.341  24.054  1.00  0.00    -0.049 C 
ATOM     17  H   UNL A   1      33.869  25.621  23.885  1.00  0.00     0.024 H 
ATOM     18  H   UNL A   1      32.220  26.196  23.926  1.00  0.00     0.024 H 
ATOM     19  H   UNL A   1      32.569  24.582  23.354  1.00  0.00     0.024 H 
ENDBRANCH  14  16
BRANCH  14  20
ATOM     20  C   UNL A   1      32.806  23.280  25.605  1.00  0.00     0.000 A 
ATOM     21  C   UNL A   1      33.659  22.708  26.560  1.00  0.00    -0.053 A 
ATOM     22  C   UNL A   1      32.113  22.387  24.785  1.00  0.00     0.129 A 
ATOM     23  C   UNL A   1      33.718  21.320  26.754  1.00  0.00    -0.038 A 
ATOM     24  H   UNL A   1      34.258  23.322  27.134  1.00  0.00     0.063 H 
ATOM     25  C   UNL A   1      32.196  21.002  24.961  1.00  0.00    -0.003 A 
ATOM     26  F   UNL A   1      31.332  22.827  23.788  1.00  0.00    -0.207 F 
ATOM     27  C   UNL A   1      32.979  20.436  25.971  1.00  0.00     0.037 A 
ATOM     28  H   UNL A   1      34.326  20.943  27.498  1.00  0.00     0.064 H 
ATOM     29  H   UNL A   1      31.665  20.382  24.329  1.00  0.00     0.068 H 
BRANCH  27  30
ATOM     30  N   UNL A   1      32.954  19.068  26.140  1.00  0.00    -0.382 N 
ATOM     31  H   UNL A   1      32.963  18.761  27.076  1.00  0.00     0.160 HD
BRANCH  30  32
ATOM     32  C   UNL A   1      32.918  18.014  25.142  1.00  0.00     0.026 C 
ATOM     33  C   UNL A   1      34.101  18.005  24.182  1.00  0.00    -0.033 C 
ATOM     34  C   UNL A   1      32.810  16.598  25.710  1.00  0.00    -0.033 C 
ATOM     35  H   UNL A   1      32.022  18.266  24.614  1.00  0.00     0.053 H 
ATOM     36  C   UNL A   1      34.067  16.597  23.609  1.00  0.00    -0.051 C 
ATOM     37  H   UNL A   1      35.019  18.187  24.702  1.00  0.00     0.029 H 
ATOM     38  H   UNL A   1      34.040  18.766  23.433  1.00  0.00     0.029 H 
ATOM     39  C   UNL A   1      33.614  15.708  24.763  1.00  0.00    -0.051 C 
ATOM     40  H   UNL A   1      31.788  16.286  25.739  1.00  0.00     0.029 H 
ATOM     41  H   UNL A   1      33.183  16.546  26.712  1.00  0.00     0.029 H 
ATOM     42  H   UNL A   1      35.040  16.306  23.271  1.00  0.00     0.027 H 
ATOM     43  H   UNL A   1      33.413  16.523  22.765  1.00  0.00     0.027 H 
ATOM     44  H   UNL A   1      34.463  15.301  25.270  1.00  0.00     0.027 H 
ATOM     45  H   UNL A   1      33.024  14.889  24.409  1.00  0.00     0.027 H 
ENDBRANCH  30  32
ENDBRANCH  27  30
ENDBRANCH  14  20
ENDBRANCH  11  14
ENDBRANCH   7  10
ENDBRANCH   4   7
ENDBRANCH   1   4
BRANCH   1  46
ATOM     46  C   UNL A   1      31.384  30.863  26.056  1.00  0.00    -0.052 C 
ATOM     47  H   UNL A   1      30.418  30.415  26.162  1.00  0.00     0.027 H 
ATOM     48  H   UNL A   1      31.740  30.880  25.047  1.00  0.00     0.027 H 
BRANCH  46  49
ATOM     49  C   UNL A   1      31.275  32.327  26.492  1.00  0.00    -0.036 C 
ATOM     50  H   UNL A   1      30.521  32.392  27.249  1.00  0.00     0.028 H 
ATOM     51  H   UNL A   1      31.044  32.884  25.609  1.00  0.00     0.028 H 
BRANCH  49  52
ATOM     52  C   UNL A   1      32.559  32.935  27.052  1.00  0.00     0.018 C 
ATOM     53  H   UNL A   1      33.282  32.997  26.265  1.00  0.00     0.049 H 
ATOM     54  H   UNL A   1      32.899  32.305  27.848  1.00  0.00     0.049 H 
BRANCH  52  55
ATOM     55  N   UNL A   1      32.352  34.264  27.600  1.00  0.00    -0.352 N 
ATOM     56  C   UNL A   1      32.997  34.894  28.631  1.00  0.00     0.251 C 
ATOM     57  H   UNL A   1      31.643  34.790  27.166  1.00  0.00     0.163 HD
ATOM     58  O   UNL A   1      32.569  35.970  29.056  1.00  0.00    -0.269 OA
BRANCH  56  59
ATOM     59  C   UNL A   1      34.187  34.287  29.263  1.00  0.00     0.039 A 
ATOM     60  C   UNL A   1      34.003  33.450  30.366  1.00  0.00    -0.049 A 
ATOM     61  C   UNL A   1      35.480  34.563  28.803  1.00  0.00    -0.049 A 
ATOM     62  C   UNL A   1      35.106  32.848  30.976  1.00  0.00    -0.053 A 
ATOM     63  H   UNL A   1      33.053  33.276  30.730  1.00  0.00     0.063 H 
ATOM     64  C   UNL A   1      36.576  33.919  29.378  1.00  0.00    -0.053 A 
ATOM     65  H   UNL A   1      35.622  35.242  28.040  1.00  0.00     0.063 H 
ATOM     66  C   UNL A   1      36.399  33.057  30.470  1.00  0.00    -0.014 A 
ATOM     67  H   UNL A   1      34.970  32.246  31.803  1.00  0.00     0.063 H 
ATOM     68  H   UNL A   1      37.523  34.077  28.997  1.00  0.00     0.063 H 
BRANCH  66  69
ATOM     69  C   UNL A   1      37.565  32.368  31.078  1.00  0.00     0.031 A 
ATOM     70  C   UNL A   1      38.054  32.752  32.446  1.00  0.00     0.074 A 
ATOM     71  C   UNL A   1      38.203  31.410  30.378  1.00  0.00     0.049 A 
ATOM     72  N   UNL A   1      39.059  32.265  33.131  1.00  0.00    -0.248 NA
ATOM     73  C   UNL A   1      37.333  33.838  33.127  1.00  0.00    -0.034 C 
ATOM     74  C   UNL A   1      37.858  30.985  29.020  1.00  0.00    -0.036 A 
ATOM     75  N   UNL A   1      39.278  30.624  30.710  1.00  0.00    -0.354 N 
ATOM     76  C   UNL A   1      39.091  32.983  34.319  1.00  0.00     0.074 A 
ATOM     77  C   UNL A   1      38.037  33.973  34.242  1.00  0.00    -0.034 C 
ATOM     78  H   UNL A   1      36.498  34.358  32.818  1.00  0.00     0.065 H 
ATOM     79  C   UNL A   1      38.694  30.005  28.641  1.00  0.00    -0.036 A 
ATOM     80  H   UNL A   1      37.096  31.377  28.446  1.00  0.00     0.065 H 
ATOM     81  C   UNL A   1      39.644  29.746  29.719  1.00  0.00     0.049 A 
ATOM     82  H   UNL A   1      39.743  30.683  31.576  1.00  0.00     0.167 HD
ATOM     83  C   UNL A   1      39.908  32.816  35.386  1.00  0.00     0.037 A 
ATOM     84  H   UNL A   1      37.856  34.689  34.963  1.00  0.00     0.065 H 
ATOM     85  H   UNL A   1      38.668  29.513  27.734  1.00  0.00     0.065 H 
ATOM     86  C   UNL A   1      40.632  28.833  29.686  1.00  0.00     0.037 A 
ATOM     87  C   UNL A   1      40.946  31.822  35.470  1.00  0.00     0.049 A 
ATOM     88  C   UNL A   1      41.510  28.654  30.894  1.00  0.00     0.074 A 
ATOM     89  C   UNL A   1      41.804  31.555  36.523  1.00  0.00    -0.036 A 
ATOM     90  N   UNL A   1      41.265  30.928  34.459  1.00  0.00    -0.354 N 
ATOM     91  N   UNL A   1      41.491  29.301  32.033  1.00  0.00    -0.248 NA
ATOM     92  C   UNL A   1      42.538  27.606  30.815  1.00  0.00    -0.034 C 
ATOM     93  C   UNL A   1      42.660  30.516  36.140  1.00  0.00    -0.036 A 
ATOM     94  H   UNL A   1      41.811  32.038  37.435  1.00  0.00     0.065 H 
ATOM     95  C   UNL A   1      42.311  30.112  34.862  1.00  0.00     0.049 A 
ATOM     96  H   UNL A   1      40.815  30.879  33.585  1.00  0.00     0.167 HD
ATOM     97  C   UNL A   1      42.488  28.730  32.812  1.00  0.00     0.074 A 
ATOM     98  C   UNL A   1      43.078  27.667  32.024  1.00  0.00    -0.034 C 
ATOM     99  H   UNL A   1      42.777  26.985  30.026  1.00  0.00     0.065 H 
ATOM    100  H   UNL A   1      43.422  30.119  36.711  1.00  0.00     0.065 H 
ATOM    101  C   UNL A   1      42.885  29.061  34.064  1.00  0.00     0.037 A 
ATOM    102  H   UNL A   1      43.824  27.039  32.360  1.00  0.00     0.065 H 
BRANCH  83 103
ATOM    103  C   UNL A   1      39.701  33.719  36.565  1.00  0.00     0.064 A 
ATOM    104  C   UNL A   1      38.852  33.355  37.621  1.00  0.00     0.173 A 
ATOM    105  C   UNL A   1      40.395  34.934  36.668  1.00  0.00     0.173 A 
ATOM    106  F   UNL A   1      38.157  32.209  37.563  1.00  0.00    -0.203 F 
ATOM    107  C   UNL A   1      38.691  34.183  38.729  1.00  0.00     0.198 A 
ATOM    108  C   UNL A   1      40.250  35.748  37.790  1.00  0.00     0.198 A 
ATOM    109  F   UNL A   1      41.223  35.326  35.689  1.00  0.00    -0.203 F 
ATOM    110  F   UNL A   1      37.848  33.830  39.709  1.00  0.00    -0.200 F 
ATOM    111  C   UNL A   1      39.395  35.373  38.816  1.00  0.00     0.200 A 
ATOM    112  F   UNL A   1      40.939  36.894  37.878  1.00  0.00    -0.200 F 
ATOM    113  F   UNL A   1      39.248  36.165  39.887  1.00  0.00    -0.200 F 
ENDBRANCH  83 103
BRANCH  86 114
ATOM    114  C   UNL A   1      40.829  27.997  28.475  1.00  0.00     0.064 A 
ATOM    115  C   UNL A   1      40.208  26.746  28.353  1.00  0.00     0.173 A 
ATOM    116  C   UNL A   1      41.648  28.426  27.421  1.00  0.00     0.173 A 
ATOM    117  F   UNL A   1      39.433  26.285  29.345  1.00  0.00    -0.203 F 
ATOM    118  C   UNL A   1      40.420  25.944  27.234  1.00  0.00     0.198 A 
ATOM    119  C   UNL A   1      41.838  27.636  26.290  1.00  0.00     0.198 A 
ATOM    120  F   UNL A   1      42.259  29.619  27.489  1.00  0.00    -0.203 F 
ATOM    121  F   UNL A   1      39.853  24.733  27.164  1.00  0.00    -0.200 F 
ATOM    122  C   UNL A   1      41.231  26.392  26.202  1.00  0.00     0.200 A 
ATOM    123  F   UNL A   1      42.613  28.076  25.290  1.00  0.00    -0.200 F 
ATOM    124  F   UNL A   1      41.434  25.621  25.124  1.00  0.00    -0.200 F 
ENDBRANCH  86 114
BRANCH 101 125
ATOM    125  C   UNL A   1      43.998  28.252  34.661  1.00  0.00     0.064 A 
ATOM    126  C   UNL A   1      43.744  27.063  35.362  1.00  0.00     0.173 A 
ATOM    127  C   UNL A   1      45.332  28.658  34.515  1.00  0.00     0.173 A 
ATOM    128  F   UNL A   1      42.483  26.642  35.541  1.00  0.00    -0.203 F 
ATOM    129  C   UNL A   1      44.785  26.326  35.920  1.00  0.00     0.198 A 
ATOM    130  C   UNL A   1      46.372  27.906  35.053  1.00  0.00     0.198 A 
ATOM    131  F   UNL A   1      45.627  29.786  33.850  1.00  0.00    -0.203 F 
ATOM    132  F   UNL A   1      44.515  25.220  36.627  1.00  0.00    -0.200 F 
ATOM    133  C   UNL A   1      46.097  26.746  35.762  1.00  0.00     0.200 A 
ATOM    134  F   UNL A   1      47.641  28.307  34.894  1.00  0.00    -0.200 F 
ATOM    135  F   UNL A   1      47.097  26.036  36.301  1.00  0.00    -0.200 F 
ENDBRANCH 101 125
ENDBRANCH  66  69
ENDBRANCH  56  59
ENDBRANCH  52  55
ENDBRANCH  49  52
ENDBRANCH  46  49
ENDBRANCH   1  46
TORSDOF 17
ENDMDL
MODEL 10
REMARK VINA RESULT:     -11.3      4.919     10.549
REMARK SMILES C[C@@H](C(=O)NCCCCCCNC(=O)c1ccc(-c2c3nc(c(-c4c(F)c(F)c(F)c(F)c4F)c4ccc([nH]4)c(-c4c(F)c(F)c(F)c(F)c4F)c4nc(c(-c5c(F)c(F)c(F)c(F)c5F)c5ccc2[nH]5)C=C4)C=C3)cc1)c1ccc(NC2CCCC2)cc1F
REMARK SMILES IDX 8 1 7 4 6 7 5 10 3 11 4 12 2 14 1 16 78 20 79 21 89 22 80 23
REMARK SMILES IDX 88 25 90 26 81 27 82 30 83 32 84 33 87 34 85 36 86 39 9 46
REMARK SMILES IDX 10 49 11 52 12 55 13 56 14 58 15 59 16 60 77 61 17 62 76 64
REMARK SMILES IDX 18 66 19 69 20 70 70 71 21 72 75 73 69 74 71 75 22 76 74 77
REMARK SMILES IDX 68 79 67 81 23 83 55 86 35 87 54 88 36 89 39 90 53 91 72 92
REMARK SMILES IDX 37 93 38 95 52 97 73 98 40 101 24 103 25 104 33 105 26 106
REMARK SMILES IDX 27 107 31 108 34 109 28 110 29 111 32 112 30 113 56 114
REMARK SMILES IDX 57 115 65 116 58 117 59 118 63 119 66 120 60 121 61 122
REMARK SMILES IDX 64 123 62 124 41 125 42 126 50 127 43 128 44 129 48 130
REMARK SMILES IDX 51 131 45 132 46 133 49 134 47 135
REMARK H PARENT 8 2 8 3 7 5 7 6 6 8 6 9 5 13 2 15 1 17 1 18 1 19 79 24 80 28
REMARK H PARENT 88 29 82 31 83 35 84 37 84 38 87 40 87 41 85 42 85 43 86 44
REMARK H PARENT 86 45 9 47 9 48 10 50 10 51 11 53 11 54 12 57 16 63 77 65
REMARK H PARENT 17 67 76 68 75 78 69 80 71 82 74 84 68 85 36 94 39 96 72 99
REMARK H PARENT 37 100 73 102
REMARK Flexibility Score: inf
ROOT
ATOM      1  C   UNL A   1      34.917  24.250  23.874  1.00  0.00    -0.052 C 
ATOM      2  H   UNL A   1      34.283  23.905  24.664  1.00  0.00     0.027 H 
ATOM      3  H   UNL A   1      35.543  25.070  24.157  1.00  0.00     0.027 H 
ENDROOT
BRANCH   1   4
ATOM      4  C   UNL A   1      34.022  24.768  22.740  1.00  0.00    -0.036 C 
ATOM      5  H   UNL A   1      34.638  24.946  21.883  1.00  0.00     0.028 H 
ATOM      6  H   UNL A   1      33.280  24.017  22.569  1.00  0.00     0.028 H 
BRANCH   4   7
ATOM      7  C   UNL A   1      33.269  26.061  23.068  1.00  0.00     0.017 C 
ATOM      8  H   UNL A   1      33.712  26.874  22.531  1.00  0.00     0.049 H 
ATOM      9  H   UNL A   1      32.245  25.949  22.782  1.00  0.00     0.049 H 
BRANCH   7  10
ATOM     10  N   UNL A   1      33.336  26.333  24.489  1.00  0.00    -0.356 N 
ATOM     11  C   UNL A   1      32.424  26.067  25.470  1.00  0.00     0.227 C 
ATOM     12  O   UNL A   1      32.551  26.690  26.526  1.00  0.00    -0.274 OA
ATOM     13  H   UNL A   1      34.163  26.773  24.794  1.00  0.00     0.163 HD
BRANCH  11  14
ATOM     14  C   UNL A   1      31.326  25.011  25.232  1.00  0.00     0.063 C 
ATOM     15  H   UNL A   1      31.002  25.033  24.212  1.00  0.00     0.045 H 
BRANCH  14  16
ATOM     16  C   UNL A   1      30.132  25.366  26.125  1.00  0.00    -0.049 C 
ATOM     17  H   UNL A   1      29.223  25.114  25.621  1.00  0.00     0.024 H 
ATOM     18  H   UNL A   1      30.143  26.415  26.336  1.00  0.00     0.024 H 
ATOM     19  H   UNL A   1      30.196  24.818  27.042  1.00  0.00     0.024 H 
ENDBRANCH  14  16
BRANCH  14  20
ATOM     20  C   UNL A   1      31.841  23.577  25.391  1.00  0.00     0.000 A 
ATOM     21  C   UNL A   1      32.538  23.203  26.549  1.00  0.00    -0.053 A 
ATOM     22  C   UNL A   1      31.687  22.588  24.418  1.00  0.00     0.129 A 
ATOM     23  C   UNL A   1      32.951  21.879  26.761  1.00  0.00    -0.038 A 
ATOM     24  H   UNL A   1      32.754  23.918  27.261  1.00  0.00     0.063 H 
ATOM     25  C   UNL A   1      32.125  21.276  24.620  1.00  0.00    -0.003 A 
ATOM     26  F   UNL A   1      31.104  22.860  23.241  1.00  0.00    -0.207 F 
ATOM     27  C   UNL A   1      32.741  20.882  25.810  1.00  0.00     0.037 A 
ATOM     28  H   UNL A   1      33.422  21.636  27.646  1.00  0.00     0.064 H 
ATOM     29  H   UNL A   1      31.988  20.579  23.870  1.00  0.00     0.068 H 
BRANCH  27  30
ATOM     30  N   UNL A   1      33.076  19.556  25.976  1.00  0.00    -0.382 N 
ATOM     31  H   UNL A   1      33.440  19.322  26.861  1.00  0.00     0.160 HD
BRANCH  30  32
ATOM     32  C   UNL A   1      32.974  18.452  25.037  1.00  0.00     0.026 C 
ATOM     33  C   UNL A   1      34.248  18.164  24.252  1.00  0.00    -0.033 C 
ATOM     34  C   UNL A   1      32.536  17.124  25.655  1.00  0.00    -0.033 C 
ATOM     35  H   UNL A   1      32.214  18.818  24.377  1.00  0.00     0.053 H 
ATOM     36  C   UNL A   1      34.028  16.745  23.751  1.00  0.00    -0.051 C 
ATOM     37  H   UNL A   1      35.109  18.220  24.883  1.00  0.00     0.029 H 
ATOM     38  H   UNL A   1      34.424  18.866  23.463  1.00  0.00     0.029 H 
ATOM     39  C   UNL A   1      33.276  16.039  24.874  1.00  0.00    -0.051 C 
ATOM     40  H   UNL A   1      31.478  16.999  25.558  1.00  0.00     0.029 H 
ATOM     41  H   UNL A   1      32.763  17.083  26.700  1.00  0.00     0.029 H 
ATOM     42  H   UNL A   1      34.966  16.263  23.567  1.00  0.00     0.027 H 
ATOM     43  H   UNL A   1      33.484  16.724  22.830  1.00  0.00     0.027 H 
ATOM     44  H   UNL A   1      33.963  15.527  25.515  1.00  0.00     0.027 H 
ATOM     45  H   UNL A   1      32.595  15.312  24.484  1.00  0.00     0.027 H 
ENDBRANCH  30  32
ENDBRANCH  27  30
ENDBRANCH  14  20
ENDBRANCH  11  14
ENDBRANCH   7  10
ENDBRANCH   4   7
ENDBRANCH   1   4
BRANCH   1  46
ATOM     46  C   UNL A   1      35.859  23.107  23.489  1.00  0.00    -0.052 C 
ATOM     47  H   UNL A   1      36.858  23.491  23.481  1.00  0.00     0.027 H 
ATOM     48  H   UNL A   1      35.528  22.757  22.534  1.00  0.00     0.027 H 
BRANCH  46  49
ATOM     49  C   UNL A   1      35.827  21.893  24.421  1.00  0.00    -0.036 C 
ATOM     50  H   UNL A   1      36.219  21.053  23.885  1.00  0.00     0.028 H 
ATOM     51  H   UNL A   1      34.806  21.772  24.718  1.00  0.00     0.028 H 
BRANCH  49  52
ATOM     52  C   UNL A   1      36.628  22.044  25.713  1.00  0.00     0.018 C 
ATOM     53  H   UNL A   1      35.959  21.964  26.544  1.00  0.00     0.049 H 
ATOM     54  H   UNL A   1      37.110  22.999  25.687  1.00  0.00     0.049 H 
BRANCH  52  55
ATOM     55  N   UNL A   1      37.661  21.031  25.847  1.00  0.00    -0.352 N 
ATOM     56  C   UNL A   1      38.994  21.175  26.126  1.00  0.00     0.251 C 
ATOM     57  H   UNL A   1      37.357  20.104  25.719  1.00  0.00     0.163 HD
ATOM     58  O   UNL A   1      39.746  20.201  26.042  1.00  0.00    -0.269 OA
BRANCH  56  59
ATOM     59  C   UNL A   1      39.551  22.491  26.502  1.00  0.00     0.039 A 
ATOM     60  C   UNL A   1      40.482  22.549  27.542  1.00  0.00    -0.049 A 
ATOM     61  C   UNL A   1      39.140  23.668  25.867  1.00  0.00    -0.049 A 
ATOM     62  C   UNL A   1      41.040  23.774  27.911  1.00  0.00    -0.053 A 
ATOM     63  H   UNL A   1      40.758  21.686  28.037  1.00  0.00     0.063 H 
ATOM     64  C   UNL A   1      39.737  24.885  26.199  1.00  0.00    -0.053 A 
ATOM     65  H   UNL A   1      38.395  23.637  25.154  1.00  0.00     0.063 H 
ATOM     66  C   UNL A   1      40.691  24.948  27.225  1.00  0.00    -0.014 A 
ATOM     67  H   UNL A   1      41.712  23.817  28.693  1.00  0.00     0.063 H 
ATOM     68  H   UNL A   1      39.476  25.742  25.687  1.00  0.00     0.063 H 
BRANCH  66  69
ATOM     69  C   UNL A   1      41.331  26.242  27.574  1.00  0.00     0.031 A 
ATOM     70  C   UNL A   1      42.746  26.533  27.162  1.00  0.00     0.074 A 
ATOM     71  C   UNL A   1      40.640  27.147  28.294  1.00  0.00     0.049 A 
ATOM     72  N   UNL A   1      43.469  27.602  27.384  1.00  0.00    -0.248 NA
ATOM     73  C   UNL A   1      43.450  25.476  26.418  1.00  0.00    -0.034 C 
ATOM     74  C   UNL A   1      39.279  26.961  28.800  1.00  0.00    -0.036 A 
ATOM     75  N   UNL A   1      40.988  28.401  28.728  1.00  0.00    -0.354 N 
ATOM     76  C   UNL A   1      44.708  27.348  26.810  1.00  0.00     0.074 A 
ATOM     77  C   UNL A   1      44.657  26.005  26.274  1.00  0.00    -0.034 C 
ATOM     78  H   UNL A   1      43.096  24.563  26.095  1.00  0.00     0.065 H 
ATOM     79  C   UNL A   1      38.901  28.067  29.461  1.00  0.00    -0.036 A 
ATOM     80  H   UNL A   1      38.702  26.115  28.671  1.00  0.00     0.065 H 
ATOM     81  C   UNL A   1      39.998  29.031  29.443  1.00  0.00     0.049 A 
ATOM     82  H   UNL A   1      41.863  28.812  28.545  1.00  0.00     0.167 HD
ATOM     83  C   UNL A   1      45.781  28.169  26.718  1.00  0.00     0.037 A 
ATOM     84  H   UNL A   1      45.456  25.522  25.834  1.00  0.00     0.065 H 
ATOM     85  H   UNL A   1      37.983  28.213  29.910  1.00  0.00     0.065 H 
ATOM     86  C   UNL A   1      39.976  30.249  30.015  1.00  0.00     0.037 A 
ATOM     87  C   UNL A   1      45.827  29.512  27.237  1.00  0.00     0.049 A 
ATOM     88  C   UNL A   1      41.174  31.148  29.877  1.00  0.00     0.074 A 
ATOM     89  C   UNL A   1      46.858  30.432  27.163  1.00  0.00    -0.036 A 
ATOM     90  N   UNL A   1      44.792  30.127  27.925  1.00  0.00    -0.354 N 
ATOM     91  N   UNL A   1      42.318  30.916  29.281  1.00  0.00    -0.248 NA
ATOM     92  C   UNL A   1      41.071  32.484  30.480  1.00  0.00    -0.034 C 
ATOM     93  C   UNL A   1      46.458  31.595  27.830  1.00  0.00    -0.036 A 
ATOM     94  H   UNL A   1      47.767  30.286  26.696  1.00  0.00     0.065 H 
ATOM     95  C   UNL A   1      45.164  31.412  28.287  1.00  0.00     0.049 A 
ATOM     96  H   UNL A   1      43.922  29.712  28.127  1.00  0.00     0.167 HD
ATOM     97  C   UNL A   1      43.063  32.079  29.421  1.00  0.00     0.074 A 
ATOM     98  C   UNL A   1      42.232  33.025  30.138  1.00  0.00    -0.034 C 
ATOM     99  H   UNL A   1      40.297  32.895  31.026  1.00  0.00     0.065 H 
ATOM    100  H   UNL A   1      47.030  32.445  27.960  1.00  0.00     0.065 H 
ATOM    101  C   UNL A   1      44.324  32.338  29.000  1.00  0.00     0.037 A 
ATOM    102  H   UNL A   1      42.508  33.994  30.355  1.00  0.00     0.065 H 
BRANCH  83 103
ATOM    103  C   UNL A   1      46.994  27.646  26.009  1.00  0.00     0.064 A 
ATOM    104  C   UNL A   1      47.109  27.718  24.613  1.00  0.00     0.173 A 
ATOM    105  C   UNL A   1      48.074  27.117  26.732  1.00  0.00     0.173 A 
ATOM    106  F   UNL A   1      46.099  28.205  23.877  1.00  0.00    -0.203 F 
ATOM    107  C   UNL A   1      48.254  27.262  23.964  1.00  0.00     0.198 A 
ATOM    108  C   UNL A   1      49.227  26.684  26.081  1.00  0.00     0.198 A 
ATOM    109  F   UNL A   1      48.016  27.031  28.069  1.00  0.00    -0.203 F 
ATOM    110  F   UNL A   1      48.327  27.309  22.627  1.00  0.00    -0.200 F 
ATOM    111  C   UNL A   1      49.314  26.753  24.699  1.00  0.00     0.200 A 
ATOM    112  F   UNL A   1      50.255  26.202  26.793  1.00  0.00    -0.200 F 
ATOM    113  F   UNL A   1      50.419  26.324  24.074  1.00  0.00    -0.200 F 
ENDBRANCH  83 103
BRANCH  86 114
ATOM    114  C   UNL A   1      38.769  30.701  30.749  1.00  0.00     0.064 A 
ATOM    115  C   UNL A   1      37.732  31.374  30.088  1.00  0.00     0.173 A 
ATOM    116  C   UNL A   1      38.632  30.482  32.128  1.00  0.00     0.173 A 
ATOM    117  F   UNL A   1      37.828  31.625  28.774  1.00  0.00    -0.203 F 
ATOM    118  C   UNL A   1      36.614  31.831  30.782  1.00  0.00     0.198 A 
ATOM    119  C   UNL A   1      37.501  30.916  32.816  1.00  0.00     0.198 A 
ATOM    120  F   UNL A   1      39.595  29.838  32.804  1.00  0.00    -0.203 F 
ATOM    121  F   UNL A   1      35.659  32.512  30.135  1.00  0.00    -0.200 F 
ATOM    122  C   UNL A   1      36.498  31.598  32.144  1.00  0.00     0.200 A 
ATOM    123  F   UNL A   1      37.387  30.679  34.130  1.00  0.00    -0.200 F 
ATOM    124  F   UNL A   1      35.422  32.037  32.812  1.00  0.00    -0.200 F 
ENDBRANCH  86 114
BRANCH 101 125
ATOM    125  C   UNL A   1      44.871  33.704  29.292  1.00  0.00     0.064 A 
ATOM    126  C   UNL A   1      45.583  33.970  30.471  1.00  0.00     0.173 A 
ATOM    127  C   UNL A   1      44.698  34.752  28.376  1.00  0.00     0.173 A 
ATOM    128  F   UNL A   1      45.761  33.004  31.384  1.00  0.00    -0.203 F 
ATOM    129  C   UNL A   1      46.078  35.244  30.735  1.00  0.00     0.198 A 
ATOM    130  C   UNL A   1      45.215  36.018  28.632  1.00  0.00     0.198 A 
ATOM    131  F   UNL A   1      44.027  34.546  27.232  1.00  0.00    -0.203 F 
ATOM    132  F   UNL A   1      46.713  35.488  31.889  1.00  0.00    -0.200 F 
ATOM    133  C   UNL A   1      45.897  36.266  29.813  1.00  0.00     0.200 A 
ATOM    134  F   UNL A   1      45.047  37.003  27.738  1.00  0.00    -0.200 F 
ATOM    135  F   UNL A   1      46.372  37.492  30.071  1.00  0.00    -0.200 F 
ENDBRANCH 101 125
ENDBRANCH  66  69
ENDBRANCH  56  59
ENDBRANCH  52  55
ENDBRANCH  49  52
ENDBRANCH  46  49
ENDBRANCH   1  46
TORSDOF 17
ENDMDL
