MODEL 1
REMARK VINA RESULT:     -12.7      0.000      0.000
REMARK SMILES Cc1ccc2c(c1)c(-c1ccnc3c(C)cccc13)c(C)n2CC(=O)NCCCCCCNC(=O)c1ccc(-c2c3nc(c(-c4c(F)c(F)c(F)c(F)c4F)c4ccc([nH]4)c(-c4c(F)c(F)c(F)c(F)c4F)c4nc(c(-c5c(F)c(F)c(F)c(F)c5F)c5ccc2[nH]5)C=C4)C=C3)cc1
REMARK SMILES IDX 29 1 28 4 27 7 26 10 24 11 25 12 23 14 22 17 2 18 3 19 7 20
REMARK SMILES IDX 4 21 6 23 5 25 8 27 20 28 1 29 9 33 10 34 19 35 11 36 13 38
REMARK SMILES IDX 18 39 12 40 14 42 17 43 16 45 15 48 21 52 30 56 31 59 32 62
REMARK SMILES IDX 33 65 34 66 35 68 36 69 37 70 98 71 38 72 97 74 39 76 40 79
REMARK SMILES IDX 41 80 91 81 42 82 96 83 90 84 92 85 43 86 95 87 89 89 88 91
REMARK SMILES IDX 44 93 76 96 56 97 75 98 57 99 60 100 74 101 93 102 58 103
REMARK SMILES IDX 59 105 73 107 94 108 61 111 45 113 46 114 54 115 47 116
REMARK SMILES IDX 48 117 52 118 55 119 49 120 50 121 53 122 51 123 77 124
REMARK SMILES IDX 78 125 86 126 79 127 80 128 84 129 87 130 81 131 82 132
REMARK SMILES IDX 85 133 83 134 62 135 63 136 71 137 64 138 65 139 69 140
REMARK SMILES IDX 72 141 66 142 67 143 70 144 68 145
REMARK H PARENT 29 2 29 3 28 5 28 6 27 8 27 9 26 13 23 15 23 16 3 22 7 24 4 26
REMARK H PARENT 1 30 1 31 1 32 10 37 11 41 18 44 17 46 16 47 15 49 15 50 15 51
REMARK H PARENT 21 53 21 54 21 55 30 57 30 58 31 60 31 61 32 63 32 64 33 67
REMARK H PARENT 37 73 98 75 38 77 97 78 96 88 90 90 92 92 95 94 89 95 57 104
REMARK H PARENT 60 106 93 109 58 110 94 112
REMARK Flexibility Score: inf
ROOT
ATOM      1  C   UNL A   1      41.908  20.746  27.389  1.00  0.00    -0.052 C 
ATOM      2  H   UNL A   1      41.440  21.087  28.290  1.00  0.00     0.027 H 
ATOM      3  H   UNL A   1      42.816  21.265  27.165  1.00  0.00     0.027 H 
ENDROOT
BRANCH   1   4
ATOM      4  C   UNL A   1      40.952  21.017  26.220  1.00  0.00    -0.036 C 
ATOM      5  H   UNL A   1      41.486  21.564  25.472  1.00  0.00     0.028 H 
ATOM      6  H   UNL A   1      40.611  20.065  25.873  1.00  0.00     0.028 H 
BRANCH   4   7
ATOM      7  C   UNL A   1      39.710  21.817  26.604  1.00  0.00     0.017 C 
ATOM      8  H   UNL A   1      39.079  21.209  27.217  1.00  0.00     0.049 H 
ATOM      9  H   UNL A   1      40.022  22.693  27.133  1.00  0.00     0.049 H 
BRANCH   7  10
ATOM     10  N   UNL A   1      38.968  22.234  25.430  1.00  0.00    -0.355 N 
ATOM     11  C   UNL A   1      37.700  21.904  25.043  1.00  0.00     0.239 C 
ATOM     12  O   UNL A   1      37.299  22.349  23.962  1.00  0.00    -0.273 OA
ATOM     13  H   UNL A   1      39.448  22.842  24.823  1.00  0.00     0.163 HD
BRANCH  11  14
ATOM     14  C   UNL A   1      36.789  21.092  25.943  1.00  0.00     0.102 C 
ATOM     15  H   UNL A   1      37.076  20.064  25.874  1.00  0.00     0.060 H 
ATOM     16  H   UNL A   1      36.900  21.486  26.932  1.00  0.00     0.060 H 
BRANCH  14  17
ATOM     17  N   UNL A   1      35.371  21.195  25.607  1.00  0.00    -0.335 N 
ATOM     18  C   UNL A   1      32.819  18.651  23.527  1.00  0.00    -0.050 A 
ATOM     19  C   UNL A   1      34.068  18.133  23.870  1.00  0.00    -0.057 A 
ATOM     20  C   UNL A   1      32.469  19.945  23.946  1.00  0.00    -0.049 A 
ATOM     21  C   UNL A   1      34.987  18.883  24.610  1.00  0.00    -0.037 A 
ATOM     22  H   UNL A   1      34.319  17.178  23.572  1.00  0.00     0.063 H 
ATOM     23  C   UNL A   1      33.384  20.727  24.686  1.00  0.00     0.008 A 
ATOM     24  H   UNL A   1      31.539  20.326  23.710  1.00  0.00     0.063 H 
ATOM     25  C   UNL A   1      34.640  20.194  24.981  1.00  0.00     0.049 A 
ATOM     26  H   UNL A   1      35.900  18.482  24.878  1.00  0.00     0.065 H 
ATOM     27  C   UNL A   1      33.340  22.036  25.246  1.00  0.00     0.011 A 
ATOM     28  C   UNL A   1      34.561  22.287  25.856  1.00  0.00     0.024 A 
BRANCH  18  29
ATOM     29  C   UNL A   1      31.884  17.836  22.683  1.00  0.00    -0.040 C 
ATOM     30  H   UNL A   1      30.874  18.050  22.961  1.00  0.00     0.028 H 
ATOM     31  H   UNL A   1      32.083  16.796  22.834  1.00  0.00     0.028 H 
ATOM     32  H   UNL A   1      32.030  18.082  21.651  1.00  0.00     0.028 H 
ENDBRANCH  18  29
BRANCH  27  33
ATOM     33  C   UNL A   1      32.253  23.010  25.220  1.00  0.00    -0.005 A 
ATOM     34  C   UNL A   1      31.358  23.017  26.286  1.00  0.00    -0.035 A 
ATOM     35  C   UNL A   1      32.113  23.951  24.167  1.00  0.00     0.008 A 
ATOM     36  C   UNL A   1      30.366  23.971  26.283  1.00  0.00     0.028 A 
ATOM     37  H   UNL A   1      31.435  22.328  27.053  1.00  0.00     0.065 H 
ATOM     38  C   UNL A   1      31.069  24.898  24.267  1.00  0.00     0.074 A 
ATOM     39  C   UNL A   1      32.964  23.982  23.039  1.00  0.00    -0.052 A 
ATOM     40  N   UNL A   1      30.216  24.896  25.312  1.00  0.00    -0.256 NA
ATOM     41  H   UNL A   1      29.698  23.979  27.070  1.00  0.00     0.084 H 
ATOM     42  C   UNL A   1      30.940  25.858  23.248  1.00  0.00    -0.025 A 
ATOM     43  C   UNL A   1      32.810  24.921  22.028  1.00  0.00    -0.061 A 
ATOM     44  H   UNL A   1      33.722  23.287  22.965  1.00  0.00     0.063 H 
ATOM     45  C   UNL A   1      31.800  25.861  22.135  1.00  0.00    -0.057 A 
ATOM     46  H   UNL A   1      33.438  24.917  21.210  1.00  0.00     0.062 H 
ATOM     47  H   UNL A   1      31.678  26.568  21.394  1.00  0.00     0.063 H 
BRANCH  42  48
ATOM     48  C   UNL A   1      29.880  26.927  23.302  1.00  0.00    -0.038 C 
ATOM     49  H   UNL A   1      29.119  26.711  22.582  1.00  0.00     0.028 H 
ATOM     50  H   UNL A   1      30.320  27.877  23.081  1.00  0.00     0.028 H 
ATOM     51  H   UNL A   1      29.449  26.952  24.281  1.00  0.00     0.028 H 
ENDBRANCH  42  48
ENDBRANCH  27  33
BRANCH  28  52
ATOM     52  C   UNL A   1      35.007  23.504  26.602  1.00  0.00    -0.024 C 
ATOM     53  H   UNL A   1      35.609  24.114  25.962  1.00  0.00     0.030 H 
ATOM     54  H   UNL A   1      35.580  23.208  27.456  1.00  0.00     0.030 H 
ATOM     55  H   UNL A   1      34.149  24.059  26.922  1.00  0.00     0.030 H 
ENDBRANCH  28  52
ENDBRANCH  14  17
ENDBRANCH  11  14
ENDBRANCH   7  10
ENDBRANCH   4   7
ENDBRANCH   1   4
BRANCH   1  56
ATOM     56  C   UNL A   1      42.286  19.274  27.577  1.00  0.00    -0.052 C 
ATOM     57  H   UNL A   1      41.480  18.786  28.081  1.00  0.00     0.027 H 
ATOM     58  H   UNL A   1      43.201  19.269  28.131  1.00  0.00     0.027 H 
BRANCH  56  59
ATOM     59  C   UNL A   1      42.568  18.508  26.280  1.00  0.00    -0.036 C 
ATOM     60  H   UNL A   1      42.101  19.032  25.474  1.00  0.00     0.028 H 
ATOM     61  H   UNL A   1      42.177  17.521  26.419  1.00  0.00     0.028 H 
BRANCH  59  62
ATOM     62  C   UNL A   1      44.054  18.346  25.949  1.00  0.00     0.018 C 
ATOM     63  H   UNL A   1      44.306  17.310  26.036  1.00  0.00     0.049 H 
ATOM     64  H   UNL A   1      44.594  18.961  26.638  1.00  0.00     0.049 H 
BRANCH  62  65
ATOM     65  N   UNL A   1      44.412  18.792  24.619  1.00  0.00    -0.352 N 
ATOM     66  C   UNL A   1      44.771  19.997  24.067  1.00  0.00     0.251 C 
ATOM     67  H   UNL A   1      44.396  18.062  23.958  1.00  0.00     0.163 HD
ATOM     68  O   UNL A   1      45.139  19.976  22.901  1.00  0.00    -0.269 OA
BRANCH  66  69
ATOM     69  C   UNL A   1      44.669  21.312  24.764  1.00  0.00     0.039 A 
ATOM     70  C   UNL A   1      45.343  21.667  25.929  1.00  0.00    -0.049 A 
ATOM     71  C   UNL A   1      43.765  22.239  24.208  1.00  0.00    -0.049 A 
ATOM     72  C   UNL A   1      45.030  22.847  26.591  1.00  0.00    -0.053 A 
ATOM     73  H   UNL A   1      46.079  21.049  26.304  1.00  0.00     0.063 H 
ATOM     74  C   UNL A   1      43.475  23.443  24.846  1.00  0.00    -0.053 A 
ATOM     75  H   UNL A   1      43.307  22.020  23.309  1.00  0.00     0.063 H 
ATOM     76  C   UNL A   1      44.075  23.723  26.067  1.00  0.00    -0.014 A 
ATOM     77  H   UNL A   1      45.508  23.079  27.476  1.00  0.00     0.063 H 
ATOM     78  H   UNL A   1      42.823  24.119  24.417  1.00  0.00     0.063 H 
BRANCH  76  79
ATOM     79  C   UNL A   1      43.847  24.966  26.798  1.00  0.00     0.031 A 
ATOM     80  C   UNL A   1      44.902  26.000  26.598  1.00  0.00     0.074 A 
ATOM     81  C   UNL A   1      42.769  25.219  27.566  1.00  0.00     0.049 A 
ATOM     82  N   UNL A   1      45.706  26.499  27.482  1.00  0.00    -0.248 NA
ATOM     83  C   UNL A   1      45.171  26.446  25.223  1.00  0.00    -0.034 C 
ATOM     84  C   UNL A   1      41.531  24.447  27.675  1.00  0.00    -0.036 A 
ATOM     85  N   UNL A   1      42.536  26.294  28.375  1.00  0.00    -0.354 N 
ATOM     86  C   UNL A   1      46.490  27.433  26.807  1.00  0.00     0.074 A 
ATOM     87  C   UNL A   1      46.198  27.276  25.407  1.00  0.00    -0.034 C 
ATOM     88  H   UNL A   1      44.692  26.185  24.348  1.00  0.00     0.065 H 
ATOM     89  C   UNL A   1      40.604  25.179  28.335  1.00  0.00    -0.036 A 
ATOM     90  H   UNL A   1      41.387  23.494  27.306  1.00  0.00     0.065 H 
ATOM     91  C   UNL A   1      41.225  26.402  28.818  1.00  0.00     0.049 A 
ATOM     92  H   UNL A   1      43.238  26.938  28.624  1.00  0.00     0.167 HD
ATOM     93  C   UNL A   1      47.184  28.393  27.478  1.00  0.00     0.037 A 
ATOM     94  H   UNL A   1      46.715  27.743  24.646  1.00  0.00     0.065 H 
ATOM     95  H   UNL A   1      39.617  24.913  28.473  1.00  0.00     0.065 H 
ATOM     96  C   UNL A   1      40.684  27.446  29.492  1.00  0.00     0.037 A 
ATOM     97  C   UNL A   1      47.371  28.034  28.858  1.00  0.00     0.049 A 
ATOM     98  C   UNL A   1      41.795  28.187  30.131  1.00  0.00     0.074 A 
ATOM     99  C   UNL A   1      48.058  27.045  29.531  1.00  0.00    -0.036 A 
ATOM    100  N   UNL A   1      46.516  28.591  29.773  1.00  0.00    -0.354 N 
ATOM    101  N   UNL A   1      42.506  27.735  31.125  1.00  0.00    -0.248 NA
ATOM    102  C   UNL A   1      42.361  29.328  29.426  1.00  0.00    -0.034 C 
ATOM    103  C   UNL A   1      47.279  26.767  30.691  1.00  0.00    -0.036 A 
ATOM    104  H   UNL A   1      48.947  26.600  29.253  1.00  0.00     0.065 H 
ATOM    105  C   UNL A   1      46.178  27.625  30.682  1.00  0.00     0.049 A 
ATOM    106  H   UNL A   1      46.200  29.523  29.775  1.00  0.00     0.167 HD
ATOM    107  C   UNL A   1      43.776  28.236  30.899  1.00  0.00     0.074 A 
ATOM    108  C   UNL A   1      43.594  29.313  29.934  1.00  0.00    -0.034 C 
ATOM    109  H   UNL A   1      41.932  29.962  28.735  1.00  0.00     0.065 H 
ATOM    110  H   UNL A   1      47.491  26.059  31.410  1.00  0.00     0.065 H 
ATOM    111  C   UNL A   1      44.877  27.542  31.306  1.00  0.00     0.037 A 
ATOM    112  H   UNL A   1      44.334  29.984  29.673  1.00  0.00     0.065 H 
BRANCH  93 113
ATOM    113  C   UNL A   1      47.368  29.814  26.992  1.00  0.00     0.064 A 
ATOM    114  C   UNL A   1      48.634  30.427  27.118  1.00  0.00     0.173 A 
ATOM    115  C   UNL A   1      46.299  30.690  26.708  1.00  0.00     0.173 A 
ATOM    116  F   UNL A   1      49.723  29.697  27.402  1.00  0.00    -0.203 F 
ATOM    117  C   UNL A   1      48.795  31.813  27.057  1.00  0.00     0.198 A 
ATOM    118  C   UNL A   1      46.473  32.069  26.597  1.00  0.00     0.198 A 
ATOM    119  F   UNL A   1      45.031  30.271  26.638  1.00  0.00    -0.203 F 
ATOM    120  F   UNL A   1      49.992  32.356  27.317  1.00  0.00    -0.200 F 
ATOM    121  C   UNL A   1      47.713  32.635  26.805  1.00  0.00     0.200 A 
ATOM    122  F   UNL A   1      45.408  32.851  26.369  1.00  0.00    -0.200 F 
ATOM    123  F   UNL A   1      47.851  33.967  26.812  1.00  0.00    -0.200 F 
ENDBRANCH  93 113
BRANCH  96 124
ATOM    124  C   UNL A   1      39.319  28.018  29.401  1.00  0.00     0.064 A 
ATOM    125  C   UNL A   1      38.534  28.192  30.556  1.00  0.00     0.173 A 
ATOM    126  C   UNL A   1      38.883  28.688  28.244  1.00  0.00     0.173 A 
ATOM    127  F   UNL A   1      38.896  27.618  31.712  1.00  0.00    -0.203 F 
ATOM    128  C   UNL A   1      37.413  29.029  30.562  1.00  0.00     0.198 A 
ATOM    129  C   UNL A   1      37.759  29.516  28.250  1.00  0.00     0.198 A 
ATOM    130  F   UNL A   1      39.597  28.638  27.109  1.00  0.00    -0.203 F 
ATOM    131  F   UNL A   1      36.740  29.235  31.703  1.00  0.00    -0.200 F 
ATOM    132  C   UNL A   1      37.037  29.703  29.413  1.00  0.00     0.200 A 
ATOM    133  F   UNL A   1      37.425  30.189  27.139  1.00  0.00    -0.200 F 
ATOM    134  F   UNL A   1      36.010  30.562  29.437  1.00  0.00    -0.200 F 
ENDBRANCH  96 124
BRANCH 111 135
ATOM    135  C   UNL A   1      44.677  26.438  32.305  1.00  0.00     0.064 A 
ATOM    136  C   UNL A   1      44.588  26.635  33.694  1.00  0.00     0.173 A 
ATOM    137  C   UNL A   1      44.426  25.148  31.816  1.00  0.00     0.173 A 
ATOM    138  F   UNL A   1      44.723  27.855  34.229  1.00  0.00    -0.203 F 
ATOM    139  C   UNL A   1      44.294  25.577  34.552  1.00  0.00     0.198 A 
ATOM    140  C   UNL A   1      44.093  24.104  32.672  1.00  0.00     0.198 A 
ATOM    141  F   UNL A   1      44.449  24.914  30.494  1.00  0.00    -0.203 F 
ATOM    142  F   UNL A   1      44.220  25.785  35.875  1.00  0.00    -0.200 F 
ATOM    143  C   UNL A   1      44.035  24.316  34.040  1.00  0.00     0.200 A 
ATOM    144  F   UNL A   1      43.795  22.899  32.167  1.00  0.00    -0.200 F 
ATOM    145  F   UNL A   1      43.701  23.311  34.862  1.00  0.00    -0.200 F 
ENDBRANCH 111 135
ENDBRANCH  76  79
ENDBRANCH  66  69
ENDBRANCH  62  65
ENDBRANCH  59  62
ENDBRANCH  56  59
ENDBRANCH   1  56
TORSDOF 18
ENDMDL
MODEL 2
REMARK VINA RESULT:     -12.3      4.945     10.642
REMARK SMILES Cc1ccc2c(c1)c(-c1ccnc3c(C)cccc13)c(C)n2CC(=O)NCCCCCCNC(=O)c1ccc(-c2c3nc(c(-c4c(F)c(F)c(F)c(F)c4F)c4ccc([nH]4)c(-c4c(F)c(F)c(F)c(F)c4F)c4nc(c(-c5c(F)c(F)c(F)c(F)c5F)c5ccc2[nH]5)C=C4)C=C3)cc1
REMARK SMILES IDX 29 1 28 4 27 7 26 10 24 11 25 12 23 14 22 17 2 18 3 19 7 20
REMARK SMILES IDX 4 21 6 23 5 25 8 27 20 28 1 29 9 33 10 34 19 35 11 36 13 38
REMARK SMILES IDX 18 39 12 40 14 42 17 43 16 45 15 48 21 52 30 56 31 59 32 62
REMARK SMILES IDX 33 65 34 66 35 68 36 69 37 70 98 71 38 72 97 74 39 76 40 79
REMARK SMILES IDX 41 80 91 81 42 82 96 83 90 84 92 85 43 86 95 87 89 89 88 91
REMARK SMILES IDX 44 93 76 96 56 97 75 98 57 99 60 100 74 101 93 102 58 103
REMARK SMILES IDX 59 105 73 107 94 108 61 111 45 113 46 114 54 115 47 116
REMARK SMILES IDX 48 117 52 118 55 119 49 120 50 121 53 122 51 123 77 124
REMARK SMILES IDX 78 125 86 126 79 127 80 128 84 129 87 130 81 131 82 132
REMARK SMILES IDX 85 133 83 134 62 135 63 136 71 137 64 138 65 139 69 140
REMARK SMILES IDX 72 141 66 142 67 143 70 144 68 145
REMARK H PARENT 29 2 29 3 28 5 28 6 27 8 27 9 26 13 23 15 23 16 3 22 7 24 4 26
REMARK H PARENT 1 30 1 31 1 32 10 37 11 41 18 44 17 46 16 47 15 49 15 50 15 51
REMARK H PARENT 21 53 21 54 21 55 30 57 30 58 31 60 31 61 32 63 32 64 33 67
REMARK H PARENT 37 73 98 75 38 77 97 78 96 88 90 90 92 92 95 94 89 95 57 104
REMARK H PARENT 60 106 93 109 58 110 94 112
REMARK Flexibility Score: inf
ROOT
ATOM      1  C   UNL A   1      35.167  34.091  28.565  1.00  0.00    -0.052 C 
ATOM      2  H   UNL A   1      35.929  33.886  27.842  1.00  0.00     0.027 H 
ATOM      3  H   UNL A   1      35.525  34.062  29.573  1.00  0.00     0.027 H 
ENDROOT
BRANCH   1   4
ATOM      4  C   UNL A   1      34.095  32.999  28.455  1.00  0.00    -0.036 C 
ATOM      5  H   UNL A   1      33.723  32.794  29.437  1.00  0.00     0.028 H 
ATOM      6  H   UNL A   1      33.340  33.374  27.796  1.00  0.00     0.028 H 
BRANCH   4   7
ATOM      7  C   UNL A   1      34.597  31.691  27.850  1.00  0.00     0.017 C 
ATOM      8  H   UNL A   1      34.729  31.822  26.796  1.00  0.00     0.049 H 
ATOM      9  H   UNL A   1      35.526  31.437  28.318  1.00  0.00     0.049 H 
BRANCH   7  10
ATOM     10  N   UNL A   1      33.659  30.609  28.078  1.00  0.00    -0.355 N 
ATOM     11  C   UNL A   1      32.882  29.931  27.183  1.00  0.00     0.239 C 
ATOM     12  O   UNL A   1      32.114  29.073  27.628  1.00  0.00    -0.273 OA
ATOM     13  H   UNL A   1      33.569  30.322  29.015  1.00  0.00     0.163 HD
BRANCH  11  14
ATOM     14  C   UNL A   1      33.016  30.164  25.689  1.00  0.00     0.102 C 
ATOM     15  H   UNL A   1      32.568  31.107  25.454  1.00  0.00     0.060 H 
ATOM     16  H   UNL A   1      34.063  30.138  25.466  1.00  0.00     0.060 H 
BRANCH  14  17
ATOM     17  N   UNL A   1      32.385  29.137  24.866  1.00  0.00    -0.335 N 
ATOM     18  C   UNL A   1      28.649  28.949  23.044  1.00  0.00    -0.050 A 
ATOM     19  C   UNL A   1      29.023  30.187  23.568  1.00  0.00    -0.057 A 
ATOM     20  C   UNL A   1      29.552  27.876  23.095  1.00  0.00    -0.049 A 
ATOM     21  C   UNL A   1      30.274  30.377  24.160  1.00  0.00    -0.037 A 
ATOM     22  H   UNL A   1      28.362  30.978  23.518  1.00  0.00     0.063 H 
ATOM     23  C   UNL A   1      30.820  28.039  23.698  1.00  0.00     0.008 A 
ATOM     24  H   UNL A   1      29.288  26.963  22.693  1.00  0.00     0.063 H 
ATOM     25  C   UNL A   1      31.150  29.280  24.248  1.00  0.00     0.049 A 
ATOM     26  H   UNL A   1      30.550  31.303  24.526  1.00  0.00     0.065 H 
ATOM     27  C   UNL A   1      31.935  27.177  23.907  1.00  0.00     0.011 A 
ATOM     28  C   UNL A   1      32.913  27.891  24.586  1.00  0.00     0.024 A 
BRANCH  18  29
ATOM     29  C   UNL A   1      27.275  28.771  22.468  1.00  0.00    -0.040 C 
ATOM     30  H   UNL A   1      26.810  27.917  22.914  1.00  0.00     0.028 H 
ATOM     31  H   UNL A   1      27.348  28.627  21.410  1.00  0.00     0.028 H 
ATOM     32  H   UNL A   1      26.688  29.643  22.670  1.00  0.00     0.028 H 
ENDBRANCH  18  29
BRANCH  27  33
ATOM     33  C   UNL A   1      32.100  25.779  23.521  1.00  0.00    -0.005 A 
ATOM     34  C   UNL A   1      32.622  25.508  22.260  1.00  0.00    -0.035 A 
ATOM     35  C   UNL A   1      31.774  24.714  24.400  1.00  0.00     0.008 A 
ATOM     36  C   UNL A   1      32.825  24.190  21.920  1.00  0.00     0.028 A 
ATOM     37  H   UNL A   1      32.849  26.271  21.601  1.00  0.00     0.065 H 
ATOM     38  C   UNL A   1      32.034  23.396  23.961  1.00  0.00     0.074 A 
ATOM     39  C   UNL A   1      31.211  24.913  25.681  1.00  0.00    -0.052 A 
ATOM     40  N   UNL A   1      32.550  23.152  22.738  1.00  0.00    -0.256 NA
ATOM     41  H   UNL A   1      33.210  23.983  20.985  1.00  0.00     0.084 H 
ATOM     42  C   UNL A   1      31.748  22.334  24.835  1.00  0.00    -0.025 A 
ATOM     43  C   UNL A   1      30.911  23.852  26.525  1.00  0.00    -0.061 A 
ATOM     44  H   UNL A   1      31.016  25.875  25.998  1.00  0.00     0.063 H 
ATOM     45  C   UNL A   1      31.183  22.563  26.103  1.00  0.00    -0.057 A 
ATOM     46  H   UNL A   1      30.491  24.022  27.452  1.00  0.00     0.062 H 
ATOM     47  H   UNL A   1      30.972  21.766  26.722  1.00  0.00     0.063 H 
BRANCH  42  48
ATOM     48  C   UNL A   1      32.036  20.904  24.458  1.00  0.00    -0.038 C 
ATOM     49  H   UNL A   1      31.542  20.671  23.538  1.00  0.00     0.028 H 
ATOM     50  H   UNL A   1      31.679  20.252  25.229  1.00  0.00     0.028 H 
ATOM     51  H   UNL A   1      33.091  20.772  24.339  1.00  0.00     0.028 H 
ENDBRANCH  42  48
ENDBRANCH  27  33
BRANCH  28  52
ATOM     52  C   UNL A   1      34.272  27.444  25.018  1.00  0.00    -0.024 C 
ATOM     53  H   UNL A   1      34.502  27.871  25.972  1.00  0.00     0.030 H 
ATOM     54  H   UNL A   1      34.998  27.766  24.300  1.00  0.00     0.030 H 
ATOM     55  H   UNL A   1      34.290  26.377  25.091  1.00  0.00     0.030 H 
ENDBRANCH  28  52
ENDBRANCH  14  17
ENDBRANCH  11  14
ENDBRANCH   7  10
ENDBRANCH   4   7
ENDBRANCH   1   4
BRANCH   1  56
ATOM     56  C   UNL A   1      34.656  35.515  28.329  1.00  0.00    -0.052 C 
ATOM     57  H   UNL A   1      34.690  35.709  27.278  1.00  0.00     0.027 H 
ATOM     58  H   UNL A   1      35.289  36.159  28.902  1.00  0.00     0.027 H 
BRANCH  56  59
ATOM     59  C   UNL A   1      33.227  35.778  28.814  1.00  0.00    -0.036 C 
ATOM     60  H   UNL A   1      32.764  34.836  29.018  1.00  0.00     0.028 H 
ATOM     61  H   UNL A   1      32.737  36.324  28.035  1.00  0.00     0.028 H 
BRANCH  59  62
ATOM     62  C   UNL A   1      33.134  36.641  30.075  1.00  0.00     0.018 C 
ATOM     63  H   UNL A   1      32.578  37.524  29.838  1.00  0.00     0.049 H 
ATOM     64  H   UNL A   1      34.137  36.855  30.379  1.00  0.00     0.049 H 
BRANCH  62  65
ATOM     65  N   UNL A   1      32.488  35.983  31.192  1.00  0.00    -0.352 N 
ATOM     66  C   UNL A   1      32.911  35.152  32.200  1.00  0.00     0.251 C 
ATOM     67  H   UNL A   1      31.525  36.177  31.240  1.00  0.00     0.163 HD
ATOM     68  O   UNL A   1      32.092  34.884  33.068  1.00  0.00    -0.269 OA
BRANCH  66  69
ATOM     69  C   UNL A   1      34.257  34.511  32.263  1.00  0.00     0.039 A 
ATOM     70  C   UNL A   1      35.468  35.180  32.407  1.00  0.00    -0.049 A 
ATOM     71  C   UNL A   1      34.283  33.111  32.102  1.00  0.00    -0.049 A 
ATOM     72  C   UNL A   1      36.670  34.498  32.264  1.00  0.00    -0.053 A 
ATOM     73  H   UNL A   1      35.474  36.189  32.620  1.00  0.00     0.063 H 
ATOM     74  C   UNL A   1      35.485  32.414  31.998  1.00  0.00    -0.053 A 
ATOM     75  H   UNL A   1      33.392  32.591  32.061  1.00  0.00     0.063 H 
ATOM     76  C   UNL A   1      36.680  33.119  32.031  1.00  0.00    -0.014 A 
ATOM     77  H   UNL A   1      37.562  35.013  32.333  1.00  0.00     0.063 H 
ATOM     78  H   UNL A   1      35.487  31.386  31.899  1.00  0.00     0.063 H 
BRANCH  76  79
ATOM     79  C   UNL A   1      37.988  32.474  31.948  1.00  0.00     0.031 A 
ATOM     80  C   UNL A   1      38.770  32.504  33.217  1.00  0.00     0.074 A 
ATOM     81  C   UNL A   1      38.470  31.853  30.854  1.00  0.00     0.049 A 
ATOM     82  N   UNL A   1      39.902  33.090  33.440  1.00  0.00    -0.248 NA
ATOM     83  C   UNL A   1      38.157  31.906  34.412  1.00  0.00    -0.034 C 
ATOM     84  C   UNL A   1      37.761  31.501  29.623  1.00  0.00    -0.036 A 
ATOM     85  N   UNL A   1      39.717  31.335  30.651  1.00  0.00    -0.354 N 
ATOM     86  C   UNL A   1      40.224  32.815  34.767  1.00  0.00     0.074 A 
ATOM     87  C   UNL A   1      39.067  32.185  35.346  1.00  0.00    -0.034 C 
ATOM     88  H   UNL A   1      37.261  31.404  34.504  1.00  0.00     0.065 H 
ATOM     89  C   UNL A   1      38.523  30.653  28.895  1.00  0.00    -0.036 A 
ATOM     90  H   UNL A   1      36.826  31.845  29.353  1.00  0.00     0.065 H 
ATOM     91  C   UNL A   1      39.822  30.519  29.534  1.00  0.00     0.049 A 
ATOM     92  H   UNL A   1      40.478  31.524  31.248  1.00  0.00     0.167 HD
ATOM     93  C   UNL A   1      41.495  32.962  35.235  1.00  0.00     0.037 A 
ATOM     94  H   UNL A   1      38.956  31.976  36.351  1.00  0.00     0.065 H 
ATOM     95  H   UNL A   1      38.230  30.177  28.027  1.00  0.00     0.065 H 
ATOM     96  C   UNL A   1      40.887  29.755  29.190  1.00  0.00     0.037 A 
ATOM     97  C   UNL A   1      42.266  33.827  34.383  1.00  0.00     0.049 A 
ATOM     98  C   UNL A   1      42.076  30.315  29.871  1.00  0.00     0.074 A 
ATOM     99  C   UNL A   1      42.221  35.162  34.040  1.00  0.00    -0.036 A 
ATOM    100  N   UNL A   1      43.106  33.231  33.479  1.00  0.00    -0.354 N 
ATOM    101  N   UNL A   1      42.625  31.459  29.571  1.00  0.00    -0.248 NA
ATOM    102  C   UNL A   1      42.470  29.751  31.153  1.00  0.00    -0.034 C 
ATOM    103  C   UNL A   1      42.686  35.220  32.694  1.00  0.00    -0.036 A 
ATOM    104  H   UNL A   1      41.914  35.951  34.631  1.00  0.00     0.065 H 
ATOM    105  C   UNL A   1      43.023  33.925  32.301  1.00  0.00     0.049 A 
ATOM    106  H   UNL A   1      43.668  32.442  33.646  1.00  0.00     0.167 HD
ATOM    107  C   UNL A   1      43.075  31.956  30.782  1.00  0.00     0.074 A 
ATOM    108  C   UNL A   1      43.081  30.810  31.683  1.00  0.00    -0.034 C 
ATOM    109  H   UNL A   1      42.319  28.805  31.537  1.00  0.00     0.065 H 
ATOM    110  H   UNL A   1      42.760  36.070  32.113  1.00  0.00     0.065 H 
ATOM    111  C   UNL A   1      43.129  33.300  31.003  1.00  0.00     0.037 A 
ATOM    112  H   UNL A   1      43.509  30.819  32.623  1.00  0.00     0.065 H 
BRANCH  93 113
ATOM    113  C   UNL A   1      42.149  32.041  36.240  1.00  0.00     0.064 A 
ATOM    114  C   UNL A   1      42.744  32.594  37.396  1.00  0.00     0.173 A 
ATOM    115  C   UNL A   1      42.494  30.700  35.968  1.00  0.00     0.173 A 
ATOM    116  F   UNL A   1      42.503  33.865  37.749  1.00  0.00    -0.203 F 
ATOM    117  C   UNL A   1      43.678  31.888  38.159  1.00  0.00     0.198 A 
ATOM    118  C   UNL A   1      43.387  29.982  36.762  1.00  0.00     0.198 A 
ATOM    119  F   UNL A   1      42.075  30.065  34.867  1.00  0.00    -0.203 F 
ATOM    120  F   UNL A   1      44.314  32.501  39.166  1.00  0.00    -0.200 F 
ATOM    121  C   UNL A   1      44.006  30.585  37.836  1.00  0.00     0.200 A 
ATOM    122  F   UNL A   1      43.706  28.725  36.422  1.00  0.00    -0.200 F 
ATOM    123  F   UNL A   1      44.948  29.928  38.524  1.00  0.00    -0.200 F 
ENDBRANCH  93 113
BRANCH  96 124
ATOM    124  C   UNL A   1      40.917  28.419  28.548  1.00  0.00     0.064 A 
ATOM    125  C   UNL A   1      40.179  27.347  29.084  1.00  0.00     0.173 A 
ATOM    126  C   UNL A   1      41.405  28.246  27.240  1.00  0.00     0.173 A 
ATOM    127  F   UNL A   1      39.647  27.440  30.312  1.00  0.00    -0.203 F 
ATOM    128  C   UNL A   1      39.903  26.198  28.336  1.00  0.00     0.198 A 
ATOM    129  C   UNL A   1      41.137  27.094  26.498  1.00  0.00     0.198 A 
ATOM    130  F   UNL A   1      42.064  29.233  26.616  1.00  0.00    -0.203 F 
ATOM    131  F   UNL A   1      39.127  25.235  28.853  1.00  0.00    -0.200 F 
ATOM    132  C   UNL A   1      40.369  26.080  27.039  1.00  0.00     0.200 A 
ATOM    133  F   UNL A   1      41.565  27.008  25.231  1.00  0.00    -0.200 F 
ATOM    134  F   UNL A   1      40.043  25.014  26.295  1.00  0.00    -0.200 F 
ENDBRANCH  96 124
BRANCH 111 135
ATOM    135  C   UNL A   1      43.046  34.208  29.809  1.00  0.00     0.064 A 
ATOM    136  C   UNL A   1      44.145  34.560  29.006  1.00  0.00     0.173 A 
ATOM    137  C   UNL A   1      41.775  34.620  29.384  1.00  0.00     0.173 A 
ATOM    138  F   UNL A   1      45.379  34.127  29.293  1.00  0.00    -0.203 F 
ATOM    139  C   UNL A   1      43.976  35.320  27.849  1.00  0.00     0.198 A 
ATOM    140  C   UNL A   1      41.606  35.343  28.209  1.00  0.00     0.198 A 
ATOM    141  F   UNL A   1      40.686  34.269  30.086  1.00  0.00    -0.203 F 
ATOM    142  F   UNL A   1      45.038  35.652  27.100  1.00  0.00    -0.200 F 
ATOM    143  C   UNL A   1      42.706  35.701  27.446  1.00  0.00     0.200 A 
ATOM    144  F   UNL A   1      40.372  35.665  27.797  1.00  0.00    -0.200 F 
ATOM    145  F   UNL A   1      42.539  36.387  26.307  1.00  0.00    -0.200 F 
ENDBRANCH 111 135
ENDBRANCH  76  79
ENDBRANCH  66  69
ENDBRANCH  62  65
ENDBRANCH  59  62
ENDBRANCH  56  59
ENDBRANCH   1  56
TORSDOF 18
ENDMDL
MODEL 3
REMARK VINA RESULT:     -12.3      2.926      9.003
REMARK SMILES Cc1ccc2c(c1)c(-c1ccnc3c(C)cccc13)c(C)n2CC(=O)NCCCCCCNC(=O)c1ccc(-c2c3nc(c(-c4c(F)c(F)c(F)c(F)c4F)c4ccc([nH]4)c(-c4c(F)c(F)c(F)c(F)c4F)c4nc(c(-c5c(F)c(F)c(F)c(F)c5F)c5ccc2[nH]5)C=C4)C=C3)cc1
REMARK SMILES IDX 29 1 28 4 27 7 26 10 24 11 25 12 23 14 22 17 2 18 3 19 7 20
REMARK SMILES IDX 4 21 6 23 5 25 8 27 20 28 1 29 9 33 10 34 19 35 11 36 13 38
REMARK SMILES IDX 18 39 12 40 14 42 17 43 16 45 15 48 21 52 30 56 31 59 32 62
REMARK SMILES IDX 33 65 34 66 35 68 36 69 37 70 98 71 38 72 97 74 39 76 40 79
REMARK SMILES IDX 41 80 91 81 42 82 96 83 90 84 92 85 43 86 95 87 89 89 88 91
REMARK SMILES IDX 44 93 76 96 56 97 75 98 57 99 60 100 74 101 93 102 58 103
REMARK SMILES IDX 59 105 73 107 94 108 61 111 45 113 46 114 54 115 47 116
REMARK SMILES IDX 48 117 52 118 55 119 49 120 50 121 53 122 51 123 77 124
REMARK SMILES IDX 78 125 86 126 79 127 80 128 84 129 87 130 81 131 82 132
REMARK SMILES IDX 85 133 83 134 62 135 63 136 71 137 64 138 65 139 69 140
REMARK SMILES IDX 72 141 66 142 67 143 70 144 68 145
REMARK H PARENT 29 2 29 3 28 5 28 6 27 8 27 9 26 13 23 15 23 16 3 22 7 24 4 26
REMARK H PARENT 1 30 1 31 1 32 10 37 11 41 18 44 17 46 16 47 15 49 15 50 15 51
REMARK H PARENT 21 53 21 54 21 55 30 57 30 58 31 60 31 61 32 63 32 64 33 67
REMARK H PARENT 37 73 98 75 38 77 97 78 96 88 90 90 92 92 95 94 89 95 57 104
REMARK H PARENT 60 106 93 109 58 110 94 112
REMARK Flexibility Score: inf
ROOT
ATOM      1  C   UNL A   1      31.171  29.367  24.861  1.00  0.00    -0.052 C 
ATOM      2  H   UNL A   1      30.158  29.624  25.095  1.00  0.00     0.027 H 
ATOM      3  H   UNL A   1      31.782  30.220  24.650  1.00  0.00     0.027 H 
ENDROOT
BRANCH   1   4
ATOM      4  C   UNL A   1      31.165  28.512  23.588  1.00  0.00    -0.036 C 
ATOM      5  H   UNL A   1      31.050  27.487  23.874  1.00  0.00     0.028 H 
ATOM      6  H   UNL A   1      30.358  28.865  22.982  1.00  0.00     0.028 H 
BRANCH   4   7
ATOM      7  C   UNL A   1      32.434  28.636  22.748  1.00  0.00     0.017 C 
ATOM      8  H   UNL A   1      32.385  29.536  22.173  1.00  0.00     0.049 H 
ATOM      9  H   UNL A   1      33.276  28.653  23.408  1.00  0.00     0.049 H 
BRANCH   7  10
ATOM     10  N   UNL A   1      32.583  27.508  21.848  1.00  0.00    -0.355 N 
ATOM     11  C   UNL A   1      33.299  26.357  22.010  1.00  0.00     0.239 C 
ATOM     12  O   UNL A   1      33.315  25.557  21.070  1.00  0.00    -0.273 OA
ATOM     13  H   UNL A   1      32.098  27.585  20.995  1.00  0.00     0.163 HD
BRANCH  11  14
ATOM     14  C   UNL A   1      33.982  26.034  23.326  1.00  0.00     0.102 C 
ATOM     15  H   UNL A   1      35.039  26.122  23.187  1.00  0.00     0.060 H 
ATOM     16  H   UNL A   1      33.601  26.726  24.049  1.00  0.00     0.060 H 
BRANCH  14  17
ATOM     17  N   UNL A   1      33.696  24.696  23.834  1.00  0.00    -0.335 N 
ATOM     18  C   UNL A   1      30.677  23.250  26.305  1.00  0.00    -0.050 A 
ATOM     19  C   UNL A   1      30.518  24.551  25.825  1.00  0.00    -0.057 A 
ATOM     20  C   UNL A   1      31.782  22.491  25.889  1.00  0.00    -0.049 A 
ATOM     21  C   UNL A   1      31.447  25.121  24.951  1.00  0.00    -0.037 A 
ATOM     22  H   UNL A   1      29.699  25.103  26.123  1.00  0.00     0.063 H 
ATOM     23  C   UNL A   1      32.741  23.048  25.013  1.00  0.00     0.008 A 
ATOM     24  H   UNL A   1      31.896  21.522  26.227  1.00  0.00     0.063 H 
ATOM     25  C   UNL A   1      32.574  24.365  24.581  1.00  0.00     0.049 A 
ATOM     26  H   UNL A   1      31.308  26.076  24.584  1.00  0.00     0.065 H 
ATOM     27  C   UNL A   1      33.940  22.559  24.418  1.00  0.00     0.011 A 
ATOM     28  C   UNL A   1      34.488  23.578  23.651  1.00  0.00     0.024 A 
BRANCH  18  29
ATOM     29  C   UNL A   1      29.689  22.695  27.288  1.00  0.00    -0.040 C 
ATOM     30  H   UNL A   1      28.816  22.363  26.767  1.00  0.00     0.028 H 
ATOM     31  H   UNL A   1      29.418  23.457  27.989  1.00  0.00     0.028 H 
ATOM     32  H   UNL A   1      30.129  21.871  27.809  1.00  0.00     0.028 H 
ENDBRANCH  18  29
BRANCH  27  33
ATOM     33  C   UNL A   1      34.559  21.244  24.547  1.00  0.00    -0.005 A 
ATOM     34  C   UNL A   1      35.845  21.178  25.074  1.00  0.00    -0.035 A 
ATOM     35  C   UNL A   1      33.878  20.054  24.182  1.00  0.00     0.008 A 
ATOM     36  C   UNL A   1      36.405  19.932  25.243  1.00  0.00     0.028 A 
ATOM     37  H   UNL A   1      36.363  22.035  25.329  1.00  0.00     0.065 H 
ATOM     38  C   UNL A   1      34.534  18.824  24.410  1.00  0.00     0.074 A 
ATOM     39  C   UNL A   1      32.584  20.047  23.612  1.00  0.00    -0.052 A 
ATOM     40  N   UNL A   1      35.779  18.778  24.931  1.00  0.00    -0.256 NA
ATOM     41  H   UNL A   1      37.360  19.877  25.631  1.00  0.00     0.084 H 
ATOM     42  C   UNL A   1      33.858  17.636  24.085  1.00  0.00    -0.025 A 
ATOM     43  C   UNL A   1      31.936  18.866  23.274  1.00  0.00    -0.061 A 
ATOM     44  H   UNL A   1      32.108  20.946  23.442  1.00  0.00     0.063 H 
ATOM     45  C   UNL A   1      32.572  17.661  23.514  1.00  0.00    -0.057 A 
ATOM     46  H   UNL A   1      30.996  18.888  22.850  1.00  0.00     0.062 H 
ATOM     47  H   UNL A   1      32.099  16.776  23.274  1.00  0.00     0.063 H 
BRANCH  42  48
ATOM     48  C   UNL A   1      34.473  16.284  24.337  1.00  0.00    -0.038 C 
ATOM     49  H   UNL A   1      33.733  15.626  24.743  1.00  0.00     0.028 H 
ATOM     50  H   UNL A   1      35.281  16.383  25.031  1.00  0.00     0.028 H 
ATOM     51  H   UNL A   1      34.840  15.883  23.416  1.00  0.00     0.028 H 
ENDBRANCH  42  48
ENDBRANCH  27  33
BRANCH  28  52
ATOM     52  C   UNL A   1      35.727  23.560  22.813  1.00  0.00    -0.024 C 
ATOM     53  H   UNL A   1      36.362  22.761  23.133  1.00  0.00     0.030 H 
ATOM     54  H   UNL A   1      36.243  24.492  22.921  1.00  0.00     0.030 H 
ATOM     55  H   UNL A   1      35.460  23.416  21.787  1.00  0.00     0.030 H 
ENDBRANCH  28  52
ENDBRANCH  14  17
ENDBRANCH  11  14
ENDBRANCH   7  10
ENDBRANCH   4   7
ENDBRANCH   1   4
BRANCH   1  56
ATOM     56  C   UNL A   1      31.786  28.686  26.086  1.00  0.00    -0.052 C 
ATOM     57  H   UNL A   1      32.666  28.168  25.770  1.00  0.00     0.027 H 
ATOM     58  H   UNL A   1      31.029  28.041  26.481  1.00  0.00     0.027 H 
BRANCH  56  59
ATOM     59  C   UNL A   1      32.176  29.634  27.225  1.00  0.00    -0.036 C 
ATOM     60  H   UNL A   1      32.306  29.053  28.114  1.00  0.00     0.028 H 
ATOM     61  H   UNL A   1      31.387  30.352  27.307  1.00  0.00     0.028 H 
BRANCH  59  62
ATOM     62  C   UNL A   1      33.463  30.426  26.979  1.00  0.00     0.018 C 
ATOM     63  H   UNL A   1      33.368  30.940  26.045  1.00  0.00     0.049 H 
ATOM     64  H   UNL A   1      34.267  29.720  26.979  1.00  0.00     0.049 H 
BRANCH  62  65
ATOM     65  N   UNL A   1      33.760  31.401  28.008  1.00  0.00    -0.352 N 
ATOM     66  C   UNL A   1      34.886  31.753  28.709  1.00  0.00     0.251 C 
ATOM     67  H   UNL A   1      32.973  31.934  28.263  1.00  0.00     0.163 HD
ATOM     68  O   UNL A   1      34.796  32.736  29.431  1.00  0.00    -0.269 OA
BRANCH  66  69
ATOM     69  C   UNL A   1      36.165  30.984  28.702  1.00  0.00     0.039 A 
ATOM     70  C   UNL A   1      36.295  29.629  28.412  1.00  0.00    -0.049 A 
ATOM     71  C   UNL A   1      37.319  31.699  29.080  1.00  0.00    -0.049 A 
ATOM     72  C   UNL A   1      37.504  28.978  28.618  1.00  0.00    -0.053 A 
ATOM     73  H   UNL A   1      35.487  29.104  28.043  1.00  0.00     0.063 H 
ATOM     74  C   UNL A   1      38.546  31.060  29.250  1.00  0.00    -0.053 A 
ATOM     75  H   UNL A   1      37.254  32.718  29.233  1.00  0.00     0.063 H 
ATOM     76  C   UNL A   1      38.624  29.686  29.065  1.00  0.00    -0.014 A 
ATOM     77  H   UNL A   1      37.577  27.964  28.438  1.00  0.00     0.063 H 
ATOM     78  H   UNL A   1      39.386  31.601  29.510  1.00  0.00     0.063 H 
BRANCH  76  79
ATOM     79  C   UNL A   1      39.869  28.934  29.203  1.00  0.00     0.031 A 
ATOM     80  C   UNL A   1      40.318  28.741  30.612  1.00  0.00     0.074 A 
ATOM     81  C   UNL A   1      40.564  28.404  28.178  1.00  0.00     0.049 A 
ATOM     82  N   UNL A   1      41.395  29.188  31.172  1.00  0.00    -0.248 NA
ATOM     83  C   UNL A   1      39.395  28.066  31.537  1.00  0.00    -0.034 C 
ATOM     84  C   UNL A   1      40.156  28.268  26.779  1.00  0.00    -0.036 A 
ATOM     85  N   UNL A   1      41.787  27.799  28.204  1.00  0.00    -0.354 N 
ATOM     86  C   UNL A   1      41.366  28.729  32.487  1.00  0.00     0.074 A 
ATOM     87  C   UNL A   1      40.065  28.146  32.687  1.00  0.00    -0.034 C 
ATOM     88  H   UNL A   1      38.474  27.644  31.347  1.00  0.00     0.065 H 
ATOM     89  C   UNL A   1      41.018  27.444  26.141  1.00  0.00    -0.036 A 
ATOM     90  H   UNL A   1      39.340  28.728  26.348  1.00  0.00     0.065 H 
ATOM     91  C   UNL A   1      42.111  27.114  27.041  1.00  0.00     0.049 A 
ATOM     92  H   UNL A   1      42.390  27.844  28.982  1.00  0.00     0.167 HD
ATOM     93  C   UNL A   1      42.490  28.700  33.255  1.00  0.00     0.037 A 
ATOM     94  H   UNL A   1      39.699  27.832  33.600  1.00  0.00     0.065 H 
ATOM     95  H   UNL A   1      40.917  27.104  25.171  1.00  0.00     0.065 H 
ATOM     96  C   UNL A   1      43.178  26.300  26.854  1.00  0.00     0.037 A 
ATOM     97  C   UNL A   1      43.499  29.583  32.734  1.00  0.00     0.049 A 
ATOM     98  C   UNL A   1      44.197  26.662  27.865  1.00  0.00     0.074 A 
ATOM     99  C   UNL A   1      43.623  30.948  32.576  1.00  0.00    -0.036 A 
ATOM    100  N   UNL A   1      44.495  29.022  31.979  1.00  0.00    -0.354 N 
ATOM    101  N   UNL A   1      44.873  27.776  27.862  1.00  0.00    -0.248 NA
ATOM    102  C   UNL A   1      44.230  25.916  29.114  1.00  0.00    -0.034 C 
ATOM    103  C   UNL A   1      44.405  31.121  31.397  1.00  0.00    -0.036 A 
ATOM    104  H   UNL A   1      43.231  31.687  33.181  1.00  0.00     0.065 H 
ATOM    105  C   UNL A   1      44.746  29.854  30.921  1.00  0.00     0.049 A 
ATOM    106  H   UNL A   1      44.949  28.169  32.164  1.00  0.00     0.167 HD
ATOM    107  C   UNL A   1      45.044  28.082  29.200  1.00  0.00     0.074 A 
ATOM    108  C   UNL A   1      44.758  26.843  29.913  1.00  0.00    -0.034 C 
ATOM    109  H   UNL A   1      43.930  24.950  29.319  1.00  0.00     0.065 H 
ATOM    110  H   UNL A   1      44.672  32.022  30.972  1.00  0.00     0.065 H 
ATOM    111  C   UNL A   1      45.127  29.380  29.610  1.00  0.00     0.037 A 
ATOM    112  H   UNL A   1      44.943  26.701  30.919  1.00  0.00     0.065 H 
BRANCH  93 113
ATOM    113  C   UNL A   1      42.820  27.610  34.249  1.00  0.00     0.064 A 
ATOM    114  C   UNL A   1      43.311  26.373  33.777  1.00  0.00     0.173 A 
ATOM    115  C   UNL A   1      42.382  27.612  35.591  1.00  0.00     0.173 A 
ATOM    116  F   UNL A   1      43.742  26.244  32.513  1.00  0.00    -0.203 F 
ATOM    117  C   UNL A   1      43.277  25.215  34.558  1.00  0.00     0.198 A 
ATOM    118  C   UNL A   1      42.398  26.465  36.384  1.00  0.00     0.198 A 
ATOM    119  F   UNL A   1      41.818  28.685  36.156  1.00  0.00    -0.203 F 
ATOM    120  F   UNL A   1      43.628  24.039  34.021  1.00  0.00    -0.200 F 
ATOM    121  C   UNL A   1      42.812  25.259  35.859  1.00  0.00     0.200 A 
ATOM    122  F   UNL A   1      41.926  26.525  37.637  1.00  0.00    -0.200 F 
ATOM    123  F   UNL A   1      42.715  24.141  36.588  1.00  0.00    -0.200 F 
ENDBRANCH  93 113
BRANCH  96 124
ATOM    124  C   UNL A   1      43.279  25.052  26.061  1.00  0.00     0.064 A 
ATOM    125  C   UNL A   1      44.351  24.850  25.171  1.00  0.00     0.173 A 
ATOM    126  C   UNL A   1      42.517  23.915  26.385  1.00  0.00     0.173 A 
ATOM    127  F   UNL A   1      45.152  25.873  24.836  1.00  0.00    -0.203 F 
ATOM    128  C   UNL A   1      44.670  23.580  24.681  1.00  0.00     0.198 A 
ATOM    129  C   UNL A   1      42.831  22.649  25.887  1.00  0.00     0.198 A 
ATOM    130  F   UNL A   1      41.514  23.989  27.273  1.00  0.00    -0.203 F 
ATOM    131  F   UNL A   1      45.749  23.416  23.902  1.00  0.00    -0.200 F 
ATOM    132  C   UNL A   1      43.919  22.478  25.052  1.00  0.00     0.200 A 
ATOM    133  F   UNL A   1      42.116  21.586  26.281  1.00  0.00    -0.200 F 
ATOM    134  F   UNL A   1      44.268  21.251  24.644  1.00  0.00    -0.200 F 
ENDBRANCH  96 124
BRANCH 111 135
ATOM    135  C   UNL A   1      45.395  30.426  28.566  1.00  0.00     0.064 A 
ATOM    136  C   UNL A   1      44.401  31.023  27.771  1.00  0.00     0.173 A 
ATOM    137  C   UNL A   1      46.695  30.941  28.472  1.00  0.00     0.173 A 
ATOM    138  F   UNL A   1      43.118  30.650  27.872  1.00  0.00    -0.203 F 
ATOM    139  C   UNL A   1      44.708  32.064  26.897  1.00  0.00     0.198 A 
ATOM    140  C   UNL A   1      46.990  32.007  27.629  1.00  0.00     0.198 A 
ATOM    141  F   UNL A   1      47.673  30.443  29.244  1.00  0.00    -0.203 F 
ATOM    142  F   UNL A   1      43.746  32.615  26.142  1.00  0.00    -0.200 F 
ATOM    143  C   UNL A   1      45.999  32.563  26.835  1.00  0.00     0.200 A 
ATOM    144  F   UNL A   1      48.229  32.518  27.610  1.00  0.00    -0.200 F 
ATOM    145  F   UNL A   1      46.284  33.599  26.033  1.00  0.00    -0.200 F 
ENDBRANCH 111 135
ENDBRANCH  76  79
ENDBRANCH  66  69
ENDBRANCH  62  65
ENDBRANCH  59  62
ENDBRANCH  56  59
ENDBRANCH   1  56
TORSDOF 18
ENDMDL
MODEL 4
REMARK VINA RESULT:     -12.2      0.813      1.701
REMARK SMILES Cc1ccc2c(c1)c(-c1ccnc3c(C)cccc13)c(C)n2CC(=O)NCCCCCCNC(=O)c1ccc(-c2c3nc(c(-c4c(F)c(F)c(F)c(F)c4F)c4ccc([nH]4)c(-c4c(F)c(F)c(F)c(F)c4F)c4nc(c(-c5c(F)c(F)c(F)c(F)c5F)c5ccc2[nH]5)C=C4)C=C3)cc1
REMARK SMILES IDX 29 1 28 4 27 7 26 10 24 11 25 12 23 14 22 17 2 18 3 19 7 20
REMARK SMILES IDX 4 21 6 23 5 25 8 27 20 28 1 29 9 33 10 34 19 35 11 36 13 38
REMARK SMILES IDX 18 39 12 40 14 42 17 43 16 45 15 48 21 52 30 56 31 59 32 62
REMARK SMILES IDX 33 65 34 66 35 68 36 69 37 70 98 71 38 72 97 74 39 76 40 79
REMARK SMILES IDX 41 80 91 81 42 82 96 83 90 84 92 85 43 86 95 87 89 89 88 91
REMARK SMILES IDX 44 93 76 96 56 97 75 98 57 99 60 100 74 101 93 102 58 103
REMARK SMILES IDX 59 105 73 107 94 108 61 111 45 113 46 114 54 115 47 116
REMARK SMILES IDX 48 117 52 118 55 119 49 120 50 121 53 122 51 123 77 124
REMARK SMILES IDX 78 125 86 126 79 127 80 128 84 129 87 130 81 131 82 132
REMARK SMILES IDX 85 133 83 134 62 135 63 136 71 137 64 138 65 139 69 140
REMARK SMILES IDX 72 141 66 142 67 143 70 144 68 145
REMARK H PARENT 29 2 29 3 28 5 28 6 27 8 27 9 26 13 23 15 23 16 3 22 7 24 4 26
REMARK H PARENT 1 30 1 31 1 32 10 37 11 41 18 44 17 46 16 47 15 49 15 50 15 51
REMARK H PARENT 21 53 21 54 21 55 30 57 30 58 31 60 31 61 32 63 32 64 33 67
REMARK H PARENT 37 73 98 75 38 77 97 78 96 88 90 90 92 92 95 94 89 95 57 104
REMARK H PARENT 60 106 93 109 58 110 94 112
REMARK Flexibility Score: inf
ROOT
ATOM      1  C   UNL A   1      40.709  20.604  26.516  1.00  0.00    -0.052 C 
ATOM      2  H   UNL A   1      40.171  21.073  27.314  1.00  0.00     0.027 H 
ATOM      3  H   UNL A   1      41.101  21.301  25.806  1.00  0.00     0.027 H 
ENDROOT
BRANCH   1   4
ATOM      4  C   UNL A   1      39.734  19.703  25.747  1.00  0.00    -0.036 C 
ATOM      5  H   UNL A   1      40.217  19.377  24.849  1.00  0.00     0.028 H 
ATOM      6  H   UNL A   1      39.483  18.893  26.399  1.00  0.00     0.028 H 
BRANCH   4   7
ATOM      7  C   UNL A   1      38.423  20.385  25.366  1.00  0.00     0.017 C 
ATOM      8  H   UNL A   1      38.132  20.061  24.389  1.00  0.00     0.049 H 
ATOM      9  H   UNL A   1      37.681  20.118  26.090  1.00  0.00     0.049 H 
BRANCH   7  10
ATOM     10  N   UNL A   1      38.560  21.829  25.364  1.00  0.00    -0.355 N 
ATOM     11  C   UNL A   1      37.677  22.785  25.775  1.00  0.00     0.239 C 
ATOM     12  O   UNL A   1      38.003  23.966  25.625  1.00  0.00    -0.273 OA
ATOM     13  H   UNL A   1      39.415  22.169  25.013  1.00  0.00     0.163 HD
BRANCH  11  14
ATOM     14  C   UNL A   1      36.380  22.412  26.468  1.00  0.00     0.102 C 
ATOM     15  H   UNL A   1      36.458  21.401  26.808  1.00  0.00     0.060 H 
ATOM     16  H   UNL A   1      36.246  23.108  27.270  1.00  0.00     0.060 H 
BRANCH  14  17
ATOM     17  N   UNL A   1      35.197  22.519  25.618  1.00  0.00    -0.335 N 
ATOM     18  C   UNL A   1      32.955  19.651  23.604  1.00  0.00    -0.050 A 
ATOM     19  C   UNL A   1      33.892  19.175  24.522  1.00  0.00    -0.057 A 
ATOM     20  C   UNL A   1      32.773  21.035  23.457  1.00  0.00    -0.049 A 
ATOM     21  C   UNL A   1      34.667  20.050  25.288  1.00  0.00    -0.037 A 
ATOM     22  H   UNL A   1      34.016  18.157  24.637  1.00  0.00     0.063 H 
ATOM     23  C   UNL A   1      33.551  21.941  24.213  1.00  0.00     0.008 A 
ATOM     24  H   UNL A   1      32.069  21.393  22.792  1.00  0.00     0.063 H 
ATOM     25  C   UNL A   1      34.507  21.434  25.096  1.00  0.00     0.049 A 
ATOM     26  H   UNL A   1      35.342  19.688  25.981  1.00  0.00     0.065 H 
ATOM     27  C   UNL A   1      33.611  23.362  24.299  1.00  0.00     0.011 A 
ATOM     28  C   UNL A   1      34.601  23.698  25.212  1.00  0.00     0.024 A 
BRANCH  18  29
ATOM     29  C   UNL A   1      32.185  18.680  22.758  1.00  0.00    -0.040 C 
ATOM     30  H   UNL A   1      32.778  17.807  22.587  1.00  0.00     0.028 H 
ATOM     31  H   UNL A   1      31.943  19.137  21.821  1.00  0.00     0.028 H 
ATOM     32  H   UNL A   1      31.283  18.405  23.264  1.00  0.00     0.028 H 
ENDBRANCH  18  29
BRANCH  27  33
ATOM     33  C   UNL A   1      32.821  24.359  23.584  1.00  0.00    -0.005 A 
ATOM     34  C   UNL A   1      33.194  24.675  22.281  1.00  0.00    -0.035 A 
ATOM     35  C   UNL A   1      31.685  24.977  24.168  1.00  0.00     0.008 A 
ATOM     36  C   UNL A   1      32.415  25.577  21.593  1.00  0.00     0.028 A 
ATOM     37  H   UNL A   1      34.028  24.247  21.846  1.00  0.00     0.065 H 
ATOM     38  C   UNL A   1      30.944  25.878  23.372  1.00  0.00     0.074 A 
ATOM     39  C   UNL A   1      31.267  24.729  25.496  1.00  0.00    -0.052 A 
ATOM     40  N   UNL A   1      31.315  26.166  22.106  1.00  0.00    -0.256 NA
ATOM     41  H   UNL A   1      32.689  25.816  20.626  1.00  0.00     0.084 H 
ATOM     42  C   UNL A   1      29.797  26.471  23.926  1.00  0.00    -0.025 A 
ATOM     43  C   UNL A   1      30.144  25.341  26.038  1.00  0.00    -0.061 A 
ATOM     44  H   UNL A   1      31.811  24.076  26.078  1.00  0.00     0.063 H 
ATOM     45  C   UNL A   1      29.408  26.209  25.252  1.00  0.00    -0.057 A 
ATOM     46  H   UNL A   1      29.864  25.151  27.014  1.00  0.00     0.062 H 
ATOM     47  H   UNL A   1      28.568  26.665  25.640  1.00  0.00     0.063 H 
BRANCH  42  48
ATOM     48  C   UNL A   1      28.930  27.410  23.127  1.00  0.00    -0.038 C 
ATOM     49  H   UNL A   1      29.463  27.734  22.258  1.00  0.00     0.028 H 
ATOM     50  H   UNL A   1      28.676  28.259  23.727  1.00  0.00     0.028 H 
ATOM     51  H   UNL A   1      28.036  26.903  22.829  1.00  0.00     0.028 H 
ENDBRANCH  42  48
ENDBRANCH  27  33
BRANCH  28  52
ATOM     52  C   UNL A   1      35.035  25.054  25.670  1.00  0.00    -0.024 C 
ATOM     53  H   UNL A   1      34.398  25.797  25.238  1.00  0.00     0.030 H 
ATOM     54  H   UNL A   1      36.045  25.228  25.362  1.00  0.00     0.030 H 
ATOM     55  H   UNL A   1      34.973  25.106  26.737  1.00  0.00     0.030 H 
ENDBRANCH  28  52
ENDBRANCH  14  17
ENDBRANCH  11  14
ENDBRANCH   7  10
ENDBRANCH   4   7
ENDBRANCH   1   4
BRANCH   1  56
ATOM     56  C   UNL A   1      41.914  19.875  27.118  1.00  0.00    -0.052 C 
ATOM     57  H   UNL A   1      41.684  19.639  28.136  1.00  0.00     0.027 H 
ATOM     58  H   UNL A   1      42.747  20.537  27.012  1.00  0.00     0.027 H 
BRANCH  56  59
ATOM     59  C   UNL A   1      42.306  18.576  26.406  1.00  0.00    -0.036 C 
ATOM     60  H   UNL A   1      41.808  18.550  25.461  1.00  0.00     0.028 H 
ATOM     61  H   UNL A   1      42.015  17.775  27.054  1.00  0.00     0.028 H 
BRANCH  59  62
ATOM     62  C   UNL A   1      43.808  18.416  26.162  1.00  0.00     0.018 C 
ATOM     63  H   UNL A   1      44.063  17.385  26.299  1.00  0.00     0.049 H 
ATOM     64  H   UNL A   1      44.306  19.059  26.856  1.00  0.00     0.049 H 
BRANCH  62  65
ATOM     65  N   UNL A   1      44.235  18.818  24.837  1.00  0.00    -0.352 N 
ATOM     66  C   UNL A   1      44.633  20.002  24.268  1.00  0.00     0.251 C 
ATOM     67  H   UNL A   1      44.242  18.069  24.198  1.00  0.00     0.163 HD
ATOM     68  O   UNL A   1      45.057  19.942  23.122  1.00  0.00    -0.269 OA
BRANCH  66  69
ATOM     69  C   UNL A   1      44.514  21.338  24.920  1.00  0.00     0.039 A 
ATOM     70  C   UNL A   1      45.306  21.804  25.965  1.00  0.00    -0.049 A 
ATOM     71  C   UNL A   1      43.466  22.160  24.460  1.00  0.00    -0.049 A 
ATOM     72  C   UNL A   1      44.986  22.988  26.617  1.00  0.00    -0.053 A 
ATOM     73  H   UNL A   1      46.137  21.267  26.258  1.00  0.00     0.063 H 
ATOM     74  C   UNL A   1      43.163  23.369  25.084  1.00  0.00    -0.053 A 
ATOM     75  H   UNL A   1      42.911  21.861  23.642  1.00  0.00     0.063 H 
ATOM     76  C   UNL A   1      43.896  23.757  26.197  1.00  0.00    -0.014 A 
ATOM     77  H   UNL A   1      45.557  23.302  27.418  1.00  0.00     0.063 H 
ATOM     78  H   UNL A   1      42.403  23.968  24.723  1.00  0.00     0.063 H 
BRANCH  76  79
ATOM     79  C   UNL A   1      43.663  25.014  26.905  1.00  0.00     0.031 A 
ATOM     80  C   UNL A   1      44.715  26.047  26.685  1.00  0.00     0.074 A 
ATOM     81  C   UNL A   1      42.584  25.277  27.666  1.00  0.00     0.049 A 
ATOM     82  N   UNL A   1      45.516  26.566  27.559  1.00  0.00    -0.248 NA
ATOM     83  C   UNL A   1      44.983  26.467  25.301  1.00  0.00    -0.034 C 
ATOM     84  C   UNL A   1      41.348  24.503  27.790  1.00  0.00    -0.036 A 
ATOM     85  N   UNL A   1      42.346  26.367  28.454  1.00  0.00    -0.354 N 
ATOM     86  C   UNL A   1      46.297  27.489  26.867  1.00  0.00     0.074 A 
ATOM     87  C   UNL A   1      46.007  27.304  25.469  1.00  0.00    -0.034 C 
ATOM     88  H   UNL A   1      44.505  26.187  24.431  1.00  0.00     0.065 H 
ATOM     89  C   UNL A   1      40.419  25.244  28.435  1.00  0.00    -0.036 A 
ATOM     90  H   UNL A   1      41.209  23.543  27.440  1.00  0.00     0.065 H 
ATOM     91  C   UNL A   1      41.035  26.479  28.894  1.00  0.00     0.049 A 
ATOM     92  H   UNL A   1      43.046  27.019  28.690  1.00  0.00     0.167 HD
ATOM     93  C   UNL A   1      46.987  28.466  27.519  1.00  0.00     0.037 A 
ATOM     94  H   UNL A   1      46.523  27.758  24.700  1.00  0.00     0.065 H 
ATOM     95  H   UNL A   1      39.432  24.978  28.578  1.00  0.00     0.065 H 
ATOM     96  C   UNL A   1      40.490  27.534  29.547  1.00  0.00     0.037 A 
ATOM     97  C   UNL A   1      47.175  28.134  28.905  1.00  0.00     0.049 A 
ATOM     98  C   UNL A   1      41.598  28.292  30.172  1.00  0.00     0.074 A 
ATOM     99  C   UNL A   1      47.865  27.161  29.598  1.00  0.00    -0.036 A 
ATOM    100  N   UNL A   1      46.317  28.706  29.809  1.00  0.00    -0.354 N 
ATOM    101  N   UNL A   1      42.310  27.862  31.175  1.00  0.00    -0.248 NA
ATOM    102  C   UNL A   1      42.160  29.420  29.446  1.00  0.00    -0.034 C 
ATOM    103  C   UNL A   1      47.086  26.903  30.763  1.00  0.00    -0.036 A 
ATOM    104  H   UNL A   1      48.756  26.714  29.329  1.00  0.00     0.065 H 
ATOM    105  C   UNL A   1      45.982  27.757  30.737  1.00  0.00     0.049 A 
ATOM    106  H   UNL A   1      45.998  29.636  29.792  1.00  0.00     0.167 HD
ATOM    107  C   UNL A   1      43.578  28.363  30.941  1.00  0.00     0.074 A 
ATOM    108  C   UNL A   1      43.392  29.420  29.954  1.00  0.00    -0.034 C 
ATOM    109  H   UNL A   1      41.728  30.040  28.742  1.00  0.00     0.065 H 
ATOM    110  H   UNL A   1      47.300  26.210  31.496  1.00  0.00     0.065 H 
ATOM    111  C   UNL A   1      44.682  27.681  31.361  1.00  0.00     0.037 A 
ATOM    112  H   UNL A   1      44.130  30.088  29.681  1.00  0.00     0.065 H 
BRANCH  93 113
ATOM    113  C   UNL A   1      47.166  29.877  27.004  1.00  0.00     0.064 A 
ATOM    114  C   UNL A   1      48.414  30.517  27.171  1.00  0.00     0.173 A 
ATOM    115  C   UNL A   1      46.095  30.725  26.652  1.00  0.00     0.173 A 
ATOM    116  F   UNL A   1      49.503  29.816  27.520  1.00  0.00    -0.203 F 
ATOM    117  C   UNL A   1      48.552  31.905  27.081  1.00  0.00     0.198 A 
ATOM    118  C   UNL A   1      46.248  32.104  26.513  1.00  0.00     0.198 A 
ATOM    119  F   UNL A   1      44.839  30.279  26.537  1.00  0.00    -0.203 F 
ATOM    120  F   UNL A   1      49.726  32.477  27.379  1.00  0.00    -0.200 F 
ATOM    121  C   UNL A   1      47.467  32.699  26.761  1.00  0.00     0.200 A 
ATOM    122  F   UNL A   1      45.180  32.858  26.219  1.00  0.00    -0.200 F 
ATOM    123  F   UNL A   1      47.580  34.033  26.740  1.00  0.00    -0.200 F 
ENDBRANCH  93 113
BRANCH  96 124
ATOM    124  C   UNL A   1      39.123  28.099  29.444  1.00  0.00     0.064 A 
ATOM    125  C   UNL A   1      38.336  28.294  30.595  1.00  0.00     0.173 A 
ATOM    126  C   UNL A   1      38.685  28.744  28.274  1.00  0.00     0.173 A 
ATOM    127  F   UNL A   1      38.700  27.744  31.763  1.00  0.00    -0.203 F 
ATOM    128  C   UNL A   1      37.213  29.127  30.584  1.00  0.00     0.198 A 
ATOM    129  C   UNL A   1      37.558  29.568  28.263  1.00  0.00     0.198 A 
ATOM    130  F   UNL A   1      39.399  28.673  27.141  1.00  0.00    -0.203 F 
ATOM    131  F   UNL A   1      36.538  29.352  31.721  1.00  0.00    -0.200 F 
ATOM    132  C   UNL A   1      36.835  29.775  29.422  1.00  0.00     0.200 A 
ATOM    133  F   UNL A   1      37.222  30.217  27.139  1.00  0.00    -0.200 F 
ATOM    134  F   UNL A   1      35.804  30.631  29.428  1.00  0.00    -0.200 F 
ENDBRANCH  96 124
BRANCH 111 135
ATOM    135  C   UNL A   1      44.485  26.596  32.381  1.00  0.00     0.064 A 
ATOM    136  C   UNL A   1      44.336  25.233  32.068  1.00  0.00     0.173 A 
ATOM    137  C   UNL A   1      44.595  26.940  33.735  1.00  0.00     0.173 A 
ATOM    138  F   UNL A   1      44.317  24.815  30.795  1.00  0.00    -0.203 F 
ATOM    139  C   UNL A   1      44.266  24.268  33.071  1.00  0.00     0.198 A 
ATOM    140  C   UNL A   1      44.564  25.971  34.732  1.00  0.00     0.198 A 
ATOM    141  F   UNL A   1      44.789  28.221  34.090  1.00  0.00    -0.203 F 
ATOM    142  F   UNL A   1      44.117  22.974  32.751  1.00  0.00    -0.200 F 
ATOM    143  C   UNL A   1      44.392  24.637  34.401  1.00  0.00     0.200 A 
ATOM    144  F   UNL A   1      44.737  26.326  36.012  1.00  0.00    -0.200 F 
ATOM    145  F   UNL A   1      44.376  23.703  35.362  1.00  0.00    -0.200 F 
ENDBRANCH 111 135
ENDBRANCH  76  79
ENDBRANCH  66  69
ENDBRANCH  62  65
ENDBRANCH  59  62
ENDBRANCH  56  59
ENDBRANCH   1  56
TORSDOF 18
ENDMDL
MODEL 5
REMARK VINA RESULT:     -12.2      2.647      4.286
REMARK SMILES Cc1ccc2c(c1)c(-c1ccnc3c(C)cccc13)c(C)n2CC(=O)NCCCCCCNC(=O)c1ccc(-c2c3nc(c(-c4c(F)c(F)c(F)c(F)c4F)c4ccc([nH]4)c(-c4c(F)c(F)c(F)c(F)c4F)c4nc(c(-c5c(F)c(F)c(F)c(F)c5F)c5ccc2[nH]5)C=C4)C=C3)cc1
REMARK SMILES IDX 29 1 28 4 27 7 26 10 24 11 25 12 23 14 22 17 2 18 3 19 7 20
REMARK SMILES IDX 4 21 6 23 5 25 8 27 20 28 1 29 9 33 10 34 19 35 11 36 13 38
REMARK SMILES IDX 18 39 12 40 14 42 17 43 16 45 15 48 21 52 30 56 31 59 32 62
REMARK SMILES IDX 33 65 34 66 35 68 36 69 37 70 98 71 38 72 97 74 39 76 40 79
REMARK SMILES IDX 41 80 91 81 42 82 96 83 90 84 92 85 43 86 95 87 89 89 88 91
REMARK SMILES IDX 44 93 76 96 56 97 75 98 57 99 60 100 74 101 93 102 58 103
REMARK SMILES IDX 59 105 73 107 94 108 61 111 45 113 46 114 54 115 47 116
REMARK SMILES IDX 48 117 52 118 55 119 49 120 50 121 53 122 51 123 77 124
REMARK SMILES IDX 78 125 86 126 79 127 80 128 84 129 87 130 81 131 82 132
REMARK SMILES IDX 85 133 83 134 62 135 63 136 71 137 64 138 65 139 69 140
REMARK SMILES IDX 72 141 66 142 67 143 70 144 68 145
REMARK H PARENT 29 2 29 3 28 5 28 6 27 8 27 9 26 13 23 15 23 16 3 22 7 24 4 26
REMARK H PARENT 1 30 1 31 1 32 10 37 11 41 18 44 17 46 16 47 15 49 15 50 15 51
REMARK H PARENT 21 53 21 54 21 55 30 57 30 58 31 60 31 61 32 63 32 64 33 67
REMARK H PARENT 37 73 98 75 38 77 97 78 96 88 90 90 92 92 95 94 89 95 57 104
REMARK H PARENT 60 106 93 109 58 110 94 112
REMARK Flexibility Score: inf
ROOT
ATOM      1  C   UNL A   1      38.742  24.267  26.443  1.00  0.00    -0.052 C 
ATOM      2  H   UNL A   1      38.878  25.208  26.935  1.00  0.00     0.027 H 
ATOM      3  H   UNL A   1      39.165  24.242  25.461  1.00  0.00     0.027 H 
ENDROOT
BRANCH   1   4
ATOM      4  C   UNL A   1      37.237  24.028  26.274  1.00  0.00    -0.036 C 
ATOM      5  H   UNL A   1      36.949  23.231  26.928  1.00  0.00     0.028 H 
ATOM      6  H   UNL A   1      36.750  24.951  26.507  1.00  0.00     0.028 H 
BRANCH   4   7
ATOM      7  C   UNL A   1      36.820  23.656  24.854  1.00  0.00     0.017 C 
ATOM      8  H   UNL A   1      36.135  24.391  24.487  1.00  0.00     0.049 H 
ATOM      9  H   UNL A   1      37.699  23.619  24.243  1.00  0.00     0.049 H 
BRANCH   7  10
ATOM     10  N   UNL A   1      36.182  22.354  24.814  1.00  0.00    -0.355 N 
ATOM     11  C   UNL A   1      35.029  21.972  24.192  1.00  0.00     0.239 C 
ATOM     12  O   UNL A   1      34.656  20.805  24.347  1.00  0.00    -0.273 OA
ATOM     13  H   UNL A   1      36.649  21.642  25.308  1.00  0.00     0.163 HD
BRANCH  11  14
ATOM     14  C   UNL A   1      34.276  22.921  23.279  1.00  0.00     0.102 C 
ATOM     15  H   UNL A   1      34.989  23.522  22.756  1.00  0.00     0.060 H 
ATOM     16  H   UNL A   1      33.686  22.314  22.622  1.00  0.00     0.060 H 
BRANCH  14  17
ATOM     17  N   UNL A   1      33.349  23.809  23.974  1.00  0.00    -0.335 N 
ATOM     18  C   UNL A   1      30.247  23.050  26.640  1.00  0.00    -0.050 A 
ATOM     19  C   UNL A   1      31.088  21.977  26.344  1.00  0.00    -0.057 A 
ATOM     20  C   UNL A   1      30.519  24.313  26.092  1.00  0.00    -0.049 A 
ATOM     21  C   UNL A   1      32.189  22.130  25.498  1.00  0.00    -0.037 A 
ATOM     22  H   UNL A   1      30.893  21.052  26.757  1.00  0.00     0.063 H 
ATOM     23  C   UNL A   1      31.621  24.492  25.226  1.00  0.00     0.008 A 
ATOM     24  H   UNL A   1      29.911  25.115  26.322  1.00  0.00     0.063 H 
ATOM     25  C   UNL A   1      32.422  23.390  24.919  1.00  0.00     0.049 A 
ATOM     26  H   UNL A   1      32.819  21.335  25.302  1.00  0.00     0.065 H 
ATOM     27  C   UNL A   1      32.158  25.610  24.524  1.00  0.00     0.011 A 
ATOM     28  C   UNL A   1      33.257  25.177  23.796  1.00  0.00     0.024 A 
BRANCH  18  29
ATOM     29  C   UNL A   1      29.041  22.831  27.507  1.00  0.00    -0.040 C 
ATOM     30  H   UNL A   1      29.144  21.907  28.034  1.00  0.00     0.028 H 
ATOM     31  H   UNL A   1      28.164  22.797  26.894  1.00  0.00     0.028 H 
ATOM     32  H   UNL A   1      28.956  23.635  28.208  1.00  0.00     0.028 H 
ENDBRANCH  18  29
BRANCH  27  33
ATOM     33  C   UNL A   1      31.691  26.993  24.507  1.00  0.00    -0.005 A 
ATOM     34  C   UNL A   1      30.732  27.346  23.562  1.00  0.00    -0.035 A 
ATOM     35  C   UNL A   1      32.164  27.956  25.435  1.00  0.00     0.008 A 
ATOM     36  C   UNL A   1      30.257  28.637  23.584  1.00  0.00     0.028 A 
ATOM     37  H   UNL A   1      30.389  26.662  22.868  1.00  0.00     0.065 H 
ATOM     38  C   UNL A   1      31.601  29.251  25.384  1.00  0.00     0.074 A 
ATOM     39  C   UNL A   1      33.159  27.678  26.400  1.00  0.00    -0.052 A 
ATOM     40  N   UNL A   1      30.664  29.574  24.467  1.00  0.00    -0.256 NA
ATOM     41  H   UNL A   1      29.547  28.905  22.884  1.00  0.00     0.084 H 
ATOM     42  C   UNL A   1      32.034  30.205  26.319  1.00  0.00    -0.025 A 
ATOM     43  C   UNL A   1      33.595  28.638  27.304  1.00  0.00    -0.061 A 
ATOM     44  H   UNL A   1      33.573  26.734  26.434  1.00  0.00     0.063 H 
ATOM     45  C   UNL A   1      33.030  29.900  27.265  1.00  0.00    -0.057 A 
ATOM     46  H   UNL A   1      34.330  28.413  27.993  1.00  0.00     0.062 H 
ATOM     47  H   UNL A   1      33.340  30.621  27.935  1.00  0.00     0.063 H 
BRANCH  42  48
ATOM     48  C   UNL A   1      31.452  31.595  26.356  1.00  0.00    -0.038 C 
ATOM     49  H   UNL A   1      30.533  31.611  25.809  1.00  0.00     0.028 H 
ATOM     50  H   UNL A   1      32.143  32.283  25.914  1.00  0.00     0.028 H 
ATOM     51  H   UNL A   1      31.268  31.877  27.372  1.00  0.00     0.028 H 
ENDBRANCH  42  48
ENDBRANCH  27  33
BRANCH  28  52
ATOM     52  C   UNL A   1      34.173  25.968  22.918  1.00  0.00    -0.024 C 
ATOM     53  H   UNL A   1      34.017  27.012  23.088  1.00  0.00     0.030 H 
ATOM     54  H   UNL A   1      33.969  25.739  21.892  1.00  0.00     0.030 H 
ATOM     55  H   UNL A   1      35.188  25.717  23.144  1.00  0.00     0.030 H 
ENDBRANCH  28  52
ENDBRANCH  14  17
ENDBRANCH  11  14
ENDBRANCH   7  10
ENDBRANCH   4   7
ENDBRANCH   1   4
BRANCH   1  56
ATOM     56  C   UNL A   1      39.473  23.194  27.256  1.00  0.00    -0.052 C 
ATOM     57  H   UNL A   1      38.890  22.984  28.128  1.00  0.00     0.027 H 
ATOM     58  H   UNL A   1      40.440  23.593  27.476  1.00  0.00     0.027 H 
BRANCH  56  59
ATOM     59  C   UNL A   1      39.713  21.874  26.517  1.00  0.00    -0.036 C 
ATOM     60  H   UNL A   1      40.025  22.101  25.520  1.00  0.00     0.028 H 
ATOM     61  H   UNL A   1      38.790  21.333  26.553  1.00  0.00     0.028 H 
BRANCH  59  62
ATOM     62  C   UNL A   1      40.771  20.972  27.156  1.00  0.00     0.018 C 
ATOM     63  H   UNL A   1      40.441  19.958  27.078  1.00  0.00     0.049 H 
ATOM     64  H   UNL A   1      40.880  21.292  28.172  1.00  0.00     0.049 H 
BRANCH  62  65
ATOM     65  N   UNL A   1      42.080  21.073  26.543  1.00  0.00    -0.352 N 
ATOM     66  C   UNL A   1      43.077  22.017  26.542  1.00  0.00     0.251 C 
ATOM     67  H   UNL A   1      42.306  20.282  26.003  1.00  0.00     0.163 HD
ATOM     68  O   UNL A   1      44.128  21.702  26.002  1.00  0.00    -0.269 OA
BRANCH  66  69
ATOM     69  C   UNL A   1      42.935  23.401  27.082  1.00  0.00     0.039 A 
ATOM     70  C   UNL A   1      43.094  23.772  28.414  1.00  0.00    -0.049 A 
ATOM     71  C   UNL A   1      42.550  24.390  26.155  1.00  0.00    -0.049 A 
ATOM     72  C   UNL A   1      42.756  25.052  28.833  1.00  0.00    -0.053 A 
ATOM     73  H   UNL A   1      43.466  23.092  29.095  1.00  0.00     0.063 H 
ATOM     74  C   UNL A   1      42.247  25.688  26.563  1.00  0.00    -0.053 A 
ATOM     75  H   UNL A   1      42.492  24.148  25.153  1.00  0.00     0.063 H 
ATOM     76  C   UNL A   1      42.303  26.003  27.914  1.00  0.00    -0.014 A 
ATOM     77  H   UNL A   1      42.840  25.303  29.831  1.00  0.00     0.063 H 
ATOM     78  H   UNL A   1      41.984  26.406  25.869  1.00  0.00     0.063 H 
BRANCH  76  79
ATOM     79  C   UNL A   1      42.021  27.340  28.431  1.00  0.00     0.031 A 
ATOM     80  C   UNL A   1      43.078  28.349  28.137  1.00  0.00     0.074 A 
ATOM     81  C   UNL A   1      40.896  27.688  29.086  1.00  0.00     0.049 A 
ATOM     82  N   UNL A   1      43.822  28.990  28.979  1.00  0.00    -0.248 NA
ATOM     83  C   UNL A   1      43.426  28.584  26.727  1.00  0.00    -0.034 C 
ATOM     84  C   UNL A   1      39.660  26.920  29.239  1.00  0.00    -0.036 A 
ATOM     85  N   UNL A   1      40.606  28.870  29.705  1.00  0.00    -0.354 N 
ATOM     86  C   UNL A   1      44.638  29.824  28.216  1.00  0.00     0.074 A 
ATOM     87  C   UNL A   1      44.433  29.450  26.842  1.00  0.00    -0.034 C 
ATOM     88  H   UNL A   1      43.003  28.184  25.876  1.00  0.00     0.065 H 
ATOM     89  C   UNL A   1      38.689  27.729  29.723  1.00  0.00    -0.036 A 
ATOM     90  H   UNL A   1      39.547  25.920  29.013  1.00  0.00     0.065 H 
ATOM     91  C   UNL A   1      39.269  29.022  30.047  1.00  0.00     0.049 A 
ATOM     92  H   UNL A   1      41.286  29.557  29.892  1.00  0.00     0.167 HD
ATOM     93  C   UNL A   1      45.282  30.888  28.771  1.00  0.00     0.037 A 
ATOM     94  H   UNL A   1      44.992  29.804  26.050  1.00  0.00     0.065 H 
ATOM     95  H   UNL A   1      37.697  27.470  29.842  1.00  0.00     0.065 H 
ATOM     96  C   UNL A   1      38.680  30.147  30.521  1.00  0.00     0.037 A 
ATOM     97  C   UNL A   1      45.388  30.747  30.198  1.00  0.00     0.049 A 
ATOM     98  C   UNL A   1      39.744  30.996  31.102  1.00  0.00     0.074 A 
ATOM     99  C   UNL A   1      46.041  29.885  31.055  1.00  0.00    -0.036 A 
ATOM    100  N   UNL A   1      44.475  31.423  30.965  1.00  0.00    -0.354 N 
ATOM    101  N   UNL A   1      40.397  30.714  32.194  1.00  0.00    -0.248 NA
ATOM    102  C   UNL A   1      40.342  32.025  30.265  1.00  0.00    -0.034 C 
ATOM    103  C   UNL A   1      45.194  29.774  32.196  1.00  0.00    -0.036 A 
ATOM    104  H   UNL A   1      46.949  29.418  30.901  1.00  0.00     0.065 H 
ATOM    105  C   UNL A   1      44.089  30.602  31.991  1.00  0.00     0.049 A 
ATOM    106  H   UNL A   1      44.151  32.338  30.805  1.00  0.00     0.167 HD
ATOM    107  C   UNL A   1      41.674  31.196  31.969  1.00  0.00     0.074 A 
ATOM    108  C   UNL A   1      41.542  32.109  30.841  1.00  0.00    -0.034 C 
ATOM    109  H   UNL A   1      39.951  32.539  29.461  1.00  0.00     0.065 H 
ATOM    110  H   UNL A   1      45.368  29.188  33.027  1.00  0.00     0.065 H 
ATOM    111  C   UNL A   1      42.754  30.592  32.542  1.00  0.00     0.037 A 
ATOM    112  H   UNL A   1      42.291  32.746  30.524  1.00  0.00     0.065 H 
BRANCH  93 113
ATOM    113  C   UNL A   1      45.484  32.220  28.084  1.00  0.00     0.064 A 
ATOM    114  C   UNL A   1      44.357  33.011  27.771  1.00  0.00     0.173 A 
ATOM    115  C   UNL A   1      46.683  32.600  27.444  1.00  0.00     0.173 A 
ATOM    116  F   UNL A   1      43.158  32.737  28.307  1.00  0.00    -0.203 F 
ATOM    117  C   UNL A   1      44.411  34.037  26.824  1.00  0.00     0.198 A 
ATOM    118  C   UNL A   1      46.744  33.658  26.538  1.00  0.00     0.198 A 
ATOM    119  F   UNL A   1      47.816  31.901  27.578  1.00  0.00    -0.203 F 
ATOM    120  F   UNL A   1      43.286  34.669  26.462  1.00  0.00    -0.200 F 
ATOM    121  C   UNL A   1      45.603  34.354  26.201  1.00  0.00     0.200 A 
ATOM    122  F   UNL A   1      47.906  33.938  25.931  1.00  0.00    -0.200 F 
ATOM    123  F   UNL A   1      45.646  35.291  25.245  1.00  0.00    -0.200 F 
ENDBRANCH  93 113
BRANCH  96 124
ATOM    124  C   UNL A   1      37.319  30.674  30.262  1.00  0.00     0.064 A 
ATOM    125  C   UNL A   1      36.505  31.115  31.322  1.00  0.00     0.173 A 
ATOM    126  C   UNL A   1      36.913  31.048  28.968  1.00  0.00     0.173 A 
ATOM    127  F   UNL A   1      36.837  30.834  32.591  1.00  0.00    -0.203 F 
ATOM    128  C   UNL A   1      35.386  31.924  31.102  1.00  0.00     0.198 A 
ATOM    129  C   UNL A   1      35.790  31.848  28.750  1.00  0.00     0.198 A 
ATOM    130  F   UNL A   1      37.654  30.732  27.896  1.00  0.00    -0.203 F 
ATOM    131  F   UNL A   1      34.684  32.392  32.144  1.00  0.00    -0.200 F 
ATOM    132  C   UNL A   1      35.039  32.303  29.817  1.00  0.00     0.200 A 
ATOM    133  F   UNL A   1      35.484  32.235  27.503  1.00  0.00    -0.200 F 
ATOM    134  F   UNL A   1      34.013  33.139  29.610  1.00  0.00    -0.200 F 
ENDBRANCH  96 124
BRANCH 111 135
ATOM    135  C   UNL A   1      42.503  29.650  33.685  1.00  0.00     0.064 A 
ATOM    136  C   UNL A   1      42.187  28.289  33.533  1.00  0.00     0.173 A 
ATOM    137  C   UNL A   1      42.731  30.120  34.985  1.00  0.00     0.173 A 
ATOM    138  F   UNL A   1      42.046  27.743  32.317  1.00  0.00    -0.203 F 
ATOM    139  C   UNL A   1      42.073  27.449  34.640  1.00  0.00     0.198 A 
ATOM    140  C   UNL A   1      42.656  29.271  36.084  1.00  0.00     0.198 A 
ATOM    141  F   UNL A   1      43.085  31.400  35.185  1.00  0.00    -0.203 F 
ATOM    142  F   UNL A   1      41.764  26.154  34.473  1.00  0.00    -0.200 F 
ATOM    143  C   UNL A   1      42.319  27.938  35.912  1.00  0.00     0.200 A 
ATOM    144  F   UNL A   1      42.944  29.738  37.306  1.00  0.00    -0.200 F 
ATOM    145  F   UNL A   1      42.260  27.119  36.972  1.00  0.00    -0.200 F 
ENDBRANCH 111 135
ENDBRANCH  76  79
ENDBRANCH  66  69
ENDBRANCH  62  65
ENDBRANCH  59  62
ENDBRANCH  56  59
ENDBRANCH   1  56
TORSDOF 18
ENDMDL
MODEL 6
REMARK VINA RESULT:     -12.2      1.879      3.179
REMARK SMILES Cc1ccc2c(c1)c(-c1ccnc3c(C)cccc13)c(C)n2CC(=O)NCCCCCCNC(=O)c1ccc(-c2c3nc(c(-c4c(F)c(F)c(F)c(F)c4F)c4ccc([nH]4)c(-c4c(F)c(F)c(F)c(F)c4F)c4nc(c(-c5c(F)c(F)c(F)c(F)c5F)c5ccc2[nH]5)C=C4)C=C3)cc1
REMARK SMILES IDX 29 1 28 4 27 7 26 10 24 11 25 12 23 14 22 17 2 18 3 19 7 20
REMARK SMILES IDX 4 21 6 23 5 25 8 27 20 28 1 29 9 33 10 34 19 35 11 36 13 38
REMARK SMILES IDX 18 39 12 40 14 42 17 43 16 45 15 48 21 52 30 56 31 59 32 62
REMARK SMILES IDX 33 65 34 66 35 68 36 69 37 70 98 71 38 72 97 74 39 76 40 79
REMARK SMILES IDX 41 80 91 81 42 82 96 83 90 84 92 85 43 86 95 87 89 89 88 91
REMARK SMILES IDX 44 93 76 96 56 97 75 98 57 99 60 100 74 101 93 102 58 103
REMARK SMILES IDX 59 105 73 107 94 108 61 111 45 113 46 114 54 115 47 116
REMARK SMILES IDX 48 117 52 118 55 119 49 120 50 121 53 122 51 123 77 124
REMARK SMILES IDX 78 125 86 126 79 127 80 128 84 129 87 130 81 131 82 132
REMARK SMILES IDX 85 133 83 134 62 135 63 136 71 137 64 138 65 139 69 140
REMARK SMILES IDX 72 141 66 142 67 143 70 144 68 145
REMARK H PARENT 29 2 29 3 28 5 28 6 27 8 27 9 26 13 23 15 23 16 3 22 7 24 4 26
REMARK H PARENT 1 30 1 31 1 32 10 37 11 41 18 44 17 46 16 47 15 49 15 50 15 51
REMARK H PARENT 21 53 21 54 21 55 30 57 30 58 31 60 31 61 32 63 32 64 33 67
REMARK H PARENT 37 73 98 75 38 77 97 78 96 88 90 90 92 92 95 94 89 95 57 104
REMARK H PARENT 60 106 93 109 58 110 94 112
REMARK Flexibility Score: inf
ROOT
ATOM      1  C   UNL A   1      39.107  22.035  25.965  1.00  0.00    -0.052 C 
ATOM      2  H   UNL A   1      38.642  22.697  26.666  1.00  0.00     0.027 H 
ATOM      3  H   UNL A   1      39.565  22.547  25.145  1.00  0.00     0.027 H 
ENDROOT
BRANCH   1   4
ATOM      4  C   UNL A   1      38.022  21.134  25.363  1.00  0.00    -0.036 C 
ATOM      5  H   UNL A   1      38.246  20.986  24.327  1.00  0.00     0.028 H 
ATOM      6  H   UNL A   1      38.033  20.222  25.923  1.00  0.00     0.028 H 
BRANCH   4   7
ATOM      7  C   UNL A   1      36.609  21.701  25.473  1.00  0.00     0.017 C 
ATOM      8  H   UNL A   1      35.950  20.930  25.812  1.00  0.00     0.049 H 
ATOM      9  H   UNL A   1      36.625  22.517  26.165  1.00  0.00     0.049 H 
BRANCH   7  10
ATOM     10  N   UNL A   1      36.139  22.196  24.194  1.00  0.00    -0.355 N 
ATOM     11  C   UNL A   1      35.521  23.376  23.894  1.00  0.00     0.239 C 
ATOM     12  O   UNL A   1      35.163  23.553  22.725  1.00  0.00    -0.273 OA
ATOM     13  H   UNL A   1      36.285  21.592  23.430  1.00  0.00     0.163 HD
BRANCH  11  14
ATOM     14  C   UNL A   1      35.355  24.464  24.938  1.00  0.00     0.102 C 
ATOM     15  H   UNL A   1      35.642  24.066  25.888  1.00  0.00     0.060 H 
ATOM     16  H   UNL A   1      35.973  25.284  24.631  1.00  0.00     0.060 H 
BRANCH  14  17
ATOM     17  N   UNL A   1      33.995  24.983  25.049  1.00  0.00    -0.335 N 
ATOM     18  C   UNL A   1      30.562  23.416  26.800  1.00  0.00    -0.050 A 
ATOM     19  C   UNL A   1      31.758  22.756  27.081  1.00  0.00    -0.057 A 
ATOM     20  C   UNL A   1      30.582  24.580  26.017  1.00  0.00    -0.049 A 
ATOM     21  C   UNL A   1      32.978  23.223  26.585  1.00  0.00    -0.037 A 
ATOM     22  H   UNL A   1      31.743  21.907  27.667  1.00  0.00     0.063 H 
ATOM     23  C   UNL A   1      31.801  25.068  25.495  1.00  0.00     0.008 A 
ATOM     24  H   UNL A   1      29.701  25.083  25.821  1.00  0.00     0.063 H 
ATOM     25  C   UNL A   1      32.977  24.364  25.763  1.00  0.00     0.049 A 
ATOM     26  H   UNL A   1      33.861  22.740  26.817  1.00  0.00     0.065 H 
ATOM     27  C   UNL A   1      32.156  26.188  24.690  1.00  0.00     0.011 A 
ATOM     28  C   UNL A   1      33.526  26.146  24.468  1.00  0.00     0.024 A 
BRANCH  18  29
ATOM     29  C   UNL A   1      29.266  22.850  27.303  1.00  0.00    -0.040 C 
ATOM     30  H   UNL A   1      28.495  23.031  26.586  1.00  0.00     0.028 H 
ATOM     31  H   UNL A   1      29.009  23.319  28.230  1.00  0.00     0.028 H 
ATOM     32  H   UNL A   1      29.373  21.795  27.454  1.00  0.00     0.028 H 
ENDBRANCH  18  29
BRANCH  27  33
ATOM     33  C   UNL A   1      31.298  27.234  24.143  1.00  0.00    -0.005 A 
ATOM     34  C   UNL A   1      30.470  26.905  23.074  1.00  0.00    -0.035 A 
ATOM     35  C   UNL A   1      31.268  28.544  24.689  1.00  0.00     0.008 A 
ATOM     36  C   UNL A   1      29.624  27.880  22.595  1.00  0.00     0.028 A 
ATOM     37  H   UNL A   1      30.490  25.962  22.653  1.00  0.00     0.065 H 
ATOM     38  C   UNL A   1      30.353  29.467  24.135  1.00  0.00     0.074 A 
ATOM     39  C   UNL A   1      32.103  28.957  25.752  1.00  0.00    -0.052 A 
ATOM     40  N   UNL A   1      29.550  29.128  23.104  1.00  0.00    -0.256 NA
ATOM     41  H   UNL A   1      29.009  27.642  21.801  1.00  0.00     0.084 H 
ATOM     42  C   UNL A   1      30.289  30.757  24.688  1.00  0.00    -0.025 A 
ATOM     43  C   UNL A   1      32.045  30.243  26.274  1.00  0.00    -0.061 A 
ATOM     44  H   UNL A   1      32.774  28.285  26.152  1.00  0.00     0.063 H 
ATOM     45  C   UNL A   1      31.136  31.141  25.744  1.00  0.00    -0.057 A 
ATOM     46  H   UNL A   1      32.672  30.524  27.044  1.00  0.00     0.062 H 
ATOM     47  H   UNL A   1      31.078  32.097  26.126  1.00  0.00     0.063 H 
BRANCH  42  48
ATOM     48  C   UNL A   1      29.311  31.784  24.182  1.00  0.00    -0.038 C 
ATOM     49  H   UNL A   1      29.246  32.591  24.882  1.00  0.00     0.028 H 
ATOM     50  H   UNL A   1      28.346  31.334  24.068  1.00  0.00     0.028 H 
ATOM     51  H   UNL A   1      29.644  32.158  23.237  1.00  0.00     0.028 H 
ENDBRANCH  42  48
ENDBRANCH  27  33
BRANCH  28  52
ATOM     52  C   UNL A   1      34.384  27.104  23.706  1.00  0.00    -0.024 C 
ATOM     53  H   UNL A   1      33.823  27.988  23.487  1.00  0.00     0.030 H 
ATOM     54  H   UNL A   1      34.703  26.647  22.792  1.00  0.00     0.030 H 
ATOM     55  H   UNL A   1      35.240  27.361  24.295  1.00  0.00     0.030 H 
ENDBRANCH  28  52
ENDBRANCH  14  17
ENDBRANCH  11  14
ENDBRANCH   7  10
ENDBRANCH   4   7
ENDBRANCH   1   4
BRANCH   1  56
ATOM     56  C   UNL A   1      40.231  21.287  26.689  1.00  0.00    -0.052 C 
ATOM     57  H   UNL A   1      39.922  21.122  27.699  1.00  0.00     0.027 H 
ATOM     58  H   UNL A   1      41.102  21.903  26.605  1.00  0.00     0.027 H 
BRANCH  56  59
ATOM     59  C   UNL A   1      40.605  19.933  26.078  1.00  0.00    -0.036 C 
ATOM     60  H   UNL A   1      40.557  20.022  25.014  1.00  0.00     0.028 H 
ATOM     61  H   UNL A   1      39.909  19.221  26.470  1.00  0.00     0.028 H 
BRANCH  59  62
ATOM     62  C   UNL A   1      42.000  19.431  26.455  1.00  0.00     0.018 C 
ATOM     63  H   UNL A   1      41.941  18.378  26.636  1.00  0.00     0.049 H 
ATOM     64  H   UNL A   1      42.305  19.981  27.321  1.00  0.00     0.049 H 
BRANCH  62  65
ATOM     65  N   UNL A   1      43.004  19.662  25.437  1.00  0.00    -0.352 N 
ATOM     66  C   UNL A   1      43.833  20.709  25.116  1.00  0.00     0.251 C 
ATOM     67  H   UNL A   1      43.119  18.891  24.837  1.00  0.00     0.163 HD
ATOM     68  O   UNL A   1      44.666  20.500  24.246  1.00  0.00    -0.269 OA
BRANCH  66  69
ATOM     69  C   UNL A   1      43.733  22.079  25.699  1.00  0.00     0.039 A 
ATOM     70  C   UNL A   1      44.277  22.486  26.913  1.00  0.00    -0.049 A 
ATOM     71  C   UNL A   1      42.968  23.009  24.966  1.00  0.00    -0.049 A 
ATOM     72  C   UNL A   1      43.963  23.731  27.444  1.00  0.00    -0.053 A 
ATOM     73  H   UNL A   1      44.918  21.858  27.424  1.00  0.00     0.063 H 
ATOM     74  C   UNL A   1      42.681  24.274  25.474  1.00  0.00    -0.053 A 
ATOM     75  H   UNL A   1      42.612  22.746  24.033  1.00  0.00     0.063 H 
ATOM     76  C   UNL A   1      43.141  24.615  26.739  1.00  0.00    -0.014 A 
ATOM     77  H   UNL A   1      44.340  24.004  28.365  1.00  0.00     0.063 H 
ATOM     78  H   UNL A   1      42.134  24.950  24.917  1.00  0.00     0.063 H 
BRANCH  76  79
ATOM     79  C   UNL A   1      42.906  25.923  27.345  1.00  0.00     0.031 A 
ATOM     80  C   UNL A   1      43.925  26.954  26.997  1.00  0.00     0.074 A 
ATOM     81  C   UNL A   1      41.850  26.231  28.123  1.00  0.00     0.049 A 
ATOM     82  N   UNL A   1      44.746  27.561  27.791  1.00  0.00    -0.248 NA
ATOM     83  C   UNL A   1      44.131  27.258  25.573  1.00  0.00    -0.034 C 
ATOM     84  C   UNL A   1      40.638  25.446  28.361  1.00  0.00    -0.036 A 
ATOM     85  N   UNL A   1      41.618  27.379  28.824  1.00  0.00    -0.354 N 
ATOM     86  C   UNL A   1      45.480  28.437  26.992  1.00  0.00     0.074 A 
ATOM     87  C   UNL A   1      45.141  28.126  25.629  1.00  0.00    -0.034 C 
ATOM     88  H   UNL A   1      43.628  26.895  24.749  1.00  0.00     0.065 H 
ATOM     89  C   UNL A   1      39.717  26.222  28.976  1.00  0.00    -0.036 A 
ATOM     90  H   UNL A   1      40.507  24.456  28.100  1.00  0.00     0.065 H 
ATOM     91  C   UNL A   1      40.321  27.504  29.303  1.00  0.00     0.049 A 
ATOM     92  H   UNL A   1      42.311  28.062  28.976  1.00  0.00     0.167 HD
ATOM     93  C   UNL A   1      46.172  29.479  27.531  1.00  0.00     0.037 A 
ATOM     94  H   UNL A   1      45.618  28.523  24.803  1.00  0.00     0.065 H 
ATOM     95  H   UNL A   1      38.742  25.950  29.180  1.00  0.00     0.065 H 
ATOM     96  C   UNL A   1      39.777  28.600  29.885  1.00  0.00     0.037 A 
ATOM     97  C   UNL A   1      46.418  29.271  28.933  1.00  0.00     0.049 A 
ATOM     98  C   UNL A   1      40.890  29.430  30.399  1.00  0.00     0.074 A 
ATOM     99  C   UNL A   1      47.156  28.376  29.678  1.00  0.00    -0.036 A 
ATOM    100  N   UNL A   1      45.582  29.903  29.817  1.00  0.00    -0.354 N 
ATOM    101  N   UNL A   1      41.649  29.102  31.407  1.00  0.00    -0.248 NA
ATOM    102  C   UNL A   1      41.399  30.502  29.557  1.00  0.00    -0.034 C 
ATOM    103  C   UNL A   1      46.427  28.204  30.891  1.00  0.00    -0.036 A 
ATOM    104  H   UNL A   1      48.046  27.925  29.414  1.00  0.00     0.065 H 
ATOM    105  C   UNL A   1      45.304  29.031  30.835  1.00  0.00     0.049 A 
ATOM    106  H   UNL A   1      45.242  30.822  29.734  1.00  0.00     0.167 HD
ATOM    107  C   UNL A   1      42.896  29.605  31.081  1.00  0.00     0.074 A 
ATOM    108  C   UNL A   1      42.649  30.569  30.015  1.00  0.00    -0.034 C 
ATOM    109  H   UNL A   1      40.928  31.050  28.821  1.00  0.00     0.065 H 
ATOM    110  H   UNL A   1      46.684  27.581  31.671  1.00  0.00     0.065 H 
ATOM    111  C   UNL A   1      44.030  28.984  31.514  1.00  0.00     0.037 A 
ATOM    112  H   UNL A   1      43.361  31.226  29.657  1.00  0.00     0.065 H 
BRANCH  93 113
ATOM    113  C   UNL A   1      46.299  30.844  26.892  1.00  0.00     0.064 A 
ATOM    114  C   UNL A   1      47.560  31.478  26.868  1.00  0.00     0.173 A 
ATOM    115  C   UNL A   1      45.200  31.677  26.595  1.00  0.00     0.173 A 
ATOM    116  F   UNL A   1      48.678  30.791  27.147  1.00  0.00    -0.203 F 
ATOM    117  C   UNL A   1      47.695  32.852  26.655  1.00  0.00     0.198 A 
ATOM    118  C   UNL A   1      45.343  33.039  26.333  1.00  0.00     0.198 A 
ATOM    119  F   UNL A   1      43.936  31.241  26.657  1.00  0.00    -0.203 F 
ATOM    120  F   UNL A   1      48.898  33.430  26.775  1.00  0.00    -0.200 F 
ATOM    121  C   UNL A   1      46.585  33.634  26.397  1.00  0.00     0.200 A 
ATOM    122  F   UNL A   1      44.253  33.783  26.102  1.00  0.00    -0.200 F 
ATOM    123  F   UNL A   1      46.702  34.961  26.259  1.00  0.00    -0.200 F 
ENDBRANCH  93 113
BRANCH  96 124
ATOM    124  C   UNL A   1      38.395  29.127  29.788  1.00  0.00     0.064 A 
ATOM    125  C   UNL A   1      37.653  29.419  30.948  1.00  0.00     0.173 A 
ATOM    126  C   UNL A   1      37.894  29.647  28.581  1.00  0.00     0.173 A 
ATOM    127  F   UNL A   1      38.078  28.992  32.147  1.00  0.00    -0.203 F 
ATOM    128  C   UNL A   1      36.512  30.226  30.906  1.00  0.00     0.198 A 
ATOM    129  C   UNL A   1      36.750  30.445  28.540  1.00  0.00     0.198 A 
ATOM    130  F   UNL A   1      38.562  29.479  27.430  1.00  0.00    -0.203 F 
ATOM    131  F   UNL A   1      35.881  30.549  32.044  1.00  0.00    -0.200 F 
ATOM    132  C   UNL A   1      36.071  30.751  29.704  1.00  0.00     0.200 A 
ATOM    133  F   UNL A   1      36.352  30.975  27.374  1.00  0.00    -0.200 F 
ATOM    134  F   UNL A   1      35.023  31.586  29.673  1.00  0.00    -0.200 F 
ENDBRANCH  96 124
BRANCH 111 135
ATOM    135  C   UNL A   1      43.896  27.987  32.630  1.00  0.00     0.064 A 
ATOM    136  C   UNL A   1      43.814  26.596  32.442  1.00  0.00     0.173 A 
ATOM    137  C   UNL A   1      43.999  28.457  33.946  1.00  0.00     0.173 A 
ATOM    138  F   UNL A   1      43.806  26.064  31.213  1.00  0.00    -0.203 F 
ATOM    139  C   UNL A   1      43.800  25.724  33.529  1.00  0.00     0.198 A 
ATOM    140  C   UNL A   1      44.025  27.582  35.026  1.00  0.00     0.198 A 
ATOM    141  F   UNL A   1      44.130  29.773  34.182  1.00  0.00    -0.203 F 
ATOM    142  F   UNL A   1      43.714  24.400  33.329  1.00  0.00    -0.200 F 
ATOM    143  C   UNL A   1      43.917  26.217  34.819  1.00  0.00     0.200 A 
ATOM    144  F   UNL A   1      44.189  28.060  36.267  1.00  0.00    -0.200 F 
ATOM    145  F   UNL A   1      43.956  25.374  35.861  1.00  0.00    -0.200 F 
ENDBRANCH 111 135
ENDBRANCH  76  79
ENDBRANCH  66  69
ENDBRANCH  62  65
ENDBRANCH  59  62
ENDBRANCH  56  59
ENDBRANCH   1  56
TORSDOF 18
ENDMDL
MODEL 7
REMARK VINA RESULT:     -12.1      5.304     10.968
REMARK SMILES Cc1ccc2c(c1)c(-c1ccnc3c(C)cccc13)c(C)n2CC(=O)NCCCCCCNC(=O)c1ccc(-c2c3nc(c(-c4c(F)c(F)c(F)c(F)c4F)c4ccc([nH]4)c(-c4c(F)c(F)c(F)c(F)c4F)c4nc(c(-c5c(F)c(F)c(F)c(F)c5F)c5ccc2[nH]5)C=C4)C=C3)cc1
REMARK SMILES IDX 29 1 28 4 27 7 26 10 24 11 25 12 23 14 22 17 2 18 3 19 7 20
REMARK SMILES IDX 4 21 6 23 5 25 8 27 20 28 1 29 9 33 10 34 19 35 11 36 13 38
REMARK SMILES IDX 18 39 12 40 14 42 17 43 16 45 15 48 21 52 30 56 31 59 32 62
REMARK SMILES IDX 33 65 34 66 35 68 36 69 37 70 98 71 38 72 97 74 39 76 40 79
REMARK SMILES IDX 41 80 91 81 42 82 96 83 90 84 92 85 43 86 95 87 89 89 88 91
REMARK SMILES IDX 44 93 76 96 56 97 75 98 57 99 60 100 74 101 93 102 58 103
REMARK SMILES IDX 59 105 73 107 94 108 61 111 45 113 46 114 54 115 47 116
REMARK SMILES IDX 48 117 52 118 55 119 49 120 50 121 53 122 51 123 77 124
REMARK SMILES IDX 78 125 86 126 79 127 80 128 84 129 87 130 81 131 82 132
REMARK SMILES IDX 85 133 83 134 62 135 63 136 71 137 64 138 65 139 69 140
REMARK SMILES IDX 72 141 66 142 67 143 70 144 68 145
REMARK H PARENT 29 2 29 3 28 5 28 6 27 8 27 9 26 13 23 15 23 16 3 22 7 24 4 26
REMARK H PARENT 1 30 1 31 1 32 10 37 11 41 18 44 17 46 16 47 15 49 15 50 15 51
REMARK H PARENT 21 53 21 54 21 55 30 57 30 58 31 60 31 61 32 63 32 64 33 67
REMARK H PARENT 37 73 98 75 38 77 97 78 96 88 90 90 92 92 95 94 89 95 57 104
REMARK H PARENT 60 106 93 109 58 110 94 112
REMARK Flexibility Score: inf
ROOT
ATOM      1  C   UNL A   1      44.985  32.396  26.304  1.00  0.00    -0.052 C 
ATOM      2  H   UNL A   1      45.469  31.684  25.668  1.00  0.00     0.027 H 
ATOM      3  H   UNL A   1      45.672  33.049  26.802  1.00  0.00     0.027 H 
ENDROOT
BRANCH   1   4
ATOM      4  C   UNL A   1      44.241  31.629  27.403  1.00  0.00    -0.036 C 
ATOM      5  H   UNL A   1      44.241  32.229  28.289  1.00  0.00     0.028 H 
ATOM      6  H   UNL A   1      43.255  31.438  27.033  1.00  0.00     0.028 H 
BRANCH   4   7
ATOM      7  C   UNL A   1      44.854  30.273  27.743  1.00  0.00     0.017 C 
ATOM      8  H   UNL A   1      45.816  30.426  28.184  1.00  0.00     0.049 H 
ATOM      9  H   UNL A   1      44.201  29.768  28.424  1.00  0.00     0.049 H 
BRANCH   7  10
ATOM     10  N   UNL A   1      45.004  29.450  26.558  1.00  0.00    -0.355 N 
ATOM     11  C   UNL A   1      44.228  28.419  26.114  1.00  0.00     0.239 C 
ATOM     12  O   UNL A   1      44.591  27.829  25.092  1.00  0.00    -0.273 OA
ATOM     13  H   UNL A   1      45.780  29.667  25.992  1.00  0.00     0.163 HD
BRANCH  11  14
ATOM     14  C   UNL A   1      42.923  28.063  26.803  1.00  0.00     0.102 C 
ATOM     15  H   UNL A   1      42.751  28.772  27.584  1.00  0.00     0.060 H 
ATOM     16  H   UNL A   1      42.162  28.083  26.051  1.00  0.00     0.060 H 
BRANCH  14  17
ATOM     17  N   UNL A   1      42.903  26.724  27.386  1.00  0.00    -0.335 N 
ATOM     18  C   UNL A   1      44.258  25.267  31.039  1.00  0.00    -0.050 A 
ATOM     19  C   UNL A   1      44.225  26.654  30.898  1.00  0.00    -0.057 A 
ATOM     20  C   UNL A   1      43.783  24.454  29.998  1.00  0.00    -0.049 A 
ATOM     21  C   UNL A   1      43.744  27.254  29.731  1.00  0.00    -0.037 A 
ATOM     22  H   UNL A   1      44.563  27.250  31.670  1.00  0.00     0.063 H 
ATOM     23  C   UNL A   1      43.300  25.036  28.804  1.00  0.00     0.008 A 
ATOM     24  H   UNL A   1      43.789  23.428  30.104  1.00  0.00     0.063 H 
ATOM     25  C   UNL A   1      43.316  26.426  28.677  1.00  0.00     0.049 A 
ATOM     26  H   UNL A   1      43.703  28.282  29.645  1.00  0.00     0.065 H 
ATOM     27  C   UNL A   1      42.764  24.510  27.593  1.00  0.00     0.011 A 
ATOM     28  C   UNL A   1      42.477  25.574  26.749  1.00  0.00     0.024 A 
BRANCH  18  29
ATOM     29  C   UNL A   1      44.836  24.661  32.285  1.00  0.00    -0.040 C 
ATOM     30  H   UNL A   1      44.230  24.926  33.125  1.00  0.00     0.028 H 
ATOM     31  H   UNL A   1      45.830  25.029  32.431  1.00  0.00     0.028 H 
ATOM     32  H   UNL A   1      44.861  23.596  32.184  1.00  0.00     0.028 H 
ENDBRANCH  18  29
BRANCH  27  33
ATOM     33  C   UNL A   1      42.536  23.118  27.218  1.00  0.00    -0.005 A 
ATOM     34  C   UNL A   1      41.317  22.542  27.563  1.00  0.00    -0.035 A 
ATOM     35  C   UNL A   1      43.499  22.366  26.497  1.00  0.00     0.008 A 
ATOM     36  C   UNL A   1      41.085  21.246  27.162  1.00  0.00     0.028 A 
ATOM     37  H   UNL A   1      40.610  23.069  28.103  1.00  0.00     0.065 H 
ATOM     38  C   UNL A   1      43.157  21.048  26.120  1.00  0.00     0.074 A 
ATOM     39  C   UNL A   1      44.769  22.875  26.141  1.00  0.00    -0.052 A 
ATOM     40  N   UNL A   1      41.966  20.508  26.455  1.00  0.00    -0.256 NA
ATOM     41  H   UNL A   1      40.183  20.813  27.417  1.00  0.00     0.084 H 
ATOM     42  C   UNL A   1      44.088  20.304  25.375  1.00  0.00    -0.025 A 
ATOM     43  C   UNL A   1      45.689  22.120  25.425  1.00  0.00    -0.061 A 
ATOM     44  H   UNL A   1      45.020  23.835  26.421  1.00  0.00     0.063 H 
ATOM     45  C   UNL A   1      45.347  20.836  25.040  1.00  0.00    -0.057 A 
ATOM     46  H   UNL A   1      46.614  22.511  25.186  1.00  0.00     0.062 H 
ATOM     47  H   UNL A   1      46.018  20.267  24.503  1.00  0.00     0.063 H 
BRANCH  42  48
ATOM     48  C   UNL A   1      43.782  18.908  24.899  1.00  0.00    -0.038 C 
ATOM     49  H   UNL A   1      42.854  18.909  24.366  1.00  0.00     0.028 H 
ATOM     50  H   UNL A   1      43.708  18.252  25.742  1.00  0.00     0.028 H 
ATOM     51  H   UNL A   1      44.565  18.573  24.253  1.00  0.00     0.028 H 
ENDBRANCH  42  48
ENDBRANCH  27  33
BRANCH  28  52
ATOM     52  C   UNL A   1      41.879  25.551  25.379  1.00  0.00    -0.024 C 
ATOM     53  H   UNL A   1      40.818  25.669  25.450  1.00  0.00     0.030 H 
ATOM     54  H   UNL A   1      42.103  24.616  24.908  1.00  0.00     0.030 H 
ATOM     55  H   UNL A   1      42.289  26.351  24.798  1.00  0.00     0.030 H 
ENDBRANCH  28  52
ENDBRANCH  14  17
ENDBRANCH  11  14
ENDBRANCH   7  10
ENDBRANCH   4   7
ENDBRANCH   1   4
BRANCH   1  56
ATOM     56  C   UNL A   1      44.096  33.288  25.432  1.00  0.00    -0.052 C 
ATOM     57  H   UNL A   1      43.232  33.553  26.002  1.00  0.00     0.027 H 
ATOM     58  H   UNL A   1      43.870  32.717  24.555  1.00  0.00     0.027 H 
BRANCH  56  59
ATOM     59  C   UNL A   1      44.757  34.580  24.942  1.00  0.00    -0.036 C 
ATOM     60  H   UNL A   1      44.056  35.379  25.056  1.00  0.00     0.028 H 
ATOM     61  H   UNL A   1      45.036  34.411  23.922  1.00  0.00     0.028 H 
BRANCH  59  62
ATOM     62  C   UNL A   1      46.040  34.958  25.686  1.00  0.00     0.018 C 
ATOM     63  H   UNL A   1      46.845  34.978  24.981  1.00  0.00     0.049 H 
ATOM     64  H   UNL A   1      46.182  34.224  26.452  1.00  0.00     0.049 H 
BRANCH  62  65
ATOM     65  N   UNL A   1      45.980  36.246  26.346  1.00  0.00    -0.352 N 
ATOM     66  C   UNL A   1      45.306  36.744  27.433  1.00  0.00     0.251 C 
ATOM     67  H   UNL A   1      46.555  36.918  25.916  1.00  0.00     0.163 HD
ATOM     68  O   UNL A   1      45.604  37.876  27.789  1.00  0.00    -0.269 OA
BRANCH  66  69
ATOM     69  C   UNL A   1      44.205  36.035  28.147  1.00  0.00     0.039 A 
ATOM     70  C   UNL A   1      42.852  36.351  28.068  1.00  0.00    -0.049 A 
ATOM     71  C   UNL A   1      44.597  34.995  29.013  1.00  0.00    -0.049 A 
ATOM     72  C   UNL A   1      41.936  35.744  28.918  1.00  0.00    -0.053 A 
ATOM     73  H   UNL A   1      42.526  37.042  27.374  1.00  0.00     0.063 H 
ATOM     74  C   UNL A   1      43.678  34.353  29.841  1.00  0.00    -0.053 A 
ATOM     75  H   UNL A   1      45.587  34.702  29.034  1.00  0.00     0.063 H 
ATOM     76  C   UNL A   1      42.352  34.765  29.826  1.00  0.00    -0.014 A 
ATOM     77  H   UNL A   1      40.941  36.016  28.878  1.00  0.00     0.063 H 
ATOM     78  H   UNL A   1      43.979  33.581  30.457  1.00  0.00     0.063 H 
BRANCH  76  79
ATOM     79  C   UNL A   1      41.316  34.140  30.644  1.00  0.00     0.031 A 
ATOM     80  C   UNL A   1      41.767  33.741  32.008  1.00  0.00     0.074 A 
ATOM     81  C   UNL A   1      40.038  33.959  30.258  1.00  0.00     0.049 A 
ATOM     82  N   UNL A   1      41.834  32.549  32.506  1.00  0.00    -0.248 NA
ATOM     83  C   UNL A   1      42.319  34.789  32.880  1.00  0.00    -0.034 C 
ATOM     84  C   UNL A   1      39.358  34.506  29.083  1.00  0.00    -0.036 A 
ATOM     85  N   UNL A   1      39.044  33.281  30.904  1.00  0.00    -0.354 N 
ATOM     86  C   UNL A   1      42.300  32.701  33.811  1.00  0.00     0.074 A 
ATOM     87  C   UNL A   1      42.689  34.080  33.947  1.00  0.00    -0.034 C 
ATOM     88  H   UNL A   1      42.399  35.803  32.711  1.00  0.00     0.065 H 
ATOM     89  C   UNL A   1      38.025  34.312  29.209  1.00  0.00    -0.036 A 
ATOM     90  H   UNL A   1      39.822  34.967  28.286  1.00  0.00     0.065 H 
ATOM     91  C   UNL A   1      37.774  33.505  30.392  1.00  0.00     0.049 A 
ATOM     92  H   UNL A   1      39.214  32.683  31.668  1.00  0.00     0.167 HD
ATOM     93  C   UNL A   1      42.153  31.714  34.737  1.00  0.00     0.037 A 
ATOM     94  H   UNL A   1      43.189  34.469  34.763  1.00  0.00     0.065 H 
ATOM     95  H   UNL A   1      37.303  34.677  28.568  1.00  0.00     0.065 H 
ATOM     96  C   UNL A   1      36.601  33.093  30.933  1.00  0.00     0.037 A 
ATOM     97  C   UNL A   1      41.924  30.441  34.110  1.00  0.00     0.049 A 
ATOM     98  C   UNL A   1      36.900  31.952  31.828  1.00  0.00     0.074 A 
ATOM     99  C   UNL A   1      42.659  29.596  33.303  1.00  0.00    -0.036 A 
ATOM    100  N   UNL A   1      40.628  30.001  34.036  1.00  0.00    -0.354 N 
ATOM    101  N   UNL A   1      37.283  30.776  31.418  1.00  0.00    -0.248 NA
ATOM    102  C   UNL A   1      37.110  32.220  33.243  1.00  0.00    -0.034 C 
ATOM    103  C   UNL A   1      41.706  28.967  32.450  1.00  0.00    -0.036 A 
ATOM    104  H   UNL A   1      43.681  29.452  33.315  1.00  0.00     0.065 H 
ATOM    105  C   UNL A   1      40.440  29.434  32.805  1.00  0.00     0.049 A 
ATOM    106  H   UNL A   1      39.950  30.081  34.745  1.00  0.00     0.167 HD
ATOM    107  C   UNL A   1      38.158  30.336  32.396  1.00  0.00     0.074 A 
ATOM    108  C   UNL A   1      37.902  31.192  33.548  1.00  0.00    -0.034 C 
ATOM    109  H   UNL A   1      36.749  32.983  33.836  1.00  0.00     0.065 H 
ATOM    110  H   UNL A   1      41.916  28.287  31.703  1.00  0.00     0.065 H 
ATOM    111  C   UNL A   1      39.194  29.508  32.077  1.00  0.00     0.037 A 
ATOM    112  H   UNL A   1      38.289  31.021  34.489  1.00  0.00     0.065 H 
BRANCH  93 113
ATOM    113  C   UNL A   1      41.844  31.950  36.199  1.00  0.00     0.064 A 
ATOM    114  C   UNL A   1      40.682  32.671  36.549  1.00  0.00     0.173 A 
ATOM    115  C   UNL A   1      42.785  31.783  37.237  1.00  0.00     0.173 A 
ATOM    116  F   UNL A   1      39.722  32.907  35.642  1.00  0.00    -0.203 F 
ATOM    117  C   UNL A   1      40.522  33.254  37.809  1.00  0.00     0.198 A 
ATOM    118  C   UNL A   1      42.599  32.322  38.509  1.00  0.00     0.198 A 
ATOM    119  F   UNL A   1      43.969  31.193  37.039  1.00  0.00    -0.203 F 
ATOM    120  F   UNL A   1      39.465  34.041  38.050  1.00  0.00    -0.200 F 
ATOM    121  C   UNL A   1      41.485  33.087  38.786  1.00  0.00     0.200 A 
ATOM    122  F   UNL A   1      43.553  32.164  39.438  1.00  0.00    -0.200 F 
ATOM    123  F   UNL A   1      41.368  33.698  39.972  1.00  0.00    -0.200 F 
ENDBRANCH  93 113
BRANCH  96 124
ATOM    124  C   UNL A   1      35.287  33.778  30.958  1.00  0.00     0.064 A 
ATOM    125  C   UNL A   1      35.006  34.760  31.927  1.00  0.00     0.173 A 
ATOM    126  C   UNL A   1      34.409  33.716  29.861  1.00  0.00     0.173 A 
ATOM    127  F   UNL A   1      35.812  34.912  32.988  1.00  0.00    -0.203 F 
ATOM    128  C   UNL A   1      33.944  35.657  31.776  1.00  0.00     0.198 A 
ATOM    129  C   UNL A   1      33.343  34.607  29.718  1.00  0.00     0.198 A 
ATOM    130  F   UNL A   1      34.626  32.858  28.853  1.00  0.00    -0.203 F 
ATOM    131  F   UNL A   1      33.759  36.631  32.679  1.00  0.00    -0.200 F 
ATOM    132  C   UNL A   1      33.123  35.589  30.664  1.00  0.00     0.200 A 
ATOM    133  F   UNL A   1      32.577  34.552  28.619  1.00  0.00    -0.200 F 
ATOM    134  F   UNL A   1      32.153  36.495  30.482  1.00  0.00    -0.200 F 
ENDBRANCH  96 124
BRANCH 111 135
ATOM    135  C   UNL A   1      39.145  28.807  30.750  1.00  0.00     0.064 A 
ATOM    136  C   UNL A   1      39.517  29.397  29.529  1.00  0.00     0.173 A 
ATOM    137  C   UNL A   1      38.842  27.439  30.741  1.00  0.00     0.173 A 
ATOM    138  F   UNL A   1      39.910  30.677  29.471  1.00  0.00    -0.203 F 
ATOM    139  C   UNL A   1      39.548  28.653  28.351  1.00  0.00     0.198 A 
ATOM    140  C   UNL A   1      38.913  26.691  29.571  1.00  0.00     0.198 A 
ATOM    141  F   UNL A   1      38.528  26.812  31.887  1.00  0.00    -0.203 F 
ATOM    142  F   UNL A   1      39.900  29.237  27.196  1.00  0.00    -0.200 F 
ATOM    143  C   UNL A   1      39.258  27.299  28.375  1.00  0.00     0.200 A 
ATOM    144  F   UNL A   1      38.680  25.371  29.609  1.00  0.00    -0.200 F 
ATOM    145  F   UNL A   1      39.338  26.573  27.251  1.00  0.00    -0.200 F 
ENDBRANCH 111 135
ENDBRANCH  76  79
ENDBRANCH  66  69
ENDBRANCH  62  65
ENDBRANCH  59  62
ENDBRANCH  56  59
ENDBRANCH   1  56
TORSDOF 18
ENDMDL
MODEL 8
REMARK VINA RESULT:     -12.1      3.717      7.272
REMARK SMILES Cc1ccc2c(c1)c(-c1ccnc3c(C)cccc13)c(C)n2CC(=O)NCCCCCCNC(=O)c1ccc(-c2c3nc(c(-c4c(F)c(F)c(F)c(F)c4F)c4ccc([nH]4)c(-c4c(F)c(F)c(F)c(F)c4F)c4nc(c(-c5c(F)c(F)c(F)c(F)c5F)c5ccc2[nH]5)C=C4)C=C3)cc1
REMARK SMILES IDX 29 1 28 4 27 7 26 10 24 11 25 12 23 14 22 17 2 18 3 19 7 20
REMARK SMILES IDX 4 21 6 23 5 25 8 27 20 28 1 29 9 33 10 34 19 35 11 36 13 38
REMARK SMILES IDX 18 39 12 40 14 42 17 43 16 45 15 48 21 52 30 56 31 59 32 62
REMARK SMILES IDX 33 65 34 66 35 68 36 69 37 70 98 71 38 72 97 74 39 76 40 79
REMARK SMILES IDX 41 80 91 81 42 82 96 83 90 84 92 85 43 86 95 87 89 89 88 91
REMARK SMILES IDX 44 93 76 96 56 97 75 98 57 99 60 100 74 101 93 102 58 103
REMARK SMILES IDX 59 105 73 107 94 108 61 111 45 113 46 114 54 115 47 116
REMARK SMILES IDX 48 117 52 118 55 119 49 120 50 121 53 122 51 123 77 124
REMARK SMILES IDX 78 125 86 126 79 127 80 128 84 129 87 130 81 131 82 132
REMARK SMILES IDX 85 133 83 134 62 135 63 136 71 137 64 138 65 139 69 140
REMARK SMILES IDX 72 141 66 142 67 143 70 144 68 145
REMARK H PARENT 29 2 29 3 28 5 28 6 27 8 27 9 26 13 23 15 23 16 3 22 7 24 4 26
REMARK H PARENT 1 30 1 31 1 32 10 37 11 41 18 44 17 46 16 47 15 49 15 50 15 51
REMARK H PARENT 21 53 21 54 21 55 30 57 30 58 31 60 31 61 32 63 32 64 33 67
REMARK H PARENT 37 73 98 75 38 77 97 78 96 88 90 90 92 92 95 94 89 95 57 104
REMARK H PARENT 60 106 93 109 58 110 94 112
REMARK Flexibility Score: inf
ROOT
ATOM      1  C   UNL A   1      34.640  24.636  24.222  1.00  0.00    -0.052 C 
ATOM      2  H   UNL A   1      35.440  25.150  23.731  1.00  0.00     0.027 H 
ATOM      3  H   UNL A   1      33.720  24.672  23.677  1.00  0.00     0.027 H 
ENDROOT
BRANCH   1   4
ATOM      4  C   UNL A   1      34.377  25.328  25.565  1.00  0.00    -0.036 C 
ATOM      5  H   UNL A   1      34.283  24.574  26.318  1.00  0.00     0.028 H 
ATOM      6  H   UNL A   1      35.202  25.986  25.739  1.00  0.00     0.028 H 
BRANCH   4   7
ATOM      7  C   UNL A   1      33.116  26.188  25.587  1.00  0.00     0.017 C 
ATOM      8  H   UNL A   1      32.345  25.691  25.037  1.00  0.00     0.049 H 
ATOM      9  H   UNL A   1      32.822  26.330  26.606  1.00  0.00     0.049 H 
BRANCH   7  10
ATOM     10  N   UNL A   1      33.354  27.490  24.995  1.00  0.00    -0.355 N 
ATOM     11  C   UNL A   1      33.557  28.696  25.603  1.00  0.00     0.239 C 
ATOM     12  O   UNL A   1      33.689  29.686  24.877  1.00  0.00    -0.273 OA
ATOM     13  H   UNL A   1      33.371  27.507  24.011  1.00  0.00     0.163 HD
BRANCH  11  14
ATOM     14  C   UNL A   1      33.699  28.803  27.109  1.00  0.00     0.102 C 
ATOM     15  H   UNL A   1      32.721  28.783  27.542  1.00  0.00     0.060 H 
ATOM     16  H   UNL A   1      34.306  27.979  27.422  1.00  0.00     0.060 H 
BRANCH  14  17
ATOM     17  N   UNL A   1      34.374  30.017  27.560  1.00  0.00    -0.335 N 
ATOM     18  C   UNL A   1      38.308  30.742  28.704  1.00  0.00    -0.050 A 
ATOM     19  C   UNL A   1      38.054  29.509  28.102  1.00  0.00    -0.057 A 
ATOM     20  C   UNL A   1      37.269  31.677  28.831  1.00  0.00    -0.049 A 
ATOM     21  C   UNL A   1      36.779  29.178  27.637  1.00  0.00    -0.037 A 
ATOM     22  H   UNL A   1      38.822  28.828  28.000  1.00  0.00     0.063 H 
ATOM     23  C   UNL A   1      35.968  31.363  28.376  1.00  0.00     0.008 A 
ATOM     24  H   UNL A   1      37.455  32.597  29.259  1.00  0.00     0.063 H 
ATOM     25  C   UNL A   1      35.737  30.106  27.813  1.00  0.00     0.049 A 
ATOM     26  H   UNL A   1      36.605  28.272  27.173  1.00  0.00     0.065 H 
ATOM     27  C   UNL A   1      34.730  32.067  28.356  1.00  0.00     0.011 A 
ATOM     28  C   UNL A   1      33.768  31.235  27.800  1.00  0.00     0.024 A 
BRANCH  18  29
ATOM     29  C   UNL A   1      39.677  31.036  29.244  1.00  0.00    -0.040 C 
ATOM     30  H   UNL A   1      39.966  30.264  29.924  1.00  0.00     0.028 H 
ATOM     31  H   UNL A   1      39.664  31.976  29.755  1.00  0.00     0.028 H 
ATOM     32  H   UNL A   1      40.377  31.079  28.435  1.00  0.00     0.028 H 
ENDBRANCH  18  29
BRANCH  27  33
ATOM     33  C   UNL A   1      34.433  33.417  28.825  1.00  0.00    -0.005 A 
ATOM     34  C   UNL A   1      34.255  34.414  27.871  1.00  0.00    -0.035 A 
ATOM     35  C   UNL A   1      34.296  33.719  30.205  1.00  0.00     0.008 A 
ATOM     36  C   UNL A   1      33.924  35.674  28.316  1.00  0.00     0.028 A 
ATOM     37  H   UNL A   1      34.367  34.216  26.863  1.00  0.00     0.065 H 
ATOM     38  C   UNL A   1      33.940  35.041  30.556  1.00  0.00     0.074 A 
ATOM     39  C   UNL A   1      34.495  32.766  31.229  1.00  0.00    -0.052 A 
ATOM     40  N   UNL A   1      33.761  35.994  29.617  1.00  0.00    -0.256 NA
ATOM     41  H   UNL A   1      33.792  36.418  27.613  1.00  0.00     0.084 H 
ATOM     42  C   UNL A   1      33.766  35.346  31.917  1.00  0.00    -0.025 A 
ATOM     43  C   UNL A   1      34.343  33.087  32.572  1.00  0.00    -0.061 A 
ATOM     44  H   UNL A   1      34.760  31.803  30.972  1.00  0.00     0.063 H 
ATOM     45  C   UNL A   1      33.976  34.376  32.915  1.00  0.00    -0.057 A 
ATOM     46  H   UNL A   1      34.503  32.375  33.302  1.00  0.00     0.062 H 
ATOM     47  H   UNL A   1      33.854  34.627  33.908  1.00  0.00     0.063 H 
BRANCH  42  48
ATOM     48  C   UNL A   1      33.346  36.719  32.370  1.00  0.00    -0.038 C 
ATOM     49  H   UNL A   1      32.306  36.861  32.160  1.00  0.00     0.028 H 
ATOM     50  H   UNL A   1      33.918  37.458  31.848  1.00  0.00     0.028 H 
ATOM     51  H   UNL A   1      33.514  36.815  33.422  1.00  0.00     0.028 H 
ENDBRANCH  42  48
ENDBRANCH  27  33
BRANCH  28  52
ATOM     52  C   UNL A   1      32.322  31.514  27.538  1.00  0.00    -0.024 C 
ATOM     53  H   UNL A   1      32.224  32.461  27.049  1.00  0.00     0.030 H 
ATOM     54  H   UNL A   1      31.790  31.535  28.467  1.00  0.00     0.030 H 
ATOM     55  H   UNL A   1      31.919  30.745  26.913  1.00  0.00     0.030 H 
ENDBRANCH  28  52
ENDBRANCH  14  17
ENDBRANCH  11  14
ENDBRANCH   7  10
ENDBRANCH   4   7
ENDBRANCH   1   4
BRANCH   1  56
ATOM     56  C   UNL A   1      35.020  23.156  24.329  1.00  0.00    -0.052 C 
ATOM     57  H   UNL A   1      34.420  22.608  23.634  1.00  0.00     0.027 H 
ATOM     58  H   UNL A   1      34.853  22.878  25.349  1.00  0.00     0.027 H 
BRANCH  56  59
ATOM     59  C   UNL A   1      36.491  22.843  24.037  1.00  0.00    -0.036 C 
ATOM     60  H   UNL A   1      36.720  23.198  23.055  1.00  0.00     0.028 H 
ATOM     61  H   UNL A   1      36.601  21.783  24.134  1.00  0.00     0.028 H 
BRANCH  59  62
ATOM     62  C   UNL A   1      37.481  23.475  25.018  1.00  0.00     0.018 C 
ATOM     63  H   UNL A   1      36.925  23.928  25.812  1.00  0.00     0.049 H 
ATOM     64  H   UNL A   1      38.058  24.185  24.462  1.00  0.00     0.049 H 
BRANCH  62  65
ATOM     65  N   UNL A   1      38.418  22.534  25.596  1.00  0.00    -0.352 N 
ATOM     66  C   UNL A   1      39.392  22.610  26.561  1.00  0.00     0.251 C 
ATOM     67  H   UNL A   1      38.338  21.633  25.209  1.00  0.00     0.163 HD
ATOM     68  O   UNL A   1      39.916  21.556  26.893  1.00  0.00    -0.269 OA
BRANCH  66  69
ATOM     69  C   UNL A   1      39.893  23.880  27.163  1.00  0.00     0.039 A 
ATOM     70  C   UNL A   1      41.186  24.104  27.626  1.00  0.00    -0.049 A 
ATOM     71  C   UNL A   1      38.941  24.908  27.318  1.00  0.00    -0.049 A 
ATOM     72  C   UNL A   1      41.489  25.258  28.337  1.00  0.00    -0.053 A 
ATOM     73  H   UNL A   1      41.924  23.407  27.441  1.00  0.00     0.063 H 
ATOM     74  C   UNL A   1      39.249  26.086  27.996  1.00  0.00    -0.053 A 
ATOM     75  H   UNL A   1      37.996  24.785  26.921  1.00  0.00     0.063 H 
ATOM     76  C   UNL A   1      40.514  26.238  28.548  1.00  0.00    -0.014 A 
ATOM     77  H   UNL A   1      42.442  25.394  28.711  1.00  0.00     0.063 H 
ATOM     78  H   UNL A   1      38.546  26.837  28.085  1.00  0.00     0.063 H 
BRANCH  76  79
ATOM     79  C   UNL A   1      40.932  27.444  29.258  1.00  0.00     0.031 A 
ATOM     80  C   UNL A   1      41.940  28.267  28.531  1.00  0.00     0.074 A 
ATOM     81  C   UNL A   1      40.446  27.841  30.450  1.00  0.00     0.049 A 
ATOM     82  N   UNL A   1      43.155  28.534  28.886  1.00  0.00    -0.248 NA
ATOM     83  C   UNL A   1      41.585  28.754  27.189  1.00  0.00    -0.034 C 
ATOM     84  C   UNL A   1      39.292  27.315  31.181  1.00  0.00    -0.036 A 
ATOM     85  N   UNL A   1      40.864  28.877  31.235  1.00  0.00    -0.354 N 
ATOM     86  C   UNL A   1      43.680  29.348  27.883  1.00  0.00     0.074 A 
ATOM     87  C   UNL A   1      42.715  29.355  26.816  1.00  0.00    -0.034 C 
ATOM     88  H   UNL A   1      40.697  28.656  26.674  1.00  0.00     0.065 H 
ATOM     89  C   UNL A   1      38.979  28.161  32.190  1.00  0.00    -0.036 A 
ATOM     90  H   UNL A   1      38.796  26.438  30.961  1.00  0.00     0.065 H 
ATOM     91  C   UNL A   1      39.991  29.202  32.264  1.00  0.00     0.049 A 
ATOM     92  H   UNL A   1      41.712  29.354  31.084  1.00  0.00     0.167 HD
ATOM     93  C   UNL A   1      44.793  30.105  28.093  1.00  0.00     0.037 A 
ATOM     94  H   UNL A   1      42.876  29.770  25.884  1.00  0.00     0.065 H 
ATOM     95  H   UNL A   1      38.156  28.080  32.806  1.00  0.00     0.065 H 
ATOM     96  C   UNL A   1      40.076  30.277  33.085  1.00  0.00     0.037 A 
ATOM     97  C   UNL A   1      45.553  29.614  29.210  1.00  0.00     0.049 A 
ATOM     98  C   UNL A   1      41.482  30.741  33.068  1.00  0.00     0.074 A 
ATOM     99  C   UNL A   1      46.264  28.464  29.486  1.00  0.00    -0.036 A 
ATOM    100  N   UNL A   1      45.391  30.255  30.411  1.00  0.00    -0.354 N 
ATOM    101  N   UNL A   1      42.479  30.088  33.594  1.00  0.00    -0.248 NA
ATOM    102  C   UNL A   1      41.849  31.801  32.141  1.00  0.00    -0.034 C 
ATOM    103  C   UNL A   1      46.115  28.256  30.888  1.00  0.00    -0.036 A 
ATOM    104  H   UNL A   1      46.791  27.879  28.818  1.00  0.00     0.065 H 
ATOM    105  C   UNL A   1      45.353  29.308  31.398  1.00  0.00     0.049 A 
ATOM    106  H   UNL A   1      45.314  31.227  30.540  1.00  0.00     0.167 HD
ATOM    107  C   UNL A   1      43.547  30.351  32.755  1.00  0.00     0.074 A 
ATOM    108  C   UNL A   1      43.139  31.511  31.973  1.00  0.00    -0.034 C 
ATOM    109  H   UNL A   1      41.276  32.556  31.733  1.00  0.00     0.065 H 
ATOM    110  H   UNL A   1      46.502  27.468  31.430  1.00  0.00     0.065 H 
ATOM    111  C   UNL A   1      44.538  29.429  32.585  1.00  0.00     0.037 A 
ATOM    112  H   UNL A   1      43.776  32.045  31.360  1.00  0.00     0.065 H 
BRANCH  93 113
ATOM    113  C   UNL A   1      45.000  31.495  27.536  1.00  0.00     0.064 A 
ATOM    114  C   UNL A   1      46.185  31.782  26.823  1.00  0.00     0.173 A 
ATOM    115  C   UNL A   1      44.251  32.621  27.937  1.00  0.00     0.173 A 
ATOM    116  F   UNL A   1      46.988  30.794  26.402  1.00  0.00    -0.203 F 
ATOM    117  C   UNL A   1      46.626  33.092  26.614  1.00  0.00     0.198 A 
ATOM    118  C   UNL A   1      44.668  33.927  27.682  1.00  0.00     0.198 A 
ATOM    119  F   UNL A   1      43.148  32.514  28.687  1.00  0.00    -0.203 F 
ATOM    120  F   UNL A   1      47.822  33.310  26.052  1.00  0.00    -0.200 F 
ATOM    121  C   UNL A   1      45.871  34.164  27.052  1.00  0.00     0.200 A 
ATOM    122  F   UNL A   1      43.931  34.953  28.129  1.00  0.00    -0.200 F 
ATOM    123  F   UNL A   1      46.321  35.417  26.913  1.00  0.00    -0.200 F 
ENDBRANCH  93 113
BRANCH  96 124
ATOM    124  C   UNL A   1      38.991  31.106  33.663  1.00  0.00     0.064 A 
ATOM    125  C   UNL A   1      38.659  31.007  35.027  1.00  0.00     0.173 A 
ATOM    126  C   UNL A   1      38.478  32.221  32.976  1.00  0.00     0.173 A 
ATOM    127  F   UNL A   1      39.135  29.994  35.767  1.00  0.00    -0.203 F 
ATOM    128  C   UNL A   1      37.906  31.993  35.673  1.00  0.00     0.198 A 
ATOM    129  C   UNL A   1      37.718  33.199  33.620  1.00  0.00     0.198 A 
ATOM    130  F   UNL A   1      38.789  32.440  31.690  1.00  0.00    -0.203 F 
ATOM    131  F   UNL A   1      37.682  31.905  36.992  1.00  0.00    -0.200 F 
ATOM    132  C   UNL A   1      37.450  33.096  34.972  1.00  0.00     0.200 A 
ATOM    133  F   UNL A   1      37.312  34.279  32.938  1.00  0.00    -0.200 F 
ATOM    134  F   UNL A   1      36.794  34.077  35.605  1.00  0.00    -0.200 F 
ENDBRANCH  96 124
BRANCH 111 135
ATOM    135  C   UNL A   1      44.633  28.313  33.586  1.00  0.00     0.064 A 
ATOM    136  C   UNL A   1      45.329  28.400  34.804  1.00  0.00     0.173 A 
ATOM    137  C   UNL A   1      43.867  27.161  33.358  1.00  0.00     0.173 A 
ATOM    138  F   UNL A   1      46.007  29.507  35.135  1.00  0.00    -0.203 F 
ATOM    139  C   UNL A   1      45.284  27.362  35.733  1.00  0.00     0.198 A 
ATOM    140  C   UNL A   1      43.792  26.146  34.305  1.00  0.00     0.198 A 
ATOM    141  F   UNL A   1      43.142  27.047  32.234  1.00  0.00    -0.203 F 
ATOM    142  F   UNL A   1      45.961  27.462  36.887  1.00  0.00    -0.200 F 
ATOM    143  C   UNL A   1      44.507  26.242  35.488  1.00  0.00     0.200 A 
ATOM    144  F   UNL A   1      43.000  25.088  34.085  1.00  0.00    -0.200 F 
ATOM    145  F   UNL A   1      44.423  25.267  36.404  1.00  0.00    -0.200 F 
ENDBRANCH 111 135
ENDBRANCH  76  79
ENDBRANCH  66  69
ENDBRANCH  62  65
ENDBRANCH  59  62
ENDBRANCH  56  59
ENDBRANCH   1  56
TORSDOF 18
ENDMDL
MODEL 9
REMARK VINA RESULT:     -12.1      3.135      4.835
REMARK SMILES Cc1ccc2c(c1)c(-c1ccnc3c(C)cccc13)c(C)n2CC(=O)NCCCCCCNC(=O)c1ccc(-c2c3nc(c(-c4c(F)c(F)c(F)c(F)c4F)c4ccc([nH]4)c(-c4c(F)c(F)c(F)c(F)c4F)c4nc(c(-c5c(F)c(F)c(F)c(F)c5F)c5ccc2[nH]5)C=C4)C=C3)cc1
REMARK SMILES IDX 29 1 28 4 27 7 26 10 24 11 25 12 23 14 22 17 2 18 3 19 7 20
REMARK SMILES IDX 4 21 6 23 5 25 8 27 20 28 1 29 9 33 10 34 19 35 11 36 13 38
REMARK SMILES IDX 18 39 12 40 14 42 17 43 16 45 15 48 21 52 30 56 31 59 32 62
REMARK SMILES IDX 33 65 34 66 35 68 36 69 37 70 98 71 38 72 97 74 39 76 40 79
REMARK SMILES IDX 41 80 91 81 42 82 96 83 90 84 92 85 43 86 95 87 89 89 88 91
REMARK SMILES IDX 44 93 76 96 56 97 75 98 57 99 60 100 74 101 93 102 58 103
REMARK SMILES IDX 59 105 73 107 94 108 61 111 45 113 46 114 54 115 47 116
REMARK SMILES IDX 48 117 52 118 55 119 49 120 50 121 53 122 51 123 77 124
REMARK SMILES IDX 78 125 86 126 79 127 80 128 84 129 87 130 81 131 82 132
REMARK SMILES IDX 85 133 83 134 62 135 63 136 71 137 64 138 65 139 69 140
REMARK SMILES IDX 72 141 66 142 67 143 70 144 68 145
REMARK H PARENT 29 2 29 3 28 5 28 6 27 8 27 9 26 13 23 15 23 16 3 22 7 24 4 26
REMARK H PARENT 1 30 1 31 1 32 10 37 11 41 18 44 17 46 16 47 15 49 15 50 15 51
REMARK H PARENT 21 53 21 54 21 55 30 57 30 58 31 60 31 61 32 63 32 64 33 67
REMARK H PARENT 37 73 98 75 38 77 97 78 96 88 90 90 92 92 95 94 89 95 57 104
REMARK H PARENT 60 106 93 109 58 110 94 112
REMARK Flexibility Score: inf
ROOT
ATOM      1  C   UNL A   1      37.434  19.998  24.507  1.00  0.00    -0.052 C 
ATOM      2  H   UNL A   1      37.452  20.851  23.861  1.00  0.00     0.027 H 
ATOM      3  H   UNL A   1      37.699  19.089  24.009  1.00  0.00     0.027 H 
ENDROOT
BRANCH   1   4
ATOM      4  C   UNL A   1      35.999  19.812  25.015  1.00  0.00    -0.036 C 
ATOM      5  H   UNL A   1      35.575  18.964  24.518  1.00  0.00     0.028 H 
ATOM      6  H   UNL A   1      36.061  19.682  26.075  1.00  0.00     0.028 H 
BRANCH   4   7
ATOM      7  C   UNL A   1      35.090  21.014  24.772  1.00  0.00     0.017 C 
ATOM      8  H   UNL A   1      34.290  20.721  24.125  1.00  0.00     0.049 H 
ATOM      9  H   UNL A   1      34.711  21.348  25.716  1.00  0.00     0.049 H 
BRANCH   7  10
ATOM     10  N   UNL A   1      35.817  22.109  24.159  1.00  0.00    -0.355 N 
ATOM     11  C   UNL A   1      35.398  23.012  23.224  1.00  0.00     0.239 C 
ATOM     12  O   UNL A   1      36.225  23.832  22.811  1.00  0.00    -0.273 OA
ATOM     13  H   UNL A   1      36.748  22.217  24.460  1.00  0.00     0.163 HD
BRANCH  11  14
ATOM     14  C   UNL A   1      33.952  23.061  22.769  1.00  0.00     0.102 C 
ATOM     15  H   UNL A   1      33.929  23.401  21.755  1.00  0.00     0.060 H 
ATOM     16  H   UNL A   1      33.559  22.071  22.882  1.00  0.00     0.060 H 
BRANCH  14  17
ATOM     17  N   UNL A   1      33.104  23.942  23.567  1.00  0.00    -0.335 N 
ATOM     18  C   UNL A   1      30.271  23.152  26.510  1.00  0.00    -0.050 A 
ATOM     19  C   UNL A   1      31.071  22.079  26.114  1.00  0.00    -0.057 A 
ATOM     20  C   UNL A   1      30.499  24.423  25.961  1.00  0.00    -0.049 A 
ATOM     21  C   UNL A   1      32.086  22.241  25.167  1.00  0.00    -0.037 A 
ATOM     22  H   UNL A   1      30.909  21.148  26.527  1.00  0.00     0.063 H 
ATOM     23  C   UNL A   1      31.513  24.612  24.995  1.00  0.00     0.008 A 
ATOM     24  H   UNL A   1      29.923  25.224  26.264  1.00  0.00     0.063 H 
ATOM     25  C   UNL A   1      32.271  23.511  24.590  1.00  0.00     0.049 A 
ATOM     26  H   UNL A   1      32.686  21.446  24.896  1.00  0.00     0.065 H 
ATOM     27  C   UNL A   1      31.987  25.739  24.264  1.00  0.00     0.011 A 
ATOM     28  C   UNL A   1      33.007  25.313  23.424  1.00  0.00     0.024 A 
BRANCH  18  29
ATOM     29  C   UNL A   1      29.154  22.924  27.486  1.00  0.00    -0.040 C 
ATOM     30  H   UNL A   1      29.544  22.932  28.482  1.00  0.00     0.028 H 
ATOM     31  H   UNL A   1      28.697  21.977  27.288  1.00  0.00     0.028 H 
ATOM     32  H   UNL A   1      28.426  23.701  27.381  1.00  0.00     0.028 H 
ENDBRANCH  18  29
BRANCH  27  33
ATOM     33  C   UNL A   1      31.533  27.125  24.318  1.00  0.00    -0.005 A 
ATOM     34  C   UNL A   1      30.572  27.532  23.397  1.00  0.00    -0.035 A 
ATOM     35  C   UNL A   1      32.017  28.038  25.290  1.00  0.00     0.008 A 
ATOM     36  C   UNL A   1      30.108  28.825  23.484  1.00  0.00     0.028 A 
ATOM     37  H   UNL A   1      30.220  26.887  22.671  1.00  0.00     0.065 H 
ATOM     38  C   UNL A   1      31.465  29.338  25.306  1.00  0.00     0.074 A 
ATOM     39  C   UNL A   1      33.014  27.703  26.235  1.00  0.00    -0.052 A 
ATOM     40  N   UNL A   1      30.527  29.713  24.410  1.00  0.00    -0.256 NA
ATOM     41  H   UNL A   1      29.397  29.133  22.802  1.00  0.00     0.084 H 
ATOM     42  C   UNL A   1      31.911  30.241  26.285  1.00  0.00    -0.025 A 
ATOM     43  C   UNL A   1      33.463  28.614  27.183  1.00  0.00    -0.061 A 
ATOM     44  H   UNL A   1      33.421  26.756  26.220  1.00  0.00     0.063 H 
ATOM     45  C   UNL A   1      32.909  29.881  27.210  1.00  0.00    -0.057 A 
ATOM     46  H   UNL A   1      34.199  28.349  27.856  1.00  0.00     0.062 H 
ATOM     47  H   UNL A   1      33.228  30.565  27.913  1.00  0.00     0.063 H 
BRANCH  42  48
ATOM     48  C   UNL A   1      31.341  31.631  26.394  1.00  0.00    -0.038 C 
ATOM     49  H   UNL A   1      31.870  32.175  27.149  1.00  0.00     0.028 H 
ATOM     50  H   UNL A   1      30.305  31.573  26.657  1.00  0.00     0.028 H 
ATOM     51  H   UNL A   1      31.444  32.133  25.455  1.00  0.00     0.028 H 
ENDBRANCH  42  48
ENDBRANCH  27  33
BRANCH  28  52
ATOM     52  C   UNL A   1      33.839  26.115  22.476  1.00  0.00    -0.024 C 
ATOM     53  H   UNL A   1      33.542  27.142  22.521  1.00  0.00     0.030 H 
ATOM     54  H   UNL A   1      33.700  25.747  21.480  1.00  0.00     0.030 H 
ATOM     55  H   UNL A   1      34.871  26.029  22.747  1.00  0.00     0.030 H 
ENDBRANCH  28  52
ENDBRANCH  14  17
ENDBRANCH  11  14
ENDBRANCH   7  10
ENDBRANCH   4   7
ENDBRANCH   1   4
BRANCH   1  56
ATOM     56  C   UNL A   1      38.479  20.210  25.606  1.00  0.00    -0.052 C 
ATOM     57  H   UNL A   1      39.364  19.677  25.329  1.00  0.00     0.027 H 
ATOM     58  H   UNL A   1      38.034  19.857  26.512  1.00  0.00     0.027 H 
BRANCH  56  59
ATOM     59  C   UNL A   1      38.864  21.671  25.860  1.00  0.00    -0.036 C 
ATOM     60  H   UNL A   1      38.038  22.157  26.334  1.00  0.00     0.028 H 
ATOM     61  H   UNL A   1      39.105  22.092  24.905  1.00  0.00     0.028 H 
BRANCH  59  62
ATOM     62  C   UNL A   1      40.100  21.857  26.742  1.00  0.00     0.018 C 
ATOM     63  H   UNL A   1      40.287  20.938  27.258  1.00  0.00     0.049 H 
ATOM     64  H   UNL A   1      39.887  22.667  27.408  1.00  0.00     0.049 H 
BRANCH  62  65
ATOM     65  N   UNL A   1      41.297  22.219  26.011  1.00  0.00    -0.352 N 
ATOM     66  C   UNL A   1      42.097  23.334  25.958  1.00  0.00     0.251 C 
ATOM     67  H   UNL A   1      41.608  21.501  25.415  1.00  0.00     0.163 HD
ATOM     68  O   UNL A   1      43.126  23.237  25.304  1.00  0.00    -0.269 OA
BRANCH  66  69
ATOM     69  C   UNL A   1      41.759  24.650  26.573  1.00  0.00     0.039 A 
ATOM     70  C   UNL A   1      40.906  25.605  26.029  1.00  0.00    -0.049 A 
ATOM     71  C   UNL A   1      42.417  24.955  27.782  1.00  0.00    -0.049 A 
ATOM     72  C   UNL A   1      40.811  26.869  26.597  1.00  0.00    -0.053 A 
ATOM     73  H   UNL A   1      40.340  25.372  25.199  1.00  0.00     0.063 H 
ATOM     74  C   UNL A   1      42.296  26.209  28.379  1.00  0.00    -0.053 A 
ATOM     75  H   UNL A   1      43.002  24.234  28.234  1.00  0.00     0.063 H 
ATOM     76  C   UNL A   1      41.528  27.183  27.755  1.00  0.00    -0.014 A 
ATOM     77  H   UNL A   1      40.205  27.582  26.160  1.00  0.00     0.063 H 
ATOM     78  H   UNL A   1      42.771  26.410  29.273  1.00  0.00     0.063 H 
BRANCH  76  79
ATOM     79  C   UNL A   1      41.328  28.517  28.314  1.00  0.00     0.031 A 
ATOM     80  C   UNL A   1      42.395  29.498  27.963  1.00  0.00     0.074 A 
ATOM     81  C   UNL A   1      40.265  28.888  29.055  1.00  0.00     0.049 A 
ATOM     82  N   UNL A   1      43.218  30.098  28.760  1.00  0.00    -0.248 NA
ATOM     83  C   UNL A   1      42.649  29.749  26.536  1.00  0.00    -0.034 C 
ATOM     84  C   UNL A   1      39.018  28.157  29.283  1.00  0.00    -0.036 A 
ATOM     85  N   UNL A   1      40.059  30.066  29.714  1.00  0.00    -0.354 N 
ATOM     86  C   UNL A   1      44.005  30.920  27.955  1.00  0.00     0.074 A 
ATOM     87  C   UNL A   1      43.690  30.580  26.593  1.00  0.00    -0.034 C 
ATOM     88  H   UNL A   1      42.153  29.380  25.711  1.00  0.00     0.065 H 
ATOM     89  C   UNL A   1      38.112  28.986  29.850  1.00  0.00    -0.036 A 
ATOM     90  H   UNL A   1      38.856  27.166  29.049  1.00  0.00     0.065 H 
ATOM     91  C   UNL A   1      38.757  30.254  30.154  1.00  0.00     0.049 A 
ATOM     92  H   UNL A   1      40.774  30.727  29.864  1.00  0.00     0.167 HD
ATOM     93  C   UNL A   1      44.722  31.952  28.481  1.00  0.00     0.037 A 
ATOM     94  H   UNL A   1      44.202  30.932  25.769  1.00  0.00     0.065 H 
ATOM     95  H   UNL A   1      37.123  28.757  30.036  1.00  0.00     0.065 H 
ATOM     96  C   UNL A   1      38.240  31.387  30.688  1.00  0.00     0.037 A 
ATOM     97  C   UNL A   1      44.924  31.779  29.894  1.00  0.00     0.049 A 
ATOM     98  C   UNL A   1      39.371  32.191  31.206  1.00  0.00     0.074 A 
ATOM     99  C   UNL A   1      45.608  30.880  30.686  1.00  0.00    -0.036 A 
ATOM    100  N   UNL A   1      44.091  32.468  30.736  1.00  0.00    -0.354 N 
ATOM    101  N   UNL A   1      40.090  31.866  32.243  1.00  0.00    -0.248 NA
ATOM    102  C   UNL A   1      39.942  33.216  30.347  1.00  0.00    -0.034 C 
ATOM    103  C   UNL A   1      44.842  30.774  31.883  1.00  0.00    -0.036 A 
ATOM    104  H   UNL A   1      46.487  30.388  30.459  1.00  0.00     0.065 H 
ATOM    105  C   UNL A   1      43.753  31.640  31.772  1.00  0.00     0.049 A 
ATOM    106  H   UNL A   1      43.788  33.396  30.616  1.00  0.00     0.167 HD
ATOM    107  C   UNL A   1      41.363  32.312  31.936  1.00  0.00     0.074 A 
ATOM    108  C   UNL A   1      41.182  33.251  30.836  1.00  0.00    -0.034 C 
ATOM    109  H   UNL A   1      39.511  33.758  29.582  1.00  0.00     0.065 H 
ATOM    110  H   UNL A   1      45.055  30.166  32.688  1.00  0.00     0.065 H 
ATOM    111  C   UNL A   1      42.461  31.662  32.418  1.00  0.00     0.037 A 
ATOM    112  H   UNL A   1      41.927  33.869  30.477  1.00  0.00     0.065 H 
BRANCH  93 113
ATOM    113  C   UNL A   1      44.918  33.290  27.804  1.00  0.00     0.064 A 
ATOM    114  C   UNL A   1      46.208  33.655  27.360  1.00  0.00     0.173 A 
ATOM    115  C   UNL A   1      43.980  34.343  27.860  1.00  0.00     0.173 A 
ATOM    116  F   UNL A   1      47.188  32.743  27.279  1.00  0.00    -0.203 F 
ATOM    117  C   UNL A   1      46.549  34.982  27.085  1.00  0.00     0.198 A 
ATOM    118  C   UNL A   1      44.311  35.657  27.535  1.00  0.00     0.198 A 
ATOM    119  F   UNL A   1      42.741  34.170  28.335  1.00  0.00    -0.203 F 
ATOM    120  F   UNL A   1      47.820  35.296  26.797  1.00  0.00    -0.200 F 
ATOM    121  C   UNL A   1      45.603  35.984  27.181  1.00  0.00     0.200 A 
ATOM    122  F   UNL A   1      43.383  36.618  27.652  1.00  0.00    -0.200 F 
ATOM    123  F   UNL A   1      45.941  37.264  26.983  1.00  0.00    -0.200 F 
ENDBRANCH  93 113
BRANCH  96 124
ATOM    124  C   UNL A   1      36.882  31.963  30.538  1.00  0.00     0.064 A 
ATOM    125  C   UNL A   1      35.986  31.983  31.623  1.00  0.00     0.173 A 
ATOM    126  C   UNL A   1      36.551  32.778  29.441  1.00  0.00     0.173 A 
ATOM    127  F   UNL A   1      36.242  31.263  32.725  1.00  0.00    -0.203 F 
ATOM    128  C   UNL A   1      34.857  32.809  31.628  1.00  0.00     0.198 A 
ATOM    129  C   UNL A   1      35.419  33.595  29.443  1.00  0.00     0.198 A 
ATOM    130  F   UNL A   1      37.372  32.878  28.385  1.00  0.00    -0.203 F 
ATOM    131  F   UNL A   1      34.073  32.862  32.714  1.00  0.00    -0.200 F 
ATOM    132  C   UNL A   1      34.584  33.626  30.545  1.00  0.00     0.200 A 
ATOM    133  F   UNL A   1      35.184  34.406  28.402  1.00  0.00    -0.200 F 
ATOM    134  F   UNL A   1      33.546  34.473  30.579  1.00  0.00    -0.200 F 
ENDBRANCH  96 124
BRANCH 111 135
ATOM    135  C   UNL A   1      42.261  30.706  33.560  1.00  0.00     0.064 A 
ATOM    136  C   UNL A   1      42.298  31.075  34.915  1.00  0.00     0.173 A 
ATOM    137  C   UNL A   1      41.876  29.393  33.257  1.00  0.00     0.173 A 
ATOM    138  F   UNL A   1      42.565  32.336  35.282  1.00  0.00    -0.203 F 
ATOM    139  C   UNL A   1      41.996  30.156  35.919  1.00  0.00     0.198 A 
ATOM    140  C   UNL A   1      41.537  28.490  34.258  1.00  0.00     0.198 A 
ATOM    141  F   UNL A   1      41.776  29.000  31.977  1.00  0.00    -0.203 F 
ATOM    142  F   UNL A   1      42.044  30.527  37.208  1.00  0.00    -0.200 F 
ATOM    143  C   UNL A   1      41.605  28.869  35.589  1.00  0.00     0.200 A 
ATOM    144  F   UNL A   1      41.111  27.262  33.932  1.00  0.00    -0.200 F 
ATOM    145  F   UNL A   1      41.265  28.001  36.553  1.00  0.00    -0.200 F 
ENDBRANCH 111 135
ENDBRANCH  76  79
ENDBRANCH  66  69
ENDBRANCH  62  65
ENDBRANCH  59  62
ENDBRANCH  56  59
ENDBRANCH   1  56
TORSDOF 18
ENDMDL
MODEL 10
REMARK VINA RESULT:     -12.1      3.036      5.200
REMARK SMILES Cc1ccc2c(c1)c(-c1ccnc3c(C)cccc13)c(C)n2CC(=O)NCCCCCCNC(=O)c1ccc(-c2c3nc(c(-c4c(F)c(F)c(F)c(F)c4F)c4ccc([nH]4)c(-c4c(F)c(F)c(F)c(F)c4F)c4nc(c(-c5c(F)c(F)c(F)c(F)c5F)c5ccc2[nH]5)C=C4)C=C3)cc1
REMARK SMILES IDX 29 1 28 4 27 7 26 10 24 11 25 12 23 14 22 17 2 18 3 19 7 20
REMARK SMILES IDX 4 21 6 23 5 25 8 27 20 28 1 29 9 33 10 34 19 35 11 36 13 38
REMARK SMILES IDX 18 39 12 40 14 42 17 43 16 45 15 48 21 52 30 56 31 59 32 62
REMARK SMILES IDX 33 65 34 66 35 68 36 69 37 70 98 71 38 72 97 74 39 76 40 79
REMARK SMILES IDX 41 80 91 81 42 82 96 83 90 84 92 85 43 86 95 87 89 89 88 91
REMARK SMILES IDX 44 93 76 96 56 97 75 98 57 99 60 100 74 101 93 102 58 103
REMARK SMILES IDX 59 105 73 107 94 108 61 111 45 113 46 114 54 115 47 116
REMARK SMILES IDX 48 117 52 118 55 119 49 120 50 121 53 122 51 123 77 124
REMARK SMILES IDX 78 125 86 126 79 127 80 128 84 129 87 130 81 131 82 132
REMARK SMILES IDX 85 133 83 134 62 135 63 136 71 137 64 138 65 139 69 140
REMARK SMILES IDX 72 141 66 142 67 143 70 144 68 145
REMARK H PARENT 29 2 29 3 28 5 28 6 27 8 27 9 26 13 23 15 23 16 3 22 7 24 4 26
REMARK H PARENT 1 30 1 31 1 32 10 37 11 41 18 44 17 46 16 47 15 49 15 50 15 51
REMARK H PARENT 21 53 21 54 21 55 30 57 30 58 31 60 31 61 32 63 32 64 33 67
REMARK H PARENT 37 73 98 75 38 77 97 78 96 88 90 90 92 92 95 94 89 95 57 104
REMARK H PARENT 60 106 93 109 58 110 94 112
REMARK Flexibility Score: inf
ROOT
ATOM      1  C   UNL A   1      34.710  20.094  24.907  1.00  0.00    -0.052 C 
ATOM      2  H   UNL A   1      34.579  19.943  23.856  1.00  0.00     0.027 H 
ATOM      3  H   UNL A   1      35.270  19.313  25.377  1.00  0.00     0.027 H 
ENDROOT
BRANCH   1   4
ATOM      4  C   UNL A   1      33.326  20.094  25.567  1.00  0.00    -0.036 C 
ATOM      5  H   UNL A   1      32.908  19.113  25.469  1.00  0.00     0.028 H 
ATOM      6  H   UNL A   1      33.470  20.382  26.587  1.00  0.00     0.028 H 
BRANCH   4   7
ATOM      7  C   UNL A   1      32.346  21.095  24.962  1.00  0.00     0.017 C 
ATOM      8  H   UNL A   1      32.894  21.831  24.412  1.00  0.00     0.049 H 
ATOM      9  H   UNL A   1      31.675  20.564  24.318  1.00  0.00     0.049 H 
BRANCH   7  10
ATOM     10  N   UNL A   1      31.564  21.756  25.989  1.00  0.00    -0.355 N 
ATOM     11  C   UNL A   1      31.766  22.966  26.588  1.00  0.00     0.239 C 
ATOM     12  O   UNL A   1      30.984  23.297  27.484  1.00  0.00    -0.273 OA
ATOM     13  H   UNL A   1      30.773  21.260  26.300  1.00  0.00     0.163 HD
BRANCH  11  14
ATOM     14  C   UNL A   1      32.859  23.906  26.115  1.00  0.00     0.102 C 
ATOM     15  H   UNL A   1      33.311  24.355  26.974  1.00  0.00     0.060 H 
ATOM     16  H   UNL A   1      33.548  23.316  25.546  1.00  0.00     0.060 H 
BRANCH  14  17
ATOM     17  N   UNL A   1      32.390  24.971  25.233  1.00  0.00    -0.335 N 
ATOM     18  C   UNL A   1      32.524  25.413  21.098  1.00  0.00    -0.050 A 
ATOM     19  C   UNL A   1      32.857  24.154  21.599  1.00  0.00    -0.057 A 
ATOM     20  C   UNL A   1      32.108  26.421  21.982  1.00  0.00    -0.049 A 
ATOM     21  C   UNL A   1      32.801  23.880  22.968  1.00  0.00    -0.037 A 
ATOM     22  H   UNL A   1      33.152  23.411  20.947  1.00  0.00     0.063 H 
ATOM     23  C   UNL A   1      32.051  26.171  23.372  1.00  0.00     0.008 A 
ATOM     24  H   UNL A   1      31.843  27.348  21.615  1.00  0.00     0.063 H 
ATOM     25  C   UNL A   1      32.428  24.913  23.846  1.00  0.00     0.049 A 
ATOM     26  H   UNL A   1      33.029  22.939  23.327  1.00  0.00     0.065 H 
ATOM     27  C   UNL A   1      31.683  26.954  24.504  1.00  0.00     0.011 A 
ATOM     28  C   UNL A   1      31.850  26.176  25.641  1.00  0.00     0.024 A 
BRANCH  18  29
ATOM     29  C   UNL A   1      32.653  25.685  19.628  1.00  0.00    -0.040 C 
ATOM     30  H   UNL A   1      31.997  26.483  19.354  1.00  0.00     0.028 H 
ATOM     31  H   UNL A   1      32.392  24.804  19.079  1.00  0.00     0.028 H 
ATOM     32  H   UNL A   1      33.663  25.959  19.404  1.00  0.00     0.028 H 
ENDBRANCH  18  29
BRANCH  27  33
ATOM     33  C   UNL A   1      31.214  28.335  24.552  1.00  0.00    -0.005 A 
ATOM     34  C   UNL A   1      32.010  29.272  25.204  1.00  0.00    -0.035 A 
ATOM     35  C   UNL A   1      30.003  28.740  23.932  1.00  0.00     0.008 A 
ATOM     36  C   UNL A   1      31.590  30.583  25.201  1.00  0.00     0.028 A 
ATOM     37  H   UNL A   1      32.886  28.993  25.675  1.00  0.00     0.065 H 
ATOM     38  C   UNL A   1      29.669  30.112  23.972  1.00  0.00     0.074 A 
ATOM     39  C   UNL A   1      29.130  27.839  23.280  1.00  0.00    -0.052 A 
ATOM     40  N   UNL A   1      30.458  31.008  24.602  1.00  0.00    -0.256 NA
ATOM     41  H   UNL A   1      32.176  31.281  25.686  1.00  0.00     0.084 H 
ATOM     42  C   UNL A   1      28.491  30.531  23.333  1.00  0.00    -0.025 A 
ATOM     43  C   UNL A   1      27.956  28.264  22.672  1.00  0.00    -0.061 A 
ATOM     44  H   UNL A   1      29.372  26.837  23.255  1.00  0.00     0.063 H 
ATOM     45  C   UNL A   1      27.639  29.611  22.696  1.00  0.00    -0.057 A 
ATOM     46  H   UNL A   1      27.330  27.586  22.211  1.00  0.00     0.062 H 
ATOM     47  H   UNL A   1      26.773  29.941  22.243  1.00  0.00     0.063 H 
BRANCH  42  48
ATOM     48  C   UNL A   1      28.087  31.982  23.296  1.00  0.00    -0.038 C 
ATOM     49  H   UNL A   1      28.951  32.588  23.119  1.00  0.00     0.028 H 
ATOM     50  H   UNL A   1      27.646  32.255  24.232  1.00  0.00     0.028 H 
ATOM     51  H   UNL A   1      27.378  32.135  22.509  1.00  0.00     0.028 H 
ENDBRANCH  42  48
ENDBRANCH  27  33
BRANCH  28  52
ATOM     52  C   UNL A   1      31.579  26.529  27.069  1.00  0.00    -0.024 C 
ATOM     53  H   UNL A   1      32.437  27.013  27.486  1.00  0.00     0.030 H 
ATOM     54  H   UNL A   1      31.368  25.637  27.622  1.00  0.00     0.030 H 
ATOM     55  H   UNL A   1      30.737  27.188  27.119  1.00  0.00     0.030 H 
ENDBRANCH  28  52
ENDBRANCH  14  17
ENDBRANCH  11  14
ENDBRANCH   7  10
ENDBRANCH   4   7
ENDBRANCH   1   4
BRANCH   1  56
ATOM     56  C   UNL A   1      35.513  21.383  25.107  1.00  0.00    -0.052 C 
ATOM     57  H   UNL A   1      35.285  21.769  26.078  1.00  0.00     0.027 H 
ATOM     58  H   UNL A   1      35.230  22.038  24.311  1.00  0.00     0.027 H 
BRANCH  56  59
ATOM     59  C   UNL A   1      37.033  21.220  25.007  1.00  0.00    -0.036 C 
ATOM     60  H   UNL A   1      37.306  21.258  23.974  1.00  0.00     0.028 H 
ATOM     61  H   UNL A   1      37.270  20.284  25.468  1.00  0.00     0.028 H 
BRANCH  59  62
ATOM     62  C   UNL A   1      37.836  22.288  25.753  1.00  0.00     0.018 C 
ATOM     63  H   UNL A   1      37.437  22.380  26.742  1.00  0.00     0.049 H 
ATOM     64  H   UNL A   1      37.749  23.193  25.189  1.00  0.00     0.049 H 
BRANCH  62  65
ATOM     65  N   UNL A   1      39.251  21.995  25.858  1.00  0.00    -0.352 N 
ATOM     66  C   UNL A   1      40.313  22.575  26.507  1.00  0.00     0.251 C 
ATOM     67  H   UNL A   1      39.510  21.195  25.347  1.00  0.00     0.163 HD
ATOM     68  O   UNL A   1      41.372  21.965  26.475  1.00  0.00    -0.269 OA
BRANCH  66  69
ATOM     69  C   UNL A   1      40.273  23.910  27.172  1.00  0.00     0.039 A 
ATOM     70  C   UNL A   1      39.269  24.861  27.023  1.00  0.00    -0.049 A 
ATOM     71  C   UNL A   1      41.388  24.237  27.971  1.00  0.00    -0.049 A 
ATOM     72  C   UNL A   1      39.428  26.140  27.542  1.00  0.00    -0.053 A 
ATOM     73  H   UNL A   1      38.400  24.615  26.524  1.00  0.00     0.063 H 
ATOM     74  C   UNL A   1      41.536  25.506  28.527  1.00  0.00    -0.053 A 
ATOM     75  H   UNL A   1      42.110  23.520  28.146  1.00  0.00     0.063 H 
ATOM     76  C   UNL A   1      40.574  26.473  28.269  1.00  0.00    -0.014 A 
ATOM     77  H   UNL A   1      38.693  26.849  27.389  1.00  0.00     0.063 H 
ATOM     78  H   UNL A   1      42.350  25.723  29.124  1.00  0.00     0.063 H 
BRANCH  76  79
ATOM     79  C   UNL A   1      40.635  27.823  28.823  1.00  0.00     0.031 A 
ATOM     80  C   UNL A   1      41.729  28.669  28.265  1.00  0.00     0.074 A 
ATOM     81  C   UNL A   1      39.773  28.320  29.731  1.00  0.00     0.049 A 
ATOM     82  N   UNL A   1      42.746  29.168  28.889  1.00  0.00    -0.248 NA
ATOM     83  C   UNL A   1      41.751  28.885  26.810  1.00  0.00    -0.034 C 
ATOM     84  C   UNL A   1      38.510  27.744  30.195  1.00  0.00    -0.036 A 
ATOM     85  N   UNL A   1      39.827  29.516  30.388  1.00  0.00    -0.354 N 
ATOM     86  C   UNL A   1      43.467  29.889  27.938  1.00  0.00     0.074 A 
ATOM     87  C   UNL A   1      42.876  29.585  26.662  1.00  0.00    -0.034 C 
ATOM     88  H   UNL A   1      41.076  28.576  26.095  1.00  0.00     0.065 H 
ATOM     89  C   UNL A   1      37.823  28.677  30.893  1.00  0.00    -0.036 A 
ATOM     90  H   UNL A   1      38.194  26.779  30.016  1.00  0.00     0.065 H 
ATOM     91  C   UNL A   1      38.656  29.859  31.048  1.00  0.00     0.049 A 
ATOM     92  H   UNL A   1      40.630  30.087  30.394  1.00  0.00     0.167 HD
ATOM     93  C   UNL A   1      44.383  30.828  28.304  1.00  0.00     0.037 A 
ATOM     94  H   UNL A   1      43.270  29.872  25.752  1.00  0.00     0.065 H 
ATOM     95  H   UNL A   1      36.863  28.568  31.257  1.00  0.00     0.065 H 
ATOM     96  C   UNL A   1      38.380  31.047  31.639  1.00  0.00     0.037 A 
ATOM     97  C   UNL A   1      44.813  30.636  29.662  1.00  0.00     0.049 A 
ATOM     98  C   UNL A   1      39.671  31.711  31.929  1.00  0.00     0.074 A 
ATOM     99  C   UNL A   1      45.517  29.663  30.341  1.00  0.00    -0.036 A 
ATOM    100  N   UNL A   1      44.230  31.422  30.623  1.00  0.00    -0.354 N 
ATOM    101  N   UNL A   1      40.521  31.305  32.829  1.00  0.00    -0.248 NA
ATOM    102  C   UNL A   1      40.195  32.659  30.958  1.00  0.00    -0.034 C 
ATOM    103  C   UNL A   1      44.970  29.652  31.657  1.00  0.00    -0.036 A 
ATOM    104  H   UNL A   1      46.277  29.069  29.974  1.00  0.00     0.065 H 
ATOM    105  C   UNL A   1      43.989  30.642  31.721  1.00  0.00     0.049 A 
ATOM    106  H   UNL A   1      44.021  32.379  30.536  1.00  0.00     0.167 HD
ATOM    107  C   UNL A   1      41.762  31.595  32.290  1.00  0.00     0.074 A 
ATOM    108  C   UNL A   1      41.498  32.546  31.218  1.00  0.00    -0.034 C 
ATOM    109  H   UNL A   1      39.700  33.247  30.269  1.00  0.00     0.065 H 
ATOM    110  H   UNL A   1      45.251  29.025  32.427  1.00  0.00     0.065 H 
ATOM    111  C   UNL A   1      42.844  30.819  32.585  1.00  0.00     0.037 A 
ATOM    112  H   UNL A   1      42.234  33.070  30.718  1.00  0.00     0.065 H 
BRANCH  93 113
ATOM    113  C   UNL A   1      44.610  32.132  27.572  1.00  0.00     0.064 A 
ATOM    114  C   UNL A   1      45.788  32.299  26.811  1.00  0.00     0.173 A 
ATOM    115  C   UNL A   1      43.892  33.317  27.838  1.00  0.00     0.173 A 
ATOM    116  F   UNL A   1      46.562  31.246  26.507  1.00  0.00    -0.203 F 
ATOM    117  C   UNL A   1      46.253  33.561  26.432  1.00  0.00     0.198 A 
ATOM    118  C   UNL A   1      44.333  34.570  27.414  1.00  0.00     0.198 A 
ATOM    119  F   UNL A   1      42.800  33.332  28.612  1.00  0.00    -0.203 F 
ATOM    120  F   UNL A   1      47.444  33.678  25.829  1.00  0.00    -0.200 F 
ATOM    121  C   UNL A   1      45.529  34.697  26.741  1.00  0.00     0.200 A 
ATOM    122  F   UNL A   1      43.626  35.662  27.739  1.00  0.00    -0.200 F 
ATOM    123  F   UNL A   1      46.004  35.912  26.438  1.00  0.00    -0.200 F 
ENDBRANCH  93 113
BRANCH  96 124
ATOM    124  C   UNL A   1      37.093  31.780  31.718  1.00  0.00     0.064 A 
ATOM    125  C   UNL A   1      36.514  32.083  32.964  1.00  0.00     0.173 A 
ATOM    126  C   UNL A   1      36.573  32.466  30.606  1.00  0.00     0.173 A 
ATOM    127  F   UNL A   1      36.974  31.502  34.082  1.00  0.00    -0.203 F 
ATOM    128  C   UNL A   1      35.514  33.052  33.093  1.00  0.00     0.198 A 
ATOM    129  C   UNL A   1      35.568  33.426  30.735  1.00  0.00     0.198 A 
ATOM    130  F   UNL A   1      37.099  32.295  29.384  1.00  0.00    -0.203 F 
ATOM    131  F   UNL A   1      35.046  33.372  34.308  1.00  0.00    -0.200 F 
ATOM    132  C   UNL A   1      35.053  33.734  31.980  1.00  0.00     0.200 A 
ATOM    133  F   UNL A   1      35.154  34.103  29.654  1.00  0.00    -0.200 F 
ATOM    134  F   UNL A   1      34.150  34.714  32.112  1.00  0.00    -0.200 F 
ENDBRANCH  96 124
BRANCH 111 135
ATOM    135  C   UNL A   1      42.741  29.897  33.767  1.00  0.00     0.064 A 
ATOM    136  C   UNL A   1      43.068  30.261  35.084  1.00  0.00     0.173 A 
ATOM    137  C   UNL A   1      42.152  28.641  33.569  1.00  0.00     0.173 A 
ATOM    138  F   UNL A   1      43.549  31.479  35.367  1.00  0.00    -0.203 F 
ATOM    139  C   UNL A   1      42.845  29.387  36.148  1.00  0.00     0.198 A 
ATOM    140  C   UNL A   1      41.894  27.788  34.637  1.00  0.00     0.198 A 
ATOM    141  F   UNL A   1      41.773  28.262  32.338  1.00  0.00    -0.203 F 
ATOM    142  F   UNL A   1      43.171  29.751  37.397  1.00  0.00    -0.200 F 
ATOM    143  C   UNL A   1      42.248  28.157  35.924  1.00  0.00     0.200 A 
ATOM    144  F   UNL A   1      41.271  26.622  34.421  1.00  0.00    -0.200 F 
ATOM    145  F   UNL A   1      41.986  27.339  36.953  1.00  0.00    -0.200 F 
ENDBRANCH 111 135
ENDBRANCH  76  79
ENDBRANCH  66  69
ENDBRANCH  62  65
ENDBRANCH  59  62
ENDBRANCH  56  59
ENDBRANCH   1  56
TORSDOF 18
ENDMDL
