MODEL 1
REMARK VINA RESULT:     -13.7      0.000      0.000
REMARK SMILES O=C1O[C@@H](c2ccc(O)c(O)c2)[C@H](C(=O)NCCCCCCNC(=O)c2ccc(-c3c4nc(c(-c5c(F)c(F)c(F)c(F)c5F)c5ccc([nH]5)c(-c5c(F)c(F)c(F)c(F)c5F)c5nc(c(-c6c(F)c(F)c(F)c(F)c6F)c6ccc3[nH]6)C=C5)C=C4)cc2)/C1=C\c1ccc(O)c(O)c1
REMARK SMILES IDX 19 1 18 4 17 7 16 10 14 11 15 12 13 14 1 15 2 16 3 17 89 18
REMARK SMILES IDX 4 19 90 20 5 24 6 25 12 26 7 27 10 29 8 31 11 33 9 35 91 37
REMARK SMILES IDX 92 38 98 39 93 40 96 42 94 44 97 46 95 48 20 50 21 53 22 56
REMARK SMILES IDX 23 59 24 60 25 62 26 63 27 64 88 65 28 66 87 68 29 70 30 73
REMARK SMILES IDX 31 74 81 75 32 76 86 77 80 78 82 79 33 80 85 81 79 83 78 85
REMARK SMILES IDX 34 87 66 90 46 91 65 92 47 93 50 94 64 95 83 96 48 97 49 99
REMARK SMILES IDX 63 101 84 102 51 105 35 107 36 108 44 109 37 110 38 111
REMARK SMILES IDX 42 112 45 113 39 114 40 115 43 116 41 117 67 118 68 119
REMARK SMILES IDX 76 120 69 121 70 122 74 123 77 124 71 125 72 126 75 127
REMARK SMILES IDX 73 128 52 129 53 130 61 131 54 132 55 133 59 134 62 135
REMARK SMILES IDX 56 136 57 137 60 138 58 139
REMARK H PARENT 19 2 19 3 18 5 18 6 17 8 17 9 16 13 4 21 13 22 90 23 6 28
REMARK H PARENT 12 30 7 32 11 34 9 36 92 41 98 43 93 45 97 47 95 49 20 51
REMARK H PARENT 20 52 21 54 21 55 22 57 22 58 23 61 27 67 88 69 28 71 87 72
REMARK H PARENT 86 82 80 84 82 86 85 88 79 89 47 98 50 100 83 103 48 104
REMARK H PARENT 84 106
REMARK Flexibility Score: inf
ROOT
ATOM      1  C   UNL A   1      32.332  29.910  27.120  1.00  0.00    -0.052 C 
ATOM      2  H   UNL A   1      33.306  29.746  26.709  1.00  0.00     0.027 H 
ATOM      3  H   UNL A   1      32.345  30.428  28.056  1.00  0.00     0.027 H 
ENDROOT
BRANCH   1   4
ATOM      4  C   UNL A   1      31.699  28.547  27.398  1.00  0.00    -0.036 C 
ATOM      5  H   UNL A   1      31.364  28.536  28.414  1.00  0.00     0.028 H 
ATOM      6  H   UNL A   1      30.903  28.431  26.694  1.00  0.00     0.028 H 
BRANCH   4   7
ATOM      7  C   UNL A   1      32.635  27.363  27.194  1.00  0.00     0.017 C 
ATOM      8  H   UNL A   1      33.116  27.148  28.125  1.00  0.00     0.049 H 
ATOM      9  H   UNL A   1      32.038  26.546  26.847  1.00  0.00     0.049 H 
BRANCH   7  10
ATOM     10  N   UNL A   1      33.655  27.599  26.196  1.00  0.00    -0.355 N 
ATOM     11  C   UNL A   1      33.577  27.613  24.831  1.00  0.00     0.231 C 
ATOM     12  O   UNL A   1      34.583  27.990  24.229  1.00  0.00    -0.274 OA
ATOM     13  H   UNL A   1      34.552  27.778  26.558  1.00  0.00     0.163 HD
BRANCH  11  14
ATOM     14  C   UNL A   1      32.327  27.088  24.114  1.00  0.00     0.111 C 
ATOM     15  O   UNL A   1      33.312  26.013  20.851  1.00  0.00    -0.247 OA
ATOM     16  C   UNL A   1      32.830  26.557  21.829  1.00  0.00     0.335 C 
ATOM     17  O   UNL A   1      32.313  27.810  21.853  1.00  0.00    -0.453 OA
ATOM     18  C   UNL A   1      32.683  25.981  23.177  1.00  0.00     0.054 C 
ATOM     19  C   UNL A   1      31.732  28.097  23.137  1.00  0.00     0.143 C 
ATOM     20  C   UNL A   1      32.849  24.664  23.368  1.00  0.00    -0.043 C 
ATOM     21  H   UNL A   1      31.969  29.084  23.477  1.00  0.00     0.081 H 
ATOM     22  H   UNL A   1      31.665  26.824  24.913  1.00  0.00     0.050 H 
ATOM     23  H   UNL A   1      33.089  24.085  22.549  1.00  0.00     0.063 H 
BRANCH  19  24
ATOM     24  C   UNL A   1      30.200  28.115  23.073  1.00  0.00    -0.002 A 
ATOM     25  C   UNL A   1      29.426  27.100  23.684  1.00  0.00    -0.051 A 
ATOM     26  C   UNL A   1      29.515  29.191  22.488  1.00  0.00    -0.009 A 
ATOM     27  C   UNL A   1      28.029  27.166  23.735  1.00  0.00    -0.016 A 
ATOM     28  H   UNL A   1      29.905  26.290  24.105  1.00  0.00     0.063 H 
ATOM     29  C   UNL A   1      28.125  29.238  22.522  1.00  0.00     0.157 A 
ATOM     30  H   UNL A   1      30.045  29.951  22.032  1.00  0.00     0.067 H 
ATOM     31  C   UNL A   1      27.385  28.243  23.151  1.00  0.00     0.157 A 
ATOM     32  H   UNL A   1      27.487  26.423  24.203  1.00  0.00     0.066 H 
BRANCH  29  33
ATOM     33  O   UNL A   1      27.482  30.290  21.936  1.00  0.00    -0.504 OA
ATOM     34  H   UNL A   1      27.916  30.799  21.280  1.00  0.00     0.293 HD
ENDBRANCH  29  33
BRANCH  31  35
ATOM     35  O   UNL A   1      26.026  28.369  23.172  1.00  0.00    -0.504 OA
ATOM     36  H   UNL A   1      25.553  28.222  23.967  1.00  0.00     0.293 HD
ENDBRANCH  31  35
ENDBRANCH  19  24
BRANCH  20  37
ATOM     37  C   UNL A   1      32.715  23.996  24.661  1.00  0.00    -0.021 A 
ATOM     38  C   UNL A   1      33.782  23.964  25.573  1.00  0.00    -0.051 A 
ATOM     39  C   UNL A   1      31.490  23.413  25.005  1.00  0.00    -0.009 A 
ATOM     40  C   UNL A   1      33.641  23.331  26.811  1.00  0.00    -0.016 A 
ATOM     41  H   UNL A   1      34.678  24.412  25.327  1.00  0.00     0.063 H 
ATOM     42  C   UNL A   1      31.356  22.794  26.240  1.00  0.00     0.157 A 
ATOM     43  H   UNL A   1      30.696  23.443  24.348  1.00  0.00     0.067 H 
ATOM     44  C   UNL A   1      32.422  22.746  27.135  1.00  0.00     0.157 A 
ATOM     45  H   UNL A   1      34.430  23.298  27.474  1.00  0.00     0.066 H 
BRANCH  42  46
ATOM     46  O   UNL A   1      30.159  22.232  26.577  1.00  0.00    -0.504 OA
ATOM     47  H   UNL A   1      30.102  21.310  26.737  1.00  0.00     0.293 HD
ENDBRANCH  42  46
BRANCH  44  48
ATOM     48  O   UNL A   1      32.220  22.115  28.330  1.00  0.00    -0.504 OA
ATOM     49  H   UNL A   1      31.355  21.856  28.583  1.00  0.00     0.293 HD
ENDBRANCH  44  48
ENDBRANCH  20  37
ENDBRANCH  11  14
ENDBRANCH   7  10
ENDBRANCH   4   7
ENDBRANCH   1   4
BRANCH   1  50
ATOM     50  C   UNL A   1      31.553  30.805  26.150  1.00  0.00    -0.052 C 
ATOM     51  H   UNL A   1      30.581  30.379  26.016  1.00  0.00     0.027 H 
ATOM     52  H   UNL A   1      32.134  30.841  25.252  1.00  0.00     0.027 H 
BRANCH  50  53
ATOM     53  C   UNL A   1      31.374  32.258  26.596  1.00  0.00    -0.036 C 
ATOM     54  H   UNL A   1      30.517  32.307  27.234  1.00  0.00     0.028 H 
ATOM     55  H   UNL A   1      31.269  32.838  25.704  1.00  0.00     0.028 H 
BRANCH  53  56
ATOM     56  C   UNL A   1      32.561  32.843  27.351  1.00  0.00     0.018 C 
ATOM     57  H   UNL A   1      33.439  32.736  26.748  1.00  0.00     0.049 H 
ATOM     58  H   UNL A   1      32.657  32.312  28.275  1.00  0.00     0.049 H 
BRANCH  56  59
ATOM     59  N   UNL A   1      32.375  34.250  27.662  1.00  0.00    -0.352 N 
ATOM     60  C   UNL A   1      32.998  35.017  28.613  1.00  0.00     0.251 C 
ATOM     61  H   UNL A   1      31.706  34.719  27.113  1.00  0.00     0.163 HD
ATOM     62  O   UNL A   1      32.585  36.142  28.872  1.00  0.00    -0.269 OA
BRANCH  60  63
ATOM     63  C   UNL A   1      34.165  34.475  29.339  1.00  0.00     0.039 A 
ATOM     64  C   UNL A   1      33.964  33.836  30.565  1.00  0.00    -0.049 A 
ATOM     65  C   UNL A   1      35.452  34.598  28.811  1.00  0.00    -0.049 A 
ATOM     66  C   UNL A   1      35.050  33.272  31.235  1.00  0.00    -0.053 A 
ATOM     67  H   UNL A   1      33.016  33.782  30.972  1.00  0.00     0.063 H 
ATOM     68  C   UNL A   1      36.520  33.965  29.438  1.00  0.00    -0.053 A 
ATOM     69  H   UNL A   1      35.611  35.156  27.957  1.00  0.00     0.063 H 
ATOM     70  C   UNL A   1      36.332  33.303  30.662  1.00  0.00    -0.014 A 
ATOM     71  H   UNL A   1      34.910  32.827  32.156  1.00  0.00     0.063 H 
ATOM     72  H   UNL A   1      37.456  33.983  29.004  1.00  0.00     0.063 H 
BRANCH  70  73
ATOM     73  C   UNL A   1      37.495  32.668  31.332  1.00  0.00     0.031 A 
ATOM     74  C   UNL A   1      38.218  31.534  30.662  1.00  0.00     0.074 A 
ATOM     75  C   UNL A   1      37.856  33.066  32.567  1.00  0.00     0.049 A 
ATOM     76  N   UNL A   1      39.192  30.787  31.116  1.00  0.00    -0.248 NA
ATOM     77  C   UNL A   1      37.766  31.169  29.309  1.00  0.00    -0.034 C 
ATOM     78  C   UNL A   1      37.209  34.131  33.335  1.00  0.00    -0.036 A 
ATOM     79  N   UNL A   1      38.849  32.612  33.399  1.00  0.00    -0.354 N 
ATOM     80  C   UNL A   1      39.456  29.861  30.115  1.00  0.00     0.074 A 
ATOM     81  C   UNL A   1      38.502  30.098  29.055  1.00  0.00    -0.034 C 
ATOM     82  H   UNL A   1      37.058  31.629  28.714  1.00  0.00     0.065 H 
ATOM     83  C   UNL A   1      37.835  34.262  34.516  1.00  0.00    -0.036 A 
ATOM     84  H   UNL A   1      36.401  34.690  33.021  1.00  0.00     0.065 H 
ATOM     85  C   UNL A   1      38.895  33.264  34.607  1.00  0.00     0.049 A 
ATOM     86  H   UNL A   1      39.469  31.888  33.153  1.00  0.00     0.167 HD
ATOM     87  C   UNL A   1      40.426  28.916  30.073  1.00  0.00     0.037 A 
ATOM     88  H   UNL A   1      38.406  29.511  28.213  1.00  0.00     0.065 H 
ATOM     89  H   UNL A   1      37.603  34.958  35.242  1.00  0.00     0.065 H 
ATOM     90  C   UNL A   1      39.696  33.067  35.672  1.00  0.00     0.037 A 
ATOM     91  C   UNL A   1      41.387  28.698  31.122  1.00  0.00     0.049 A 
ATOM     92  C   UNL A   1      40.748  31.992  35.611  1.00  0.00     0.074 A 
ATOM     93  C   UNL A   1      42.439  27.800  31.156  1.00  0.00    -0.036 A 
ATOM     94  N   UNL A   1      41.411  29.387  32.326  1.00  0.00    -0.354 N 
ATOM     95  N   UNL A   1      41.029  31.162  34.635  1.00  0.00    -0.248 NA
ATOM     96  C   UNL A   1      41.601  31.830  36.796  1.00  0.00    -0.034 C 
ATOM     97  C   UNL A   1      43.063  27.904  32.403  1.00  0.00    -0.036 A 
ATOM     98  H   UNL A   1      42.715  27.163  30.392  1.00  0.00     0.065 H 
ATOM     99  C   UNL A   1      42.443  28.914  33.121  1.00  0.00     0.049 A 
ATOM    100  H   UNL A   1      40.786  30.105  32.580  1.00  0.00     0.167 HD
ATOM    101  C   UNL A   1      42.110  30.409  35.073  1.00  0.00     0.074 A 
ATOM    102  C   UNL A   1      42.442  30.887  36.399  1.00  0.00    -0.034 C 
ATOM    103  H   UNL A   1      41.556  32.323  37.702  1.00  0.00     0.065 H 
ATOM    104  H   UNL A   1      43.851  27.326  32.732  1.00  0.00     0.065 H 
ATOM    105  C   UNL A   1      42.771  29.412  34.433  1.00  0.00     0.037 A 
ATOM    106  H   UNL A   1      43.233  30.538  36.962  1.00  0.00     0.065 H 
BRANCH  87 107
ATOM    107  C   UNL A   1      40.493  28.042  28.853  1.00  0.00     0.064 A 
ATOM    108  C   UNL A   1      39.788  26.831  28.771  1.00  0.00     0.173 A 
ATOM    109  C   UNL A   1      41.244  28.438  27.734  1.00  0.00     0.173 A 
ATOM    110  F   UNL A   1      39.065  26.399  29.815  1.00  0.00    -0.203 F 
ATOM    111  C   UNL A   1      39.861  26.033  27.632  1.00  0.00     0.198 A 
ATOM    112  C   UNL A   1      41.285  27.656  26.583  1.00  0.00     0.198 A 
ATOM    113  F   UNL A   1      41.933  29.588  27.755  1.00  0.00    -0.203 F 
ATOM    114  F   UNL A   1      39.226  24.854  27.600  1.00  0.00    -0.200 F 
ATOM    115  C   UNL A   1      40.602  26.450  26.536  1.00  0.00     0.200 A 
ATOM    116  F   UNL A   1      41.990  28.067  25.520  1.00  0.00    -0.200 F 
ATOM    117  F   UNL A   1      40.665  25.686  25.437  1.00  0.00    -0.200 F 
ENDBRANCH  87 107
BRANCH  90 118
ATOM    118  C   UNL A   1      39.547  33.917  36.884  1.00  0.00     0.064 A 
ATOM    119  C   UNL A   1      38.767  33.495  37.970  1.00  0.00     0.173 A 
ATOM    120  C   UNL A   1      40.167  35.172  36.978  1.00  0.00     0.173 A 
ATOM    121  F   UNL A   1      38.138  32.312  37.920  1.00  0.00    -0.203 F 
ATOM    122  C   UNL A   1      38.590  34.305  39.089  1.00  0.00     0.198 A 
ATOM    123  C   UNL A   1      40.017  35.967  38.112  1.00  0.00     0.198 A 
ATOM    124  F   UNL A   1      40.930  35.622  35.970  1.00  0.00    -0.203 F 
ATOM    125  F   UNL A   1      37.795  33.899  40.088  1.00  0.00    -0.200 F 
ATOM    126  C   UNL A   1      39.220  35.538  39.162  1.00  0.00     0.200 A 
ATOM    127  F   UNL A   1      40.640  37.151  38.184  1.00  0.00    -0.200 F 
ATOM    128  F   UNL A   1      39.051  36.317  40.239  1.00  0.00    -0.200 F 
ENDBRANCH  90 118
BRANCH 105 129
ATOM    129  C   UNL A   1      43.953  28.805  35.133  1.00  0.00     0.064 A 
ATOM    130  C   UNL A   1      43.830  27.677  35.958  1.00  0.00     0.173 A 
ATOM    131  C   UNL A   1      45.239  29.334  34.934  1.00  0.00     0.173 A 
ATOM    132  F   UNL A   1      42.622  27.140  36.191  1.00  0.00    -0.203 F 
ATOM    133  C   UNL A   1      44.944  27.119  36.578  1.00  0.00     0.198 A 
ATOM    134  C   UNL A   1      46.354  28.751  35.528  1.00  0.00     0.198 A 
ATOM    135  F   UNL A   1      45.414  30.406  34.148  1.00  0.00    -0.203 F 
ATOM    136  F   UNL A   1      44.794  26.072  37.403  1.00  0.00    -0.200 F 
ATOM    137  C   UNL A   1      46.205  27.650  36.356  1.00  0.00     0.200 A 
ATOM    138  F   UNL A   1      47.574  29.256  35.297  1.00  0.00    -0.200 F 
ATOM    139  F   UNL A   1      47.278  27.103  36.945  1.00  0.00    -0.200 F 
ENDBRANCH 105 129
ENDBRANCH  70  73
ENDBRANCH  60  63
ENDBRANCH  56  59
ENDBRANCH  53  56
ENDBRANCH  50  53
ENDBRANCH   1  50
TORSDOF 19
ENDMDL
MODEL 2
REMARK VINA RESULT:     -13.7      0.076      1.520
REMARK SMILES O=C1O[C@@H](c2ccc(O)c(O)c2)[C@H](C(=O)NCCCCCCNC(=O)c2ccc(-c3c4nc(c(-c5c(F)c(F)c(F)c(F)c5F)c5ccc([nH]5)c(-c5c(F)c(F)c(F)c(F)c5F)c5nc(c(-c6c(F)c(F)c(F)c(F)c6F)c6ccc3[nH]6)C=C5)C=C4)cc2)/C1=C\c1ccc(O)c(O)c1
REMARK SMILES IDX 19 1 18 4 17 7 16 10 14 11 15 12 13 14 1 15 2 16 3 17 89 18
REMARK SMILES IDX 4 19 90 20 5 24 6 25 12 26 7 27 10 29 8 31 11 33 9 35 91 37
REMARK SMILES IDX 92 38 98 39 93 40 96 42 94 44 97 46 95 48 20 50 21 53 22 56
REMARK SMILES IDX 23 59 24 60 25 62 26 63 27 64 88 65 28 66 87 68 29 70 30 73
REMARK SMILES IDX 31 74 81 75 32 76 86 77 80 78 82 79 33 80 85 81 79 83 78 85
REMARK SMILES IDX 34 87 66 90 46 91 65 92 47 93 50 94 64 95 83 96 48 97 49 99
REMARK SMILES IDX 63 101 84 102 51 105 35 107 36 108 44 109 37 110 38 111
REMARK SMILES IDX 42 112 45 113 39 114 40 115 43 116 41 117 67 118 68 119
REMARK SMILES IDX 76 120 69 121 70 122 74 123 77 124 71 125 72 126 75 127
REMARK SMILES IDX 73 128 52 129 53 130 61 131 54 132 55 133 59 134 62 135
REMARK SMILES IDX 56 136 57 137 60 138 58 139
REMARK H PARENT 19 2 19 3 18 5 18 6 17 8 17 9 16 13 4 21 13 22 90 23 6 28
REMARK H PARENT 12 30 7 32 11 34 9 36 92 41 98 43 93 45 97 47 95 49 20 51
REMARK H PARENT 20 52 21 54 21 55 22 57 22 58 23 61 27 67 88 69 28 71 87 72
REMARK H PARENT 86 82 80 84 82 86 85 88 79 89 47 98 50 100 83 103 48 104
REMARK H PARENT 84 106
REMARK Flexibility Score: inf
ROOT
ATOM      1  C   UNL A   1      32.270  29.897  27.166  1.00  0.00    -0.052 C 
ATOM      2  H   UNL A   1      33.276  29.769  26.825  1.00  0.00     0.027 H 
ATOM      3  H   UNL A   1      32.199  30.400  28.107  1.00  0.00     0.027 H 
ENDROOT
BRANCH   1   4
ATOM      4  C   UNL A   1      31.661  28.511  27.378  1.00  0.00    -0.036 C 
ATOM      5  H   UNL A   1      31.277  28.465  28.375  1.00  0.00     0.028 H 
ATOM      6  H   UNL A   1      30.903  28.394  26.632  1.00  0.00     0.028 H 
BRANCH   4   7
ATOM      7  C   UNL A   1      32.637  27.358  27.191  1.00  0.00     0.017 C 
ATOM      8  H   UNL A   1      33.120  27.169  28.125  1.00  0.00     0.049 H 
ATOM      9  H   UNL A   1      32.069  26.518  26.849  1.00  0.00     0.049 H 
BRANCH   7  10
ATOM     10  N   UNL A   1      33.653  27.617  26.194  1.00  0.00    -0.355 N 
ATOM     11  C   UNL A   1      33.574  27.649  24.830  1.00  0.00     0.231 C 
ATOM     12  O   UNL A   1      34.575  28.045  24.232  1.00  0.00    -0.274 OA
ATOM     13  H   UNL A   1      34.549  27.801  26.558  1.00  0.00     0.163 HD
BRANCH  11  14
ATOM     14  C   UNL A   1      32.328  27.121  24.107  1.00  0.00     0.111 C 
ATOM     15  O   UNL A   1      33.330  26.056  20.846  1.00  0.00    -0.247 OA
ATOM     16  C   UNL A   1      32.842  26.597  21.823  1.00  0.00     0.335 C 
ATOM     17  O   UNL A   1      32.320  27.847  21.848  1.00  0.00    -0.453 OA
ATOM     18  C   UNL A   1      32.691  26.017  23.169  1.00  0.00     0.054 C 
ATOM     19  C   UNL A   1      31.733  28.130  23.130  1.00  0.00     0.143 C 
ATOM     20  C   UNL A   1      32.862  24.701  23.358  1.00  0.00    -0.043 C 
ATOM     21  H   UNL A   1      31.965  29.117  23.473  1.00  0.00     0.081 H 
ATOM     22  H   UNL A   1      31.664  26.853  24.903  1.00  0.00     0.050 H 
ATOM     23  H   UNL A   1      33.107  24.124  22.539  1.00  0.00     0.063 H 
BRANCH  19  24
ATOM     24  C   UNL A   1      30.202  28.142  23.060  1.00  0.00    -0.002 A 
ATOM     25  C   UNL A   1      29.428  27.131  23.677  1.00  0.00    -0.051 A 
ATOM     26  C   UNL A   1      29.515  29.212  22.464  1.00  0.00    -0.009 A 
ATOM     27  C   UNL A   1      28.031  27.193  23.723  1.00  0.00    -0.016 A 
ATOM     28  H   UNL A   1      29.908  26.326  24.108  1.00  0.00     0.063 H 
ATOM     29  C   UNL A   1      28.125  29.254  22.491  1.00  0.00     0.157 A 
ATOM     30  H   UNL A   1      30.044  29.969  22.003  1.00  0.00     0.067 H 
ATOM     31  C   UNL A   1      27.386  28.262  23.126  1.00  0.00     0.157 A 
ATOM     32  H   UNL A   1      27.489  26.452  24.195  1.00  0.00     0.066 H 
BRANCH  29  33
ATOM     33  O   UNL A   1      27.480  30.299  21.894  1.00  0.00    -0.504 OA
ATOM     34  H   UNL A   1      27.460  30.365  20.960  1.00  0.00     0.293 HD
ENDBRANCH  29  33
BRANCH  31  35
ATOM     35  O   UNL A   1      26.026  28.384  23.141  1.00  0.00    -0.504 OA
ATOM     36  H   UNL A   1      25.618  29.127  22.741  1.00  0.00     0.293 HD
ENDBRANCH  31  35
ENDBRANCH  19  24
BRANCH  20  37
ATOM     37  C   UNL A   1      32.725  24.029  24.649  1.00  0.00    -0.021 A 
ATOM     38  C   UNL A   1      33.790  23.998  25.564  1.00  0.00    -0.051 A 
ATOM     39  C   UNL A   1      31.501  23.443  24.988  1.00  0.00    -0.009 A 
ATOM     40  C   UNL A   1      33.646  23.362  26.801  1.00  0.00    -0.016 A 
ATOM     41  H   UNL A   1      34.685  24.449  25.322  1.00  0.00     0.063 H 
ATOM     42  C   UNL A   1      31.364  22.821  26.221  1.00  0.00     0.157 A 
ATOM     43  H   UNL A   1      30.708  23.472  24.329  1.00  0.00     0.067 H 
ATOM     44  C   UNL A   1      32.428  22.774  27.120  1.00  0.00     0.157 A 
ATOM     45  H   UNL A   1      34.433  23.329  27.466  1.00  0.00     0.066 H 
BRANCH  42  46
ATOM     46  O   UNL A   1      30.168  22.255  26.554  1.00  0.00    -0.504 OA
ATOM     47  H   UNL A   1      29.928  21.421  26.199  1.00  0.00     0.293 HD
ENDBRANCH  42  46
BRANCH  44  48
ATOM     48  O   UNL A   1      32.223  22.139  28.313  1.00  0.00    -0.504 OA
ATOM     49  H   UNL A   1      32.094  22.641  29.094  1.00  0.00     0.293 HD
ENDBRANCH  44  48
ENDBRANCH  20  37
ENDBRANCH  11  14
ENDBRANCH   7  10
ENDBRANCH   4   7
ENDBRANCH   1   4
BRANCH   1  50
ATOM     50  C   UNL A   1      31.536  30.784  26.153  1.00  0.00    -0.052 C 
ATOM     51  H   UNL A   1      30.560  30.374  26.002  1.00  0.00     0.027 H 
ATOM     52  H   UNL A   1      32.142  30.787  25.272  1.00  0.00     0.027 H 
BRANCH  50  53
ATOM     53  C   UNL A   1      31.375  32.250  26.560  1.00  0.00    -0.036 C 
ATOM     54  H   UNL A   1      30.515  32.327  27.192  1.00  0.00     0.028 H 
ATOM     55  H   UNL A   1      31.281  32.808  25.653  1.00  0.00     0.028 H 
BRANCH  53  56
ATOM     56  C   UNL A   1      32.566  32.839  27.306  1.00  0.00     0.018 C 
ATOM     57  H   UNL A   1      33.437  32.747  26.690  1.00  0.00     0.049 H 
ATOM     58  H   UNL A   1      32.679  32.300  28.223  1.00  0.00     0.049 H 
BRANCH  56  59
ATOM     59  N   UNL A   1      32.371  34.241  27.634  1.00  0.00    -0.352 N 
ATOM     60  C   UNL A   1      32.988  35.001  28.594  1.00  0.00     0.251 C 
ATOM     61  H   UNL A   1      31.699  34.713  27.090  1.00  0.00     0.163 HD
ATOM     62  O   UNL A   1      32.568  36.120  28.867  1.00  0.00    -0.269 OA
BRANCH  60  63
ATOM     63  C   UNL A   1      34.157  34.457  29.315  1.00  0.00     0.039 A 
ATOM     64  C   UNL A   1      33.954  33.754  30.504  1.00  0.00    -0.049 A 
ATOM     65  C   UNL A   1      35.450  34.643  28.818  1.00  0.00    -0.049 A 
ATOM     66  C   UNL A   1      35.044  33.188  31.167  1.00  0.00    -0.053 A 
ATOM     67  H   UNL A   1      33.002  33.653  30.891  1.00  0.00     0.063 H 
ATOM     68  C   UNL A   1      36.524  34.010  29.434  1.00  0.00    -0.053 A 
ATOM     69  H   UNL A   1      35.607  35.246  27.995  1.00  0.00     0.063 H 
ATOM     70  C   UNL A   1      36.335  33.285  30.620  1.00  0.00    -0.014 A 
ATOM     71  H   UNL A   1      34.902  32.696  32.062  1.00  0.00     0.063 H 
ATOM     72  H   UNL A   1      37.467  34.076  29.018  1.00  0.00     0.063 H 
BRANCH  70  73
ATOM     73  C   UNL A   1      37.504  32.651  31.280  1.00  0.00     0.031 A 
ATOM     74  C   UNL A   1      38.221  31.516  30.605  1.00  0.00     0.074 A 
ATOM     75  C   UNL A   1      37.876  33.050  32.512  1.00  0.00     0.049 A 
ATOM     76  N   UNL A   1      39.200  30.770  31.051  1.00  0.00    -0.248 NA
ATOM     77  C   UNL A   1      37.757  31.149  29.257  1.00  0.00    -0.034 C 
ATOM     78  C   UNL A   1      37.235  34.116  33.285  1.00  0.00    -0.036 A 
ATOM     79  N   UNL A   1      38.876  32.598  33.335  1.00  0.00    -0.354 N 
ATOM     80  C   UNL A   1      39.456  29.843  30.049  1.00  0.00     0.074 A 
ATOM     81  C   UNL A   1      38.492  30.079  28.998  1.00  0.00    -0.034 C 
ATOM     82  H   UNL A   1      37.044  31.609  28.668  1.00  0.00     0.065 H 
ATOM     83  C   UNL A   1      37.872  34.249  34.459  1.00  0.00    -0.036 A 
ATOM     84  H   UNL A   1      36.424  34.675  32.977  1.00  0.00     0.065 H 
ATOM     85  C   UNL A   1      38.934  33.251  34.542  1.00  0.00     0.049 A 
ATOM     86  H   UNL A   1      39.495  31.874  33.084  1.00  0.00     0.167 HD
ATOM     87  C   UNL A   1      40.426  28.898  30.000  1.00  0.00     0.037 A 
ATOM     88  H   UNL A   1      38.389  29.490  28.158  1.00  0.00     0.065 H 
ATOM     89  H   UNL A   1      37.646  34.945  35.187  1.00  0.00     0.065 H 
ATOM     90  C   UNL A   1      39.744  33.056  35.600  1.00  0.00     0.037 A 
ATOM     91  C   UNL A   1      41.396  28.683  31.040  1.00  0.00     0.049 A 
ATOM     92  C   UNL A   1      40.796  31.981  35.531  1.00  0.00     0.074 A 
ATOM     93  C   UNL A   1      42.449  27.785  31.066  1.00  0.00    -0.036 A 
ATOM     94  N   UNL A   1      41.431  29.373  32.244  1.00  0.00    -0.354 N 
ATOM     95  N   UNL A   1      41.069  31.151  34.554  1.00  0.00    -0.248 NA
ATOM     96  C   UNL A   1      41.659  31.822  36.709  1.00  0.00    -0.034 C 
ATOM     97  C   UNL A   1      43.084  27.891  32.307  1.00  0.00    -0.036 A 
ATOM     98  H   UNL A   1      42.719  27.148  30.300  1.00  0.00     0.065 H 
ATOM     99  C   UNL A   1      42.470  28.902  33.029  1.00  0.00     0.049 A 
ATOM    100  H   UNL A   1      40.808  30.091  32.502  1.00  0.00     0.167 HD
ATOM    101  C   UNL A   1      42.154  30.399  34.982  1.00  0.00     0.074 A 
ATOM    102  C   UNL A   1      42.498  30.879  36.305  1.00  0.00    -0.034 C 
ATOM    103  H   UNL A   1      41.623  32.316  37.614  1.00  0.00     0.065 H 
ATOM    104  H   UNL A   1      43.876  27.314  32.630  1.00  0.00     0.065 H 
ATOM    105  C   UNL A   1      42.810  29.402  34.338  1.00  0.00     0.037 A 
ATOM    106  H   UNL A   1      43.294  30.530  36.861  1.00  0.00     0.065 H 
BRANCH  87 107
ATOM    107  C   UNL A   1      40.482  28.024  28.780  1.00  0.00     0.064 A 
ATOM    108  C   UNL A   1      41.233  28.380  27.649  1.00  0.00     0.173 A 
ATOM    109  C   UNL A   1      39.804  26.794  28.753  1.00  0.00     0.173 A 
ATOM    110  F   UNL A   1      41.891  29.549  27.615  1.00  0.00    -0.203 F 
ATOM    111  C   UNL A   1      41.274  27.557  26.526  1.00  0.00     0.198 A 
ATOM    112  C   UNL A   1      39.878  25.957  27.643  1.00  0.00     0.198 A 
ATOM    113  F   UNL A   1      39.075  26.401  29.808  1.00  0.00    -0.203 F 
ATOM    114  F   UNL A   1      41.951  27.947  25.437  1.00  0.00    -0.200 F 
ATOM    115  C   UNL A   1      40.604  26.344  26.527  1.00  0.00     0.200 A 
ATOM    116  F   UNL A   1      39.241  24.778  27.652  1.00  0.00    -0.200 F 
ATOM    117  F   UNL A   1      40.651  25.549  25.449  1.00  0.00    -0.200 F 
ENDBRANCH  87 107
BRANCH  90 118
ATOM    118  C   UNL A   1      39.606  33.908  36.813  1.00  0.00     0.064 A 
ATOM    119  C   UNL A   1      38.820  33.495  37.898  1.00  0.00     0.173 A 
ATOM    120  C   UNL A   1      40.242  35.155  36.907  1.00  0.00     0.173 A 
ATOM    121  F   UNL A   1      38.175  32.321  37.847  1.00  0.00    -0.203 F 
ATOM    122  C   UNL A   1      38.653  34.307  39.017  1.00  0.00     0.198 A 
ATOM    123  C   UNL A   1      40.102  35.951  38.041  1.00  0.00     0.198 A 
ATOM    124  F   UNL A   1      41.011  35.595  35.900  1.00  0.00    -0.203 F 
ATOM    125  F   UNL A   1      37.851  33.912  40.016  1.00  0.00    -0.200 F 
ATOM    126  C   UNL A   1      39.298  35.532  39.091  1.00  0.00     0.200 A 
ATOM    127  F   UNL A   1      40.740  37.127  38.114  1.00  0.00    -0.200 F 
ATOM    128  F   UNL A   1      39.139  36.313  40.169  1.00  0.00    -0.200 F 
ENDBRANCH  90 118
BRANCH 105 129
ATOM    129  C   UNL A   1      43.999  28.795  35.027  1.00  0.00     0.064 A 
ATOM    130  C   UNL A   1      45.290  29.325  34.885  1.00  0.00     0.173 A 
ATOM    131  C   UNL A   1      43.832  27.694  35.882  1.00  0.00     0.173 A 
ATOM    132  F   UNL A   1      45.506  30.369  34.070  1.00  0.00    -0.203 F 
ATOM    133  C   UNL A   1      46.373  28.758  35.552  1.00  0.00     0.198 A 
ATOM    134  C   UNL A   1      44.912  27.153  36.574  1.00  0.00     0.198 A 
ATOM    135  F   UNL A   1      42.618  27.154  36.060  1.00  0.00    -0.203 F 
ATOM    136  F   UNL A   1      47.605  29.250  35.361  1.00  0.00    -0.200 F 
ATOM    137  C   UNL A   1      46.182  27.680  36.402  1.00  0.00     0.200 A 
ATOM    138  F   UNL A   1      44.721  26.121  37.408  1.00  0.00    -0.200 F 
ATOM    139  F   UNL A   1      47.224  27.143  37.052  1.00  0.00    -0.200 F 
ENDBRANCH 105 129
ENDBRANCH  70  73
ENDBRANCH  60  63
ENDBRANCH  56  59
ENDBRANCH  53  56
ENDBRANCH  50  53
ENDBRANCH   1  50
TORSDOF 19
ENDMDL
MODEL 3
REMARK VINA RESULT:     -13.5      0.568      7.102
REMARK SMILES O=C1O[C@@H](c2ccc(O)c(O)c2)[C@H](C(=O)NCCCCCCNC(=O)c2ccc(-c3c4nc(c(-c5c(F)c(F)c(F)c(F)c5F)c5ccc([nH]5)c(-c5c(F)c(F)c(F)c(F)c5F)c5nc(c(-c6c(F)c(F)c(F)c(F)c6F)c6ccc3[nH]6)C=C5)C=C4)cc2)/C1=C\c1ccc(O)c(O)c1
REMARK SMILES IDX 19 1 18 4 17 7 16 10 14 11 15 12 13 14 1 15 2 16 3 17 89 18
REMARK SMILES IDX 4 19 90 20 5 24 6 25 12 26 7 27 10 29 8 31 11 33 9 35 91 37
REMARK SMILES IDX 92 38 98 39 93 40 96 42 94 44 97 46 95 48 20 50 21 53 22 56
REMARK SMILES IDX 23 59 24 60 25 62 26 63 27 64 88 65 28 66 87 68 29 70 30 73
REMARK SMILES IDX 31 74 81 75 32 76 86 77 80 78 82 79 33 80 85 81 79 83 78 85
REMARK SMILES IDX 34 87 66 90 46 91 65 92 47 93 50 94 64 95 83 96 48 97 49 99
REMARK SMILES IDX 63 101 84 102 51 105 35 107 36 108 44 109 37 110 38 111
REMARK SMILES IDX 42 112 45 113 39 114 40 115 43 116 41 117 67 118 68 119
REMARK SMILES IDX 76 120 69 121 70 122 74 123 77 124 71 125 72 126 75 127
REMARK SMILES IDX 73 128 52 129 53 130 61 131 54 132 55 133 59 134 62 135
REMARK SMILES IDX 56 136 57 137 60 138 58 139
REMARK H PARENT 19 2 19 3 18 5 18 6 17 8 17 9 16 13 4 21 13 22 90 23 6 28
REMARK H PARENT 12 30 7 32 11 34 9 36 92 41 98 43 93 45 97 47 95 49 20 51
REMARK H PARENT 20 52 21 54 21 55 22 57 22 58 23 61 27 67 88 69 28 71 87 72
REMARK H PARENT 86 82 80 84 82 86 85 88 79 89 47 98 50 100 83 103 48 104
REMARK H PARENT 84 106
REMARK Flexibility Score: inf
ROOT
ATOM      1  C   UNL A   1      32.298  30.221  26.973  1.00  0.00    -0.052 C 
ATOM      2  H   UNL A   1      33.202  30.066  26.421  1.00  0.00     0.027 H 
ATOM      3  H   UNL A   1      32.444  30.745  27.894  1.00  0.00     0.027 H 
ENDROOT
BRANCH   1   4
ATOM      4  C   UNL A   1      31.730  28.852  27.348  1.00  0.00    -0.036 C 
ATOM      5  H   UNL A   1      31.269  28.935  28.309  1.00  0.00     0.028 H 
ATOM      6  H   UNL A   1      31.041  28.586  26.575  1.00  0.00     0.028 H 
BRANCH   4   7
ATOM      7  C   UNL A   1      32.764  27.736  27.410  1.00  0.00     0.017 C 
ATOM      8  H   UNL A   1      33.229  27.760  28.373  1.00  0.00     0.049 H 
ATOM      9  H   UNL A   1      32.247  26.817  27.231  1.00  0.00     0.049 H 
BRANCH   7  10
ATOM     10  N   UNL A   1      33.795  27.847  26.401  1.00  0.00    -0.355 N 
ATOM     11  C   UNL A   1      33.717  27.782  25.038  1.00  0.00     0.231 C 
ATOM     12  O   UNL A   1      34.743  28.059  24.416  1.00  0.00    -0.274 OA
ATOM     13  H   UNL A   1      34.702  27.992  26.754  1.00  0.00     0.163 HD
BRANCH  11  14
ATOM     14  C   UNL A   1      32.435  27.291  24.352  1.00  0.00     0.111 C 
ATOM     15  O   UNL A   1      33.295  26.276  21.035  1.00  0.00    -0.247 OA
ATOM     16  C   UNL A   1      32.854  26.805  22.040  1.00  0.00     0.335 C 
ATOM     17  O   UNL A   1      32.358  28.064  22.110  1.00  0.00    -0.453 OA
ATOM     18  C   UNL A   1      32.742  26.201  23.380  1.00  0.00     0.054 C 
ATOM     19  C   UNL A   1      31.824  28.332  23.418  1.00  0.00     0.143 C 
ATOM     20  C   UNL A   1      32.894  24.878  23.536  1.00  0.00    -0.043 C 
ATOM     21  H   UNL A   1      32.088  29.307  23.771  1.00  0.00     0.081 H 
ATOM     22  H   UNL A   1      31.796  27.020  25.166  1.00  0.00     0.050 H 
ATOM     23  H   UNL A   1      33.098  24.314  22.697  1.00  0.00     0.063 H 
BRANCH  19  24
ATOM     24  C   UNL A   1      30.292  28.373  23.406  1.00  0.00    -0.002 A 
ATOM     25  C   UNL A   1      29.589  29.531  22.998  1.00  0.00    -0.051 A 
ATOM     26  C   UNL A   1      29.537  27.228  23.708  1.00  0.00    -0.009 A 
ATOM     27  C   UNL A   1      28.196  29.544  22.870  1.00  0.00    -0.016 A 
ATOM     28  H   UNL A   1      30.119  30.391  22.787  1.00  0.00     0.063 H 
ATOM     29  C   UNL A   1      28.151  27.255  23.602  1.00  0.00     0.157 A 
ATOM     30  H   UNL A   1      30.014  26.364  24.009  1.00  0.00     0.067 H 
ATOM     31  C   UNL A   1      27.482  28.398  23.174  1.00  0.00     0.157 A 
ATOM     32  H   UNL A   1      27.706  30.396  22.553  1.00  0.00     0.066 H 
BRANCH  29  33
ATOM     33  O   UNL A   1      27.438  26.133  23.912  1.00  0.00    -0.504 OA
ATOM     34  H   UNL A   1      27.401  25.831  24.798  1.00  0.00     0.293 HD
ENDBRANCH  29  33
BRANCH  31  35
ATOM     35  O   UNL A   1      26.122  28.343  23.063  1.00  0.00    -0.504 OA
ATOM     36  H   UNL A   1      25.621  29.134  23.048  1.00  0.00     0.293 HD
ENDBRANCH  31  35
ENDBRANCH  19  24
BRANCH  20  37
ATOM     37  C   UNL A   1      32.792  24.183  24.817  1.00  0.00    -0.021 A 
ATOM     38  C   UNL A   1      33.928  23.634  25.435  1.00  0.00    -0.051 A 
ATOM     39  C   UNL A   1      31.549  24.098  25.452  1.00  0.00    -0.009 A 
ATOM     40  C   UNL A   1      33.822  22.979  26.665  1.00  0.00    -0.016 A 
ATOM     41  H   UNL A   1      34.848  23.715  24.976  1.00  0.00     0.063 H 
ATOM     42  C   UNL A   1      31.454  23.454  26.678  1.00  0.00     0.157 A 
ATOM     43  H   UNL A   1      30.711  24.510  25.014  1.00  0.00     0.067 H 
ATOM     44  C   UNL A   1      32.578  22.893  27.279  1.00  0.00     0.157 A 
ATOM     45  H   UNL A   1      34.655  22.566  27.111  1.00  0.00     0.066 H 
BRANCH  42  46
ATOM     46  O   UNL A   1      30.241  23.378  27.299  1.00  0.00    -0.504 OA
ATOM     47  H   UNL A   1      29.927  24.100  27.807  1.00  0.00     0.293 HD
ENDBRANCH  42  46
BRANCH  44  48
ATOM     48  O   UNL A   1      32.409  22.269  28.483  1.00  0.00    -0.504 OA
ATOM     49  H   UNL A   1      31.760  22.578  29.085  1.00  0.00     0.293 HD
ENDBRANCH  44  48
ENDBRANCH  20  37
ENDBRANCH  11  14
ENDBRANCH   7  10
ENDBRANCH   4   7
ENDBRANCH   1   4
BRANCH   1  50
ATOM     50  C   UNL A   1      31.371  31.101  26.125  1.00  0.00    -0.052 C 
ATOM     51  H   UNL A   1      30.379  30.710  26.207  1.00  0.00     0.027 H 
ATOM     52  H   UNL A   1      31.765  31.070  25.131  1.00  0.00     0.027 H 
BRANCH  50  53
ATOM     53  C   UNL A   1      31.330  32.579  26.518  1.00  0.00    -0.036 C 
ATOM     54  H   UNL A   1      30.484  32.731  27.155  1.00  0.00     0.028 H 
ATOM     55  H   UNL A   1      31.275  33.134  25.605  1.00  0.00     0.028 H 
BRANCH  53  56
ATOM     56  C   UNL A   1      32.570  33.079  27.249  1.00  0.00     0.018 C 
ATOM     57  H   UNL A   1      33.403  33.044  26.577  1.00  0.00     0.049 H 
ATOM     58  H   UNL A   1      32.729  32.447  28.098  1.00  0.00     0.049 H 
BRANCH  56  59
ATOM     59  N   UNL A   1      32.413  34.441  27.730  1.00  0.00    -0.352 N 
ATOM     60  C   UNL A   1      33.042  35.069  28.774  1.00  0.00     0.251 C 
ATOM     61  H   UNL A   1      31.763  34.991  27.236  1.00  0.00     0.163 HD
ATOM     62  O   UNL A   1      32.652  36.164  29.167  1.00  0.00    -0.269 OA
BRANCH  60  63
ATOM     63  C   UNL A   1      34.185  34.412  29.440  1.00  0.00     0.039 A 
ATOM     64  C   UNL A   1      33.949  33.604  30.554  1.00  0.00    -0.049 A 
ATOM     65  C   UNL A   1      35.487  34.596  28.966  1.00  0.00    -0.049 A 
ATOM     66  C   UNL A   1      35.013  32.934  31.160  1.00  0.00    -0.053 A 
ATOM     67  H   UNL A   1      32.991  33.502  30.927  1.00  0.00     0.063 H 
ATOM     68  C   UNL A   1      36.533  33.865  29.518  1.00  0.00    -0.053 A 
ATOM     69  H   UNL A   1      35.672  35.271  28.207  1.00  0.00     0.063 H 
ATOM     70  C   UNL A   1      36.309  33.034  30.627  1.00  0.00    -0.014 A 
ATOM     71  H   UNL A   1      34.847  32.361  32.001  1.00  0.00     0.063 H 
ATOM     72  H   UNL A   1      37.479  33.934  29.113  1.00  0.00     0.063 H 
BRANCH  70  73
ATOM     73  C   UNL A   1      37.449  32.293  31.223  1.00  0.00     0.031 A 
ATOM     74  C   UNL A   1      37.963  32.677  32.582  1.00  0.00     0.074 A 
ATOM     75  C   UNL A   1      38.063  31.325  30.516  1.00  0.00     0.049 A 
ATOM     76  N   UNL A   1      39.001  32.220  33.236  1.00  0.00    -0.248 NA
ATOM     77  C   UNL A   1      37.230  33.738  33.291  1.00  0.00    -0.034 C 
ATOM     78  C   UNL A   1      37.680  30.888  29.172  1.00  0.00    -0.036 A 
ATOM     79  N   UNL A   1      39.146  30.541  30.824  1.00  0.00    -0.354 N 
ATOM     80  C   UNL A   1      39.051  32.946  34.420  1.00  0.00     0.074 A 
ATOM     81  C   UNL A   1      37.978  33.914  34.369  1.00  0.00    -0.034 C 
ATOM     82  H   UNL A   1      36.358  34.219  33.017  1.00  0.00     0.065 H 
ATOM     83  C   UNL A   1      38.502  29.900  28.781  1.00  0.00    -0.036 A 
ATOM     84  H   UNL A   1      36.904  31.276  28.614  1.00  0.00     0.065 H 
ATOM     85  C   UNL A   1      39.496  29.666  29.824  1.00  0.00     0.049 A 
ATOM     86  H   UNL A   1      39.628  30.600  31.681  1.00  0.00     0.167 HD
ATOM     87  C   UNL A   1      39.899  32.798  35.466  1.00  0.00     0.037 A 
ATOM     88  H   UNL A   1      37.817  34.645  35.077  1.00  0.00     0.065 H 
ATOM     89  H   UNL A   1      38.441  29.389  27.886  1.00  0.00     0.065 H 
ATOM     90  C   UNL A   1      40.511  28.784  29.754  1.00  0.00     0.037 A 
ATOM     91  C   UNL A   1      40.951  31.818  35.520  1.00  0.00     0.049 A 
ATOM     92  C   UNL A   1      41.456  28.659  30.920  1.00  0.00     0.074 A 
ATOM     93  C   UNL A   1      41.833  31.555  36.554  1.00  0.00    -0.036 A 
ATOM     94  N   UNL A   1      41.266  30.940  34.493  1.00  0.00    -0.354 N 
ATOM     95  N   UNL A   1      41.457  29.307  32.059  1.00  0.00    -0.248 NA
ATOM     96  C   UNL A   1      42.537  27.672  30.793  1.00  0.00    -0.034 C 
ATOM     97  C   UNL A   1      42.718  30.559  36.131  1.00  0.00    -0.036 A 
ATOM     98  H   UNL A   1      41.836  32.015  37.477  1.00  0.00     0.065 H 
ATOM     99  C   UNL A   1      42.346  30.153  34.859  1.00  0.00     0.049 A 
ATOM    100  H   UNL A   1      40.793  30.885  33.631  1.00  0.00     0.167 HD
ATOM    101  C   UNL A   1      42.510  28.784  32.797  1.00  0.00     0.074 A 
ATOM    102  C   UNL A   1      43.120  27.755  31.980  1.00  0.00    -0.034 C 
ATOM    103  H   UNL A   1      42.779  27.071  29.989  1.00  0.00     0.065 H 
ATOM    104  H   UNL A   1      43.514  30.190  36.673  1.00  0.00     0.065 H 
ATOM    105  C   UNL A   1      42.933  29.121  34.040  1.00  0.00     0.037 A 
ATOM    106  H   UNL A   1      43.908  27.163  32.284  1.00  0.00     0.065 H 
BRANCH  87 107
ATOM    107  C   UNL A   1      39.723  33.722  36.638  1.00  0.00     0.064 A 
ATOM    108  C   UNL A   1      40.346  34.979  36.687  1.00  0.00     0.173 A 
ATOM    109  C   UNL A   1      38.894  33.361  37.711  1.00  0.00     0.173 A 
ATOM    110  F   UNL A   1      41.159  35.370  35.694  1.00  0.00    -0.203 F 
ATOM    111  C   UNL A   1      40.173  35.824  37.781  1.00  0.00     0.198 A 
ATOM    112  C   UNL A   1      38.693  34.224  38.786  1.00  0.00     0.198 A 
ATOM    113  F   UNL A   1      38.270  32.174  37.715  1.00  0.00    -0.203 F 
ATOM    114  F   UNL A   1      40.824  36.994  37.831  1.00  0.00    -0.200 F 
ATOM    115  C   UNL A   1      39.340  35.449  38.824  1.00  0.00     0.200 A 
ATOM    116  F   UNL A   1      37.878  33.866  39.787  1.00  0.00    -0.200 F 
ATOM    117  F   UNL A   1      39.168  36.266  39.873  1.00  0.00    -0.200 F 
ENDBRANCH  87 107
BRANCH  90 118
ATOM    118  C   UNL A   1      40.680  27.936  28.543  1.00  0.00     0.064 A 
ATOM    119  C   UNL A   1      41.450  28.376  27.457  1.00  0.00     0.173 A 
ATOM    120  C   UNL A   1      40.067  26.678  28.439  1.00  0.00     0.173 A 
ATOM    121  F   UNL A   1      42.040  29.578  27.500  1.00  0.00    -0.203 F 
ATOM    122  C   UNL A   1      41.577  27.604  26.304  1.00  0.00     0.198 A 
ATOM    123  C   UNL A   1      40.222  25.893  27.300  1.00  0.00     0.198 A 
ATOM    124  F   UNL A   1      39.324  26.207  29.453  1.00  0.00    -0.203 F 
ATOM    125  F   UNL A   1      42.273  28.073  25.260  1.00  0.00    -0.200 F 
ATOM    126  C   UNL A   1      40.968  26.361  26.228  1.00  0.00     0.200 A 
ATOM    127  F   UNL A   1      39.644  24.685  27.238  1.00  0.00    -0.200 F 
ATOM    128  F   UNL A   1      41.091  25.617  25.120  1.00  0.00    -0.200 F 
ENDBRANCH  90 118
BRANCH 105 129
ATOM    129  C   UNL A   1      44.077  28.340  34.620  1.00  0.00     0.064 A 
ATOM    130  C   UNL A   1      43.878  27.145  35.327  1.00  0.00     0.173 A 
ATOM    131  C   UNL A   1      45.398  28.772  34.421  1.00  0.00     0.173 A 
ATOM    132  F   UNL A   1      42.634  26.695  35.556  1.00  0.00    -0.203 F 
ATOM    133  C   UNL A   1      44.956  26.427  35.837  1.00  0.00     0.198 A 
ATOM    134  C   UNL A   1      46.475  28.032  34.901  1.00  0.00     0.198 A 
ATOM    135  F   UNL A   1      45.645  29.903  33.744  1.00  0.00    -0.203 F 
ATOM    136  F   UNL A   1      44.739  25.315  36.553  1.00  0.00    -0.200 F 
ATOM    137  C   UNL A   1      46.253  26.865  35.615  1.00  0.00     0.200 A 
ATOM    138  F   UNL A   1      47.727  28.449  34.670  1.00  0.00    -0.200 F 
ATOM    139  F   UNL A   1      47.290  26.166  36.096  1.00  0.00    -0.200 F 
ENDBRANCH 105 129
ENDBRANCH  70  73
ENDBRANCH  60  63
ENDBRANCH  56  59
ENDBRANCH  53  56
ENDBRANCH  50  53
ENDBRANCH   1  50
TORSDOF 19
ENDMDL
MODEL 4
REMARK VINA RESULT:     -13.4      5.536     11.078
REMARK SMILES O=C1O[C@@H](c2ccc(O)c(O)c2)[C@H](C(=O)NCCCCCCNC(=O)c2ccc(-c3c4nc(c(-c5c(F)c(F)c(F)c(F)c5F)c5ccc([nH]5)c(-c5c(F)c(F)c(F)c(F)c5F)c5nc(c(-c6c(F)c(F)c(F)c(F)c6F)c6ccc3[nH]6)C=C5)C=C4)cc2)/C1=C\c1ccc(O)c(O)c1
REMARK SMILES IDX 19 1 18 4 17 7 16 10 14 11 15 12 13 14 1 15 2 16 3 17 89 18
REMARK SMILES IDX 4 19 90 20 5 24 6 25 12 26 7 27 10 29 8 31 11 33 9 35 91 37
REMARK SMILES IDX 92 38 98 39 93 40 96 42 94 44 97 46 95 48 20 50 21 53 22 56
REMARK SMILES IDX 23 59 24 60 25 62 26 63 27 64 88 65 28 66 87 68 29 70 30 73
REMARK SMILES IDX 31 74 81 75 32 76 86 77 80 78 82 79 33 80 85 81 79 83 78 85
REMARK SMILES IDX 34 87 66 90 46 91 65 92 47 93 50 94 64 95 83 96 48 97 49 99
REMARK SMILES IDX 63 101 84 102 51 105 35 107 36 108 44 109 37 110 38 111
REMARK SMILES IDX 42 112 45 113 39 114 40 115 43 116 41 117 67 118 68 119
REMARK SMILES IDX 76 120 69 121 70 122 74 123 77 124 71 125 72 126 75 127
REMARK SMILES IDX 73 128 52 129 53 130 61 131 54 132 55 133 59 134 62 135
REMARK SMILES IDX 56 136 57 137 60 138 58 139
REMARK H PARENT 19 2 19 3 18 5 18 6 17 8 17 9 16 13 4 21 13 22 90 23 6 28
REMARK H PARENT 12 30 7 32 11 34 9 36 92 41 98 43 93 45 97 47 95 49 20 51
REMARK H PARENT 20 52 21 54 21 55 22 57 22 58 23 61 27 67 88 69 28 71 87 72
REMARK H PARENT 86 82 80 84 82 86 85 88 79 89 47 98 50 100 83 103 48 104
REMARK H PARENT 84 106
REMARK Flexibility Score: inf
ROOT
ATOM      1  C   UNL A   1      37.425  21.987  24.585  1.00  0.00    -0.052 C 
ATOM      2  H   UNL A   1      37.366  22.535  25.502  1.00  0.00     0.027 H 
ATOM      3  H   UNL A   1      38.420  21.901  24.202  1.00  0.00     0.027 H 
ENDROOT
BRANCH   1   4
ATOM      4  C   UNL A   1      36.627  22.746  23.525  1.00  0.00    -0.036 C 
ATOM      5  H   UNL A   1      37.283  22.973  22.712  1.00  0.00     0.028 H 
ATOM      6  H   UNL A   1      35.815  22.111  23.242  1.00  0.00     0.028 H 
BRANCH   4   7
ATOM      7  C   UNL A   1      36.008  24.048  24.015  1.00  0.00     0.017 C 
ATOM      8  H   UNL A   1      36.688  24.846  23.804  1.00  0.00     0.049 H 
ATOM      9  H   UNL A   1      35.075  24.164  23.505  1.00  0.00     0.049 H 
BRANCH   7  10
ATOM     10  N   UNL A   1      35.721  24.055  25.433  1.00  0.00    -0.355 N 
ATOM     11  C   UNL A   1      34.727  23.441  26.142  1.00  0.00     0.231 C 
ATOM     12  O   UNL A   1      34.812  23.501  27.369  1.00  0.00    -0.274 OA
ATOM     13  H   UNL A   1      36.344  24.589  25.976  1.00  0.00     0.163 HD
BRANCH  11  14
ATOM     14  C   UNL A   1      33.531  22.805  25.422  1.00  0.00     0.111 C 
ATOM     15  O   UNL A   1      30.688  23.091  27.568  1.00  0.00    -0.247 OA
ATOM     16  C   UNL A   1      31.620  22.731  26.870  1.00  0.00     0.335 C 
ATOM     17  O   UNL A   1      32.238  21.528  26.947  1.00  0.00    -0.453 OA
ATOM     18  C   UNL A   1      32.263  23.501  25.791  1.00  0.00     0.054 C 
ATOM     19  C   UNL A   1      33.224  21.392  25.909  1.00  0.00     0.143 C 
ATOM     20  C   UNL A   1      31.675  24.607  25.311  1.00  0.00    -0.043 C 
ATOM     21  H   UNL A   1      34.130  20.949  26.266  1.00  0.00     0.081 H 
ATOM     22  H   UNL A   1      33.801  22.852  24.387  1.00  0.00     0.050 H 
ATOM     23  H   UNL A   1      30.777  24.894  25.728  1.00  0.00     0.063 H 
BRANCH  19  24
ATOM     24  C   UNL A   1      32.768  20.415  24.820  1.00  0.00    -0.002 A 
ATOM     25  C   UNL A   1      32.461  20.859  23.513  1.00  0.00    -0.051 A 
ATOM     26  C   UNL A   1      32.734  19.032  25.061  1.00  0.00    -0.009 A 
ATOM     27  C   UNL A   1      32.159  19.965  22.480  1.00  0.00    -0.016 A 
ATOM     28  H   UNL A   1      32.462  21.871  23.314  1.00  0.00     0.063 H 
ATOM     29  C   UNL A   1      32.409  18.150  24.035  1.00  0.00     0.157 A 
ATOM     30  H   UNL A   1      32.952  18.668  26.002  1.00  0.00     0.067 H 
ATOM     31  C   UNL A   1      32.136  18.607  22.750  1.00  0.00     0.157 A 
ATOM     32  H   UNL A   1      31.955  20.312  21.529  1.00  0.00     0.066 H 
BRANCH  29  33
ATOM     33  O   UNL A   1      32.372  16.811  24.297  1.00  0.00    -0.504 OA
ATOM     34  H   UNL A   1      32.731  16.202  23.682  1.00  0.00     0.293 HD
ENDBRANCH  29  33
BRANCH  31  35
ATOM     35  O   UNL A   1      31.854  17.683  21.786  1.00  0.00    -0.504 OA
ATOM     36  H   UNL A   1      32.548  17.298  21.288  1.00  0.00     0.293 HD
ENDBRANCH  31  35
ENDBRANCH  19  24
BRANCH  20  37
ATOM     37  C   UNL A   1      32.224  25.431  24.237  1.00  0.00    -0.021 A 
ATOM     38  C   UNL A   1      33.181  26.425  24.505  1.00  0.00    -0.051 A 
ATOM     39  C   UNL A   1      31.817  25.199  22.919  1.00  0.00    -0.009 A 
ATOM     40  C   UNL A   1      33.708  27.202  23.469  1.00  0.00    -0.016 A 
ATOM     41  H   UNL A   1      33.496  26.582  25.474  1.00  0.00     0.063 H 
ATOM     42  C   UNL A   1      32.352  25.970  21.896  1.00  0.00     0.157 A 
ATOM     43  H   UNL A   1      31.125  24.463  22.709  1.00  0.00     0.067 H 
ATOM     44  C   UNL A   1      33.285  26.968  22.167  1.00  0.00     0.157 A 
ATOM     45  H   UNL A   1      34.400  27.940  23.670  1.00  0.00     0.066 H 
BRANCH  42  46
ATOM     46  O   UNL A   1      31.958  25.738  20.610  1.00  0.00    -0.504 OA
ATOM     47  H   UNL A   1      32.091  26.392  19.953  1.00  0.00     0.293 HD
ENDBRANCH  42  46
BRANCH  44  48
ATOM     48  O   UNL A   1      33.764  27.692  21.111  1.00  0.00    -0.504 OA
ATOM     49  H   UNL A   1      33.534  28.596  21.019  1.00  0.00     0.293 HD
ENDBRANCH  44  48
ENDBRANCH  20  37
ENDBRANCH  11  14
ENDBRANCH   7  10
ENDBRANCH   4   7
ENDBRANCH   1   4
BRANCH   1  50
ATOM     50  C   UNL A   1      36.949  20.555  24.858  1.00  0.00    -0.052 C 
ATOM     51  H   UNL A   1      36.344  20.246  24.033  1.00  0.00     0.027 H 
ATOM     52  H   UNL A   1      36.421  20.594  25.788  1.00  0.00     0.027 H 
BRANCH  50  53
ATOM     53  C   UNL A   1      38.059  19.519  25.046  1.00  0.00    -0.036 C 
ATOM     54  H   UNL A   1      38.360  19.175  24.078  1.00  0.00     0.028 H 
ATOM     55  H   UNL A   1      37.651  18.745  25.660  1.00  0.00     0.028 H 
BRANCH  53  56
ATOM     56  C   UNL A   1      39.296  20.035  25.771  1.00  0.00     0.018 C 
ATOM     57  H   UNL A   1      39.008  20.374  26.744  1.00  0.00     0.049 H 
ATOM     58  H   UNL A   1      39.711  20.831  25.188  1.00  0.00     0.049 H 
BRANCH  56  59
ATOM     59  N   UNL A   1      40.316  19.010  25.915  1.00  0.00    -0.352 N 
ATOM     60  C   UNL A   1      41.666  19.151  26.109  1.00  0.00     0.251 C 
ATOM     61  H   UNL A   1      39.991  18.081  25.867  1.00  0.00     0.163 HD
ATOM     62  O   UNL A   1      42.412  18.182  26.017  1.00  0.00    -0.269 OA
BRANCH  60  63
ATOM     63  C   UNL A   1      42.224  20.485  26.412  1.00  0.00     0.039 A 
ATOM     64  C   UNL A   1      42.664  21.292  25.361  1.00  0.00    -0.049 A 
ATOM     65  C   UNL A   1      42.313  20.936  27.732  1.00  0.00    -0.049 A 
ATOM     66  C   UNL A   1      43.143  22.575  25.628  1.00  0.00    -0.053 A 
ATOM     67  H   UNL A   1      42.635  20.940  24.390  1.00  0.00     0.063 H 
ATOM     68  C   UNL A   1      42.713  22.243  27.989  1.00  0.00    -0.053 A 
ATOM     69  H   UNL A   1      42.082  20.303  28.513  1.00  0.00     0.063 H 
ATOM     70  C   UNL A   1      43.142  23.073  26.942  1.00  0.00    -0.014 A 
ATOM     71  H   UNL A   1      43.499  23.161  24.858  1.00  0.00     0.063 H 
ATOM     72  H   UNL A   1      42.697  22.605  28.956  1.00  0.00     0.063 H 
BRANCH  70  73
ATOM     73  C   UNL A   1      43.601  24.451  27.247  1.00  0.00     0.031 A 
ATOM     74  C   UNL A   1      42.627  25.465  27.779  1.00  0.00     0.074 A 
ATOM     75  C   UNL A   1      44.873  24.808  26.983  1.00  0.00     0.049 A 
ATOM     76  N   UNL A   1      42.804  26.739  28.020  1.00  0.00    -0.248 NA
ATOM     77  C   UNL A   1      41.260  24.990  28.049  1.00  0.00    -0.034 C 
ATOM     78  C   UNL A   1      45.901  23.924  26.431  1.00  0.00    -0.036 A 
ATOM     79  N   UNL A   1      45.514  26.012  27.131  1.00  0.00    -0.354 N 
ATOM     80  C   UNL A   1      41.574  27.216  28.454  1.00  0.00     0.074 A 
ATOM     81  C   UNL A   1      40.643  26.112  28.385  1.00  0.00    -0.034 C 
ATOM     82  H   UNL A   1      40.882  24.030  27.991  1.00  0.00     0.065 H 
ATOM     83  C   UNL A   1      47.049  24.610  26.308  1.00  0.00    -0.036 A 
ATOM     84  H   UNL A   1      45.767  22.933  26.177  1.00  0.00     0.065 H 
ATOM     85  C   UNL A   1      46.827  25.991  26.727  1.00  0.00     0.049 A 
ATOM     86  H   UNL A   1      45.075  26.816  27.493  1.00  0.00     0.167 HD
ATOM     87  C   UNL A   1      41.257  28.457  28.895  1.00  0.00     0.037 A 
ATOM     88  H   UNL A   1      39.632  26.188  28.573  1.00  0.00     0.065 H 
ATOM     89  H   UNL A   1      47.944  24.224  25.970  1.00  0.00     0.065 H 
ATOM     90  C   UNL A   1      47.742  26.978  26.689  1.00  0.00     0.037 A 
ATOM     91  C   UNL A   1      42.193  29.547  28.981  1.00  0.00     0.049 A 
ATOM     92  C   UNL A   1      47.357  28.355  27.160  1.00  0.00     0.074 A 
ATOM     93  C   UNL A   1      41.984  30.828  29.460  1.00  0.00    -0.036 A 
ATOM     94  N   UNL A   1      43.519  29.483  28.575  1.00  0.00    -0.354 N 
ATOM     95  N   UNL A   1      46.208  28.780  27.625  1.00  0.00    -0.248 NA
ATOM     96  C   UNL A   1      48.399  29.389  27.107  1.00  0.00    -0.034 C 
ATOM     97  C   UNL A   1      43.165  31.557  29.290  1.00  0.00    -0.036 A 
ATOM     98  H   UNL A   1      41.108  31.184  29.872  1.00  0.00     0.065 H 
ATOM     99  C   UNL A   1      44.131  30.711  28.768  1.00  0.00     0.049 A 
ATOM    100  H   UNL A   1      43.959  28.684  28.204  1.00  0.00     0.167 HD
ATOM    101  C   UNL A   1      46.398  30.115  27.955  1.00  0.00     0.074 A 
ATOM    102  C   UNL A   1      47.778  30.428  27.646  1.00  0.00    -0.034 C 
ATOM    103  H   UNL A   1      49.364  29.323  26.746  1.00  0.00     0.065 H 
ATOM    104  H   UNL A   1      43.296  32.555  29.514  1.00  0.00     0.065 H 
ATOM    105  C   UNL A   1      45.511  31.003  28.470  1.00  0.00     0.037 A 
ATOM    106  H   UNL A   1      48.220  31.343  27.823  1.00  0.00     0.065 H 
BRANCH  87 107
ATOM    107  C   UNL A   1      39.836  28.703  29.316  1.00  0.00     0.064 A 
ATOM    108  C   UNL A   1      39.402  28.463  30.629  1.00  0.00     0.173 A 
ATOM    109  C   UNL A   1      38.902  29.219  28.403  1.00  0.00     0.173 A 
ATOM    110  F   UNL A   1      40.249  27.958  31.539  1.00  0.00    -0.203 F 
ATOM    111  C   UNL A   1      38.081  28.696  31.003  1.00  0.00     0.198 A 
ATOM    112  C   UNL A   1      37.592  29.486  28.791  1.00  0.00     0.198 A 
ATOM    113  F   UNL A   1      39.263  29.472  27.137  1.00  0.00    -0.203 F 
ATOM    114  F   UNL A   1      37.677  28.404  32.247  1.00  0.00    -0.200 F 
ATOM    115  C   UNL A   1      37.180  29.215  30.086  1.00  0.00     0.200 A 
ATOM    116  F   UNL A   1      36.726  30.001  27.907  1.00  0.00    -0.200 F 
ATOM    117  F   UNL A   1      35.910  29.447  30.449  1.00  0.00    -0.200 F 
ENDBRANCH  87 107
BRANCH  90 118
ATOM    118  C   UNL A   1      49.121  26.698  26.202  1.00  0.00     0.064 A 
ATOM    119  C   UNL A   1      49.481  26.955  24.872  1.00  0.00     0.173 A 
ATOM    120  C   UNL A   1      50.100  26.157  27.049  1.00  0.00     0.173 A 
ATOM    121  F   UNL A   1      48.575  27.454  24.019  1.00  0.00    -0.203 F 
ATOM    122  C   UNL A   1      50.757  26.656  24.400  1.00  0.00     0.198 A 
ATOM    123  C   UNL A   1      51.385  25.889  26.585  1.00  0.00     0.198 A 
ATOM    124  F   UNL A   1      49.809  25.897  28.333  1.00  0.00    -0.203 F 
ATOM    125  F   UNL A   1      51.057  26.860  23.110  1.00  0.00    -0.200 F 
ATOM    126  C   UNL A   1      51.710  26.128  25.258  1.00  0.00     0.200 A 
ATOM    127  F   UNL A   1      52.307  25.394  27.422  1.00  0.00    -0.200 F 
ATOM    128  F   UNL A   1      52.939  25.842  24.805  1.00  0.00    -0.200 F 
ENDBRANCH  90 118
BRANCH 105 129
ATOM    129  C   UNL A   1      46.014  32.382  28.783  1.00  0.00     0.064 A 
ATOM    130  C   UNL A   1      46.595  32.699  30.021  1.00  0.00     0.173 A 
ATOM    131  C   UNL A   1      45.956  33.392  27.809  1.00  0.00     0.173 A 
ATOM    132  F   UNL A   1      46.663  31.774  30.991  1.00  0.00    -0.203 F 
ATOM    133  C   UNL A   1      47.073  33.980  30.280  1.00  0.00     0.198 A 
ATOM    134  C   UNL A   1      46.468  34.662  28.060  1.00  0.00     0.198 A 
ATOM    135  F   UNL A   1      45.419  33.141  26.606  1.00  0.00    -0.203 F 
ATOM    136  F   UNL A   1      47.577  34.273  31.487  1.00  0.00    -0.200 F 
ATOM    137  C   UNL A   1      47.019  34.957  29.297  1.00  0.00     0.200 A 
ATOM    138  F   UNL A   1      46.430  35.598  27.102  1.00  0.00    -0.200 F 
ATOM    139  F   UNL A   1      47.491  36.187  29.545  1.00  0.00    -0.200 F 
ENDBRANCH 105 129
ENDBRANCH  70  73
ENDBRANCH  60  63
ENDBRANCH  56  59
ENDBRANCH  53  56
ENDBRANCH  50  53
ENDBRANCH   1  50
TORSDOF 19
ENDMDL
MODEL 5
REMARK VINA RESULT:     -13.4      5.511     11.023
REMARK SMILES O=C1O[C@@H](c2ccc(O)c(O)c2)[C@H](C(=O)NCCCCCCNC(=O)c2ccc(-c3c4nc(c(-c5c(F)c(F)c(F)c(F)c5F)c5ccc([nH]5)c(-c5c(F)c(F)c(F)c(F)c5F)c5nc(c(-c6c(F)c(F)c(F)c(F)c6F)c6ccc3[nH]6)C=C5)C=C4)cc2)/C1=C\c1ccc(O)c(O)c1
REMARK SMILES IDX 19 1 18 4 17 7 16 10 14 11 15 12 13 14 1 15 2 16 3 17 89 18
REMARK SMILES IDX 4 19 90 20 5 24 6 25 12 26 7 27 10 29 8 31 11 33 9 35 91 37
REMARK SMILES IDX 92 38 98 39 93 40 96 42 94 44 97 46 95 48 20 50 21 53 22 56
REMARK SMILES IDX 23 59 24 60 25 62 26 63 27 64 88 65 28 66 87 68 29 70 30 73
REMARK SMILES IDX 31 74 81 75 32 76 86 77 80 78 82 79 33 80 85 81 79 83 78 85
REMARK SMILES IDX 34 87 66 90 46 91 65 92 47 93 50 94 64 95 83 96 48 97 49 99
REMARK SMILES IDX 63 101 84 102 51 105 35 107 36 108 44 109 37 110 38 111
REMARK SMILES IDX 42 112 45 113 39 114 40 115 43 116 41 117 67 118 68 119
REMARK SMILES IDX 76 120 69 121 70 122 74 123 77 124 71 125 72 126 75 127
REMARK SMILES IDX 73 128 52 129 53 130 61 131 54 132 55 133 59 134 62 135
REMARK SMILES IDX 56 136 57 137 60 138 58 139
REMARK H PARENT 19 2 19 3 18 5 18 6 17 8 17 9 16 13 4 21 13 22 90 23 6 28
REMARK H PARENT 12 30 7 32 11 34 9 36 92 41 98 43 93 45 97 47 95 49 20 51
REMARK H PARENT 20 52 21 54 21 55 22 57 22 58 23 61 27 67 88 69 28 71 87 72
REMARK H PARENT 86 82 80 84 82 86 85 88 79 89 47 98 50 100 83 103 48 104
REMARK H PARENT 84 106
REMARK Flexibility Score: inf
ROOT
ATOM      1  C   UNL A   1      37.417  22.005  24.540  1.00  0.00    -0.052 C 
ATOM      2  H   UNL A   1      37.374  22.546  25.461  1.00  0.00     0.027 H 
ATOM      3  H   UNL A   1      38.406  21.912  24.144  1.00  0.00     0.027 H 
ENDROOT
BRANCH   1   4
ATOM      4  C   UNL A   1      36.614  22.782  23.495  1.00  0.00    -0.036 C 
ATOM      5  H   UNL A   1      37.265  23.014  22.680  1.00  0.00     0.028 H 
ATOM      6  H   UNL A   1      35.796  22.154  23.211  1.00  0.00     0.028 H 
BRANCH   4   7
ATOM      7  C   UNL A   1      36.007  24.081  24.005  1.00  0.00     0.017 C 
ATOM      8  H   UNL A   1      36.690  24.877  23.798  1.00  0.00     0.049 H 
ATOM      9  H   UNL A   1      35.070  24.209  23.505  1.00  0.00     0.049 H 
BRANCH   7  10
ATOM     10  N   UNL A   1      35.732  24.073  25.426  1.00  0.00    -0.355 N 
ATOM     11  C   UNL A   1      34.747  23.446  26.138  1.00  0.00     0.231 C 
ATOM     12  O   UNL A   1      34.842  23.495  27.364  1.00  0.00    -0.274 OA
ATOM     13  H   UNL A   1      36.357  24.605  25.969  1.00  0.00     0.163 HD
BRANCH  11  14
ATOM     14  C   UNL A   1      33.549  22.811  25.421  1.00  0.00     0.111 C 
ATOM     15  O   UNL A   1      30.711  23.103  27.574  1.00  0.00    -0.247 OA
ATOM     16  C   UNL A   1      31.641  22.742  26.875  1.00  0.00     0.335 C 
ATOM     17  O   UNL A   1      32.258  21.537  26.952  1.00  0.00    -0.453 OA
ATOM     18  C   UNL A   1      32.283  23.509  25.792  1.00  0.00     0.054 C 
ATOM     19  C   UNL A   1      33.241  21.399  25.912  1.00  0.00     0.143 C 
ATOM     20  C   UNL A   1      31.695  24.614  25.311  1.00  0.00    -0.043 C 
ATOM     21  H   UNL A   1      34.148  20.955  26.267  1.00  0.00     0.081 H 
ATOM     22  H   UNL A   1      33.817  22.855  24.385  1.00  0.00     0.050 H 
ATOM     23  H   UNL A   1      30.797  24.903  25.730  1.00  0.00     0.063 H 
BRANCH  19  24
ATOM     24  C   UNL A   1      32.782  20.420  24.825  1.00  0.00    -0.002 A 
ATOM     25  C   UNL A   1      32.447  20.866  23.526  1.00  0.00    -0.051 A 
ATOM     26  C   UNL A   1      32.771  19.036  25.060  1.00  0.00    -0.009 A 
ATOM     27  C   UNL A   1      32.141  19.972  22.493  1.00  0.00    -0.016 A 
ATOM     28  H   UNL A   1      32.431  21.879  23.332  1.00  0.00     0.063 H 
ATOM     29  C   UNL A   1      32.442  18.154  24.036  1.00  0.00     0.157 A 
ATOM     30  H   UNL A   1      33.009  18.671  25.997  1.00  0.00     0.067 H 
ATOM     31  C   UNL A   1      32.141  18.613  22.758  1.00  0.00     0.157 A 
ATOM     32  H   UNL A   1      31.917  20.320  21.548  1.00  0.00     0.066 H 
BRANCH  29  33
ATOM     33  O   UNL A   1      32.428  16.813  24.292  1.00  0.00    -0.504 OA
ATOM     34  H   UNL A   1      32.252  16.503  25.159  1.00  0.00     0.293 HD
ENDBRANCH  29  33
BRANCH  31  35
ATOM     35  O   UNL A   1      31.857  17.689  21.794  1.00  0.00    -0.504 OA
ATOM     36  H   UNL A   1      32.123  16.798  21.906  1.00  0.00     0.293 HD
ENDBRANCH  31  35
ENDBRANCH  19  24
BRANCH  20  37
ATOM     37  C   UNL A   1      32.242  25.436  24.235  1.00  0.00    -0.021 A 
ATOM     38  C   UNL A   1      33.216  26.415  24.495  1.00  0.00    -0.051 A 
ATOM     39  C   UNL A   1      31.815  25.217  22.921  1.00  0.00    -0.009 A 
ATOM     40  C   UNL A   1      33.741  27.190  23.457  1.00  0.00    -0.016 A 
ATOM     41  H   UNL A   1      33.546  26.562  25.461  1.00  0.00     0.063 H 
ATOM     42  C   UNL A   1      32.348  25.984  21.895  1.00  0.00     0.157 A 
ATOM     43  H   UNL A   1      31.111  24.491  22.716  1.00  0.00     0.067 H 
ATOM     44  C   UNL A   1      33.299  26.968  22.159  1.00  0.00     0.157 A 
ATOM     45  H   UNL A   1      34.447  27.916  23.653  1.00  0.00     0.066 H 
BRANCH  42  46
ATOM     46  O   UNL A   1      31.935  25.764  20.613  1.00  0.00    -0.504 OA
ATOM     47  H   UNL A   1      31.279  26.314  20.231  1.00  0.00     0.293 HD
ENDBRANCH  42  46
BRANCH  44  48
ATOM     48  O   UNL A   1      33.775  27.690  21.101  1.00  0.00    -0.504 OA
ATOM     49  H   UNL A   1      33.198  28.247  20.615  1.00  0.00     0.293 HD
ENDBRANCH  44  48
ENDBRANCH  20  37
ENDBRANCH  11  14
ENDBRANCH   7  10
ENDBRANCH   4   7
ENDBRANCH   1   4
BRANCH   1  50
ATOM     50  C   UNL A   1      36.929  20.576  24.806  1.00  0.00    -0.052 C 
ATOM     51  H   UNL A   1      36.333  20.270  23.973  1.00  0.00     0.027 H 
ATOM     52  H   UNL A   1      36.389  20.618  25.729  1.00  0.00     0.027 H 
BRANCH  50  53
ATOM     53  C   UNL A   1      38.031  19.534  25.008  1.00  0.00    -0.036 C 
ATOM     54  H   UNL A   1      38.343  19.190  24.044  1.00  0.00     0.028 H 
ATOM     55  H   UNL A   1      37.609  18.761  25.614  1.00  0.00     0.028 H 
BRANCH  53  56
ATOM     56  C   UNL A   1      39.260  20.041  25.751  1.00  0.00     0.018 C 
ATOM     57  H   UNL A   1      38.961  20.373  26.724  1.00  0.00     0.049 H 
ATOM     58  H   UNL A   1      39.683  20.841  25.180  1.00  0.00     0.049 H 
BRANCH  56  59
ATOM     59  N   UNL A   1      40.275  19.013  25.900  1.00  0.00    -0.352 N 
ATOM     60  C   UNL A   1      41.624  19.150  26.107  1.00  0.00     0.251 C 
ATOM     61  H   UNL A   1      39.949  18.085  25.845  1.00  0.00     0.163 HD
ATOM     62  O   UNL A   1      42.368  18.179  26.017  1.00  0.00    -0.269 OA
BRANCH  60  63
ATOM     63  C   UNL A   1      42.183  20.481  26.421  1.00  0.00     0.039 A 
ATOM     64  C   UNL A   1      42.617  21.299  25.376  1.00  0.00    -0.049 A 
ATOM     65  C   UNL A   1      42.278  20.917  27.745  1.00  0.00    -0.049 A 
ATOM     66  C   UNL A   1      43.097  22.579  25.655  1.00  0.00    -0.053 A 
ATOM     67  H   UNL A   1      42.583  20.958  24.402  1.00  0.00     0.063 H 
ATOM     68  C   UNL A   1      42.679  22.222  28.015  1.00  0.00    -0.053 A 
ATOM     69  H   UNL A   1      42.052  20.275  28.521  1.00  0.00     0.063 H 
ATOM     70  C   UNL A   1      43.102  23.063  26.975  1.00  0.00    -0.014 A 
ATOM     71  H   UNL A   1      43.448  23.174  24.889  1.00  0.00     0.063 H 
ATOM     72  H   UNL A   1      42.668  22.573  28.985  1.00  0.00     0.063 H 
BRANCH  70  73
ATOM     73  C   UNL A   1      43.561  24.439  27.292  1.00  0.00     0.031 A 
ATOM     74  C   UNL A   1      42.583  25.455  27.811  1.00  0.00     0.074 A 
ATOM     75  C   UNL A   1      44.839  24.791  27.050  1.00  0.00     0.049 A 
ATOM     76  N   UNL A   1      42.761  26.727  28.059  1.00  0.00    -0.248 NA
ATOM     77  C   UNL A   1      41.210  24.984  28.057  1.00  0.00    -0.034 C 
ATOM     78  C   UNL A   1      45.873  23.905  26.513  1.00  0.00    -0.036 A 
ATOM     79  N   UNL A   1      45.483  25.992  27.213  1.00  0.00    -0.354 N 
ATOM     80  C   UNL A   1      41.526  27.208  28.474  1.00  0.00     0.074 A 
ATOM     81  C   UNL A   1      40.592  26.108  28.386  1.00  0.00    -0.034 C 
ATOM     82  H   UNL A   1      40.829  24.027  27.989  1.00  0.00     0.065 H 
ATOM     83  C   UNL A   1      47.025  24.586  26.412  1.00  0.00    -0.036 A 
ATOM     84  H   UNL A   1      45.738  22.915  26.253  1.00  0.00     0.065 H 
ATOM     85  C   UNL A   1      46.802  25.966  26.832  1.00  0.00     0.049 A 
ATOM     86  H   UNL A   1      45.041  26.796  27.571  1.00  0.00     0.167 HD
ATOM     87  C   UNL A   1      41.207  28.449  28.914  1.00  0.00     0.037 A 
ATOM     88  H   UNL A   1      39.578  26.188  28.557  1.00  0.00     0.065 H 
ATOM     89  H   UNL A   1      47.925  24.197  26.088  1.00  0.00     0.065 H 
ATOM     90  C   UNL A   1      47.722  26.949  26.813  1.00  0.00     0.037 A 
ATOM     91  C   UNL A   1      42.146  29.534  29.020  1.00  0.00     0.049 A 
ATOM     92  C   UNL A   1      47.335  28.326  27.281  1.00  0.00     0.074 A 
ATOM     93  C   UNL A   1      41.934  30.815  29.499  1.00  0.00    -0.036 A 
ATOM     94  N   UNL A   1      43.478  29.466  28.636  1.00  0.00    -0.354 N 
ATOM     95  N   UNL A   1      46.180  28.754  27.729  1.00  0.00    -0.248 NA
ATOM     96  C   UNL A   1      48.382  29.356  27.250  1.00  0.00    -0.034 C 
ATOM     97  C   UNL A   1      43.121  31.539  29.352  1.00  0.00    -0.036 A 
ATOM     98  H   UNL A   1      41.052  31.173  29.897  1.00  0.00     0.065 H 
ATOM     99  C   UNL A   1      44.092  30.691  28.843  1.00  0.00     0.049 A 
ATOM    100  H   UNL A   1      43.921  28.666  28.269  1.00  0.00     0.167 HD
ATOM    101  C   UNL A   1      46.370  30.088  28.066  1.00  0.00     0.074 A 
ATOM    102  C   UNL A   1      47.756  30.396  27.782  1.00  0.00    -0.034 C 
ATOM    103  H   UNL A   1      49.353  29.287  26.905  1.00  0.00     0.065 H 
ATOM    104  H   UNL A   1      43.252  32.536  29.582  1.00  0.00     0.065 H 
ATOM    105  C   UNL A   1      45.479  30.977  28.570  1.00  0.00     0.037 A 
ATOM    106  H   UNL A   1      48.199  31.308  27.969  1.00  0.00     0.065 H 
BRANCH  87 107
ATOM    107  C   UNL A   1      39.780  28.700  29.312  1.00  0.00     0.064 A 
ATOM    108  C   UNL A   1      39.333  28.498  30.627  1.00  0.00     0.173 A 
ATOM    109  C   UNL A   1      38.853  29.181  28.374  1.00  0.00     0.173 A 
ATOM    110  F   UNL A   1      40.173  28.027  31.562  1.00  0.00    -0.203 F 
ATOM    111  C   UNL A   1      38.007  28.735  30.980  1.00  0.00     0.198 A 
ATOM    112  C   UNL A   1      37.537  29.453  28.738  1.00  0.00     0.198 A 
ATOM    113  F   UNL A   1      39.227  29.397  27.104  1.00  0.00    -0.203 F 
ATOM    114  F   UNL A   1      37.591  28.479  32.228  1.00  0.00    -0.200 F 
ATOM    115  C   UNL A   1      37.113  29.220  30.037  1.00  0.00     0.200 A 
ATOM    116  F   UNL A   1      36.678  29.935  27.830  1.00  0.00    -0.200 F 
ATOM    117  F   UNL A   1      35.838  29.455  30.379  1.00  0.00    -0.200 F 
ENDBRANCH  87 107
BRANCH  90 118
ATOM    118  C   UNL A   1      49.107  26.665  26.348  1.00  0.00     0.064 A 
ATOM    119  C   UNL A   1      50.084  26.197  27.238  1.00  0.00     0.173 A 
ATOM    120  C   UNL A   1      49.487  26.867  25.013  1.00  0.00     0.173 A 
ATOM    121  F   UNL A   1      49.776  26.008  28.529  1.00  0.00    -0.203 F 
ATOM    122  C   UNL A   1      51.393  25.970  26.818  1.00  0.00     0.198 A 
ATOM    123  C   UNL A   1      50.787  26.607  24.586  1.00  0.00     0.198 A 
ATOM    124  F   UNL A   1      48.589  27.307  24.118  1.00  0.00    -0.203 F 
ATOM    125  F   UNL A   1      52.320  25.576  27.702  1.00  0.00    -0.200 F 
ATOM    126  C   UNL A   1      51.742  26.169  25.491  1.00  0.00     0.200 A 
ATOM    127  F   UNL A   1      51.115  26.786  23.299  1.00  0.00    -0.200 F 
ATOM    128  F   UNL A   1      53.000  25.949  25.086  1.00  0.00    -0.200 F 
ENDBRANCH  90 118
BRANCH 105 129
ATOM    129  C   UNL A   1      45.982  32.354  28.896  1.00  0.00     0.064 A 
ATOM    130  C   UNL A   1      45.926  33.405  27.968  1.00  0.00     0.173 A 
ATOM    131  C   UNL A   1      46.486  32.636  30.176  1.00  0.00     0.173 A 
ATOM    132  F   UNL A   1      45.466  33.186  26.727  1.00  0.00    -0.203 F 
ATOM    133  C   UNL A   1      46.380  34.678  28.302  1.00  0.00     0.198 A 
ATOM    134  C   UNL A   1      46.905  33.918  30.516  1.00  0.00     0.198 A 
ATOM    135  F   UNL A   1      46.553  31.669  31.104  1.00  0.00    -0.203 F 
ATOM    136  F   UNL A   1      46.363  35.654  27.382  1.00  0.00    -0.200 F 
ATOM    137  C   UNL A   1      46.859  34.936  29.577  1.00  0.00     0.200 A 
ATOM    138  F   UNL A   1      47.351  34.169  31.755  1.00  0.00    -0.200 F 
ATOM    139  F   UNL A   1      47.284  36.166  29.899  1.00  0.00    -0.200 F 
ENDBRANCH 105 129
ENDBRANCH  70  73
ENDBRANCH  60  63
ENDBRANCH  56  59
ENDBRANCH  53  56
ENDBRANCH  50  53
ENDBRANCH   1  50
TORSDOF 19
ENDMDL
MODEL 6
REMARK VINA RESULT:     -13.3      5.390      9.923
REMARK SMILES O=C1O[C@@H](c2ccc(O)c(O)c2)[C@H](C(=O)NCCCCCCNC(=O)c2ccc(-c3c4nc(c(-c5c(F)c(F)c(F)c(F)c5F)c5ccc([nH]5)c(-c5c(F)c(F)c(F)c(F)c5F)c5nc(c(-c6c(F)c(F)c(F)c(F)c6F)c6ccc3[nH]6)C=C5)C=C4)cc2)/C1=C\c1ccc(O)c(O)c1
REMARK SMILES IDX 19 1 18 4 17 7 16 10 14 11 15 12 13 14 1 15 2 16 3 17 89 18
REMARK SMILES IDX 4 19 90 20 5 24 6 25 12 26 7 27 10 29 8 31 11 33 9 35 91 37
REMARK SMILES IDX 92 38 98 39 93 40 96 42 94 44 97 46 95 48 20 50 21 53 22 56
REMARK SMILES IDX 23 59 24 60 25 62 26 63 27 64 88 65 28 66 87 68 29 70 30 73
REMARK SMILES IDX 31 74 81 75 32 76 86 77 80 78 82 79 33 80 85 81 79 83 78 85
REMARK SMILES IDX 34 87 66 90 46 91 65 92 47 93 50 94 64 95 83 96 48 97 49 99
REMARK SMILES IDX 63 101 84 102 51 105 35 107 36 108 44 109 37 110 38 111
REMARK SMILES IDX 42 112 45 113 39 114 40 115 43 116 41 117 67 118 68 119
REMARK SMILES IDX 76 120 69 121 70 122 74 123 77 124 71 125 72 126 75 127
REMARK SMILES IDX 73 128 52 129 53 130 61 131 54 132 55 133 59 134 62 135
REMARK SMILES IDX 56 136 57 137 60 138 58 139
REMARK H PARENT 19 2 19 3 18 5 18 6 17 8 17 9 16 13 4 21 13 22 90 23 6 28
REMARK H PARENT 12 30 7 32 11 34 9 36 92 41 98 43 93 45 97 47 95 49 20 51
REMARK H PARENT 20 52 21 54 21 55 22 57 22 58 23 61 27 67 88 69 28 71 87 72
REMARK H PARENT 86 82 80 84 82 86 85 88 79 89 47 98 50 100 83 103 48 104
REMARK H PARENT 84 106
REMARK Flexibility Score: inf
ROOT
ATOM      1  C   UNL A   1      37.347  21.688  24.784  1.00  0.00    -0.052 C 
ATOM      2  H   UNL A   1      37.026  22.142  25.699  1.00  0.00     0.027 H 
ATOM      3  H   UNL A   1      38.403  21.742  24.628  1.00  0.00     0.027 H 
ENDROOT
BRANCH   1   4
ATOM      4  C   UNL A   1      36.707  22.453  23.625  1.00  0.00    -0.036 C 
ATOM      5  H   UNL A   1      37.440  22.566  22.855  1.00  0.00     0.028 H 
ATOM      6  H   UNL A   1      35.859  21.880  23.313  1.00  0.00     0.028 H 
BRANCH   4   7
ATOM      7  C   UNL A   1      36.185  23.835  23.993  1.00  0.00     0.017 C 
ATOM      8  H   UNL A   1      36.937  24.555  23.752  1.00  0.00     0.049 H 
ATOM      9  H   UNL A   1      35.282  23.988  23.440  1.00  0.00     0.049 H 
BRANCH   7  10
ATOM     10  N   UNL A   1      35.853  23.973  25.395  1.00  0.00    -0.355 N 
ATOM     11  C   UNL A   1      34.803  23.473  26.114  1.00  0.00     0.231 C 
ATOM     12  O   UNL A   1      34.851  23.629  27.334  1.00  0.00    -0.274 OA
ATOM     13  H   UNL A   1      36.487  24.516  25.916  1.00  0.00     0.163 HD
BRANCH  11  14
ATOM     14  C   UNL A   1      33.598  22.845  25.402  1.00  0.00     0.111 C 
ATOM     15  O   UNL A   1      30.777  23.135  27.578  1.00  0.00    -0.247 OA
ATOM     16  C   UNL A   1      31.701  22.774  26.870  1.00  0.00     0.335 C 
ATOM     17  O   UNL A   1      32.314  21.568  26.936  1.00  0.00    -0.453 OA
ATOM     18  C   UNL A   1      32.336  23.545  25.786  1.00  0.00     0.054 C 
ATOM     19  C   UNL A   1      33.289  21.432  25.888  1.00  0.00     0.143 C 
ATOM     20  C   UNL A   1      31.748  24.655  25.316  1.00  0.00    -0.043 C 
ATOM     21  H   UNL A   1      34.197  20.983  26.234  1.00  0.00     0.081 H 
ATOM     22  H   UNL A   1      33.858  22.894  24.365  1.00  0.00     0.050 H 
ATOM     23  H   UNL A   1      30.855  24.945  25.743  1.00  0.00     0.063 H 
BRANCH  19  24
ATOM     24  C   UNL A   1      32.819  20.460  24.800  1.00  0.00    -0.002 A 
ATOM     25  C   UNL A   1      32.500  20.910  23.497  1.00  0.00    -0.051 A 
ATOM     26  C   UNL A   1      32.782  19.076  25.036  1.00  0.00    -0.009 A 
ATOM     27  C   UNL A   1      32.184  20.021  22.464  1.00  0.00    -0.016 A 
ATOM     28  H   UNL A   1      32.502  21.924  23.303  1.00  0.00     0.063 H 
ATOM     29  C   UNL A   1      32.443  18.200  24.010  1.00  0.00     0.157 A 
ATOM     30  H   UNL A   1      33.008  18.709  25.973  1.00  0.00     0.067 H 
ATOM     31  C   UNL A   1      32.158  18.663  22.730  1.00  0.00     0.157 A 
ATOM     32  H   UNL A   1      31.972  20.373  21.517  1.00  0.00     0.066 H 
BRANCH  29  33
ATOM     33  O   UNL A   1      32.404  16.860  24.267  1.00  0.00    -0.504 OA
ATOM     34  H   UNL A   1      31.867  16.297  23.744  1.00  0.00     0.293 HD
ENDBRANCH  29  33
BRANCH  31  35
ATOM     35  O   UNL A   1      31.864  17.743  21.765  1.00  0.00    -0.504 OA
ATOM     36  H   UNL A   1      32.206  17.846  20.899  1.00  0.00     0.293 HD
ENDBRANCH  31  35
ENDBRANCH  19  24
BRANCH  20  37
ATOM     37  C   UNL A   1      32.290  25.481  24.240  1.00  0.00    -0.021 A 
ATOM     38  C   UNL A   1      33.274  26.450  24.498  1.00  0.00    -0.051 A 
ATOM     39  C   UNL A   1      31.847  25.275  22.929  1.00  0.00    -0.009 A 
ATOM     40  C   UNL A   1      33.794  27.229  23.460  1.00  0.00    -0.016 A 
ATOM     41  H   UNL A   1      33.616  26.587  25.461  1.00  0.00     0.063 H 
ATOM     42  C   UNL A   1      32.375  26.047  21.904  1.00  0.00     0.157 A 
ATOM     43  H   UNL A   1      31.135  24.557  22.727  1.00  0.00     0.067 H 
ATOM     44  C   UNL A   1      33.336  27.021  22.165  1.00  0.00     0.157 A 
ATOM     45  H   UNL A   1      34.508  27.948  23.654  1.00  0.00     0.066 H 
BRANCH  42  46
ATOM     46  O   UNL A   1      31.946  25.840  20.625  1.00  0.00    -0.504 OA
ATOM     47  H   UNL A   1      32.544  25.533  19.973  1.00  0.00     0.293 HD
ENDBRANCH  42  46
BRANCH  44  48
ATOM     48  O   UNL A   1      33.807  27.747  21.107  1.00  0.00    -0.504 OA
ATOM     49  H   UNL A   1      34.670  27.589  20.776  1.00  0.00     0.293 HD
ENDBRANCH  44  48
ENDBRANCH  20  37
ENDBRANCH  11  14
ENDBRANCH   7  10
ENDBRANCH   4   7
ENDBRANCH   1   4
BRANCH   1  50
ATOM     50  C   UNL A   1      37.002  20.196  24.850  1.00  0.00    -0.052 C 
ATOM     51  H   UNL A   1      36.522  19.928  23.933  1.00  0.00     0.027 H 
ATOM     52  H   UNL A   1      36.381  20.075  25.712  1.00  0.00     0.027 H 
BRANCH  50  53
ATOM     53  C   UNL A   1      38.192  19.256  25.053  1.00  0.00    -0.036 C 
ATOM     54  H   UNL A   1      38.543  18.950  24.089  1.00  0.00     0.028 H 
ATOM     55  H   UNL A   1      37.838  18.442  25.649  1.00  0.00     0.028 H 
BRANCH  53  56
ATOM     56  C   UNL A   1      39.364  19.866  25.812  1.00  0.00     0.018 C 
ATOM     57  H   UNL A   1      39.033  20.141  26.792  1.00  0.00     0.049 H 
ATOM     58  H   UNL A   1      39.704  20.719  25.262  1.00  0.00     0.049 H 
BRANCH  56  59
ATOM     59  N   UNL A   1      40.479  18.942  25.937  1.00  0.00    -0.352 N 
ATOM     60  C   UNL A   1      41.814  19.211  26.096  1.00  0.00     0.251 C 
ATOM     61  H   UNL A   1      40.242  17.987  25.902  1.00  0.00     0.163 HD
ATOM     62  O   UNL A   1      42.645  18.316  25.991  1.00  0.00    -0.269 OA
BRANCH  60  63
ATOM     63  C   UNL A   1      42.251  20.594  26.378  1.00  0.00     0.039 A 
ATOM     64  C   UNL A   1      42.584  21.432  25.311  1.00  0.00    -0.049 A 
ATOM     65  C   UNL A   1      42.333  21.060  27.693  1.00  0.00    -0.049 A 
ATOM     66  C   UNL A   1      42.946  22.756  25.560  1.00  0.00    -0.053 A 
ATOM     67  H   UNL A   1      42.561  21.072  24.343  1.00  0.00     0.063 H 
ATOM     68  C   UNL A   1      42.615  22.401  27.934  1.00  0.00    -0.053 A 
ATOM     69  H   UNL A   1      42.184  20.413  28.482  1.00  0.00     0.063 H 
ATOM     70  C   UNL A   1      42.934  23.261  26.871  1.00  0.00    -0.014 A 
ATOM     71  H   UNL A   1      43.224  23.369  24.777  1.00  0.00     0.063 H 
ATOM     72  H   UNL A   1      42.591  22.766  28.898  1.00  0.00     0.063 H 
BRANCH  70  73
ATOM     73  C   UNL A   1      43.268  24.678  27.158  1.00  0.00     0.031 A 
ATOM     74  C   UNL A   1      44.664  25.181  26.920  1.00  0.00     0.074 A 
ATOM     75  C   UNL A   1      42.337  25.492  27.693  1.00  0.00     0.049 A 
ATOM     76  N   UNL A   1      45.182  26.353  27.192  1.00  0.00    -0.248 NA
ATOM     77  C   UNL A   1      45.617  24.231  26.324  1.00  0.00    -0.034 C 
ATOM     78  C   UNL A   1      40.959  25.110  28.004  1.00  0.00    -0.036 A 
ATOM     79  N   UNL A   1      42.413  26.806  28.082  1.00  0.00    -0.354 N 
ATOM     80  C   UNL A   1      46.516  26.273  26.814  1.00  0.00     0.074 A 
ATOM     81  C   UNL A   1      46.746  24.922  26.352  1.00  0.00    -0.034 C 
ATOM     82  H   UNL A   1      45.447  23.273  25.975  1.00  0.00     0.065 H 
ATOM     83  C   UNL A   1      40.314  26.171  28.515  1.00  0.00    -0.036 A 
ATOM     84  H   UNL A   1      40.548  24.175  27.855  1.00  0.00     0.065 H 
ATOM     85  C   UNL A   1      41.243  27.292  28.611  1.00  0.00     0.049 A 
ATOM     86  H   UNL A   1      43.230  27.348  27.991  1.00  0.00     0.167 HD
ATOM     87  C   UNL A   1      47.458  27.247  26.827  1.00  0.00     0.037 A 
ATOM     88  H   UNL A   1      47.667  24.547  26.080  1.00  0.00     0.065 H 
ATOM     89  H   UNL A   1      39.321  26.190  28.795  1.00  0.00     0.065 H 
ATOM     90  C   UNL A   1      40.958  28.504  29.126  1.00  0.00     0.037 A 
ATOM     91  C   UNL A   1      47.217  28.595  27.268  1.00  0.00     0.049 A 
ATOM     92  C   UNL A   1      42.029  29.561  29.153  1.00  0.00     0.074 A 
ATOM     93  C   UNL A   1      48.090  29.669  27.274  1.00  0.00    -0.036 A 
ATOM     94  N   UNL A   1      46.015  29.055  27.785  1.00  0.00    -0.354 N 
ATOM     95  N   UNL A   1      43.270  29.493  28.737  1.00  0.00    -0.248 NA
ATOM     96  C   UNL A   1      41.658  30.866  29.715  1.00  0.00    -0.034 C 
ATOM     97  C   UNL A   1      47.434  30.762  27.849  1.00  0.00    -0.036 A 
ATOM     98  H   UNL A   1      49.058  29.664  26.917  1.00  0.00     0.065 H 
ATOM     99  C   UNL A   1      46.131  30.390  28.138  1.00  0.00     0.049 A 
ATOM    100  H   UNL A   1      45.198  28.513  27.886  1.00  0.00     0.167 HD
ATOM    101  C   UNL A   1      43.815  30.752  28.951  1.00  0.00     0.074 A 
ATOM    102  C   UNL A   1      42.766  31.568  29.525  1.00  0.00    -0.034 C 
ATOM    103  H   UNL A   1      40.767  31.161  30.145  1.00  0.00     0.065 H 
ATOM    104  H   UNL A   1      47.850  31.689  28.027  1.00  0.00     0.065 H 
ATOM    105  C   UNL A   1      45.071  31.194  28.694  1.00  0.00     0.037 A 
ATOM    106  H   UNL A   1      42.868  32.568  29.756  1.00  0.00     0.065 H 
BRANCH  87 107
ATOM    107  C   UNL A   1      48.836  26.887  26.351  1.00  0.00     0.064 A 
ATOM    108  C   UNL A   1      49.788  26.313  27.208  1.00  0.00     0.173 A 
ATOM    109  C   UNL A   1      49.202  27.087  25.010  1.00  0.00     0.173 A 
ATOM    110  F   UNL A   1      49.496  26.112  28.503  1.00  0.00    -0.203 F 
ATOM    111  C   UNL A   1      51.062  25.985  26.751  1.00  0.00     0.198 A 
ATOM    112  C   UNL A   1      50.464  26.723  24.548  1.00  0.00     0.198 A 
ATOM    113  F   UNL A   1      48.331  27.627  24.145  1.00  0.00    -0.203 F 
ATOM    114  F   UNL A   1      51.971  25.492  27.604  1.00  0.00    -0.200 F 
ATOM    115  C   UNL A   1      51.395  26.182  25.420  1.00  0.00     0.200 A 
ATOM    116  F   UNL A   1      50.780  26.901  23.258  1.00  0.00    -0.200 F 
ATOM    117  F   UNL A   1      52.619  25.859  24.979  1.00  0.00    -0.200 F 
ENDBRANCH  87 107
BRANCH  90 118
ATOM    118  C   UNL A   1      39.592  28.791  29.644  1.00  0.00     0.064 A 
ATOM    119  C   UNL A   1      38.615  29.367  28.820  1.00  0.00     0.173 A 
ATOM    120  C   UNL A   1      39.240  28.510  30.973  1.00  0.00     0.173 A 
ATOM    121  F   UNL A   1      38.909  29.672  27.548  1.00  0.00    -0.203 F 
ATOM    122  C   UNL A   1      37.349  29.676  29.312  1.00  0.00     0.198 A 
ATOM    123  C   UNL A   1      37.963  28.789  31.454  1.00  0.00     0.198 A 
ATOM    124  F   UNL A   1      40.136  27.953  31.802  1.00  0.00    -0.203 F 
ATOM    125  F   UNL A   1      36.452  30.277  28.517  1.00  0.00    -0.200 F 
ATOM    126  C   UNL A   1      37.022  29.382  30.626  1.00  0.00     0.200 A 
ATOM    127  F   UNL A   1      37.647  28.487  32.721  1.00  0.00    -0.200 F 
ATOM    128  F   UNL A   1      35.803  29.678  31.099  1.00  0.00    -0.200 F 
ENDBRANCH  90 118
BRANCH 105 129
ATOM    129  C   UNL A   1      45.370  32.638  28.979  1.00  0.00     0.064 A 
ATOM    130  C   UNL A   1      45.932  33.055  30.195  1.00  0.00     0.173 A 
ATOM    131  C   UNL A   1      45.133  33.614  27.998  1.00  0.00     0.173 A 
ATOM    132  F   UNL A   1      46.166  32.164  31.171  1.00  0.00    -0.203 F 
ATOM    133  C   UNL A   1      46.219  34.397  30.427  1.00  0.00     0.198 A 
ATOM    134  C   UNL A   1      45.455  34.949  28.221  1.00  0.00     0.198 A 
ATOM    135  F   UNL A   1      44.605  33.269  26.814  1.00  0.00    -0.203 F 
ATOM    136  F   UNL A   1      46.708  34.778  31.616  1.00  0.00    -0.200 F 
ATOM    137  C   UNL A   1      45.990  35.341  29.438  1.00  0.00     0.200 A 
ATOM    138  F   UNL A   1      45.248  35.857  27.256  1.00  0.00    -0.200 F 
ATOM    139  F   UNL A   1      46.279  36.631  29.660  1.00  0.00    -0.200 F 
ENDBRANCH 105 129
ENDBRANCH  70  73
ENDBRANCH  60  63
ENDBRANCH  56  59
ENDBRANCH  53  56
ENDBRANCH  50  53
ENDBRANCH   1  50
TORSDOF 19
ENDMDL
MODEL 7
REMARK VINA RESULT:     -13.2      1.658      4.212
REMARK SMILES O=C1O[C@@H](c2ccc(O)c(O)c2)[C@H](C(=O)NCCCCCCNC(=O)c2ccc(-c3c4nc(c(-c5c(F)c(F)c(F)c(F)c5F)c5ccc([nH]5)c(-c5c(F)c(F)c(F)c(F)c5F)c5nc(c(-c6c(F)c(F)c(F)c(F)c6F)c6ccc3[nH]6)C=C5)C=C4)cc2)/C1=C\c1ccc(O)c(O)c1
REMARK SMILES IDX 19 1 18 4 17 7 16 10 14 11 15 12 13 14 1 15 2 16 3 17 89 18
REMARK SMILES IDX 4 19 90 20 5 24 6 25 12 26 7 27 10 29 8 31 11 33 9 35 91 37
REMARK SMILES IDX 92 38 98 39 93 40 96 42 94 44 97 46 95 48 20 50 21 53 22 56
REMARK SMILES IDX 23 59 24 60 25 62 26 63 27 64 88 65 28 66 87 68 29 70 30 73
REMARK SMILES IDX 31 74 81 75 32 76 86 77 80 78 82 79 33 80 85 81 79 83 78 85
REMARK SMILES IDX 34 87 66 90 46 91 65 92 47 93 50 94 64 95 83 96 48 97 49 99
REMARK SMILES IDX 63 101 84 102 51 105 35 107 36 108 44 109 37 110 38 111
REMARK SMILES IDX 42 112 45 113 39 114 40 115 43 116 41 117 67 118 68 119
REMARK SMILES IDX 76 120 69 121 70 122 74 123 77 124 71 125 72 126 75 127
REMARK SMILES IDX 73 128 52 129 53 130 61 131 54 132 55 133 59 134 62 135
REMARK SMILES IDX 56 136 57 137 60 138 58 139
REMARK H PARENT 19 2 19 3 18 5 18 6 17 8 17 9 16 13 4 21 13 22 90 23 6 28
REMARK H PARENT 12 30 7 32 11 34 9 36 92 41 98 43 93 45 97 47 95 49 20 51
REMARK H PARENT 20 52 21 54 21 55 22 57 22 58 23 61 27 67 88 69 28 71 87 72
REMARK H PARENT 86 82 80 84 82 86 85 88 79 89 47 98 50 100 83 103 48 104
REMARK H PARENT 84 106
REMARK Flexibility Score: inf
ROOT
ATOM      1  C   UNL A   1      32.216  28.824  26.643  1.00  0.00    -0.052 C 
ATOM      2  H   UNL A   1      33.232  28.575  26.418  1.00  0.00     0.027 H 
ATOM      3  H   UNL A   1      32.066  29.140  27.654  1.00  0.00     0.027 H 
ENDROOT
BRANCH   1   4
ATOM      4  C   UNL A   1      31.367  27.566  26.461  1.00  0.00    -0.036 C 
ATOM      5  H   UNL A   1      30.669  27.515  27.270  1.00  0.00     0.028 H 
ATOM      6  H   UNL A   1      30.894  27.653  25.506  1.00  0.00     0.028 H 
BRANCH   4   7
ATOM      7  C   UNL A   1      32.161  26.268  26.435  1.00  0.00     0.017 C 
ATOM      8  H   UNL A   1      32.454  26.070  25.426  1.00  0.00     0.049 H 
ATOM      9  H   UNL A   1      33.001  26.400  27.085  1.00  0.00     0.049 H 
BRANCH   7  10
ATOM     10  N   UNL A   1      31.420  25.127  26.927  1.00  0.00    -0.355 N 
ATOM     11  C   UNL A   1      31.685  23.789  26.840  1.00  0.00     0.231 C 
ATOM     12  O   UNL A   1      30.948  23.041  27.484  1.00  0.00    -0.274 OA
ATOM     13  H   UNL A   1      30.588  25.351  27.403  1.00  0.00     0.163 HD
BRANCH  11  14
ATOM     14  C   UNL A   1      32.783  23.269  25.904  1.00  0.00     0.111 C 
ATOM     15  O   UNL A   1      31.742  20.084  24.662  1.00  0.00    -0.247 OA
ATOM     16  C   UNL A   1      32.295  21.029  25.196  1.00  0.00     0.335 C 
ATOM     17  O   UNL A   1      33.134  20.949  26.258  1.00  0.00    -0.453 OA
ATOM     18  C   UNL A   1      32.195  22.447  24.806  1.00  0.00     0.054 C 
ATOM     19  C   UNL A   1      33.692  22.238  26.566  1.00  0.00     0.143 C 
ATOM     20  C   UNL A   1      31.661  22.783  23.622  1.00  0.00    -0.043 C 
ATOM     21  H   UNL A   1      33.715  22.428  27.619  1.00  0.00     0.081 H 
ATOM     22  H   UNL A   1      33.297  24.156  25.595  1.00  0.00     0.050 H 
ATOM     23  H   UNL A   1      31.322  22.022  23.014  1.00  0.00     0.063 H 
BRANCH  19  24
ATOM     24  C   UNL A   1      35.170  22.324  26.169  1.00  0.00    -0.002 A 
ATOM     25  C   UNL A   1      35.895  23.533  26.286  1.00  0.00    -0.051 A 
ATOM     26  C   UNL A   1      35.877  21.179  25.767  1.00  0.00    -0.009 A 
ATOM     27  C   UNL A   1      37.271  23.597  26.039  1.00  0.00    -0.016 A 
ATOM     28  H   UNL A   1      35.396  24.392  26.563  1.00  0.00     0.063 H 
ATOM     29  C   UNL A   1      37.240  21.255  25.500  1.00  0.00     0.157 A 
ATOM     30  H   UNL A   1      35.383  20.278  25.670  1.00  0.00     0.067 H 
ATOM     31  C   UNL A   1      37.938  22.449  25.647  1.00  0.00     0.157 A 
ATOM     32  H   UNL A   1      37.782  24.487  26.149  1.00  0.00     0.066 H 
BRANCH  29  33
ATOM     33  O   UNL A   1      37.902  20.130  25.100  1.00  0.00    -0.504 OA
ATOM     34  H   UNL A   1      38.336  20.112  24.269  1.00  0.00     0.293 HD
ENDBRANCH  29  33
BRANCH  31  35
ATOM     35  O   UNL A   1      39.280  22.443  25.397  1.00  0.00    -0.504 OA
ATOM     36  H   UNL A   1      39.858  22.956  25.927  1.00  0.00     0.293 HD
ENDBRANCH  31  35
ENDBRANCH  19  24
BRANCH  20  37
ATOM     37  C   UNL A   1      31.528  24.155  23.139  1.00  0.00    -0.021 A 
ATOM     38  C   UNL A   1      30.420  24.943  23.495  1.00  0.00    -0.051 A 
ATOM     39  C   UNL A   1      32.538  24.701  22.340  1.00  0.00    -0.009 A 
ATOM     40  C   UNL A   1      30.306  26.258  23.036  1.00  0.00    -0.016 A 
ATOM     41  H   UNL A   1      29.686  24.547  24.102  1.00  0.00     0.063 H 
ATOM     42  C   UNL A   1      32.421  26.010  21.896  1.00  0.00     0.157 A 
ATOM     43  H   UNL A   1      33.362  24.136  22.084  1.00  0.00     0.067 H 
ATOM     44  C   UNL A   1      31.312  26.783  22.234  1.00  0.00     0.157 A 
ATOM     45  H   UNL A   1      29.486  26.830  23.289  1.00  0.00     0.066 H 
BRANCH  42  46
ATOM     46  O   UNL A   1      33.410  26.543  21.121  1.00  0.00    -0.504 OA
ATOM     47  H   UNL A   1      33.222  26.828  20.249  1.00  0.00     0.293 HD
ENDBRANCH  42  46
BRANCH  44  48
ATOM     48  O   UNL A   1      31.260  28.062  21.756  1.00  0.00    -0.504 OA
ATOM     49  H   UNL A   1      31.295  28.219  20.832  1.00  0.00     0.293 HD
ENDBRANCH  44  48
ENDBRANCH  20  37
ENDBRANCH  11  14
ENDBRANCH   7  10
ENDBRANCH   4   7
ENDBRANCH   1   4
BRANCH   1  50
ATOM     50  C   UNL A   1      31.815  30.014  25.763  1.00  0.00    -0.052 C 
ATOM     51  H   UNL A   1      30.943  29.736  25.210  1.00  0.00     0.027 H 
ATOM     52  H   UNL A   1      32.665  30.225  25.148  1.00  0.00     0.027 H 
BRANCH  50  53
ATOM     53  C   UNL A   1      31.505  31.311  26.514  1.00  0.00    -0.036 C 
ATOM     54  H   UNL A   1      30.879  31.071  27.348  1.00  0.00     0.028 H 
ATOM     55  H   UNL A   1      31.036  31.964  25.809  1.00  0.00     0.028 H 
BRANCH  53  56
ATOM     56  C   UNL A   1      32.729  32.052  27.037  1.00  0.00     0.018 C 
ATOM     57  H   UNL A   1      33.500  32.009  26.296  1.00  0.00     0.049 H 
ATOM     58  H   UNL A   1      33.037  31.578  27.946  1.00  0.00     0.049 H 
BRANCH  56  59
ATOM     59  N   UNL A   1      32.443  33.445  27.335  1.00  0.00    -0.352 N 
ATOM     60  C   UNL A   1      33.007  34.264  28.279  1.00  0.00     0.251 C 
ATOM     61  H   UNL A   1      31.743  33.860  26.780  1.00  0.00     0.163 HD
ATOM     62  O   UNL A   1      32.515  35.359  28.527  1.00  0.00    -0.269 OA
BRANCH  60  63
ATOM     63  C   UNL A   1      34.208  33.812  29.012  1.00  0.00     0.039 A 
ATOM     64  C   UNL A   1      34.068  32.858  30.022  1.00  0.00    -0.049 A 
ATOM     65  C   UNL A   1      35.468  34.332  28.703  1.00  0.00    -0.049 A 
ATOM     66  C   UNL A   1      35.200  32.383  30.686  1.00  0.00    -0.053 A 
ATOM     67  H   UNL A   1      33.131  32.505  30.275  1.00  0.00     0.063 H 
ATOM     68  C   UNL A   1      36.602  33.799  29.308  1.00  0.00    -0.053 A 
ATOM     69  H   UNL A   1      35.558  35.108  28.029  1.00  0.00     0.063 H 
ATOM     70  C   UNL A   1      36.479  32.827  30.311  1.00  0.00    -0.014 A 
ATOM     71  H   UNL A   1      35.097  31.702  31.453  1.00  0.00     0.063 H 
ATOM     72  H   UNL A   1      37.538  34.122  29.018  1.00  0.00     0.063 H 
BRANCH  70  73
ATOM     73  C   UNL A   1      37.703  32.301  30.969  1.00  0.00     0.031 A 
ATOM     74  C   UNL A   1      38.518  31.236  30.291  1.00  0.00     0.074 A 
ATOM     75  C   UNL A   1      38.040  32.732  32.200  1.00  0.00     0.049 A 
ATOM     76  N   UNL A   1      39.562  30.582  30.735  1.00  0.00    -0.248 NA
ATOM     77  C   UNL A   1      38.087  30.829  28.944  1.00  0.00    -0.034 C 
ATOM     78  C   UNL A   1      37.307  33.735  32.975  1.00  0.00    -0.036 A 
ATOM     79  N   UNL A   1      39.079  32.372  33.021  1.00  0.00    -0.354 N 
ATOM     80  C   UNL A   1      39.899  29.682  29.732  1.00  0.00     0.074 A 
ATOM     81  C   UNL A   1      38.914  29.830  28.683  1.00  0.00    -0.034 C 
ATOM     82  H   UNL A   1      37.333  31.222  28.357  1.00  0.00     0.065 H 
ATOM     83  C   UNL A   1      37.931  33.925  34.148  1.00  0.00    -0.036 A 
ATOM     84  H   UNL A   1      36.448  34.218  32.669  1.00  0.00     0.065 H 
ATOM     85  C   UNL A   1      39.079  33.027  34.228  1.00  0.00     0.049 A 
ATOM     86  H   UNL A   1      39.760  31.707  32.768  1.00  0.00     0.167 HD
ATOM     87  C   UNL A   1      40.950  28.830  29.680  1.00  0.00     0.037 A 
ATOM     88  H   UNL A   1      38.864  29.235  27.842  1.00  0.00     0.065 H 
ATOM     89  H   UNL A   1      37.645  34.597  34.877  1.00  0.00     0.065 H 
ATOM     90  C   UNL A   1      39.906  32.906  35.284  1.00  0.00     0.037 A 
ATOM     91  C   UNL A   1      41.938  28.703  30.718  1.00  0.00     0.049 A 
ATOM     92  C   UNL A   1      41.051  31.931  35.212  1.00  0.00     0.074 A 
ATOM     93  C   UNL A   1      43.068  27.904  30.741  1.00  0.00    -0.036 A 
ATOM     94  N   UNL A   1      41.912  29.393  31.922  1.00  0.00    -0.354 N 
ATOM     95  N   UNL A   1      41.396  31.129  34.234  1.00  0.00    -0.248 NA
ATOM     96  C   UNL A   1      41.928  31.850  36.388  1.00  0.00    -0.034 C 
ATOM     97  C   UNL A   1      43.694  28.067  31.980  1.00  0.00    -0.036 A 
ATOM     98  H   UNL A   1      43.393  27.294  29.974  1.00  0.00     0.065 H 
ATOM     99  C   UNL A   1      42.992  29.017  32.704  1.00  0.00     0.049 A 
ATOM    100  H   UNL A   1      41.228  30.051  32.182  1.00  0.00     0.167 HD
ATOM    101  C   UNL A   1      42.546  30.478  34.659  1.00  0.00     0.074 A 
ATOM    102  C   UNL A   1      42.848  30.987  35.981  1.00  0.00    -0.034 C 
ATOM    103  H   UNL A   1      41.849  32.339  37.294  1.00  0.00     0.065 H 
ATOM    104  H   UNL A   1      44.535  27.564  32.302  1.00  0.00     0.065 H 
ATOM    105  C   UNL A   1      43.288  29.545  34.013  1.00  0.00     0.037 A 
ATOM    106  H   UNL A   1      43.673  30.712  36.536  1.00  0.00     0.065 H 
BRANCH  87 107
ATOM    107  C   UNL A   1      41.083  27.964  28.459  1.00  0.00     0.064 A 
ATOM    108  C   UNL A   1      40.514  26.682  28.396  1.00  0.00     0.173 A 
ATOM    109  C   UNL A   1      41.758  28.436  27.322  1.00  0.00     0.173 A 
ATOM    110  F   UNL A   1      39.869  26.177  29.459  1.00  0.00    -0.203 F 
ATOM    111  C   UNL A   1      40.647  25.893  27.257  1.00  0.00     0.198 A 
ATOM    112  C   UNL A   1      41.856  27.658  26.171  1.00  0.00     0.198 A 
ATOM    113  F   UNL A   1      42.316  29.655  27.324  1.00  0.00    -0.203 F 
ATOM    114  F   UNL A   1      40.145  24.650  27.243  1.00  0.00    -0.200 F 
ATOM    115  C   UNL A   1      41.309  26.385  26.143  1.00  0.00     0.200 A 
ATOM    116  F   UNL A   1      42.485  28.140  25.091  1.00  0.00    -0.200 F 
ATOM    117  F   UNL A   1      41.430  25.627  25.044  1.00  0.00    -0.200 F 
ENDBRANCH  87 107
BRANCH  90 118
ATOM    118  C   UNL A   1      39.694  33.741  36.497  1.00  0.00     0.064 A 
ATOM    119  C   UNL A   1      38.898  33.284  37.557  1.00  0.00     0.173 A 
ATOM    120  C   UNL A   1      40.268  35.016  36.618  1.00  0.00     0.173 A 
ATOM    121  F   UNL A   1      38.311  32.081  37.481  1.00  0.00    -0.203 F 
ATOM    122  C   UNL A   1      38.662  34.079  38.677  1.00  0.00     0.198 A 
ATOM    123  C   UNL A   1      40.058  35.796  37.752  1.00  0.00     0.198 A 
ATOM    124  F   UNL A   1      41.043  35.499  35.635  1.00  0.00    -0.203 F 
ATOM    125  F   UNL A   1      37.852  33.639  39.649  1.00  0.00    -0.200 F 
ATOM    126  C   UNL A   1      39.246  35.332  38.776  1.00  0.00     0.200 A 
ATOM    127  F   UNL A   1      40.639  37.000  37.850  1.00  0.00    -0.200 F 
ATOM    128  F   UNL A   1      39.021  36.097  39.853  1.00  0.00    -0.200 F 
ENDBRANCH  90 118
BRANCH 105 129
ATOM    129  C   UNL A   1      44.529  29.049  34.699  1.00  0.00     0.064 A 
ATOM    130  C   UNL A   1      44.520  27.910  35.519  1.00  0.00     0.173 A 
ATOM    131  C   UNL A   1      45.756  29.699  34.494  1.00  0.00     0.173 A 
ATOM    132  F   UNL A   1      43.370  27.260  35.758  1.00  0.00    -0.203 F 
ATOM    133  C   UNL A   1      45.687  27.458  36.127  1.00  0.00     0.198 A 
ATOM    134  C   UNL A   1      46.927  29.222  35.076  1.00  0.00     0.198 A 
ATOM    135  F   UNL A   1      45.823  30.787  33.713  1.00  0.00    -0.203 F 
ATOM    136  F   UNL A   1      45.644  26.398  36.947  1.00  0.00    -0.200 F 
ATOM    137  C   UNL A   1      46.890  28.107  35.898  1.00  0.00     0.200 A 
ATOM    138  F   UNL A   1      48.092  29.842  34.838  1.00  0.00    -0.200 F 
ATOM    139  F   UNL A   1      48.015  27.662  36.476  1.00  0.00    -0.200 F 
ENDBRANCH 105 129
ENDBRANCH  70  73
ENDBRANCH  60  63
ENDBRANCH  56  59
ENDBRANCH  53  56
ENDBRANCH  50  53
ENDBRANCH   1  50
TORSDOF 19
ENDMDL
MODEL 8
REMARK VINA RESULT:     -13.1      1.495      4.224
REMARK SMILES O=C1O[C@@H](c2ccc(O)c(O)c2)[C@H](C(=O)NCCCCCCNC(=O)c2ccc(-c3c4nc(c(-c5c(F)c(F)c(F)c(F)c5F)c5ccc([nH]5)c(-c5c(F)c(F)c(F)c(F)c5F)c5nc(c(-c6c(F)c(F)c(F)c(F)c6F)c6ccc3[nH]6)C=C5)C=C4)cc2)/C1=C\c1ccc(O)c(O)c1
REMARK SMILES IDX 19 1 18 4 17 7 16 10 14 11 15 12 13 14 1 15 2 16 3 17 89 18
REMARK SMILES IDX 4 19 90 20 5 24 6 25 12 26 7 27 10 29 8 31 11 33 9 35 91 37
REMARK SMILES IDX 92 38 98 39 93 40 96 42 94 44 97 46 95 48 20 50 21 53 22 56
REMARK SMILES IDX 23 59 24 60 25 62 26 63 27 64 88 65 28 66 87 68 29 70 30 73
REMARK SMILES IDX 31 74 81 75 32 76 86 77 80 78 82 79 33 80 85 81 79 83 78 85
REMARK SMILES IDX 34 87 66 90 46 91 65 92 47 93 50 94 64 95 83 96 48 97 49 99
REMARK SMILES IDX 63 101 84 102 51 105 35 107 36 108 44 109 37 110 38 111
REMARK SMILES IDX 42 112 45 113 39 114 40 115 43 116 41 117 67 118 68 119
REMARK SMILES IDX 76 120 69 121 70 122 74 123 77 124 71 125 72 126 75 127
REMARK SMILES IDX 73 128 52 129 53 130 61 131 54 132 55 133 59 134 62 135
REMARK SMILES IDX 56 136 57 137 60 138 58 139
REMARK H PARENT 19 2 19 3 18 5 18 6 17 8 17 9 16 13 4 21 13 22 90 23 6 28
REMARK H PARENT 12 30 7 32 11 34 9 36 92 41 98 43 93 45 97 47 95 49 20 51
REMARK H PARENT 20 52 21 54 21 55 22 57 22 58 23 61 27 67 88 69 28 71 87 72
REMARK H PARENT 86 82 80 84 82 86 85 88 79 89 47 98 50 100 83 103 48 104
REMARK H PARENT 84 106
REMARK Flexibility Score: inf
ROOT
ATOM      1  C   UNL A   1      32.504  29.381  26.562  1.00  0.00    -0.052 C 
ATOM      2  H   UNL A   1      33.314  29.040  25.952  1.00  0.00     0.027 H 
ATOM      3  H   UNL A   1      32.821  29.870  27.459  1.00  0.00     0.027 H 
ENDROOT
BRANCH   1   4
ATOM      4  C   UNL A   1      31.698  28.160  27.007  1.00  0.00    -0.036 C 
ATOM      5  H   UNL A   1      31.709  28.125  28.076  1.00  0.00     0.028 H 
ATOM      6  H   UNL A   1      30.715  28.280  26.603  1.00  0.00     0.028 H 
BRANCH   4   7
ATOM      7  C   UNL A   1      32.224  26.832  26.482  1.00  0.00     0.017 C 
ATOM      8  H   UNL A   1      32.252  26.878  25.414  1.00  0.00     0.049 H 
ATOM      9  H   UNL A   1      33.195  26.687  26.908  1.00  0.00     0.049 H 
BRANCH   7  10
ATOM     10  N   UNL A   1      31.416  25.696  26.869  1.00  0.00    -0.355 N 
ATOM     11  C   UNL A   1      31.614  24.357  26.679  1.00  0.00     0.231 C 
ATOM     12  O   UNL A   1      30.829  23.601  27.250  1.00  0.00    -0.274 OA
ATOM     13  H   UNL A   1      30.588  25.925  27.349  1.00  0.00     0.163 HD
BRANCH  11  14
ATOM     14  C   UNL A   1      32.703  23.857  25.722  1.00  0.00     0.111 C 
ATOM     15  O   UNL A   1      31.402  21.022  23.978  1.00  0.00    -0.247 OA
ATOM     16  C   UNL A   1      32.021  21.812  24.669  1.00  0.00     0.335 C 
ATOM     17  O   UNL A   1      32.785  21.485  25.740  1.00  0.00    -0.453 OA
ATOM     18  C   UNL A   1      32.094  23.272  24.490  1.00  0.00     0.054 C 
ATOM     19  C   UNL A   1      33.459  22.644  26.259  1.00  0.00     0.143 C 
ATOM     20  C   UNL A   1      31.667  23.833  23.350  1.00  0.00    -0.043 C 
ATOM     21  H   UNL A   1      33.442  22.677  27.329  1.00  0.00     0.081 H 
ATOM     22  H   UNL A   1      33.325  24.715  25.569  1.00  0.00     0.050 H 
ATOM     23  H   UNL A   1      31.284  23.211  22.621  1.00  0.00     0.063 H 
BRANCH  19  24
ATOM     24  C   UNL A   1      34.958  22.619  25.940  1.00  0.00    -0.002 A 
ATOM     25  C   UNL A   1      35.764  23.769  26.099  1.00  0.00    -0.051 A 
ATOM     26  C   UNL A   1      35.596  21.424  25.570  1.00  0.00    -0.009 A 
ATOM     27  C   UNL A   1      37.152  23.729  25.925  1.00  0.00    -0.016 A 
ATOM     28  H   UNL A   1      35.317  24.664  26.353  1.00  0.00     0.063 H 
ATOM     29  C   UNL A   1      36.972  21.397  25.374  1.00  0.00     0.157 A 
ATOM     30  H   UNL A   1      35.041  20.563  25.443  1.00  0.00     0.067 H 
ATOM     31  C   UNL A   1      37.750  22.535  25.562  1.00  0.00     0.157 A 
ATOM     32  H   UNL A   1      37.723  24.578  26.064  1.00  0.00     0.066 H 
BRANCH  29  33
ATOM     33  O   UNL A   1      37.568  20.226  25.004  1.00  0.00    -0.504 OA
ATOM     34  H   UNL A   1      37.791  19.588  25.653  1.00  0.00     0.293 HD
ENDBRANCH  29  33
BRANCH  31  35
ATOM     35  O   UNL A   1      39.099  22.428  25.382  1.00  0.00    -0.504 OA
ATOM     36  H   UNL A   1      39.621  21.972  26.012  1.00  0.00     0.293 HD
ENDBRANCH  31  35
ENDBRANCH  19  24
BRANCH  20  37
ATOM     37  C   UNL A   1      31.707  25.267  23.071  1.00  0.00    -0.021 A 
ATOM     38  C   UNL A   1      30.642  26.105  23.439  1.00  0.00    -0.051 A 
ATOM     39  C   UNL A   1      32.841  25.814  22.462  1.00  0.00    -0.009 A 
ATOM     40  C   UNL A   1      30.694  27.477  23.177  1.00  0.00    -0.016 A 
ATOM     41  H   UNL A   1      29.815  25.704  23.907  1.00  0.00     0.063 H 
ATOM     42  C   UNL A   1      32.888  27.179  22.214  1.00  0.00     0.157 A 
ATOM     43  H   UNL A   1      33.635  25.210  22.200  1.00  0.00     0.067 H 
ATOM     44  C   UNL A   1      31.822  28.005  22.562  1.00  0.00     0.157 A 
ATOM     45  H   UNL A   1      29.905  28.089  23.437  1.00  0.00     0.066 H 
BRANCH  42  46
ATOM     46  O   UNL A   1      33.998  27.712  21.626  1.00  0.00    -0.504 OA
ATOM     47  H   UNL A   1      34.274  28.581  21.843  1.00  0.00     0.293 HD
ENDBRANCH  42  46
BRANCH  44  48
ATOM     48  O   UNL A   1      31.935  29.338  22.282  1.00  0.00    -0.504 OA
ATOM     49  H   UNL A   1      32.464  29.623  21.562  1.00  0.00     0.293 HD
ENDBRANCH  44  48
ENDBRANCH  20  37
ENDBRANCH  11  14
ENDBRANCH   7  10
ENDBRANCH   4   7
ENDBRANCH   1   4
BRANCH   1  50
ATOM     50  C   UNL A   1      31.717  30.427  25.764  1.00  0.00    -0.052 C 
ATOM     51  H   UNL A   1      30.781  29.991  25.483  1.00  0.00     0.027 H 
ATOM     52  H   UNL A   1      32.336  30.689  24.932  1.00  0.00     0.027 H 
BRANCH  50  53
ATOM     53  C   UNL A   1      31.426  31.735  26.503  1.00  0.00    -0.036 C 
ATOM     54  H   UNL A   1      30.730  31.526  27.288  1.00  0.00     0.028 H 
ATOM     55  H   UNL A   1      31.046  32.417  25.773  1.00  0.00     0.028 H 
BRANCH  53  56
ATOM     56  C   UNL A   1      32.649  32.403  27.120  1.00  0.00     0.018 C 
ATOM     57  H   UNL A   1      33.460  32.344  26.424  1.00  0.00     0.049 H 
ATOM     58  H   UNL A   1      32.879  31.891  28.031  1.00  0.00     0.049 H 
BRANCH  56  59
ATOM     59  N   UNL A   1      32.409  33.799  27.441  1.00  0.00    -0.352 N 
ATOM     60  C   UNL A   1      32.986  34.578  28.411  1.00  0.00     0.251 C 
ATOM     61  H   UNL A   1      31.734  34.251  26.883  1.00  0.00     0.163 HD
ATOM     62  O   UNL A   1      32.530  35.685  28.673  1.00  0.00    -0.269 OA
BRANCH  60  63
ATOM     63  C   UNL A   1      34.157  34.068  29.155  1.00  0.00     0.039 A 
ATOM     64  C   UNL A   1      33.950  33.244  30.264  1.00  0.00    -0.049 A 
ATOM     65  C   UNL A   1      35.454  34.404  28.758  1.00  0.00    -0.049 A 
ATOM     66  C   UNL A   1      35.047  32.712  30.943  1.00  0.00    -0.053 A 
ATOM     67  H   UNL A   1      32.990  33.031  30.579  1.00  0.00     0.063 H 
ATOM     68  C   UNL A   1      36.544  33.808  29.384  1.00  0.00    -0.053 A 
ATOM     69  H   UNL A   1      35.604  35.090  28.002  1.00  0.00     0.063 H 
ATOM     70  C   UNL A   1      36.353  32.964  30.488  1.00  0.00    -0.014 A 
ATOM     71  H   UNL A   1      34.899  32.130  31.781  1.00  0.00     0.063 H 
ATOM     72  H   UNL A   1      37.498  33.988  29.036  1.00  0.00     0.063 H 
BRANCH  70  73
ATOM     73  C   UNL A   1      37.534  32.370  31.164  1.00  0.00     0.031 A 
ATOM     74  C   UNL A   1      38.281  31.240  30.512  1.00  0.00     0.074 A 
ATOM     75  C   UNL A   1      37.892  32.800  32.389  1.00  0.00     0.049 A 
ATOM     76  N   UNL A   1      39.276  30.527  30.975  1.00  0.00    -0.248 NA
ATOM     77  C   UNL A   1      37.831  30.838  29.169  1.00  0.00    -0.034 C 
ATOM     78  C   UNL A   1      37.223  33.864  33.140  1.00  0.00    -0.036 A 
ATOM     79  N   UNL A   1      38.900  32.387  33.224  1.00  0.00    -0.354 N 
ATOM     80  C   UNL A   1      39.557  29.588  29.991  1.00  0.00     0.074 A 
ATOM     81  C   UNL A   1      38.591  29.781  28.932  1.00  0.00    -0.034 C 
ATOM     82  H   UNL A   1      37.109  31.270  28.570  1.00  0.00     0.065 H 
ATOM     83  C   UNL A   1      37.852  34.034  34.314  1.00  0.00    -0.036 A 
ATOM     84  H   UNL A   1      36.400  34.398  32.820  1.00  0.00     0.065 H 
ATOM     85  C   UNL A   1      38.937  33.063  34.419  1.00  0.00     0.049 A 
ATOM     86  H   UNL A   1      39.537  31.674  32.988  1.00  0.00     0.167 HD
ATOM     87  C   UNL A   1      40.550  28.666  29.961  1.00  0.00     0.037 A 
ATOM     88  H   UNL A   1      38.506  29.175  28.102  1.00  0.00     0.065 H 
ATOM     89  H   UNL A   1      37.607  34.737  35.029  1.00  0.00     0.065 H 
ATOM     90  C   UNL A   1      39.748  32.907  35.483  1.00  0.00     0.037 A 
ATOM     91  C   UNL A   1      41.521  28.493  31.009  1.00  0.00     0.049 A 
ATOM     92  C   UNL A   1      40.826  31.856  35.436  1.00  0.00     0.074 A 
ATOM     93  C   UNL A   1      42.595  27.621  31.054  1.00  0.00    -0.036 A 
ATOM     94  N   UNL A   1      41.534  29.205  32.199  1.00  0.00    -0.354 N 
ATOM     95  N   UNL A   1      41.121  31.015  34.476  1.00  0.00    -0.248 NA
ATOM     96  C   UNL A   1      41.688  31.739  36.620  1.00  0.00    -0.034 C 
ATOM     97  C   UNL A   1      43.222  27.765  32.295  1.00  0.00    -0.036 A 
ATOM     98  H   UNL A   1      42.882  26.976  30.301  1.00  0.00     0.065 H 
ATOM     99  C   UNL A   1      42.582  28.773  32.997  1.00  0.00     0.049 A 
ATOM    100  H   UNL A   1      40.893  29.913  32.443  1.00  0.00     0.167 HD
ATOM    101  C   UNL A   1      42.223  30.297  34.921  1.00  0.00     0.074 A 
ATOM    102  C   UNL A   1      42.550  30.809  36.236  1.00  0.00    -0.034 C 
ATOM    103  H   UNL A   1      41.636  32.249  37.516  1.00  0.00     0.065 H 
ATOM    104  H   UNL A   1      44.026  27.212  32.631  1.00  0.00     0.065 H 
ATOM    105  C   UNL A   1      42.905  29.305  34.297  1.00  0.00     0.037 A 
ATOM    106  H   UNL A   1      43.352  30.490  36.801  1.00  0.00     0.065 H 
BRANCH  87 107
ATOM    107  C   UNL A   1      40.631  27.771  28.758  1.00  0.00     0.064 A 
ATOM    108  C   UNL A   1      41.370  28.129  27.619  1.00  0.00     0.173 A 
ATOM    109  C   UNL A   1      39.991  26.521  28.755  1.00  0.00     0.173 A 
ATOM    110  F   UNL A   1      41.991  29.317  27.563  1.00  0.00    -0.203 F 
ATOM    111  C   UNL A   1      41.435  27.287  26.511  1.00  0.00     0.198 A 
ATOM    112  C   UNL A   1      40.089  25.666  27.660  1.00  0.00     0.198 A 
ATOM    113  F   UNL A   1      39.275  26.125  29.818  1.00  0.00    -0.203 F 
ATOM    114  F   UNL A   1      42.098  27.677  25.414  1.00  0.00    -0.200 F 
ATOM    115  C   UNL A   1      40.802  26.054  26.537  1.00  0.00     0.200 A 
ATOM    116  F   UNL A   1      39.488  24.469  27.692  1.00  0.00    -0.200 F 
ATOM    117  F   UNL A   1      40.872  25.241  25.473  1.00  0.00    -0.200 F 
ENDBRANCH  87 107
BRANCH  90 118
ATOM    118  C   UNL A   1      39.585  33.777  36.679  1.00  0.00     0.064 A 
ATOM    119  C   UNL A   1      38.785  33.376  37.758  1.00  0.00     0.173 A 
ATOM    120  C   UNL A   1      40.211  35.030  36.763  1.00  0.00     0.173 A 
ATOM    121  F   UNL A   1      38.149  32.196  37.717  1.00  0.00    -0.203 F 
ATOM    122  C   UNL A   1      38.595  34.205  38.862  1.00  0.00     0.198 A 
ATOM    123  C   UNL A   1      40.047  35.843  37.882  1.00  0.00     0.198 A 
ATOM    124  F   UNL A   1      40.993  35.459  35.761  1.00  0.00    -0.203 F 
ATOM    125  F   UNL A   1      37.781  33.819  39.854  1.00  0.00    -0.200 F 
ATOM    126  C   UNL A   1      39.230  35.435  38.926  1.00  0.00     0.200 A 
ATOM    127  F   UNL A   1      40.677  37.024  37.946  1.00  0.00    -0.200 F 
ATOM    128  F   UNL A   1      39.049  36.232  39.988  1.00  0.00    -0.200 F 
ENDBRANCH  90 118
BRANCH 105 129
ATOM    129  C   UNL A   1      44.105  28.740  35.002  1.00  0.00     0.064 A 
ATOM    130  C   UNL A   1      44.016  27.616  35.838  1.00  0.00     0.173 A 
ATOM    131  C   UNL A   1      45.374  29.305  34.797  1.00  0.00     0.173 A 
ATOM    132  F   UNL A   1      42.825  27.046  36.077  1.00  0.00    -0.203 F 
ATOM    133  C   UNL A   1      45.147  27.098  36.463  1.00  0.00     0.198 A 
ATOM    134  C   UNL A   1      46.507  28.762  35.395  1.00  0.00     0.198 A 
ATOM    135  F   UNL A   1      45.517  30.375  34.000  1.00  0.00    -0.203 F 
ATOM    136  F   UNL A   1      45.029  26.056  37.297  1.00  0.00    -0.200 F 
ATOM    137  C   UNL A   1      46.391  27.665  36.234  1.00  0.00     0.200 A 
ATOM    138  F   UNL A   1      47.711  29.301  35.158  1.00  0.00    -0.200 F 
ATOM    139  F   UNL A   1      47.480  27.157  36.827  1.00  0.00    -0.200 F 
ENDBRANCH 105 129
ENDBRANCH  70  73
ENDBRANCH  60  63
ENDBRANCH  56  59
ENDBRANCH  53  56
ENDBRANCH  50  53
ENDBRANCH   1  50
TORSDOF 19
ENDMDL
MODEL 9
REMARK VINA RESULT:     -13.1      3.864      9.209
REMARK SMILES O=C1O[C@@H](c2ccc(O)c(O)c2)[C@H](C(=O)NCCCCCCNC(=O)c2ccc(-c3c4nc(c(-c5c(F)c(F)c(F)c(F)c5F)c5ccc([nH]5)c(-c5c(F)c(F)c(F)c(F)c5F)c5nc(c(-c6c(F)c(F)c(F)c(F)c6F)c6ccc3[nH]6)C=C5)C=C4)cc2)/C1=C\c1ccc(O)c(O)c1
REMARK SMILES IDX 19 1 18 4 17 7 16 10 14 11 15 12 13 14 1 15 2 16 3 17 89 18
REMARK SMILES IDX 4 19 90 20 5 24 6 25 12 26 7 27 10 29 8 31 11 33 9 35 91 37
REMARK SMILES IDX 92 38 98 39 93 40 96 42 94 44 97 46 95 48 20 50 21 53 22 56
REMARK SMILES IDX 23 59 24 60 25 62 26 63 27 64 88 65 28 66 87 68 29 70 30 73
REMARK SMILES IDX 31 74 81 75 32 76 86 77 80 78 82 79 33 80 85 81 79 83 78 85
REMARK SMILES IDX 34 87 66 90 46 91 65 92 47 93 50 94 64 95 83 96 48 97 49 99
REMARK SMILES IDX 63 101 84 102 51 105 35 107 36 108 44 109 37 110 38 111
REMARK SMILES IDX 42 112 45 113 39 114 40 115 43 116 41 117 67 118 68 119
REMARK SMILES IDX 76 120 69 121 70 122 74 123 77 124 71 125 72 126 75 127
REMARK SMILES IDX 73 128 52 129 53 130 61 131 54 132 55 133 59 134 62 135
REMARK SMILES IDX 56 136 57 137 60 138 58 139
REMARK H PARENT 19 2 19 3 18 5 18 6 17 8 17 9 16 13 4 21 13 22 90 23 6 28
REMARK H PARENT 12 30 7 32 11 34 9 36 92 41 98 43 93 45 97 47 95 49 20 51
REMARK H PARENT 20 52 21 54 21 55 22 57 22 58 23 61 27 67 88 69 28 71 87 72
REMARK H PARENT 86 82 80 84 82 86 85 88 79 89 47 98 50 100 83 103 48 104
REMARK H PARENT 84 106
REMARK Flexibility Score: inf
ROOT
ATOM      1  C   UNL A   1      31.585  27.698  25.499  1.00  0.00    -0.052 C 
ATOM      2  H   UNL A   1      31.532  28.625  26.029  1.00  0.00     0.027 H 
ATOM      3  H   UNL A   1      31.017  27.690  24.593  1.00  0.00     0.027 H 
ENDROOT
BRANCH   1   4
ATOM      4  C   UNL A   1      30.982  26.608  26.386  1.00  0.00    -0.036 C 
ATOM      5  H   UNL A   1      30.780  27.035  27.346  1.00  0.00     0.028 H 
ATOM      6  H   UNL A   1      30.101  26.262  25.888  1.00  0.00     0.028 H 
BRANCH   4   7
ATOM      7  C   UNL A   1      31.875  25.391  26.585  1.00  0.00     0.017 C 
ATOM      8  H   UNL A   1      32.601  25.373  25.801  1.00  0.00     0.049 H 
ATOM      9  H   UNL A   1      32.323  25.485  27.552  1.00  0.00     0.049 H 
BRANCH   7  10
ATOM     10  N   UNL A   1      31.154  24.137  26.572  1.00  0.00    -0.355 N 
ATOM     11  C   UNL A   1      31.540  22.893  26.159  1.00  0.00     0.231 C 
ATOM     12  O   UNL A   1      30.764  21.969  26.401  1.00  0.00    -0.274 OA
ATOM     13  H   UNL A   1      30.233  24.188  26.916  1.00  0.00     0.163 HD
BRANCH  11  14
ATOM     14  C   UNL A   1      32.831  22.704  25.352  1.00  0.00     0.111 C 
ATOM     15  O   UNL A   1      32.527  19.658  23.507  1.00  0.00    -0.247 OA
ATOM     16  C   UNL A   1      32.832  20.569  24.256  1.00  0.00     0.335 C 
ATOM     17  O   UNL A   1      33.515  20.432  25.418  1.00  0.00    -0.453 OA
ATOM     18  C   UNL A   1      32.550  22.003  24.064  1.00  0.00     0.054 C 
ATOM     19  C   UNL A   1      33.799  21.717  25.999  1.00  0.00     0.143 C 
ATOM     20  C   UNL A   1      32.139  22.454  22.870  1.00  0.00    -0.043 C 
ATOM     21  H   UNL A   1      33.642  21.727  27.057  1.00  0.00     0.081 H 
ATOM     22  H   UNL A   1      33.226  23.695  25.264  1.00  0.00     0.050 H 
ATOM     23  H   UNL A   1      32.021  21.766  22.110  1.00  0.00     0.063 H 
BRANCH  19  24
ATOM     24  C   UNL A   1      35.283  22.082  25.868  1.00  0.00    -0.002 A 
ATOM     25  C   UNL A   1      35.745  23.391  26.135  1.00  0.00    -0.051 A 
ATOM     26  C   UNL A   1      36.243  21.101  25.572  1.00  0.00    -0.009 A 
ATOM     27  C   UNL A   1      37.108  23.708  26.134  1.00  0.00    -0.016 A 
ATOM     28  H   UNL A   1      35.059  24.134  26.338  1.00  0.00     0.063 H 
ATOM     29  C   UNL A   1      37.594  21.428  25.549  1.00  0.00     0.157 A 
ATOM     30  H   UNL A   1      35.944  20.133  25.371  1.00  0.00     0.067 H 
ATOM     31  C   UNL A   1      38.029  22.717  25.840  1.00  0.00     0.157 A 
ATOM     32  H   UNL A   1      37.423  24.667  26.350  1.00  0.00     0.066 H 
BRANCH  29  33
ATOM     33  O   UNL A   1      38.508  20.460  25.248  1.00  0.00    -0.504 OA
ATOM     34  H   UNL A   1      38.533  19.667  25.747  1.00  0.00     0.293 HD
ENDBRANCH  29  33
BRANCH  31  35
ATOM     35  O   UNL A   1      39.373  22.960  25.829  1.00  0.00    -0.504 OA
ATOM     36  H   UNL A   1      39.849  22.997  26.635  1.00  0.00     0.293 HD
ENDBRANCH  31  35
ENDBRANCH  19  24
BRANCH  20  37
ATOM     37  C   UNL A   1      31.844  23.854  22.575  1.00  0.00    -0.021 A 
ATOM     38  C   UNL A   1      30.671  24.462  23.052  1.00  0.00    -0.051 A 
ATOM     39  C   UNL A   1      32.765  24.607  21.840  1.00  0.00    -0.009 A 
ATOM     40  C   UNL A   1      30.403  25.806  22.773  1.00  0.00    -0.016 A 
ATOM     41  H   UNL A   1      30.002  23.913  23.612  1.00  0.00     0.063 H 
ATOM     42  C   UNL A   1      32.495  25.942  21.575  1.00  0.00     0.157 A 
ATOM     43  H   UNL A   1      33.637  24.174  21.497  1.00  0.00     0.067 H 
ATOM     44  C   UNL A   1      31.322  26.538  22.031  1.00  0.00     0.157 A 
ATOM     45  H   UNL A   1      29.534  26.246  23.113  1.00  0.00     0.066 H 
BRANCH  42  46
ATOM     46  O   UNL A   1      33.398  26.677  20.862  1.00  0.00    -0.504 OA
ATOM     47  H   UNL A   1      33.379  26.664  19.926  1.00  0.00     0.293 HD
ENDBRANCH  42  46
BRANCH  44  48
ATOM     48  O   UNL A   1      31.119  27.855  21.728  1.00  0.00    -0.504 OA
ATOM     49  H   UNL A   1      30.332  28.120  21.292  1.00  0.00     0.293 HD
ENDBRANCH  44  48
ENDBRANCH  20  37
ENDBRANCH  11  14
ENDBRANCH   7  10
ENDBRANCH   4   7
ENDBRANCH   1   4
BRANCH   1  50
ATOM     50  C   UNL A   1      33.044  27.470  25.088  1.00  0.00    -0.052 C 
ATOM     51  H   UNL A   1      33.106  27.560  24.025  1.00  0.00     0.027 H 
ATOM     52  H   UNL A   1      33.304  26.498  25.453  1.00  0.00     0.027 H 
BRANCH  50  53
ATOM     53  C   UNL A   1      34.058  28.436  25.704  1.00  0.00    -0.036 C 
ATOM     54  H   UNL A   1      33.899  29.403  25.276  1.00  0.00     0.028 H 
ATOM     55  H   UNL A   1      35.027  28.036  25.491  1.00  0.00     0.028 H 
BRANCH  53  56
ATOM     56  C   UNL A   1      33.972  28.569  27.220  1.00  0.00     0.018 C 
ATOM     57  H   UNL A   1      34.849  28.135  27.653  1.00  0.00     0.049 H 
ATOM     58  H   UNL A   1      33.087  28.063  27.545  1.00  0.00     0.049 H 
BRANCH  56  59
ATOM     59  N   UNL A   1      33.877  29.955  27.646  1.00  0.00    -0.352 N 
ATOM     60  C   UNL A   1      34.778  30.709  28.352  1.00  0.00     0.251 C 
ATOM     61  H   UNL A   1      33.046  30.419  27.391  1.00  0.00     0.163 HD
ATOM     62  O   UNL A   1      34.459  31.806  28.796  1.00  0.00    -0.269 OA
BRANCH  60  63
ATOM     63  C   UNL A   1      36.138  30.184  28.594  1.00  0.00     0.039 A 
ATOM     64  C   UNL A   1      37.098  30.297  27.587  1.00  0.00    -0.049 A 
ATOM     65  C   UNL A   1      36.462  29.580  29.812  1.00  0.00    -0.049 A 
ATOM     66  C   UNL A   1      38.401  29.855  27.821  1.00  0.00    -0.053 A 
ATOM     67  H   UNL A   1      36.845  30.707  26.673  1.00  0.00     0.063 H 
ATOM     68  C   UNL A   1      37.778  29.215  30.074  1.00  0.00    -0.053 A 
ATOM     69  H   UNL A   1      35.727  29.407  30.516  1.00  0.00     0.063 H 
ATOM     70  C   UNL A   1      38.759  29.339  29.078  1.00  0.00    -0.014 A 
ATOM     71  H   UNL A   1      39.105  29.908  27.069  1.00  0.00     0.063 H 
ATOM     72  H   UNL A   1      38.035  28.849  31.004  1.00  0.00     0.063 H 
BRANCH  70  73
ATOM     73  C   UNL A   1      40.150  28.906  29.369  1.00  0.00     0.031 A 
ATOM     74  C   UNL A   1      41.073  29.814  30.133  1.00  0.00     0.074 A 
ATOM     75  C   UNL A   1      40.600  27.731  28.889  1.00  0.00     0.049 A 
ATOM     76  N   UNL A   1      42.343  29.664  30.408  1.00  0.00    -0.248 NA
ATOM     77  C   UNL A   1      40.498  31.074  30.630  1.00  0.00    -0.034 C 
ATOM     78  C   UNL A   1      39.811  26.781  28.102  1.00  0.00    -0.036 A 
ATOM     79  N   UNL A   1      41.835  27.140  28.981  1.00  0.00    -0.354 N 
ATOM     80  C   UNL A   1      42.719  30.812  31.094  1.00  0.00     0.074 A 
ATOM     81  C   UNL A   1      41.561  31.676  31.140  1.00  0.00    -0.034 C 
ATOM     82  H   UNL A   1      39.519  31.403  30.590  1.00  0.00     0.065 H 
ATOM     83  C   UNL A   1      40.575  25.718  27.803  1.00  0.00    -0.036 A 
ATOM     84  H   UNL A   1      38.826  26.908  27.822  1.00  0.00     0.065 H 
ATOM     85  C   UNL A   1      41.917  25.931  28.335  1.00  0.00     0.049 A 
ATOM     86  H   UNL A   1      42.591  27.546  29.465  1.00  0.00     0.167 HD
ATOM     87  C   UNL A   1      43.916  31.105  31.657  1.00  0.00     0.037 A 
ATOM     88  H   UNL A   1      41.563  32.635  31.520  1.00  0.00     0.065 H 
ATOM     89  H   UNL A   1      40.263  24.885  27.280  1.00  0.00     0.065 H 
ATOM     90  C   UNL A   1      42.962  25.096  28.180  1.00  0.00     0.037 A 
ATOM     91  C   UNL A   1      45.059  30.232  31.626  1.00  0.00     0.049 A 
ATOM     92  C   UNL A   1      44.289  25.459  28.793  1.00  0.00     0.074 A 
ATOM     93  C   UNL A   1      46.301  30.415  32.208  1.00  0.00    -0.036 A 
ATOM     94  N   UNL A   1      45.100  29.008  30.973  1.00  0.00    -0.354 N 
ATOM     95  N   UNL A   1      44.617  26.518  29.492  1.00  0.00    -0.248 NA
ATOM     96  C   UNL A   1      45.390  24.504  28.603  1.00  0.00    -0.034 C 
ATOM     97  C   UNL A   1      47.111  29.331  31.859  1.00  0.00    -0.036 A 
ATOM     98  H   UNL A   1      46.580  31.214  32.798  1.00  0.00     0.065 H 
ATOM     99  C   UNL A   1      46.355  28.439  31.116  1.00  0.00     0.049 A 
ATOM    100  H   UNL A   1      44.349  28.604  30.480  1.00  0.00     0.167 HD
ATOM    101  C   UNL A   1      45.945  26.342  29.855  1.00  0.00     0.074 A 
ATOM    102  C   UNL A   1      46.361  25.067  29.308  1.00  0.00    -0.034 C 
ATOM    103  H   UNL A   1      45.403  23.626  28.062  1.00  0.00     0.065 H 
ATOM    104  H   UNL A   1      48.105  29.215  32.111  1.00  0.00     0.065 H 
ATOM    105  C   UNL A   1      46.749  27.160  30.579  1.00  0.00     0.037 A 
ATOM    106  H   UNL A   1      47.293  24.650  29.449  1.00  0.00     0.065 H 
BRANCH  87 107
ATOM    107  C   UNL A   1      44.049  32.430  32.354  1.00  0.00     0.064 A 
ATOM    108  C   UNL A   1      43.755  32.581  33.718  1.00  0.00     0.173 A 
ATOM    109  C   UNL A   1      44.512  33.558  31.656  1.00  0.00     0.173 A 
ATOM    110  F   UNL A   1      43.297  31.540  34.429  1.00  0.00    -0.203 F 
ATOM    111  C   UNL A   1      43.883  33.816  34.348  1.00  0.00     0.198 A 
ATOM    112  C   UNL A   1      44.676  34.782  32.299  1.00  0.00     0.198 A 
ATOM    113  F   UNL A   1      44.814  33.470  30.353  1.00  0.00    -0.203 F 
ATOM    114  F   UNL A   1      43.540  33.948  35.637  1.00  0.00    -0.200 F 
ATOM    115  C   UNL A   1      44.352  34.913  33.640  1.00  0.00     0.200 A 
ATOM    116  F   UNL A   1      45.142  35.837  31.617  1.00  0.00    -0.200 F 
ATOM    117  F   UNL A   1      44.483  36.099  34.250  1.00  0.00    -0.200 F 
ENDBRANCH  87 107
BRANCH  90 118
ATOM    118  C   UNL A   1      42.795  23.824  27.426  1.00  0.00     0.064 A 
ATOM    119  C   UNL A   1      42.314  22.669  28.058  1.00  0.00     0.173 A 
ATOM    120  C   UNL A   1      43.124  23.733  26.065  1.00  0.00     0.173 A 
ATOM    121  F   UNL A   1      42.005  22.700  29.362  1.00  0.00    -0.203 F 
ATOM    122  C   UNL A   1      42.195  21.465  27.366  1.00  0.00     0.198 A 
ATOM    123  C   UNL A   1      42.973  22.537  25.366  1.00  0.00     0.198 A 
ATOM    124  F   UNL A   1      43.582  24.810  25.410  1.00  0.00    -0.203 F 
ATOM    125  F   UNL A   1      41.786  20.363  28.009  1.00  0.00    -0.200 F 
ATOM    126  C   UNL A   1      42.519  21.401  26.020  1.00  0.00     0.200 A 
ATOM    127  F   UNL A   1      43.272  22.485  24.061  1.00  0.00    -0.200 F 
ATOM    128  F   UNL A   1      42.404  20.244  25.354  1.00  0.00    -0.200 F 
ENDBRANCH  90 118
BRANCH 105 129
ATOM    129  C   UNL A   1      48.143  26.683  30.869  1.00  0.00     0.064 A 
ATOM    130  C   UNL A   1      48.441  25.897  31.992  1.00  0.00     0.173 A 
ATOM    131  C   UNL A   1      49.189  26.979  29.980  1.00  0.00     0.173 A 
ATOM    132  F   UNL A   1      47.480  25.597  32.880  1.00  0.00    -0.203 F 
ATOM    133  C   UNL A   1      49.737  25.449  32.228  1.00  0.00     0.198 A 
ATOM    134  C   UNL A   1      50.476  26.498  30.201  1.00  0.00     0.198 A 
ATOM    135  F   UNL A   1      48.957  27.719  28.886  1.00  0.00    -0.203 F 
ATOM    136  F   UNL A   1      50.008  24.742  33.335  1.00  0.00    -0.200 F 
ATOM    137  C   UNL A   1      50.751  25.741  31.329  1.00  0.00     0.200 A 
ATOM    138  F   UNL A   1      51.450  26.768  29.320  1.00  0.00    -0.200 F 
ATOM    139  F   UNL A   1      51.996  25.298  31.552  1.00  0.00    -0.200 F 
ENDBRANCH 105 129
ENDBRANCH  70  73
ENDBRANCH  60  63
ENDBRANCH  56  59
ENDBRANCH  53  56
ENDBRANCH  50  53
ENDBRANCH   1  50
TORSDOF 19
ENDMDL
MODEL 10
REMARK VINA RESULT:     -13.1      5.248     10.424
REMARK SMILES O=C1O[C@@H](c2ccc(O)c(O)c2)[C@H](C(=O)NCCCCCCNC(=O)c2ccc(-c3c4nc(c(-c5c(F)c(F)c(F)c(F)c5F)c5ccc([nH]5)c(-c5c(F)c(F)c(F)c(F)c5F)c5nc(c(-c6c(F)c(F)c(F)c(F)c6F)c6ccc3[nH]6)C=C5)C=C4)cc2)/C1=C\c1ccc(O)c(O)c1
REMARK SMILES IDX 19 1 18 4 17 7 16 10 14 11 15 12 13 14 1 15 2 16 3 17 89 18
REMARK SMILES IDX 4 19 90 20 5 24 6 25 12 26 7 27 10 29 8 31 11 33 9 35 91 37
REMARK SMILES IDX 92 38 98 39 93 40 96 42 94 44 97 46 95 48 20 50 21 53 22 56
REMARK SMILES IDX 23 59 24 60 25 62 26 63 27 64 88 65 28 66 87 68 29 70 30 73
REMARK SMILES IDX 31 74 81 75 32 76 86 77 80 78 82 79 33 80 85 81 79 83 78 85
REMARK SMILES IDX 34 87 66 90 46 91 65 92 47 93 50 94 64 95 83 96 48 97 49 99
REMARK SMILES IDX 63 101 84 102 51 105 35 107 36 108 44 109 37 110 38 111
REMARK SMILES IDX 42 112 45 113 39 114 40 115 43 116 41 117 67 118 68 119
REMARK SMILES IDX 76 120 69 121 70 122 74 123 77 124 71 125 72 126 75 127
REMARK SMILES IDX 73 128 52 129 53 130 61 131 54 132 55 133 59 134 62 135
REMARK SMILES IDX 56 136 57 137 60 138 58 139
REMARK H PARENT 19 2 19 3 18 5 18 6 17 8 17 9 16 13 4 21 13 22 90 23 6 28
REMARK H PARENT 12 30 7 32 11 34 9 36 92 41 98 43 93 45 97 47 95 49 20 51
REMARK H PARENT 20 52 21 54 21 55 22 57 22 58 23 61 27 67 88 69 28 71 87 72
REMARK H PARENT 86 82 80 84 82 86 85 88 79 89 47 98 50 100 83 103 48 104
REMARK H PARENT 84 106
REMARK Flexibility Score: inf
ROOT
ATOM      1  C   UNL A   1      36.451  22.176  24.583  1.00  0.00    -0.052 C 
ATOM      2  H   UNL A   1      36.519  22.824  25.432  1.00  0.00     0.027 H 
ATOM      3  H   UNL A   1      37.259  22.291  23.892  1.00  0.00     0.027 H 
ENDROOT
BRANCH   1   4
ATOM      4  C   UNL A   1      35.180  22.535  23.813  1.00  0.00    -0.036 C 
ATOM      5  H   UNL A   1      35.353  22.340  22.775  1.00  0.00     0.028 H 
ATOM      6  H   UNL A   1      34.395  21.938  24.225  1.00  0.00     0.028 H 
BRANCH   4   7
ATOM      7  C   UNL A   1      34.744  23.986  23.957  1.00  0.00     0.017 C 
ATOM      8  H   UNL A   1      34.146  24.074  24.840  1.00  0.00     0.049 H 
ATOM      9  H   UNL A   1      35.633  24.579  24.008  1.00  0.00     0.049 H 
BRANCH   7  10
ATOM     10  N   UNL A   1      33.974  24.473  22.833  1.00  0.00    -0.355 N 
ATOM     11  C   UNL A   1      33.074  25.498  22.749  1.00  0.00     0.231 C 
ATOM     12  O   UNL A   1      32.675  25.786  21.620  1.00  0.00    -0.274 OA
ATOM     13  H   UNL A   1      34.123  23.986  21.991  1.00  0.00     0.163 HD
BRANCH  11  14
ATOM     14  C   UNL A   1      32.532  26.169  24.018  1.00  0.00     0.111 C 
ATOM     15  O   UNL A   1      29.022  26.675  23.570  1.00  0.00    -0.247 OA
ATOM     16  C   UNL A   1      30.226  26.769  23.732  1.00  0.00     0.335 C 
ATOM     17  O   UNL A   1      30.972  27.864  23.448  1.00  0.00    -0.453 OA
ATOM     18  C   UNL A   1      31.127  25.740  24.282  1.00  0.00     0.054 C 
ATOM     19  C   UNL A   1      32.337  27.674  23.859  1.00  0.00     0.143 C 
ATOM     20  C   UNL A   1      30.620  24.667  24.906  1.00  0.00    -0.043 C 
ATOM     21  H   UNL A   1      33.033  28.035  23.131  1.00  0.00     0.081 H 
ATOM     22  H   UNL A   1      33.246  25.907  24.771  1.00  0.00     0.050 H 
ATOM     23  H   UNL A   1      29.594  24.589  24.975  1.00  0.00     0.063 H 
BRANCH  19  24
ATOM     24  C   UNL A   1      32.675  28.507  25.101  1.00  0.00    -0.002 A 
ATOM     25  C   UNL A   1      33.743  28.153  25.957  1.00  0.00    -0.051 A 
ATOM     26  C   UNL A   1      31.993  29.704  25.373  1.00  0.00    -0.009 A 
ATOM     27  C   UNL A   1      34.137  28.968  27.025  1.00  0.00    -0.016 A 
ATOM     28  H   UNL A   1      34.249  27.269  25.789  1.00  0.00     0.063 H 
ATOM     29  C   UNL A   1      32.374  30.497  26.451  1.00  0.00     0.157 A 
ATOM     30  H   UNL A   1      31.208  29.997  24.771  1.00  0.00     0.067 H 
ATOM     31  C   UNL A   1      33.445  30.142  27.265  1.00  0.00     0.157 A 
ATOM     32  H   UNL A   1      34.931  28.697  27.626  1.00  0.00     0.066 H 
BRANCH  29  33
ATOM     33  O   UNL A   1      31.689  31.651  26.702  1.00  0.00    -0.504 OA
ATOM     34  H   UNL A   1      30.820  31.763  26.368  1.00  0.00     0.293 HD
ENDBRANCH  29  33
BRANCH  31  35
ATOM     35  O   UNL A   1      33.782  30.983  28.286  1.00  0.00    -0.504 OA
ATOM     36  H   UNL A   1      33.224  31.703  28.504  1.00  0.00     0.293 HD
ENDBRANCH  31  35
ENDBRANCH  19  24
BRANCH  20  37
ATOM     37  C   UNL A   1      31.426  23.599  25.494  1.00  0.00    -0.021 A 
ATOM     38  C   UNL A   1      32.209  23.829  26.638  1.00  0.00    -0.051 A 
ATOM     39  C   UNL A   1      31.385  22.321  24.928  1.00  0.00    -0.009 A 
ATOM     40  C   UNL A   1      32.969  22.799  27.199  1.00  0.00    -0.016 A 
ATOM     41  H   UNL A   1      32.222  24.767  27.067  1.00  0.00     0.063 H 
ATOM     42  C   UNL A   1      32.136  21.301  25.497  1.00  0.00     0.157 A 
ATOM     43  H   UNL A   1      30.804  22.137  24.096  1.00  0.00     0.067 H 
ATOM     44  C   UNL A   1      32.927  21.537  26.619  1.00  0.00     0.157 A 
ATOM     45  H   UNL A   1      33.552  22.974  28.031  1.00  0.00     0.066 H 
BRANCH  42  46
ATOM     46  O   UNL A   1      32.090  20.053  24.947  1.00  0.00    -0.504 OA
ATOM     47  H   UNL A   1      31.295  19.557  24.972  1.00  0.00     0.293 HD
ENDBRANCH  42  46
BRANCH  44  48
ATOM     48  O   UNL A   1      33.644  20.488  27.121  1.00  0.00    -0.504 OA
ATOM     49  H   UNL A   1      33.512  19.624  26.782  1.00  0.00     0.293 HD
ENDBRANCH  44  48
ENDBRANCH  20  37
ENDBRANCH  11  14
ENDBRANCH   7  10
ENDBRANCH   4   7
ENDBRANCH   1   4
BRANCH   1  50
ATOM     50  C   UNL A   1      36.523  20.729  25.084  1.00  0.00    -0.052 C 
ATOM     51  H   UNL A   1      35.741  20.176  24.609  1.00  0.00     0.027 H 
ATOM     52  H   UNL A   1      36.426  20.782  26.148  1.00  0.00     0.027 H 
BRANCH  50  53
ATOM     53  C   UNL A   1      37.844  20.006  24.815  1.00  0.00    -0.036 C 
ATOM     54  H   UNL A   1      38.148  20.230  23.814  1.00  0.00     0.028 H 
ATOM     55  H   UNL A   1      37.658  18.966  24.976  1.00  0.00     0.028 H 
BRANCH  53  56
ATOM     56  C   UNL A   1      38.982  20.390  25.753  1.00  0.00     0.018 C 
ATOM     57  H   UNL A   1      38.574  20.605  26.719  1.00  0.00     0.049 H 
ATOM     58  H   UNL A   1      39.476  21.244  25.340  1.00  0.00     0.049 H 
BRANCH  56  59
ATOM     59  N   UNL A   1      39.965  19.328  25.887  1.00  0.00    -0.352 N 
ATOM     60  C   UNL A   1      41.319  19.420  26.087  1.00  0.00     0.251 C 
ATOM     61  H   UNL A   1      39.609  18.412  25.826  1.00  0.00     0.163 HD
ATOM     62  O   UNL A   1      42.031  18.427  25.984  1.00  0.00    -0.269 OA
BRANCH  60  63
ATOM     63  C   UNL A   1      41.922  20.729  26.409  1.00  0.00     0.039 A 
ATOM     64  C   UNL A   1      42.169  21.636  25.377  1.00  0.00    -0.049 A 
ATOM     65  C   UNL A   1      42.243  21.059  27.729  1.00  0.00    -0.049 A 
ATOM     66  C   UNL A   1      42.688  22.897  25.674  1.00  0.00    -0.053 A 
ATOM     67  H   UNL A   1      41.968  21.374  24.398  1.00  0.00     0.063 H 
ATOM     68  C   UNL A   1      42.682  22.343  28.033  1.00  0.00    -0.053 A 
ATOM     69  H   UNL A   1      42.153  20.353  28.476  1.00  0.00     0.063 H 
ATOM     70  C   UNL A   1      42.919  23.272  27.008  1.00  0.00    -0.014 A 
ATOM     71  H   UNL A   1      42.902  23.557  24.911  1.00  0.00     0.063 H 
ATOM     72  H   UNL A   1      42.837  22.614  29.016  1.00  0.00     0.063 H 
BRANCH  70  73
ATOM     73  C   UNL A   1      43.425  24.624  27.354  1.00  0.00     0.031 A 
ATOM     74  C   UNL A   1      42.493  25.644  27.947  1.00  0.00     0.074 A 
ATOM     75  C   UNL A   1      44.700  24.955  27.074  1.00  0.00     0.049 A 
ATOM     76  N   UNL A   1      42.712  26.902  28.232  1.00  0.00    -0.248 NA
ATOM     77  C   UNL A   1      41.119  25.198  28.231  1.00  0.00    -0.034 C 
ATOM     78  C   UNL A   1      45.690  24.065  26.465  1.00  0.00    -0.036 A 
ATOM     79  N   UNL A   1      45.379  26.134  27.252  1.00  0.00    -0.354 N 
ATOM     80  C   UNL A   1      41.507  27.397  28.712  1.00  0.00     0.074 A 
ATOM     81  C   UNL A   1      40.543  26.323  28.624  1.00  0.00    -0.034 C 
ATOM     82  H   UNL A   1      40.712  24.252  28.146  1.00  0.00     0.065 H 
ATOM     83  C   UNL A   1      46.854  24.722  26.341  1.00  0.00    -0.036 A 
ATOM     84  H   UNL A   1      45.521  23.089  26.176  1.00  0.00     0.065 H 
ATOM     85  C   UNL A   1      46.681  26.091  26.817  1.00  0.00     0.049 A 
ATOM     86  H   UNL A   1      44.972  26.935  27.655  1.00  0.00     0.167 HD
ATOM     87  C   UNL A   1      41.236  28.629  29.208  1.00  0.00     0.037 A 
ATOM     88  H   UNL A   1      39.539  26.420  28.838  1.00  0.00     0.065 H 
ATOM     89  H   UNL A   1      47.730  24.324  25.968  1.00  0.00     0.065 H 
ATOM     90  C   UNL A   1      47.624  27.052  26.795  1.00  0.00     0.037 A 
ATOM     91  C   UNL A   1      42.205  29.687  29.313  1.00  0.00     0.049 A 
ATOM     92  C   UNL A   1      47.290  28.421  27.327  1.00  0.00     0.074 A 
ATOM     93  C   UNL A   1      42.044  30.954  29.845  1.00  0.00    -0.036 A 
ATOM     94  N   UNL A   1      43.519  29.602  28.874  1.00  0.00    -0.354 N 
ATOM     95  N   UNL A   1      46.164  28.860  27.835  1.00  0.00    -0.248 NA
ATOM     96  C   UNL A   1      48.360  29.426  27.289  1.00  0.00    -0.034 C 
ATOM     97  C   UNL A   1      43.242  31.655  29.675  1.00  0.00    -0.036 A 
ATOM     98  H   UNL A   1      41.188  31.319  30.290  1.00  0.00     0.065 H 
ATOM     99  C   UNL A   1      44.171  30.803  29.099  1.00  0.00     0.049 A 
ATOM    100  H   UNL A   1      43.927  28.805  28.462  1.00  0.00     0.167 HD
ATOM    101  C   UNL A   1      46.401  30.175  28.210  1.00  0.00     0.074 A 
ATOM    102  C   UNL A   1      47.782  30.461  27.881  1.00  0.00    -0.034 C 
ATOM    103  H   UNL A   1      49.314  29.347  26.902  1.00  0.00     0.065 H 
ATOM    104  H   UNL A   1      43.406  32.640  29.934  1.00  0.00     0.065 H 
ATOM    105  C   UNL A   1      45.552  31.067  28.780  1.00  0.00     0.037 A 
ATOM    106  H   UNL A   1      48.255  31.355  28.082  1.00  0.00     0.065 H 
BRANCH  87 107
ATOM    107  C   UNL A   1      39.833  28.898  29.671  1.00  0.00     0.064 A 
ATOM    108  C   UNL A   1      39.423  28.625  30.986  1.00  0.00     0.173 A 
ATOM    109  C   UNL A   1      38.892  29.470  28.799  1.00  0.00     0.173 A 
ATOM    110  F   UNL A   1      40.277  28.066  31.857  1.00  0.00    -0.203 F 
ATOM    111  C   UNL A   1      38.118  28.880  31.399  1.00  0.00     0.198 A 
ATOM    112  C   UNL A   1      37.599  29.759  29.227  1.00  0.00     0.198 A 
ATOM    113  F   UNL A   1      39.230  29.757  27.534  1.00  0.00    -0.203 F 
ATOM    114  F   UNL A   1      37.735  28.556  32.642  1.00  0.00    -0.200 F 
ATOM    115  C   UNL A   1      37.210  29.455  30.522  1.00  0.00     0.200 A 
ATOM    116  F   UNL A   1      36.727  30.327  28.383  1.00  0.00    -0.200 F 
ATOM    117  F   UNL A   1      35.957  29.708  30.924  1.00  0.00    -0.200 F 
ENDBRANCH  87 107
BRANCH  90 118
ATOM    118  C   UNL A   1      48.982  26.753  26.266  1.00  0.00     0.064 A 
ATOM    119  C   UNL A   1      49.312  27.029  24.931  1.00  0.00     0.173 A 
ATOM    120  C   UNL A   1      49.972  26.174  27.075  1.00  0.00     0.173 A 
ATOM    121  F   UNL A   1      48.395  27.563  24.113  1.00  0.00    -0.203 F 
ATOM    122  C   UNL A   1      50.569  26.712  24.419  1.00  0.00     0.198 A 
ATOM    123  C   UNL A   1      51.238  25.888  26.570  1.00  0.00     0.198 A 
ATOM    124  F   UNL A   1      49.710  25.896  28.361  1.00  0.00    -0.203 F 
ATOM    125  F   UNL A   1      50.839  26.935  23.126  1.00  0.00    -0.200 F 
ATOM    126  C   UNL A   1      51.533  26.147  25.240  1.00  0.00     0.200 A 
ATOM    127  F   UNL A   1      52.171  25.357  27.372  1.00  0.00    -0.200 F 
ATOM    128  F   UNL A   1      52.742  25.843  24.748  1.00  0.00    -0.200 F 
ENDBRANCH  90 118
BRANCH 105 129
ATOM    129  C   UNL A   1      46.102  32.419  29.133  1.00  0.00     0.064 A 
ATOM    130  C   UNL A   1      46.716  32.672  30.369  1.00  0.00     0.173 A 
ATOM    131  C   UNL A   1      46.054  33.466  28.198  1.00  0.00     0.173 A 
ATOM    132  F   UNL A   1      46.776  31.710  31.302  1.00  0.00    -0.203 F 
ATOM    133  C   UNL A   1      47.238  33.928  30.665  1.00  0.00     0.198 A 
ATOM    134  C   UNL A   1      46.609  34.710  28.485  1.00  0.00     0.198 A 
ATOM    135  F   UNL A   1      45.486  33.275  26.998  1.00  0.00    -0.203 F 
ATOM    136  F   UNL A   1      47.774  34.160  31.871  1.00  0.00    -0.200 F 
ATOM    137  C   UNL A   1      47.192  34.942  29.721  1.00  0.00     0.200 A 
ATOM    138  F   UNL A   1      46.579  35.683  27.563  1.00  0.00    -0.200 F 
ATOM    139  F   UNL A   1      47.706  36.147  30.003  1.00  0.00    -0.200 F 
ENDBRANCH 105 129
ENDBRANCH  70  73
ENDBRANCH  60  63
ENDBRANCH  56  59
ENDBRANCH  53  56
ENDBRANCH  50  53
ENDBRANCH   1  50
TORSDOF 19
ENDMDL
