MODEL 1
REMARK VINA RESULT:     -11.9      0.000      0.000
REMARK SMILES COc1ccc2cc([C@H](C)C(=O)NCCCCCCNC(=O)c3ccc(-c4c5nc(c(-c6c(F)c(F)c(F)c(F)c6F)c6ccc([nH]6)c(-c6c(F)c(F)c(F)c(F)c6F)c6nc(c(-c7c(F)c(F)c(F)c(F)c7F)c7ccc4[nH]7)C=C6)C=C5)cc3)ccc2c1
REMARK SMILES IDX 16 1 15 4 14 7 13 10 11 11 12 12 9 14 8 16 3 17 4 18 89 19
REMARK SMILES IDX 5 20 88 22 6 24 87 26 7 27 86 28 2 32 1 33 10 37 17 41 18 44
REMARK SMILES IDX 19 47 20 50 21 51 22 53 23 54 24 55 85 56 25 57 84 59 26 61
REMARK SMILES IDX 27 64 28 65 78 66 29 67 83 68 77 69 79 70 30 71 82 72 76 74
REMARK SMILES IDX 75 76 31 78 63 81 43 82 62 83 44 84 47 85 61 86 80 87 45 88
REMARK SMILES IDX 46 90 60 92 81 93 48 96 32 98 33 99 41 100 34 101 35 102
REMARK SMILES IDX 39 103 42 104 36 105 37 106 40 107 38 108 64 109 65 110
REMARK SMILES IDX 73 111 66 112 67 113 71 114 74 115 68 116 69 117 72 118
REMARK SMILES IDX 70 119 49 120 50 121 58 122 51 123 52 124 56 125 59 126
REMARK SMILES IDX 53 127 54 128 57 129 55 130
REMARK H PARENT 16 2 16 3 15 5 15 6 14 8 14 9 13 13 9 15 4 21 89 23 5 25 87 29
REMARK H PARENT 7 30 86 31 1 34 1 35 1 36 10 38 10 39 10 40 17 42 17 43 18 45
REMARK H PARENT 18 46 19 48 19 49 20 52 24 58 85 60 25 62 84 63 83 73 77 75
REMARK H PARENT 79 77 82 79 76 80 44 89 47 91 80 94 45 95 81 97
REMARK Flexibility Score: inf
ROOT
ATOM      1  C   UNL A   1      31.767  29.128  26.793  1.00  0.00    -0.052 C 
ATOM      2  H   UNL A   1      31.450  29.461  27.759  1.00  0.00     0.027 H 
ATOM      3  H   UNL A   1      31.114  28.411  26.340  1.00  0.00     0.027 H 
ENDROOT
BRANCH   1   4
ATOM      4  C   UNL A   1      33.110  28.416  26.960  1.00  0.00    -0.036 C 
ATOM      5  H   UNL A   1      33.840  28.955  26.394  1.00  0.00     0.028 H 
ATOM      6  H   UNL A   1      33.305  28.400  28.012  1.00  0.00     0.028 H 
BRANCH   4   7
ATOM      7  C   UNL A   1      33.142  26.961  26.506  1.00  0.00     0.017 C 
ATOM      8  H   UNL A   1      33.239  26.941  25.441  1.00  0.00     0.049 H 
ATOM      9  H   UNL A   1      33.971  26.494  26.996  1.00  0.00     0.049 H 
BRANCH   7  10
ATOM     10  N   UNL A   1      31.954  26.221  26.874  1.00  0.00    -0.356 N 
ATOM     11  C   UNL A   1      31.146  25.440  26.096  1.00  0.00     0.227 C 
ATOM     12  O   UNL A   1      30.249  24.808  26.665  1.00  0.00    -0.274 OA
ATOM     13  H   UNL A   1      31.690  26.291  27.820  1.00  0.00     0.163 HD
BRANCH  11  14
ATOM     14  C   UNL A   1      31.321  25.346  24.570  1.00  0.00     0.060 C 
ATOM     15  H   UNL A   1      32.355  25.203  24.337  1.00  0.00     0.045 H 
BRANCH  14  16
ATOM     16  C   UNL A   1      31.010  26.672  23.880  1.00  0.00    -0.035 A 
ATOM     17  C   UNL A   1      28.560  30.510  21.623  1.00  0.00     0.119 A 
ATOM     18  C   UNL A   1      27.597  29.841  22.371  1.00  0.00    -0.019 A 
ATOM     19  C   UNL A   1      29.885  30.079  21.628  1.00  0.00    -0.012 A 
ATOM     20  C   UNL A   1      27.961  28.724  23.126  1.00  0.00    -0.051 A 
ATOM     21  H   UNL A   1      26.617  30.168  22.367  1.00  0.00     0.066 H 
ATOM     22  C   UNL A   1      30.267  28.978  22.408  1.00  0.00    -0.015 A 
ATOM     23  H   UNL A   1      30.587  30.571  21.055  1.00  0.00     0.067 H 
ATOM     24  C   UNL A   1      29.292  28.270  23.142  1.00  0.00    -0.018 A 
ATOM     25  H   UNL A   1      27.247  28.226  23.680  1.00  0.00     0.063 H 
ATOM     26  C   UNL A   1      31.603  28.566  22.472  1.00  0.00    -0.054 A 
ATOM     27  C   UNL A   1      29.674  27.117  23.850  1.00  0.00    -0.050 A 
ATOM     28  C   UNL A   1      31.972  27.448  23.223  1.00  0.00    -0.058 A 
ATOM     29  H   UNL A   1      32.325  29.094  21.956  1.00  0.00     0.063 H 
ATOM     30  H   UNL A   1      28.955  26.581  24.362  1.00  0.00     0.063 H 
ATOM     31  H   UNL A   1      32.969  27.191  23.296  1.00  0.00     0.063 H 
BRANCH  17  32
ATOM     32  O   UNL A   1      28.243  31.554  20.797  1.00  0.00    -0.497 OA
BRANCH  32  33
ATOM     33  C   UNL A   1      28.028  32.755  21.535  1.00  0.00     0.078 C 
ATOM     34  H   UNL A   1      28.954  33.282  21.638  1.00  0.00     0.067 H 
ATOM     35  H   UNL A   1      27.646  32.515  22.505  1.00  0.00     0.067 H 
ATOM     36  H   UNL A   1      27.324  33.371  21.016  1.00  0.00     0.067 H 
ENDBRANCH  32  33
ENDBRANCH  17  32
ENDBRANCH  14  16
BRANCH  14  37
ATOM     37  C   UNL A   1      30.680  24.076  23.994  1.00  0.00    -0.049 C 
ATOM     38  H   UNL A   1      30.772  24.081  22.928  1.00  0.00     0.024 H 
ATOM     39  H   UNL A   1      29.645  24.045  24.263  1.00  0.00     0.024 H 
ATOM     40  H   UNL A   1      31.177  23.216  24.391  1.00  0.00     0.024 H 
ENDBRANCH  14  37
ENDBRANCH  11  14
ENDBRANCH   7  10
ENDBRANCH   4   7
ENDBRANCH   1   4
BRANCH   1  41
ATOM     41  C   UNL A   1      31.764  30.340  25.856  1.00  0.00    -0.052 C 
ATOM     42  H   UNL A   1      31.018  30.172  25.107  1.00  0.00     0.027 H 
ATOM     43  H   UNL A   1      32.761  30.409  25.475  1.00  0.00     0.027 H 
BRANCH  41  44
ATOM     44  C   UNL A   1      31.478  31.696  26.504  1.00  0.00    -0.036 C 
ATOM     45  H   UNL A   1      30.751  31.546  27.275  1.00  0.00     0.028 H 
ATOM     46  H   UNL A   1      31.146  32.333  25.712  1.00  0.00     0.028 H 
BRANCH  44  47
ATOM     47  C   UNL A   1      32.681  32.402  27.126  1.00  0.00     0.018 C 
ATOM     48  H   UNL A   1      33.487  32.385  26.424  1.00  0.00     0.049 H 
ATOM     49  H   UNL A   1      32.927  31.883  28.028  1.00  0.00     0.049 H 
BRANCH  47  50
ATOM     50  N   UNL A   1      32.405  33.783  27.480  1.00  0.00    -0.352 N 
ATOM     51  C   UNL A   1      32.995  34.585  28.425  1.00  0.00     0.251 C 
ATOM     52  H   UNL A   1      31.684  34.210  26.964  1.00  0.00     0.163 HD
ATOM     53  O   UNL A   1      32.527  35.692  28.671  1.00  0.00    -0.269 OA
BRANCH  51  54
ATOM     54  C   UNL A   1      34.181  34.112  29.174  1.00  0.00     0.039 A 
ATOM     55  C   UNL A   1      33.983  33.316  30.305  1.00  0.00    -0.049 A 
ATOM     56  C   UNL A   1      35.476  34.463  28.784  1.00  0.00    -0.049 A 
ATOM     57  C   UNL A   1      35.083  32.812  31.003  1.00  0.00    -0.053 A 
ATOM     58  H   UNL A   1      33.025  33.101  30.625  1.00  0.00     0.063 H 
ATOM     59  C   UNL A   1      36.574  33.909  29.443  1.00  0.00    -0.053 A 
ATOM     60  H   UNL A   1      35.621  35.129  28.009  1.00  0.00     0.063 H 
ATOM     61  C   UNL A   1      36.388  33.074  30.555  1.00  0.00    -0.014 A 
ATOM     62  H   UNL A   1      34.937  32.245  31.853  1.00  0.00     0.063 H 
ATOM     63  H   UNL A   1      37.528  34.115  29.110  1.00  0.00     0.063 H 
BRANCH  61  64
ATOM     64  C   UNL A   1      37.567  32.463  31.221  1.00  0.00     0.031 A 
ATOM     65  C   UNL A   1      38.310  31.334  30.565  1.00  0.00     0.074 A 
ATOM     66  C   UNL A   1      37.925  32.882  32.450  1.00  0.00     0.049 A 
ATOM     67  N   UNL A   1      39.301  30.614  31.030  1.00  0.00    -0.248 NA
ATOM     68  C   UNL A   1      37.869  30.948  29.216  1.00  0.00    -0.034 C 
ATOM     69  C   UNL A   1      37.261  33.945  33.208  1.00  0.00    -0.036 A 
ATOM     70  N   UNL A   1      38.926  32.455  33.288  1.00  0.00    -0.354 N 
ATOM     71  C   UNL A   1      39.594  29.687  30.038  1.00  0.00     0.074 A 
ATOM     72  C   UNL A   1      38.647  29.904  28.966  1.00  0.00    -0.034 C 
ATOM     73  H   UNL A   1      37.144  31.377  28.621  1.00  0.00     0.065 H 
ATOM     74  C   UNL A   1      37.878  34.094  34.390  1.00  0.00    -0.036 A 
ATOM     75  H   UNL A   1      36.448  34.491  32.884  1.00  0.00     0.065 H 
ATOM     76  C   UNL A   1      38.953  33.112  34.494  1.00  0.00     0.049 A 
ATOM     77  H   UNL A   1      39.564  31.745  33.047  1.00  0.00     0.167 HD
ATOM     78  C   UNL A   1      40.576  28.755  30.017  1.00  0.00     0.037 A 
ATOM     79  H   UNL A   1      38.585  29.321  28.115  1.00  0.00     0.065 H 
ATOM     80  H   UNL A   1      37.631  34.790  35.112  1.00  0.00     0.065 H 
ATOM     81  C   UNL A   1      39.746  32.934  35.568  1.00  0.00     0.037 A 
ATOM     82  C   UNL A   1      41.529  28.554  31.078  1.00  0.00     0.049 A 
ATOM     83  C   UNL A   1      40.814  31.875  35.525  1.00  0.00     0.074 A 
ATOM     84  C   UNL A   1      42.591  27.667  31.127  1.00  0.00    -0.036 A 
ATOM     85  N   UNL A   1      41.534  29.249  32.278  1.00  0.00    -0.354 N 
ATOM     86  N   UNL A   1      41.118  31.044  34.558  1.00  0.00    -0.248 NA
ATOM     87  C   UNL A   1      41.654  31.734  36.722  1.00  0.00    -0.034 C 
ATOM     88  C   UNL A   1      43.211  27.794  32.375  1.00  0.00    -0.036 A 
ATOM     89  H   UNL A   1      42.876  27.023  30.374  1.00  0.00     0.065 H 
ATOM     90  C   UNL A   1      42.566  28.796  33.083  1.00  0.00     0.049 A 
ATOM     91  H   UNL A   1      40.897  29.960  32.522  1.00  0.00     0.167 HD
ATOM     92  C   UNL A   1      42.197  30.301  35.018  1.00  0.00     0.074 A 
ATOM     93  C   UNL A   1      42.507  30.792  36.344  1.00  0.00    -0.034 C 
ATOM     94  H   UNL A   1      41.595  32.235  37.622  1.00  0.00     0.065 H 
ATOM     95  H   UNL A   1      44.011  27.237  32.711  1.00  0.00     0.065 H 
ATOM     96  C   UNL A   1      42.868  29.300  34.398  1.00  0.00     0.037 A 
ATOM     97  H   UNL A   1      43.293  30.453  36.920  1.00  0.00     0.065 H 
BRANCH  78  98
ATOM     98  C   UNL A   1      40.678  27.877  28.803  1.00  0.00     0.064 A 
ATOM     99  C   UNL A   1      39.949  26.683  28.698  1.00  0.00     0.173 A 
ATOM    100  C   UNL A   1      41.470  28.259  27.710  1.00  0.00     0.173 A 
ATOM    101  F   UNL A   1      39.185  26.267  29.720  1.00  0.00    -0.203 F 
ATOM    102  C   UNL A   1      40.025  25.894  27.554  1.00  0.00     0.198 A 
ATOM    103  C   UNL A   1      41.522  27.484  26.555  1.00  0.00     0.198 A 
ATOM    104  F   UNL A   1      42.183  29.396  27.756  1.00  0.00    -0.203 F 
ATOM    105  F   UNL A   1      39.350  24.738  27.492  1.00  0.00    -0.200 F 
ATOM    106  C   UNL A   1      40.805  26.299  26.480  1.00  0.00     0.200 A 
ATOM    107  F   UNL A   1      42.264  27.883  25.514  1.00  0.00    -0.200 F 
ATOM    108  F   UNL A   1      40.867  25.546  25.374  1.00  0.00    -0.200 F 
ENDBRANCH  78  98
BRANCH  81 109
ATOM    109  C   UNL A   1      39.563  33.778  36.778  1.00  0.00     0.064 A 
ATOM    110  C   UNL A   1      40.209  35.017  36.897  1.00  0.00     0.173 A 
ATOM    111  C   UNL A   1      38.759  33.356  37.848  1.00  0.00     0.173 A 
ATOM    112  F   UNL A   1      41.007  35.452  35.910  1.00  0.00    -0.203 F 
ATOM    113  C   UNL A   1      40.080  35.789  38.049  1.00  0.00     0.198 A 
ATOM    114  C   UNL A   1      38.606  34.144  38.986  1.00  0.00     0.198 A 
ATOM    115  F   UNL A   1      38.117  32.181  37.784  1.00  0.00    -0.203 F 
ATOM    116  F   UNL A   1      40.751  36.943  38.158  1.00  0.00    -0.200 F 
ATOM    117  C   UNL A   1      39.274  35.355  39.091  1.00  0.00     0.200 A 
ATOM    118  F   UNL A   1      37.816  33.727  39.985  1.00  0.00    -0.200 F 
ATOM    119  F   UNL A   1      39.150  36.097  40.200  1.00  0.00    -0.200 F 
ENDBRANCH  81 109
BRANCH  96 120
ATOM    120  C   UNL A   1      44.026  28.692  35.134  1.00  0.00     0.064 A 
ATOM    121  C   UNL A   1      43.866  27.572  35.965  1.00  0.00     0.173 A 
ATOM    122  C   UNL A   1      45.320  29.215  34.980  1.00  0.00     0.173 A 
ATOM    123  F   UNL A   1      42.647  27.046  36.158  1.00  0.00    -0.203 F 
ATOM    124  C   UNL A   1      44.952  27.017  36.635  1.00  0.00     0.198 A 
ATOM    125  C   UNL A   1      46.408  28.637  35.626  1.00  0.00     0.198 A 
ATOM    126  F   UNL A   1      45.528  30.280  34.191  1.00  0.00    -0.203 F 
ATOM    127  F   UNL A   1      44.766  25.978  37.462  1.00  0.00    -0.200 F 
ATOM    128  C   UNL A   1      46.223  27.543  36.459  1.00  0.00     0.200 A 
ATOM    129  F   UNL A   1      47.637  29.139  35.445  1.00  0.00    -0.200 F 
ATOM    130  F   UNL A   1      47.268  27.002  37.099  1.00  0.00    -0.200 F 
ENDBRANCH  96 120
ENDBRANCH  61  64
ENDBRANCH  51  54
ENDBRANCH  47  50
ENDBRANCH  44  47
ENDBRANCH  41  44
ENDBRANCH   1  41
TORSDOF 17
ENDMDL
MODEL 2
REMARK VINA RESULT:     -11.8      6.114     11.592
REMARK SMILES COc1ccc2cc([C@H](C)C(=O)NCCCCCCNC(=O)c3ccc(-c4c5nc(c(-c6c(F)c(F)c(F)c(F)c6F)c6ccc([nH]6)c(-c6c(F)c(F)c(F)c(F)c6F)c6nc(c(-c7c(F)c(F)c(F)c(F)c7F)c7ccc4[nH]7)C=C6)C=C5)cc3)ccc2c1
REMARK SMILES IDX 16 1 15 4 14 7 13 10 11 11 12 12 9 14 8 16 3 17 4 18 89 19
REMARK SMILES IDX 5 20 88 22 6 24 87 26 7 27 86 28 2 32 1 33 10 37 17 41 18 44
REMARK SMILES IDX 19 47 20 50 21 51 22 53 23 54 24 55 85 56 25 57 84 59 26 61
REMARK SMILES IDX 27 64 28 65 78 66 29 67 83 68 77 69 79 70 30 71 82 72 76 74
REMARK SMILES IDX 75 76 31 78 63 81 43 82 62 83 44 84 47 85 61 86 80 87 45 88
REMARK SMILES IDX 46 90 60 92 81 93 48 96 32 98 33 99 41 100 34 101 35 102
REMARK SMILES IDX 39 103 42 104 36 105 37 106 40 107 38 108 64 109 65 110
REMARK SMILES IDX 73 111 66 112 67 113 71 114 74 115 68 116 69 117 72 118
REMARK SMILES IDX 70 119 49 120 50 121 58 122 51 123 52 124 56 125 59 126
REMARK SMILES IDX 53 127 54 128 57 129 55 130
REMARK H PARENT 16 2 16 3 15 5 15 6 14 8 14 9 13 13 9 15 4 21 89 23 5 25 87 29
REMARK H PARENT 7 30 86 31 1 34 1 35 1 36 10 38 10 39 10 40 17 42 17 43 18 45
REMARK H PARENT 18 46 19 48 19 49 20 52 24 58 85 60 25 62 84 63 83 73 77 75
REMARK H PARENT 79 77 82 79 76 80 44 89 47 91 80 94 45 95 81 97
REMARK Flexibility Score: inf
ROOT
ATOM      1  C   UNL A   1      36.737  22.070  24.238  1.00  0.00    -0.052 C 
ATOM      2  H   UNL A   1      37.711  22.078  23.797  1.00  0.00     0.027 H 
ATOM      3  H   UNL A   1      35.935  22.092  23.529  1.00  0.00     0.027 H 
ENDROOT
BRANCH   1   4
ATOM      4  C   UNL A   1      36.587  23.343  25.072  1.00  0.00    -0.036 C 
ATOM      5  H   UNL A   1      36.661  23.070  26.104  1.00  0.00     0.028 H 
ATOM      6  H   UNL A   1      37.363  24.002  24.742  1.00  0.00     0.028 H 
BRANCH   4   7
ATOM      7  C   UNL A   1      35.281  24.103  24.879  1.00  0.00     0.017 C 
ATOM      8  H   UNL A   1      34.544  23.682  25.529  1.00  0.00     0.049 H 
ATOM      9  H   UNL A   1      35.476  25.132  25.102  1.00  0.00     0.049 H 
BRANCH   7  10
ATOM     10  N   UNL A   1      34.781  24.047  23.521  1.00  0.00    -0.356 N 
ATOM     11  C   UNL A   1      33.539  23.700  23.069  1.00  0.00     0.227 C 
ATOM     12  O   UNL A   1      33.313  23.843  21.863  1.00  0.00    -0.274 OA
ATOM     13  H   UNL A   1      35.430  24.294  22.823  1.00  0.00     0.163 HD
BRANCH  11  14
ATOM     14  C   UNL A   1      32.455  23.139  24.007  1.00  0.00     0.060 C 
ATOM     15  H   UNL A   1      32.484  23.662  24.941  1.00  0.00     0.045 H 
BRANCH  14  16
ATOM     16  C   UNL A   1      32.753  21.702  24.426  1.00  0.00    -0.035 A 
ATOM     17  C   UNL A   1      33.103  16.632  24.463  1.00  0.00     0.119 A 
ATOM     18  C   UNL A   1      33.008  16.989  23.122  1.00  0.00    -0.019 A 
ATOM     19  C   UNL A   1      33.103  17.608  25.457  1.00  0.00    -0.012 A 
ATOM     20  C   UNL A   1      32.904  18.338  22.772  1.00  0.00    -0.051 A 
ATOM     21  H   UNL A   1      33.013  16.262  22.389  1.00  0.00     0.066 H 
ATOM     22  C   UNL A   1      33.032  18.966  25.115  1.00  0.00    -0.015 A 
ATOM     23  H   UNL A   1      33.155  17.331  26.449  1.00  0.00     0.067 H 
ATOM     24  C   UNL A   1      32.899  19.338  23.760  1.00  0.00    -0.018 A 
ATOM     25  H   UNL A   1      32.832  18.604  21.778  1.00  0.00     0.063 H 
ATOM     26  C   UNL A   1      33.090  19.963  26.095  1.00  0.00    -0.054 A 
ATOM     27  C   UNL A   1      32.741  20.698  23.438  1.00  0.00    -0.050 A 
ATOM     28  C   UNL A   1      32.984  21.313  25.750  1.00  0.00    -0.058 A 
ATOM     29  H   UNL A   1      33.212  19.698  27.086  1.00  0.00     0.063 H 
ATOM     30  H   UNL A   1      32.613  20.968  22.450  1.00  0.00     0.063 H 
ATOM     31  H   UNL A   1      33.079  22.033  26.483  1.00  0.00     0.063 H 
BRANCH  17  32
ATOM     32  O   UNL A   1      33.117  15.325  24.867  1.00  0.00    -0.497 OA
BRANCH  32  33
ATOM     33  C   UNL A   1      32.182  15.094  25.919  1.00  0.00     0.078 C 
ATOM     34  H   UNL A   1      32.700  14.744  26.787  1.00  0.00     0.067 H 
ATOM     35  H   UNL A   1      31.470  14.358  25.607  1.00  0.00     0.067 H 
ATOM     36  H   UNL A   1      31.674  16.006  26.151  1.00  0.00     0.067 H 
ENDBRANCH  32  33
ENDBRANCH  17  32
ENDBRANCH  14  16
BRANCH  14  37
ATOM     37  C   UNL A   1      31.039  23.456  23.504  1.00  0.00    -0.049 C 
ATOM     38  H   UNL A   1      30.522  24.038  24.238  1.00  0.00     0.024 H 
ATOM     39  H   UNL A   1      30.509  22.543  23.334  1.00  0.00     0.024 H 
ATOM     40  H   UNL A   1      31.102  24.008  22.590  1.00  0.00     0.024 H 
ENDBRANCH  14  37
ENDBRANCH  11  14
ENDBRANCH   7  10
ENDBRANCH   4   7
ENDBRANCH   1   4
BRANCH   1  41
ATOM     41  C   UNL A   1      36.579  20.749  24.999  1.00  0.00    -0.052 C 
ATOM     42  H   UNL A   1      35.743  20.228  24.579  1.00  0.00     0.027 H 
ATOM     43  H   UNL A   1      36.456  21.024  26.025  1.00  0.00     0.027 H 
BRANCH  41  44
ATOM     44  C   UNL A   1      37.781  19.802  24.969  1.00  0.00    -0.036 C 
ATOM     45  H   UNL A   1      38.091  19.697  23.950  1.00  0.00     0.028 H 
ATOM     46  H   UNL A   1      37.445  18.892  25.418  1.00  0.00     0.028 H 
BRANCH  44  47
ATOM     47  C   UNL A   1      38.994  20.243  25.784  1.00  0.00     0.018 C 
ATOM     48  H   UNL A   1      38.667  20.503  26.769  1.00  0.00     0.049 H 
ATOM     49  H   UNL A   1      39.436  21.076  25.279  1.00  0.00     0.049 H 
BRANCH  47  50
ATOM     50  N   UNL A   1      40.009  19.210  25.892  1.00  0.00    -0.352 N 
ATOM     51  C   UNL A   1      41.358  19.320  26.117  1.00  0.00     0.251 C 
ATOM     52  H   UNL A   1      39.678  18.289  25.786  1.00  0.00     0.163 HD
ATOM     53  O   UNL A   1      42.078  18.330  26.038  1.00  0.00    -0.269 OA
BRANCH  51  54
ATOM     54  C   UNL A   1      41.960  20.636  26.429  1.00  0.00     0.039 A 
ATOM     55  C   UNL A   1      42.253  21.504  25.373  1.00  0.00    -0.049 A 
ATOM     56  C   UNL A   1      42.256  21.009  27.742  1.00  0.00    -0.049 A 
ATOM     57  C   UNL A   1      42.773  22.772  25.638  1.00  0.00    -0.053 A 
ATOM     58  H   UNL A   1      42.084  21.208  24.398  1.00  0.00     0.063 H 
ATOM     59  C   UNL A   1      42.717  22.298  28.011  1.00  0.00    -0.053 A 
ATOM     60  H   UNL A   1      42.132  20.333  28.512  1.00  0.00     0.063 H 
ATOM     61  C   UNL A   1      42.974  23.194  26.962  1.00  0.00    -0.014 A 
ATOM     62  H   UNL A   1      43.012  23.404  24.857  1.00  0.00     0.063 H 
ATOM     63  H   UNL A   1      42.869  22.594  28.988  1.00  0.00     0.063 H 
BRANCH  61  64
ATOM     64  C   UNL A   1      43.430  24.575  27.270  1.00  0.00     0.031 A 
ATOM     65  C   UNL A   1      42.463  25.590  27.810  1.00  0.00     0.074 A 
ATOM     66  C   UNL A   1      44.699  24.930  26.996  1.00  0.00     0.049 A 
ATOM     67  N   UNL A   1      42.650  26.864  28.051  1.00  0.00    -0.248 NA
ATOM     68  C   UNL A   1      41.101  25.117  28.100  1.00  0.00    -0.034 C 
ATOM     69  C   UNL A   1      45.723  24.046  26.435  1.00  0.00    -0.036 A 
ATOM     70  N   UNL A   1      45.344  26.135  27.136  1.00  0.00    -0.354 N 
ATOM     71  C   UNL A   1      41.430  27.346  28.509  1.00  0.00     0.074 A 
ATOM     72  C   UNL A   1      40.498  26.239  28.469  1.00  0.00    -0.034 C 
ATOM     73  H   UNL A   1      40.716  24.163  28.033  1.00  0.00     0.065 H 
ATOM     74  C   UNL A   1      46.867  24.733  26.291  1.00  0.00    -0.036 A 
ATOM     75  H   UNL A   1      45.586  23.053  26.190  1.00  0.00     0.065 H 
ATOM     76  C   UNL A   1      46.649  26.115  26.708  1.00  0.00     0.049 A 
ATOM     77  H   UNL A   1      44.912  26.937  27.509  1.00  0.00     0.167 HD
ATOM     78  C   UNL A   1      41.123  28.591  28.942  1.00  0.00     0.037 A 
ATOM     79  H   UNL A   1      39.494  26.313  28.698  1.00  0.00     0.065 H 
ATOM     80  H   UNL A   1      47.758  24.347  25.940  1.00  0.00     0.065 H 
ATOM     81  C   UNL A   1      47.562  27.103  26.643  1.00  0.00     0.037 A 
ATOM     82  C   UNL A   1      42.058  29.685  28.999  1.00  0.00     0.049 A 
ATOM     83  C   UNL A   1      47.186  28.483  27.110  1.00  0.00     0.074 A 
ATOM     84  C   UNL A   1      41.853  30.972  29.469  1.00  0.00    -0.036 A 
ATOM     85  N   UNL A   1      43.374  29.623  28.569  1.00  0.00    -0.354 N 
ATOM     86  N   UNL A   1      46.045  28.911  27.595  1.00  0.00    -0.248 NA
ATOM     87  C   UNL A   1      48.227  29.517  27.026  1.00  0.00    -0.034 C 
ATOM     88  C   UNL A   1      43.033  31.700  29.282  1.00  0.00    -0.036 A 
ATOM     89  H   UNL A   1      40.980  31.332  29.885  1.00  0.00     0.065 H 
ATOM     90  C   UNL A   1      43.987  30.854  28.743  1.00  0.00     0.049 A 
ATOM     91  H   UNL A   1      43.810  28.822  28.197  1.00  0.00     0.167 HD
ATOM     92  C   UNL A   1      46.239  30.252  27.897  1.00  0.00     0.074 A 
ATOM     93  C   UNL A   1      47.612  30.563  27.558  1.00  0.00    -0.034 C 
ATOM     94  H   UNL A   1      49.186  29.447  26.650  1.00  0.00     0.065 H 
ATOM     95  H   UNL A   1      43.168  32.698  29.507  1.00  0.00     0.065 H 
ATOM     96  C   UNL A   1      45.358  31.146  28.407  1.00  0.00     0.037 A 
ATOM     97  H   UNL A   1      48.055  31.482  27.713  1.00  0.00     0.065 H 
BRANCH  78  98
ATOM     98  C   UNL A   1      39.715  28.844  29.398  1.00  0.00     0.064 A 
ATOM     99  C   UNL A   1      39.317  28.601  30.721  1.00  0.00     0.173 A 
ATOM    100  C   UNL A   1      38.766  29.389  28.518  1.00  0.00     0.173 A 
ATOM    101  F   UNL A   1      40.183  28.071  31.599  1.00  0.00    -0.203 F 
ATOM    102  C   UNL A   1      38.018  28.871  31.141  1.00  0.00     0.198 A 
ATOM    103  C   UNL A   1      37.476  29.686  28.948  1.00  0.00     0.198 A 
ATOM    104  F   UNL A   1      39.097  29.647  27.243  1.00  0.00    -0.203 F 
ATOM    105  F   UNL A   1      37.649  28.594  32.399  1.00  0.00    -0.200 F 
ATOM    106  C   UNL A   1      37.101  29.422  30.257  1.00  0.00     0.200 A 
ATOM    107  F   UNL A   1      36.596  30.231  28.097  1.00  0.00    -0.200 F 
ATOM    108  F   UNL A   1      35.855  29.695  30.666  1.00  0.00    -0.200 F 
ENDBRANCH  78  98
BRANCH  81 109
ATOM    109  C   UNL A   1      48.925  26.825  26.118  1.00  0.00     0.064 A 
ATOM    110  C   UNL A   1      49.230  27.021  24.764  1.00  0.00     0.173 A 
ATOM    111  C   UNL A   1      49.943  26.338  26.952  1.00  0.00     0.173 A 
ATOM    112  F   UNL A   1      48.282  27.463  23.923  1.00  0.00    -0.203 F 
ATOM    113  C   UNL A   1      50.492  26.717  24.258  1.00  0.00     0.198 A 
ATOM    114  C   UNL A   1      51.213  26.064  26.450  1.00  0.00     0.198 A 
ATOM    115  F   UNL A   1      49.705  26.136  28.256  1.00  0.00    -0.203 F 
ATOM    116  F   UNL A   1      50.739  26.863  22.949  1.00  0.00    -0.200 F 
ATOM    117  C   UNL A   1      51.484  26.243  25.102  1.00  0.00     0.200 A 
ATOM    118  F   UNL A   1      52.174  25.619  27.273  1.00  0.00    -0.200 F 
ATOM    119  F   UNL A   1      52.698  25.949  24.615  1.00  0.00    -0.200 F 
ENDBRANCH  81 109
BRANCH  96 120
ATOM    120  C   UNL A   1      45.860  32.538  28.661  1.00  0.00     0.064 A 
ATOM    121  C   UNL A   1      46.477  32.890  29.871  1.00  0.00     0.173 A 
ATOM    122  C   UNL A   1      45.754  33.523  27.667  1.00  0.00     0.173 A 
ATOM    123  F   UNL A   1      46.587  31.988  30.858  1.00  0.00    -0.203 F 
ATOM    124  C   UNL A   1      46.943  34.184  30.087  1.00  0.00     0.198 A 
ATOM    125  C   UNL A   1      46.249  34.807  27.874  1.00  0.00     0.198 A 
ATOM    126  F   UNL A   1      45.179  33.236  26.489  1.00  0.00    -0.203 F 
ATOM    127  F   UNL A   1      47.483  34.511  31.269  1.00  0.00    -0.200 F 
ATOM    128  C   UNL A   1      46.836  35.138  29.086  1.00  0.00     0.200 A 
ATOM    129  F   UNL A   1      46.157  35.724  26.902  1.00  0.00    -0.200 F 
ATOM    130  F   UNL A   1      47.292  36.381  29.294  1.00  0.00    -0.200 F 
ENDBRANCH  96 120
ENDBRANCH  61  64
ENDBRANCH  51  54
ENDBRANCH  47  50
ENDBRANCH  44  47
ENDBRANCH  41  44
ENDBRANCH   1  41
TORSDOF 17
ENDMDL
MODEL 3
REMARK VINA RESULT:     -11.8      6.056     11.615
REMARK SMILES COc1ccc2cc([C@H](C)C(=O)NCCCCCCNC(=O)c3ccc(-c4c5nc(c(-c6c(F)c(F)c(F)c(F)c6F)c6ccc([nH]6)c(-c6c(F)c(F)c(F)c(F)c6F)c6nc(c(-c7c(F)c(F)c(F)c(F)c7F)c7ccc4[nH]7)C=C6)C=C5)cc3)ccc2c1
REMARK SMILES IDX 16 1 15 4 14 7 13 10 11 11 12 12 9 14 8 16 3 17 4 18 89 19
REMARK SMILES IDX 5 20 88 22 6 24 87 26 7 27 86 28 2 32 1 33 10 37 17 41 18 44
REMARK SMILES IDX 19 47 20 50 21 51 22 53 23 54 24 55 85 56 25 57 84 59 26 61
REMARK SMILES IDX 27 64 28 65 78 66 29 67 83 68 77 69 79 70 30 71 82 72 76 74
REMARK SMILES IDX 75 76 31 78 63 81 43 82 62 83 44 84 47 85 61 86 80 87 45 88
REMARK SMILES IDX 46 90 60 92 81 93 48 96 32 98 33 99 41 100 34 101 35 102
REMARK SMILES IDX 39 103 42 104 36 105 37 106 40 107 38 108 64 109 65 110
REMARK SMILES IDX 73 111 66 112 67 113 71 114 74 115 68 116 69 117 72 118
REMARK SMILES IDX 70 119 49 120 50 121 58 122 51 123 52 124 56 125 59 126
REMARK SMILES IDX 53 127 54 128 57 129 55 130
REMARK H PARENT 16 2 16 3 15 5 15 6 14 8 14 9 13 13 9 15 4 21 89 23 5 25 87 29
REMARK H PARENT 7 30 86 31 1 34 1 35 1 36 10 38 10 39 10 40 17 42 17 43 18 45
REMARK H PARENT 18 46 19 48 19 49 20 52 24 58 85 60 25 62 84 63 83 73 77 75
REMARK H PARENT 79 77 82 79 76 80 44 89 47 91 80 94 45 95 81 97
REMARK Flexibility Score: inf
ROOT
ATOM      1  C   UNL A   1      36.673  22.073  25.383  1.00  0.00    -0.052 C 
ATOM      2  H   UNL A   1      35.974  22.301  26.160  1.00  0.00     0.027 H 
ATOM      3  H   UNL A   1      37.696  22.229  25.655  1.00  0.00     0.027 H 
ENDROOT
BRANCH   1   4
ATOM      4  C   UNL A   1      36.404  23.024  24.217  1.00  0.00    -0.036 C 
ATOM      5  H   UNL A   1      37.221  23.713  24.160  1.00  0.00     0.028 H 
ATOM      6  H   UNL A   1      36.300  22.405  23.351  1.00  0.00     0.028 H 
BRANCH   4   7
ATOM      7  C   UNL A   1      35.114  23.831  24.312  1.00  0.00     0.017 C 
ATOM      8  H   UNL A   1      34.399  23.262  24.868  1.00  0.00     0.049 H 
ATOM      9  H   UNL A   1      35.354  24.757  24.792  1.00  0.00     0.049 H 
BRANCH   7  10
ATOM     10  N   UNL A   1      34.543  24.152  23.021  1.00  0.00    -0.356 N 
ATOM     11  C   UNL A   1      33.246  24.060  22.602  1.00  0.00     0.227 C 
ATOM     12  O   UNL A   1      32.978  24.508  21.482  1.00  0.00    -0.274 OA
ATOM     13  H   UNL A   1      35.182  24.482  22.349  1.00  0.00     0.163 HD
BRANCH  11  14
ATOM     14  C   UNL A   1      32.148  23.418  23.470  1.00  0.00     0.060 C 
ATOM     15  H   UNL A   1      32.361  23.595  24.504  1.00  0.00     0.045 H 
BRANCH  14  16
ATOM     16  C   UNL A   1      32.176  21.895  23.386  1.00  0.00    -0.035 A 
ATOM     17  C   UNL A   1      32.984  16.990  24.443  1.00  0.00     0.119 A 
ATOM     18  C   UNL A   1      33.022  17.647  25.669  1.00  0.00    -0.019 A 
ATOM     19  C   UNL A   1      32.743  17.699  23.268  1.00  0.00    -0.012 A 
ATOM     20  C   UNL A   1      32.824  19.029  25.718  1.00  0.00    -0.051 A 
ATOM     21  H   UNL A   1      33.197  17.116  26.537  1.00  0.00     0.066 H 
ATOM     22  C   UNL A   1      32.511  19.081  23.310  1.00  0.00    -0.015 A 
ATOM     23  H   UNL A   1      32.736  17.205  22.363  1.00  0.00     0.067 H 
ATOM     24  C   UNL A   1      32.582  19.763  24.543  1.00  0.00    -0.018 A 
ATOM     25  H   UNL A   1      32.854  19.517  26.627  1.00  0.00     0.063 H 
ATOM     26  C   UNL A   1      32.209  19.800  22.148  1.00  0.00    -0.054 A 
ATOM     27  C   UNL A   1      32.434  21.161  24.560  1.00  0.00    -0.050 A 
ATOM     28  C   UNL A   1      32.013  21.182  22.192  1.00  0.00    -0.058 A 
ATOM     29  H   UNL A   1      32.131  19.302  21.247  1.00  0.00     0.063 H 
ATOM     30  H   UNL A   1      32.517  21.664  25.458  1.00  0.00     0.063 H 
ATOM     31  H   UNL A   1      31.743  21.684  21.332  1.00  0.00     0.063 H 
BRANCH  17  32
ATOM     32  O   UNL A   1      33.259  15.655  24.326  1.00  0.00    -0.497 OA
BRANCH  32  33
ATOM     33  C   UNL A   1      32.767  14.921  25.445  1.00  0.00     0.078 C 
ATOM     34  H   UNL A   1      33.020  13.887  25.334  1.00  0.00     0.067 H 
ATOM     35  H   UNL A   1      31.703  15.023  25.499  1.00  0.00     0.067 H 
ATOM     36  H   UNL A   1      33.207  15.302  26.342  1.00  0.00     0.067 H 
ENDBRANCH  32  33
ENDBRANCH  17  32
ENDBRANCH  14  16
BRANCH  14  37
ATOM     37  C   UNL A   1      30.793  24.118  23.295  1.00  0.00    -0.049 C 
ATOM     38  H   UNL A   1      30.763  24.995  23.907  1.00  0.00     0.024 H 
ATOM     39  H   UNL A   1      30.008  23.452  23.585  1.00  0.00     0.024 H 
ATOM     40  H   UNL A   1      30.666  24.394  22.269  1.00  0.00     0.024 H 
ENDBRANCH  14  37
ENDBRANCH  11  14
ENDBRANCH   7  10
ENDBRANCH   4   7
ENDBRANCH   1   4
BRANCH   1  41
ATOM     41  C   UNL A   1      36.553  20.578  25.068  1.00  0.00    -0.052 C 
ATOM     42  H   UNL A   1      35.955  20.477  24.186  1.00  0.00     0.027 H 
ATOM     43  H   UNL A   1      36.125  20.135  25.943  1.00  0.00     0.027 H 
BRANCH  41  44
ATOM     44  C   UNL A   1      37.866  19.829  24.830  1.00  0.00    -0.036 C 
ATOM     45  H   UNL A   1      38.177  20.022  23.825  1.00  0.00     0.028 H 
ATOM     46  H   UNL A   1      37.654  18.799  25.030  1.00  0.00     0.028 H 
BRANCH  44  47
ATOM     47  C   UNL A   1      39.021  20.201  25.758  1.00  0.00     0.018 C 
ATOM     48  H   UNL A   1      38.626  20.395  26.733  1.00  0.00     0.049 H 
ATOM     49  H   UNL A   1      39.500  21.062  25.343  1.00  0.00     0.049 H 
BRANCH  47  50
ATOM     50  N   UNL A   1      40.020  19.153  25.864  1.00  0.00    -0.352 N 
ATOM     51  C   UNL A   1      41.369  19.243  26.106  1.00  0.00     0.251 C 
ATOM     52  H   UNL A   1      39.679  18.238  25.744  1.00  0.00     0.163 HD
ATOM     53  O   UNL A   1      42.076  18.245  26.022  1.00  0.00    -0.269 OA
BRANCH  51  54
ATOM     54  C   UNL A   1      41.984  20.547  26.440  1.00  0.00     0.039 A 
ATOM     55  C   UNL A   1      42.388  21.383  25.395  1.00  0.00    -0.049 A 
ATOM     56  C   UNL A   1      42.183  20.940  27.766  1.00  0.00    -0.049 A 
ATOM     57  C   UNL A   1      42.924  22.641  25.678  1.00  0.00    -0.053 A 
ATOM     58  H   UNL A   1      42.289  21.072  24.416  1.00  0.00     0.063 H 
ATOM     59  C   UNL A   1      42.661  22.220  28.047  1.00  0.00    -0.053 A 
ATOM     60  H   UNL A   1      41.977  20.285  28.536  1.00  0.00     0.063 H 
ATOM     61  C   UNL A   1      43.030  23.085  27.006  1.00  0.00    -0.014 A 
ATOM     62  H   UNL A   1      43.245  23.249  24.907  1.00  0.00     0.063 H 
ATOM     63  H   UNL A   1      42.743  22.533  29.027  1.00  0.00     0.063 H 
BRANCH  61  64
ATOM     64  C   UNL A   1      43.501  24.459  27.323  1.00  0.00     0.031 A 
ATOM     65  C   UNL A   1      42.542  25.489  27.846  1.00  0.00     0.074 A 
ATOM     66  C   UNL A   1      44.782  24.794  27.073  1.00  0.00     0.049 A 
ATOM     67  N   UNL A   1      42.744  26.760  28.091  1.00  0.00    -0.248 NA
ATOM     68  C   UNL A   1      41.167  25.038  28.110  1.00  0.00    -0.034 C 
ATOM     69  C   UNL A   1      45.802  23.894  26.531  1.00  0.00    -0.036 A 
ATOM     70  N   UNL A   1      45.443  25.988  27.226  1.00  0.00    -0.354 N 
ATOM     71  C   UNL A   1      41.524  27.261  28.527  1.00  0.00     0.074 A 
ATOM     72  C   UNL A   1      40.575  26.169  28.469  1.00  0.00    -0.034 C 
ATOM     73  H   UNL A   1      40.768  24.090  28.035  1.00  0.00     0.065 H 
ATOM     74  C   UNL A   1      46.958  24.563  26.408  1.00  0.00    -0.036 A 
ATOM     75  H   UNL A   1      45.653  22.903  26.283  1.00  0.00     0.065 H 
ATOM     76  C   UNL A   1      46.755  25.948  26.822  1.00  0.00     0.049 A 
ATOM     77  H   UNL A   1      45.016  26.797  27.591  1.00  0.00     0.167 HD
ATOM     78  C   UNL A   1      41.228  28.511  28.955  1.00  0.00     0.037 A 
ATOM     79  H   UNL A   1      39.568  26.259  28.679  1.00  0.00     0.065 H 
ATOM     80  H   UNL A   1      47.850  24.163  26.074  1.00  0.00     0.065 H 
ATOM     81  C   UNL A   1      47.685  26.921  26.775  1.00  0.00     0.037 A 
ATOM     82  C   UNL A   1      42.179  29.590  29.030  1.00  0.00     0.049 A 
ATOM     83  C   UNL A   1      47.322  28.307  27.236  1.00  0.00     0.074 A 
ATOM     84  C   UNL A   1      41.986  30.879  29.497  1.00  0.00    -0.036 A 
ATOM     85  N   UNL A   1      43.503  29.507  28.625  1.00  0.00    -0.354 N 
ATOM     86  N   UNL A   1      46.180  28.752  27.700  1.00  0.00    -0.248 NA
ATOM     87  C   UNL A   1      48.381  29.323  27.172  1.00  0.00    -0.034 C 
ATOM     88  C   UNL A   1      43.181  31.589  29.333  1.00  0.00    -0.036 A 
ATOM     89  H   UNL A   1      41.112  31.253  29.897  1.00  0.00     0.065 H 
ATOM     90  C   UNL A   1      44.132  30.727  28.811  1.00  0.00     0.049 A 
ATOM     91  H   UNL A   1      43.932  28.699  28.260  1.00  0.00     0.167 HD
ATOM     92  C   UNL A   1      46.389  30.090  28.007  1.00  0.00     0.074 A 
ATOM     93  C   UNL A   1      47.773  30.380  27.694  1.00  0.00    -0.034 C 
ATOM     94  H   UNL A   1      49.345  29.238  26.814  1.00  0.00     0.065 H 
ATOM     95  H   UNL A   1      43.328  32.584  29.561  1.00  0.00     0.065 H 
ATOM     96  C   UNL A   1      45.513  30.998  28.501  1.00  0.00     0.037 A 
ATOM     97  H   UNL A   1      48.227  31.291  27.857  1.00  0.00     0.065 H 
BRANCH  78  98
ATOM     98  C   UNL A   1      39.816  28.786  29.384  1.00  0.00     0.064 A 
ATOM     99  C   UNL A   1      38.855  29.262  28.481  1.00  0.00     0.173 A 
ATOM    100  C   UNL A   1      39.404  28.519  30.699  1.00  0.00     0.173 A 
ATOM    101  F   UNL A   1      39.200  29.543  27.214  1.00  0.00    -0.203 F 
ATOM    102  C   UNL A   1      37.539  29.481  28.881  1.00  0.00     0.198 A 
ATOM    103  C   UNL A   1      38.082  28.710  31.089  1.00  0.00     0.198 A 
ATOM    104  F   UNL A   1      40.283  28.055  31.601  1.00  0.00    -0.203 F 
ATOM    105  F   UNL A   1      36.648  29.974  28.011  1.00  0.00    -0.200 F 
ATOM    106  C   UNL A   1      37.152  29.197  30.182  1.00  0.00     0.200 A 
ATOM    107  F   UNL A   1      37.706  28.422  32.343  1.00  0.00    -0.200 F 
ATOM    108  F   UNL A   1      35.883  29.395  30.563  1.00  0.00    -0.200 F 
ENDBRANCH  78  98
BRANCH  81 109
ATOM    109  C   UNL A   1      49.053  26.622  26.276  1.00  0.00     0.064 A 
ATOM    110  C   UNL A   1      50.040  26.118  27.134  1.00  0.00     0.173 A 
ATOM    111  C   UNL A   1      49.407  26.852  24.938  1.00  0.00     0.173 A 
ATOM    112  F   UNL A   1      49.755  25.904  28.427  1.00  0.00    -0.203 F 
ATOM    113  C   UNL A   1      51.337  25.882  26.682  1.00  0.00     0.198 A 
ATOM    114  C   UNL A   1      50.696  26.586  24.479  1.00  0.00     0.198 A 
ATOM    115  F   UNL A   1      48.500  27.330  24.074  1.00  0.00    -0.203 F 
ATOM    116  F   UNL A   1      52.274  25.453  27.537  1.00  0.00    -0.200 F 
ATOM    117  C   UNL A   1      51.662  26.112  25.354  1.00  0.00     0.200 A 
ATOM    118  F   UNL A   1      51.002  26.797  23.192  1.00  0.00    -0.200 F 
ATOM    119  F   UNL A   1      52.909  25.886  24.918  1.00  0.00    -0.200 F 
ENDBRANCH  81 109
BRANCH  96 120
ATOM    120  C   UNL A   1      46.033  32.381  28.765  1.00  0.00     0.064 A 
ATOM    121  C   UNL A   1      45.963  33.392  27.795  1.00  0.00     0.173 A 
ATOM    122  C   UNL A   1      46.577  32.709  30.017  1.00  0.00     0.173 A 
ATOM    123  F   UNL A   1      45.466  33.125  26.578  1.00  0.00    -0.203 F 
ATOM    124  C   UNL A   1      46.443  34.672  28.059  1.00  0.00     0.198 A 
ATOM    125  C   UNL A   1      47.028  33.997  30.288  1.00  0.00     0.198 A 
ATOM    126  F   UNL A   1      46.660  31.780  30.982  1.00  0.00    -0.203 F 
ATOM    127  F   UNL A   1      46.412  35.608  27.100  1.00  0.00    -0.200 F 
ATOM    128  C   UNL A   1      46.967  34.975  29.307  1.00  0.00     0.200 A 
ATOM    129  F   UNL A   1      47.522  34.292  31.498  1.00  0.00    -0.200 F 
ATOM    130  F   UNL A   1      47.423  36.209  29.561  1.00  0.00    -0.200 F 
ENDBRANCH  96 120
ENDBRANCH  61  64
ENDBRANCH  51  54
ENDBRANCH  47  50
ENDBRANCH  44  47
ENDBRANCH  41  44
ENDBRANCH   1  41
TORSDOF 17
ENDMDL
MODEL 4
REMARK VINA RESULT:     -11.7      0.554      7.280
REMARK SMILES COc1ccc2cc([C@H](C)C(=O)NCCCCCCNC(=O)c3ccc(-c4c5nc(c(-c6c(F)c(F)c(F)c(F)c6F)c6ccc([nH]6)c(-c6c(F)c(F)c(F)c(F)c6F)c6nc(c(-c7c(F)c(F)c(F)c(F)c7F)c7ccc4[nH]7)C=C6)C=C5)cc3)ccc2c1
REMARK SMILES IDX 16 1 15 4 14 7 13 10 11 11 12 12 9 14 8 16 3 17 4 18 89 19
REMARK SMILES IDX 5 20 88 22 6 24 87 26 7 27 86 28 2 32 1 33 10 37 17 41 18 44
REMARK SMILES IDX 19 47 20 50 21 51 22 53 23 54 24 55 85 56 25 57 84 59 26 61
REMARK SMILES IDX 27 64 28 65 78 66 29 67 83 68 77 69 79 70 30 71 82 72 76 74
REMARK SMILES IDX 75 76 31 78 63 81 43 82 62 83 44 84 47 85 61 86 80 87 45 88
REMARK SMILES IDX 46 90 60 92 81 93 48 96 32 98 33 99 41 100 34 101 35 102
REMARK SMILES IDX 39 103 42 104 36 105 37 106 40 107 38 108 64 109 65 110
REMARK SMILES IDX 73 111 66 112 67 113 71 114 74 115 68 116 69 117 72 118
REMARK SMILES IDX 70 119 49 120 50 121 58 122 51 123 52 124 56 125 59 126
REMARK SMILES IDX 53 127 54 128 57 129 55 130
REMARK H PARENT 16 2 16 3 15 5 15 6 14 8 14 9 13 13 9 15 4 21 89 23 5 25 87 29
REMARK H PARENT 7 30 86 31 1 34 1 35 1 36 10 38 10 39 10 40 17 42 17 43 18 45
REMARK H PARENT 18 46 19 48 19 49 20 52 24 58 85 60 25 62 84 63 83 73 77 75
REMARK H PARENT 79 77 82 79 76 80 44 89 47 91 80 94 45 95 81 97
REMARK Flexibility Score: inf
ROOT
ATOM      1  C   UNL A   1      32.328  29.893  26.894  1.00  0.00    -0.052 C 
ATOM      2  H   UNL A   1      33.184  29.649  26.302  1.00  0.00     0.027 H 
ATOM      3  H   UNL A   1      32.550  30.463  27.772  1.00  0.00     0.027 H 
ENDROOT
BRANCH   1   4
ATOM      4  C   UNL A   1      31.715  28.584  27.394  1.00  0.00    -0.036 C 
ATOM      5  H   UNL A   1      32.119  28.382  28.364  1.00  0.00     0.028 H 
ATOM      6  H   UNL A   1      30.656  28.735  27.390  1.00  0.00     0.028 H 
BRANCH   4   7
ATOM      7  C   UNL A   1      31.968  27.364  26.516  1.00  0.00     0.017 C 
ATOM      8  H   UNL A   1      31.742  27.623  25.503  1.00  0.00     0.049 H 
ATOM      9  H   UNL A   1      32.994  27.089  26.643  1.00  0.00     0.049 H 
BRANCH   7  10
ATOM     10  N   UNL A   1      31.168  26.216  26.886  1.00  0.00    -0.356 N 
ATOM     11  C   UNL A   1      30.668  25.218  26.097  1.00  0.00     0.227 C 
ATOM     12  O   UNL A   1      30.109  24.274  26.663  1.00  0.00    -0.274 OA
ATOM     13  H   UNL A   1      30.952  26.145  27.844  1.00  0.00     0.163 HD
BRANCH  11  14
ATOM     14  C   UNL A   1      30.778  25.256  24.562  1.00  0.00     0.060 C 
ATOM     15  H   UNL A   1      31.755  25.589  24.282  1.00  0.00     0.045 H 
BRANCH  14  16
ATOM     16  C   UNL A   1      29.879  26.330  23.955  1.00  0.00    -0.035 A 
ATOM     17  C   UNL A   1      28.208  30.672  21.910  1.00  0.00     0.119 A 
ATOM     18  C   UNL A   1      29.572  30.633  21.638  1.00  0.00    -0.019 A 
ATOM     19  C   UNL A   1      27.594  29.630  22.601  1.00  0.00    -0.012 A 
ATOM     20  C   UNL A   1      30.331  29.543  22.071  1.00  0.00    -0.051 A 
ATOM     21  H   UNL A   1      30.021  31.406  21.122  1.00  0.00     0.066 H 
ATOM     22  C   UNL A   1      28.341  28.516  23.011  1.00  0.00    -0.015 A 
ATOM     23  H   UNL A   1      26.586  29.678  22.813  1.00  0.00     0.067 H 
ATOM     24  C   UNL A   1      29.731  28.482  22.773  1.00  0.00    -0.018 A 
ATOM     25  H   UNL A   1      31.343  29.514  21.872  1.00  0.00     0.063 H 
ATOM     26  C   UNL A   1      27.731  27.434  23.655  1.00  0.00    -0.054 A 
ATOM     27  C   UNL A   1      30.482  27.401  23.266  1.00  0.00    -0.050 A 
ATOM     28  C   UNL A   1      28.486  26.342  24.091  1.00  0.00    -0.058 A 
ATOM     29  H   UNL A   1      26.710  27.442  23.810  1.00  0.00     0.063 H 
ATOM     30  H   UNL A   1      31.504  27.391  23.119  1.00  0.00     0.063 H 
ATOM     31  H   UNL A   1      28.010  25.533  24.519  1.00  0.00     0.063 H 
BRANCH  17  32
ATOM     32  O   UNL A   1      27.434  31.754  21.589  1.00  0.00    -0.497 OA
BRANCH  32  33
ATOM     33  C   UNL A   1      27.922  32.416  20.424  1.00  0.00     0.078 C 
ATOM     34  H   UNL A   1      27.626  33.444  20.447  1.00  0.00     0.067 H 
ATOM     35  H   UNL A   1      27.515  31.948  19.551  1.00  0.00     0.067 H 
ATOM     36  H   UNL A   1      28.989  32.353  20.398  1.00  0.00     0.067 H 
ENDBRANCH  32  33
ENDBRANCH  17  32
ENDBRANCH  14  16
BRANCH  14  37
ATOM     37  C   UNL A   1      30.725  23.851  23.947  1.00  0.00    -0.049 C 
ATOM     38  H   UNL A   1      31.675  23.616  23.514  1.00  0.00     0.024 H 
ATOM     39  H   UNL A   1      29.970  23.822  23.189  1.00  0.00     0.024 H 
ATOM     40  H   UNL A   1      30.494  23.137  24.709  1.00  0.00     0.024 H 
ENDBRANCH  14  37
ENDBRANCH  11  14
ENDBRANCH   7  10
ENDBRANCH   4   7
ENDBRANCH   1   4
BRANCH   1  41
ATOM     41  C   UNL A   1      31.410  30.780  26.047  1.00  0.00    -0.052 C 
ATOM     42  H   UNL A   1      30.424  30.366  26.091  1.00  0.00     0.027 H 
ATOM     43  H   UNL A   1      31.842  30.787  25.069  1.00  0.00     0.027 H 
BRANCH  41  44
ATOM     44  C   UNL A   1      31.317  32.250  26.464  1.00  0.00    -0.036 C 
ATOM     45  H   UNL A   1      30.475  32.354  27.116  1.00  0.00     0.028 H 
ATOM     46  H   UNL A   1      31.234  32.805  25.553  1.00  0.00     0.028 H 
BRANCH  44  47
ATOM     47  C   UNL A   1      32.539  32.815  27.183  1.00  0.00     0.018 C 
ATOM     48  H   UNL A   1      33.375  32.779  26.517  1.00  0.00     0.049 H 
ATOM     49  H   UNL A   1      32.701  32.220  28.057  1.00  0.00     0.049 H 
BRANCH  47  50
ATOM     50  N   UNL A   1      32.354  34.188  27.619  1.00  0.00    -0.352 N 
ATOM     51  C   UNL A   1      33.001  34.896  28.601  1.00  0.00     0.251 C 
ATOM     52  H   UNL A   1      31.658  34.689  27.135  1.00  0.00     0.163 HD
ATOM     53  O   UNL A   1      32.606  36.014  28.915  1.00  0.00    -0.269 OA
BRANCH  51  54
ATOM     54  C   UNL A   1      34.159  34.306  29.309  1.00  0.00     0.039 A 
ATOM     55  C   UNL A   1      33.924  33.555  30.464  1.00  0.00    -0.049 A 
ATOM     56  C   UNL A   1      35.467  34.505  28.858  1.00  0.00    -0.049 A 
ATOM     57  C   UNL A   1      34.992  32.943  31.126  1.00  0.00    -0.053 A 
ATOM     58  H   UNL A   1      32.964  33.452  30.828  1.00  0.00     0.063 H 
ATOM     59  C   UNL A   1      36.524  33.843  29.482  1.00  0.00    -0.053 A 
ATOM     60  H   UNL A   1      35.649  35.139  28.065  1.00  0.00     0.063 H 
ATOM     61  C   UNL A   1      36.296  33.051  30.618  1.00  0.00    -0.014 A 
ATOM     62  H   UNL A   1      34.821  32.408  31.992  1.00  0.00     0.063 H 
ATOM     63  H   UNL A   1      37.480  33.937  29.106  1.00  0.00     0.063 H 
BRANCH  61  64
ATOM     64  C   UNL A   1      37.430  32.324  31.247  1.00  0.00     0.031 A 
ATOM     65  C   UNL A   1      37.922  32.719  32.611  1.00  0.00     0.074 A 
ATOM     66  C   UNL A   1      38.058  31.353  30.558  1.00  0.00     0.049 A 
ATOM     67  N   UNL A   1      38.951  32.268  33.282  1.00  0.00    -0.248 NA
ATOM     68  C   UNL A   1      37.169  33.776  33.304  1.00  0.00    -0.034 C 
ATOM     69  C   UNL A   1      37.698  30.902  29.212  1.00  0.00    -0.036 A 
ATOM     70  N   UNL A   1      39.143  30.578  30.887  1.00  0.00    -0.354 N 
ATOM     71  C   UNL A   1      38.977  32.990  34.468  1.00  0.00     0.074 A 
ATOM     72  C   UNL A   1      37.888  33.941  34.406  1.00  0.00    -0.034 C 
ATOM     73  H   UNL A   1      36.308  34.262  33.010  1.00  0.00     0.065 H 
ATOM     74  C   UNL A   1      38.538  29.925  28.836  1.00  0.00    -0.036 A 
ATOM     75  H   UNL A   1      36.924  31.277  28.644  1.00  0.00     0.065 H 
ATOM     76  C   UNL A   1      39.520  29.707  29.894  1.00  0.00     0.049 A 
ATOM     77  H   UNL A   1      39.607  30.640  31.754  1.00  0.00     0.167 HD
ATOM     78  C   UNL A   1      39.819  32.856  35.520  1.00  0.00     0.037 A 
ATOM     79  H   UNL A   1      37.696  34.656  35.126  1.00  0.00     0.065 H 
ATOM     80  H   UNL A   1      38.497  29.410  27.942  1.00  0.00     0.065 H 
ATOM     81  C   UNL A   1      40.551  28.842  29.835  1.00  0.00     0.037 A 
ATOM     82  C   UNL A   1      40.890  31.895  35.587  1.00  0.00     0.049 A 
ATOM     83  C   UNL A   1      41.485  28.731  31.011  1.00  0.00     0.074 A 
ATOM     84  C   UNL A   1      41.766  31.652  36.631  1.00  0.00    -0.036 A 
ATOM     85  N   UNL A   1      41.233  31.021  34.567  1.00  0.00    -0.354 N 
ATOM     86  N   UNL A   1      41.462  29.379  32.150  1.00  0.00    -0.248 NA
ATOM     87  C   UNL A   1      42.584  27.763  30.893  1.00  0.00    -0.034 C 
ATOM     88  C   UNL A   1      42.667  30.660  36.226  1.00  0.00    -0.036 A 
ATOM     89  H   UNL A   1      41.757  32.120  37.550  1.00  0.00     0.065 H 
ATOM     90  C   UNL A   1      42.320  30.252  34.948  1.00  0.00     0.049 A 
ATOM     91  H   UNL A   1      40.771  30.956  33.700  1.00  0.00     0.167 HD
ATOM     92  C   UNL A   1      42.524  28.880  32.893  1.00  0.00     0.074 A 
ATOM     93  C   UNL A   1      43.160  27.862  32.083  1.00  0.00    -0.034 C 
ATOM     94  H   UNL A   1      42.840  27.163  30.094  1.00  0.00     0.065 H 
ATOM     95  H   UNL A   1      43.455  30.296  36.782  1.00  0.00     0.065 H 
ATOM     96  C   UNL A   1      42.937  29.236  34.133  1.00  0.00     0.037 A 
ATOM     97  H   UNL A   1      43.958  27.287  32.393  1.00  0.00     0.065 H 
BRANCH  78  98
ATOM     98  C   UNL A   1      39.618  33.769  36.695  1.00  0.00     0.064 A 
ATOM     99  C   UNL A   1      38.831  33.388  37.793  1.00  0.00     0.173 A 
ATOM    100  C   UNL A   1      40.262  35.014  36.752  1.00  0.00     0.173 A 
ATOM    101  F   UNL A   1      38.185  32.212  37.784  1.00  0.00    -0.203 F 
ATOM    102  C   UNL A   1      38.679  34.228  38.893  1.00  0.00     0.198 A 
ATOM    103  C   UNL A   1      40.133  35.839  37.866  1.00  0.00     0.198 A 
ATOM    104  F   UNL A   1      41.032  35.423  35.732  1.00  0.00    -0.203 F 
ATOM    105  F   UNL A   1      37.891  33.860  39.912  1.00  0.00    -0.200 F 
ATOM    106  C   UNL A   1      39.337  35.448  38.932  1.00  0.00     0.200 A 
ATOM    107  F   UNL A   1      40.780  37.012  37.908  1.00  0.00    -0.200 F 
ATOM    108  F   UNL A   1      39.201  36.250  39.997  1.00  0.00    -0.200 F 
ENDBRANCH  78  98
BRANCH  81 109
ATOM    109  C   UNL A   1      40.756  28.008  28.622  1.00  0.00     0.064 A 
ATOM    110  C   UNL A   1      41.559  28.458  27.564  1.00  0.00     0.173 A 
ATOM    111  C   UNL A   1      40.139  26.755  28.485  1.00  0.00     0.173 A 
ATOM    112  F   UNL A   1      42.150  29.659  27.640  1.00  0.00    -0.203 F 
ATOM    113  C   UNL A   1      41.715  27.701  26.406  1.00  0.00     0.198 A 
ATOM    114  C   UNL A   1      40.321  25.985  27.339  1.00  0.00     0.198 A 
ATOM    115  F   UNL A   1      39.364  26.276  29.469  1.00  0.00    -0.203 F 
ATOM    116  F   UNL A   1      42.444  28.180  25.389  1.00  0.00    -0.200 F 
ATOM    117  C   UNL A   1      41.101  26.463  26.296  1.00  0.00     0.200 A 
ATOM    118  F   UNL A   1      39.737  24.783  27.242  1.00  0.00    -0.200 F 
ATOM    119  F   UNL A   1      41.250  25.735  25.180  1.00  0.00    -0.200 F 
ENDBRANCH  81 109
BRANCH  96 120
ATOM    120  C   UNL A   1      44.112  28.496  34.705  1.00  0.00     0.064 A 
ATOM    121  C   UNL A   1      43.953  27.297  35.416  1.00  0.00     0.173 A 
ATOM    122  C   UNL A   1      45.416  28.976  34.509  1.00  0.00     0.173 A 
ATOM    123  F   UNL A   1      42.725  26.807  35.643  1.00  0.00    -0.203 F 
ATOM    124  C   UNL A   1      45.054  26.621  35.933  1.00  0.00     0.198 A 
ATOM    125  C   UNL A   1      46.517  28.281  35.001  1.00  0.00     0.198 A 
ATOM    126  F   UNL A   1      45.623  30.114  33.830  1.00  0.00    -0.203 F 
ATOM    127  F   UNL A   1      44.874  25.504  36.652  1.00  0.00    -0.200 F 
ATOM    128  C   UNL A   1      46.334  27.108  35.719  1.00  0.00     0.200 A 
ATOM    129  F   UNL A   1      47.754  28.746  34.782  1.00  0.00    -0.200 F 
ATOM    130  F   UNL A   1      47.393  26.452  36.212  1.00  0.00    -0.200 F 
ENDBRANCH  96 120
ENDBRANCH  61  64
ENDBRANCH  51  54
ENDBRANCH  47  50
ENDBRANCH  44  47
ENDBRANCH  41  44
ENDBRANCH   1  41
TORSDOF 17
ENDMDL
MODEL 5
REMARK VINA RESULT:     -11.6      2.088      3.310
REMARK SMILES COc1ccc2cc([C@H](C)C(=O)NCCCCCCNC(=O)c3ccc(-c4c5nc(c(-c6c(F)c(F)c(F)c(F)c6F)c6ccc([nH]6)c(-c6c(F)c(F)c(F)c(F)c6F)c6nc(c(-c7c(F)c(F)c(F)c(F)c7F)c7ccc4[nH]7)C=C6)C=C5)cc3)ccc2c1
REMARK SMILES IDX 16 1 15 4 14 7 13 10 11 11 12 12 9 14 8 16 3 17 4 18 89 19
REMARK SMILES IDX 5 20 88 22 6 24 87 26 7 27 86 28 2 32 1 33 10 37 17 41 18 44
REMARK SMILES IDX 19 47 20 50 21 51 22 53 23 54 24 55 85 56 25 57 84 59 26 61
REMARK SMILES IDX 27 64 28 65 78 66 29 67 83 68 77 69 79 70 30 71 82 72 76 74
REMARK SMILES IDX 75 76 31 78 63 81 43 82 62 83 44 84 47 85 61 86 80 87 45 88
REMARK SMILES IDX 46 90 60 92 81 93 48 96 32 98 33 99 41 100 34 101 35 102
REMARK SMILES IDX 39 103 42 104 36 105 37 106 40 107 38 108 64 109 65 110
REMARK SMILES IDX 73 111 66 112 67 113 71 114 74 115 68 116 69 117 72 118
REMARK SMILES IDX 70 119 49 120 50 121 58 122 51 123 52 124 56 125 59 126
REMARK SMILES IDX 53 127 54 128 57 129 55 130
REMARK H PARENT 16 2 16 3 15 5 15 6 14 8 14 9 13 13 9 15 4 21 89 23 5 25 87 29
REMARK H PARENT 7 30 86 31 1 34 1 35 1 36 10 38 10 39 10 40 17 42 17 43 18 45
REMARK H PARENT 18 46 19 48 19 49 20 52 24 58 85 60 25 62 84 63 83 73 77 75
REMARK H PARENT 79 77 82 79 76 80 44 89 47 91 80 94 45 95 81 97
REMARK Flexibility Score: inf
ROOT
ATOM      1  C   UNL A   1      32.703  25.409  26.129  1.00  0.00    -0.052 C 
ATOM      2  H   UNL A   1      32.096  25.620  26.984  1.00  0.00     0.027 H 
ATOM      3  H   UNL A   1      32.150  25.116  25.261  1.00  0.00     0.027 H 
ENDROOT
BRANCH   1   4
ATOM      4  C   UNL A   1      33.598  24.217  26.471  1.00  0.00    -0.036 C 
ATOM      5  H   UNL A   1      34.615  24.546  26.423  1.00  0.00     0.028 H 
ATOM      6  H   UNL A   1      33.294  23.892  27.443  1.00  0.00     0.028 H 
BRANCH   4   7
ATOM      7  C   UNL A   1      33.453  23.005  25.558  1.00  0.00     0.017 C 
ATOM      8  H   UNL A   1      33.433  22.124  26.165  1.00  0.00     0.049 H 
ATOM      9  H   UNL A   1      32.547  23.133  25.003  1.00  0.00     0.049 H 
BRANCH   7  10
ATOM     10  N   UNL A   1      34.529  22.878  24.600  1.00  0.00    -0.356 N 
ATOM     11  C   UNL A   1      34.492  22.982  23.237  1.00  0.00     0.227 C 
ATOM     12  O   UNL A   1      35.571  22.953  22.636  1.00  0.00    -0.274 OA
ATOM     13  H   UNL A   1      35.416  22.689  24.984  1.00  0.00     0.163 HD
BRANCH  11  14
ATOM     14  C   UNL A   1      33.169  23.120  22.463  1.00  0.00     0.060 C 
ATOM     15  H   UNL A   1      33.354  23.005  21.415  1.00  0.00     0.045 H 
BRANCH  14  16
ATOM     16  C   UNL A   1      32.607  24.537  22.544  1.00  0.00    -0.035 A 
ATOM     17  C   UNL A   1      29.433  28.480  22.989  1.00  0.00     0.119 A 
ATOM     18  C   UNL A   1      28.787  27.411  23.601  1.00  0.00    -0.019 A 
ATOM     19  C   UNL A   1      30.700  28.317  22.435  1.00  0.00    -0.012 A 
ATOM     20  C   UNL A   1      29.413  26.163  23.652  1.00  0.00    -0.051 A 
ATOM     21  H   UNL A   1      27.849  27.538  24.014  1.00  0.00     0.066 H 
ATOM     22  C   UNL A   1      31.351  27.078  22.509  1.00  0.00    -0.015 A 
ATOM     23  H   UNL A   1      31.162  29.112  21.967  1.00  0.00     0.067 H 
ATOM     24  C   UNL A   1      30.691  25.977  23.096  1.00  0.00    -0.018 A 
ATOM     25  H   UNL A   1      28.934  25.369  24.104  1.00  0.00     0.063 H 
ATOM     26  C   UNL A   1      32.648  26.911  22.011  1.00  0.00    -0.054 A 
ATOM     27  C   UNL A   1      31.320  24.720  23.086  1.00  0.00    -0.050 A 
ATOM     28  C   UNL A   1      33.278  25.665  22.058  1.00  0.00    -0.058 A 
ATOM     29  H   UNL A   1      33.146  27.718  21.603  1.00  0.00     0.063 H 
ATOM     30  H   UNL A   1      30.824  23.908  23.487  1.00  0.00     0.063 H 
ATOM     31  H   UNL A   1      34.252  25.575  21.730  1.00  0.00     0.063 H 
BRANCH  17  32
ATOM     32  O   UNL A   1      28.830  29.699  22.832  1.00  0.00    -0.497 OA
BRANCH  32  33
ATOM     33  C   UNL A   1      29.248  30.335  21.626  1.00  0.00     0.078 C 
ATOM     34  H   UNL A   1      30.281  30.120  21.448  1.00  0.00     0.067 H 
ATOM     35  H   UNL A   1      29.115  31.394  21.717  1.00  0.00     0.067 H 
ATOM     36  H   UNL A   1      28.662  29.971  20.809  1.00  0.00     0.067 H 
ENDBRANCH  32  33
ENDBRANCH  17  32
ENDBRANCH  14  16
BRANCH  14  37
ATOM     37  C   UNL A   1      32.210  21.956  22.751  1.00  0.00    -0.049 C 
ATOM     38  H   UNL A   1      31.286  22.340  23.129  1.00  0.00     0.024 H 
ATOM     39  H   UNL A   1      32.649  21.304  23.477  1.00  0.00     0.024 H 
ATOM     40  H   UNL A   1      32.028  21.413  21.848  1.00  0.00     0.024 H 
ENDBRANCH  14  37
ENDBRANCH  11  14
ENDBRANCH   7  10
ENDBRANCH   4   7
ENDBRANCH   1   4
BRANCH   1  41
ATOM     41  C   UNL A   1      33.429  26.701  25.739  1.00  0.00    -0.052 C 
ATOM     42  H   UNL A   1      33.826  26.568  24.754  1.00  0.00     0.027 H 
ATOM     43  H   UNL A   1      34.169  26.853  26.496  1.00  0.00     0.027 H 
BRANCH  41  44
ATOM     44  C   UNL A   1      32.583  27.976  25.731  1.00  0.00    -0.036 C 
ATOM     45  H   UNL A   1      32.271  28.170  26.736  1.00  0.00     0.028 H 
ATOM     46  H   UNL A   1      31.776  27.786  25.054  1.00  0.00     0.028 H 
BRANCH  44  47
ATOM     47  C   UNL A   1      33.276  29.231  25.205  1.00  0.00     0.018 C 
ATOM     48  H   UNL A   1      33.143  29.275  24.145  1.00  0.00     0.049 H 
ATOM     49  H   UNL A   1      34.310  29.163  25.474  1.00  0.00     0.049 H 
BRANCH  47  50
ATOM     50  N   UNL A   1      32.754  30.453  25.789  1.00  0.00    -0.352 N 
ATOM     51  C   UNL A   1      33.210  31.184  26.857  1.00  0.00     0.251 C 
ATOM     52  H   UNL A   1      31.948  30.812  25.352  1.00  0.00     0.163 HD
ATOM     53  O   UNL A   1      32.547  32.123  27.288  1.00  0.00    -0.269 OA
BRANCH  51  54
ATOM     54  C   UNL A   1      34.487  30.831  27.516  1.00  0.00     0.039 A 
ATOM     55  C   UNL A   1      35.475  31.814  27.629  1.00  0.00    -0.049 A 
ATOM     56  C   UNL A   1      34.725  29.542  28.001  1.00  0.00    -0.049 A 
ATOM     57  C   UNL A   1      36.670  31.526  28.291  1.00  0.00    -0.053 A 
ATOM     58  H   UNL A   1      35.321  32.751  27.224  1.00  0.00     0.063 H 
ATOM     59  C   UNL A   1      35.892  29.273  28.716  1.00  0.00    -0.053 A 
ATOM     60  H   UNL A   1      34.037  28.791  27.831  1.00  0.00     0.063 H 
ATOM     61  C   UNL A   1      36.873  30.264  28.873  1.00  0.00    -0.014 A 
ATOM     62  H   UNL A   1      37.410  32.244  28.353  1.00  0.00     0.063 H 
ATOM     63  H   UNL A   1      36.034  28.340  29.132  1.00  0.00     0.063 H 
BRANCH  61  64
ATOM     64  C   UNL A   1      38.093  29.971  29.669  1.00  0.00     0.031 A 
ATOM     65  C   UNL A   1      39.130  29.017  29.147  1.00  0.00     0.074 A 
ATOM     66  C   UNL A   1      38.231  30.514  30.894  1.00  0.00     0.049 A 
ATOM     67  N   UNL A   1      40.210  28.566  29.734  1.00  0.00    -0.248 NA
ATOM     68  C   UNL A   1      38.914  28.483  27.793  1.00  0.00    -0.034 C 
ATOM     69  C   UNL A   1      37.277  31.426  31.528  1.00  0.00    -0.036 A 
ATOM     70  N   UNL A   1      39.221  30.365  31.834  1.00  0.00    -0.354 N 
ATOM     71  C   UNL A   1      40.796  27.690  28.829  1.00  0.00     0.074 A 
ATOM     72  C   UNL A   1      39.927  27.637  27.672  1.00  0.00    -0.034 C 
ATOM     73  H   UNL A   1      38.168  28.707  27.117  1.00  0.00     0.065 H 
ATOM     74  C   UNL A   1      37.733  31.763  32.744  1.00  0.00    -0.036 A 
ATOM     75  H   UNL A   1      36.395  31.755  31.106  1.00  0.00     0.065 H 
ATOM     76  C   UNL A   1      38.988  31.062  32.995  1.00  0.00     0.049 A 
ATOM     77  H   UNL A   1      40.023  29.812  31.690  1.00  0.00     0.167 HD
ATOM     78  C   UNL A   1      41.961  27.010  28.945  1.00  0.00     0.037 A 
ATOM     79  H   UNL A   1      40.077  27.020  26.858  1.00  0.00     0.065 H 
ATOM     80  H   UNL A   1      37.270  32.414  33.399  1.00  0.00     0.065 H 
ATOM     81  C   UNL A   1      39.697  31.117  34.139  1.00  0.00     0.037 A 
ATOM     82  C   UNL A   1      42.832  27.080  30.089  1.00  0.00     0.049 A 
ATOM     83  C   UNL A   1      40.977  30.332  34.248  1.00  0.00     0.074 A 
ATOM     84  C   UNL A   1      44.058  26.465  30.279  1.00  0.00    -0.036 A 
ATOM     85  N   UNL A   1      42.569  27.807  31.240  1.00  0.00    -0.354 N 
ATOM     86  N   UNL A   1      41.549  29.553  33.362  1.00  0.00    -0.248 NA
ATOM     87  C   UNL A   1      41.713  30.440  35.515  1.00  0.00    -0.034 C 
ATOM     88  C   UNL A   1      44.515  26.785  31.562  1.00  0.00    -0.036 A 
ATOM     89  H   UNL A   1      44.550  25.873  29.592  1.00  0.00     0.065 H 
ATOM     90  C   UNL A   1      43.598  27.639  32.152  1.00  0.00     0.049 A 
ATOM     91  H   UNL A   1      41.768  28.362  31.387  1.00  0.00     0.167 HD
ATOM     92  C   UNL A   1      42.721  29.100  33.953  1.00  0.00     0.074 A 
ATOM     93  C   UNL A   1      42.788  29.705  35.266  1.00  0.00    -0.034 C 
ATOM     94  H   UNL A   1      41.459  30.953  36.374  1.00  0.00     0.065 H 
ATOM     95  H   UNL A   1      45.386  26.442  31.996  1.00  0.00     0.065 H 
ATOM     96  C   UNL A   1      43.655  28.256  33.453  1.00  0.00     0.037 A 
ATOM     97  H   UNL A   1      43.574  29.582  35.923  1.00  0.00     0.065 H 
BRANCH  78  98
ATOM     98  C   UNL A   1      42.371  26.128  27.801  1.00  0.00     0.064 A 
ATOM     99  C   UNL A   1      41.835  24.842  27.637  1.00  0.00     0.173 A 
ATOM    100  C   UNL A   1      43.266  26.593  26.826  1.00  0.00     0.173 A 
ATOM    101  F   UNL A   1      40.982  24.346  28.547  1.00  0.00    -0.203 F 
ATOM    102  C   UNL A   1      42.196  24.046  26.554  1.00  0.00     0.198 A 
ATOM    103  C   UNL A   1      43.603  25.808  25.727  1.00  0.00     0.198 A 
ATOM    104  F   UNL A   1      43.803  27.819  26.931  1.00  0.00    -0.203 F 
ATOM    105  F   UNL A   1      41.702  22.806  26.439  1.00  0.00    -0.200 F 
ATOM    106  C   UNL A   1      43.073  24.533  25.595  1.00  0.00     0.200 A 
ATOM    107  F   UNL A   1      44.440  26.284  24.795  1.00  0.00    -0.200 F 
ATOM    108  F   UNL A   1      43.410  23.771  24.546  1.00  0.00    -0.200 F 
ENDBRANCH  78  98
BRANCH  81 109
ATOM    109  C   UNL A   1      39.218  31.947  35.274  1.00  0.00     0.064 A 
ATOM    110  C   UNL A   1      38.458  31.384  36.309  1.00  0.00     0.173 A 
ATOM    111  C   UNL A   1      39.490  33.322  35.339  1.00  0.00     0.173 A 
ATOM    112  F   UNL A   1      38.153  30.078  36.279  1.00  0.00    -0.203 F 
ATOM    113  C   UNL A   1      37.966  32.167  37.351  1.00  0.00     0.198 A 
ATOM    114  C   UNL A   1      39.023  34.098  36.397  1.00  0.00     0.198 A 
ATOM    115  F   UNL A   1      40.214  33.910  34.377  1.00  0.00    -0.203 F 
ATOM    116  F   UNL A   1      37.197  31.612  38.297  1.00  0.00    -0.200 F 
ATOM    117  C   UNL A   1      38.253  33.523  37.397  1.00  0.00     0.200 A 
ATOM    118  F   UNL A   1      39.314  35.406  36.445  1.00  0.00    -0.200 F 
ATOM    119  F   UNL A   1      37.778  34.277  38.398  1.00  0.00    -0.200 F 
ENDBRANCH  81 109
BRANCH  96 120
ATOM    120  C   UNL A   1      44.848  27.963  34.316  1.00  0.00     0.064 A 
ATOM    121  C   UNL A   1      45.994  28.770  34.288  1.00  0.00     0.173 A 
ATOM    122  C   UNL A   1      44.830  26.879  35.208  1.00  0.00     0.173 A 
ATOM    123  F   UNL A   1      46.067  29.808  33.440  1.00  0.00    -0.203 F 
ATOM    124  C   UNL A   1      47.089  28.488  35.100  1.00  0.00     0.198 A 
ATOM    125  C   UNL A   1      45.914  26.618  36.041  1.00  0.00     0.198 A 
ATOM    126  F   UNL A   1      43.755  26.080  35.279  1.00  0.00    -0.203 F 
ATOM    127  F   UNL A   1      48.194  29.244  35.019  1.00  0.00    -0.200 F 
ATOM    128  C   UNL A   1      47.045  27.418  35.981  1.00  0.00     0.200 A 
ATOM    129  F   UNL A   1      45.864  25.592  36.901  1.00  0.00    -0.200 F 
ATOM    130  F   UNL A   1      48.098  27.152  36.767  1.00  0.00    -0.200 F 
ENDBRANCH  96 120
ENDBRANCH  61  64
ENDBRANCH  51  54
ENDBRANCH  47  50
ENDBRANCH  44  47
ENDBRANCH  41  44
ENDBRANCH   1  41
TORSDOF 17
ENDMDL
MODEL 6
REMARK VINA RESULT:     -11.5      5.967     10.395
REMARK SMILES COc1ccc2cc([C@H](C)C(=O)NCCCCCCNC(=O)c3ccc(-c4c5nc(c(-c6c(F)c(F)c(F)c(F)c6F)c6ccc([nH]6)c(-c6c(F)c(F)c(F)c(F)c6F)c6nc(c(-c7c(F)c(F)c(F)c(F)c7F)c7ccc4[nH]7)C=C6)C=C5)cc3)ccc2c1
REMARK SMILES IDX 16 1 15 4 14 7 13 10 11 11 12 12 9 14 8 16 3 17 4 18 89 19
REMARK SMILES IDX 5 20 88 22 6 24 87 26 7 27 86 28 2 32 1 33 10 37 17 41 18 44
REMARK SMILES IDX 19 47 20 50 21 51 22 53 23 54 24 55 85 56 25 57 84 59 26 61
REMARK SMILES IDX 27 64 28 65 78 66 29 67 83 68 77 69 79 70 30 71 82 72 76 74
REMARK SMILES IDX 75 76 31 78 63 81 43 82 62 83 44 84 47 85 61 86 80 87 45 88
REMARK SMILES IDX 46 90 60 92 81 93 48 96 32 98 33 99 41 100 34 101 35 102
REMARK SMILES IDX 39 103 42 104 36 105 37 106 40 107 38 108 64 109 65 110
REMARK SMILES IDX 73 111 66 112 67 113 71 114 74 115 68 116 69 117 72 118
REMARK SMILES IDX 70 119 49 120 50 121 58 122 51 123 52 124 56 125 59 126
REMARK SMILES IDX 53 127 54 128 57 129 55 130
REMARK H PARENT 16 2 16 3 15 5 15 6 14 8 14 9 13 13 9 15 4 21 89 23 5 25 87 29
REMARK H PARENT 7 30 86 31 1 34 1 35 1 36 10 38 10 39 10 40 17 42 17 43 18 45
REMARK H PARENT 18 46 19 48 19 49 20 52 24 58 85 60 25 62 84 63 83 73 77 75
REMARK H PARENT 79 77 82 79 76 80 44 89 47 91 80 94 45 95 81 97
REMARK Flexibility Score: inf
ROOT
ATOM      1  C   UNL A   1      36.952  21.890  24.947  1.00  0.00    -0.052 C 
ATOM      2  H   UNL A   1      36.511  22.315  25.824  1.00  0.00     0.027 H 
ATOM      3  H   UNL A   1      38.017  21.990  24.900  1.00  0.00     0.027 H 
ENDROOT
BRANCH   1   4
ATOM      4  C   UNL A   1      36.411  22.649  23.735  1.00  0.00    -0.036 C 
ATOM      5  H   UNL A   1      37.204  23.252  23.344  1.00  0.00     0.028 H 
ATOM      6  H   UNL A   1      36.060  21.903  23.054  1.00  0.00     0.028 H 
BRANCH   4   7
ATOM      7  C   UNL A   1      35.220  23.559  24.009  1.00  0.00     0.017 C 
ATOM      8  H   UNL A   1      34.511  23.021  24.603  1.00  0.00     0.049 H 
ATOM      9  H   UNL A   1      35.592  24.427  24.513  1.00  0.00     0.049 H 
BRANCH   7  10
ATOM     10  N   UNL A   1      34.559  24.015  22.805  1.00  0.00    -0.356 N 
ATOM     11  C   UNL A   1      33.225  24.047  22.509  1.00  0.00     0.227 C 
ATOM     12  O   UNL A   1      32.890  24.594  21.454  1.00  0.00    -0.274 OA
ATOM     13  H   UNL A   1      35.156  24.349  22.097  1.00  0.00     0.163 HD
BRANCH  11  14
ATOM     14  C   UNL A   1      32.166  23.420  23.435  1.00  0.00     0.060 C 
ATOM     15  H   UNL A   1      32.427  23.609  24.455  1.00  0.00     0.045 H 
BRANCH  14  16
ATOM     16  C   UNL A   1      32.183  21.895  23.368  1.00  0.00    -0.035 A 
ATOM     17  C   UNL A   1      33.011  17.000  24.452  1.00  0.00     0.119 A 
ATOM     18  C   UNL A   1      33.101  17.671  25.667  1.00  0.00    -0.019 A 
ATOM     19  C   UNL A   1      32.726  17.696  23.280  1.00  0.00    -0.012 A 
ATOM     20  C   UNL A   1      32.911  19.055  25.708  1.00  0.00    -0.051 A 
ATOM     21  H   UNL A   1      33.308  17.151  26.534  1.00  0.00     0.066 H 
ATOM     22  C   UNL A   1      32.502  19.079  23.314  1.00  0.00    -0.015 A 
ATOM     23  H   UNL A   1      32.681  17.191  22.381  1.00  0.00     0.067 H 
ATOM     24  C   UNL A   1      32.626  19.776  24.535  1.00  0.00    -0.018 A 
ATOM     25  H   UNL A   1      32.980  19.554  26.608  1.00  0.00     0.063 H 
ATOM     26  C   UNL A   1      32.158  19.786  22.156  1.00  0.00    -0.054 A 
ATOM     27  C   UNL A   1      32.485  21.175  24.540  1.00  0.00    -0.050 A 
ATOM     28  C   UNL A   1      31.969  21.169  22.191  1.00  0.00    -0.058 A 
ATOM     29  H   UNL A   1      32.041  19.278  21.264  1.00  0.00     0.063 H 
ATOM     30  H   UNL A   1      32.606  21.688  25.427  1.00  0.00     0.063 H 
ATOM     31  H   UNL A   1      31.667  21.663  21.337  1.00  0.00     0.063 H 
BRANCH  17  32
ATOM     32  O   UNL A   1      33.275  15.662  24.340  1.00  0.00    -0.497 OA
BRANCH  32  33
ATOM     33  C   UNL A   1      32.633  14.916  25.372  1.00  0.00     0.078 C 
ATOM     34  H   UNL A   1      32.526  13.897  25.063  1.00  0.00     0.067 H 
ATOM     35  H   UNL A   1      31.666  15.333  25.565  1.00  0.00     0.067 H 
ATOM     36  H   UNL A   1      33.224  14.959  26.263  1.00  0.00     0.067 H 
ENDBRANCH  32  33
ENDBRANCH  17  32
ENDBRANCH  14  16
BRANCH  14  37
ATOM     37  C   UNL A   1      30.807  24.124  23.313  1.00  0.00    -0.049 C 
ATOM     38  H   UNL A   1      30.925  25.036  22.766  1.00  0.00     0.024 H 
ATOM     39  H   UNL A   1      30.429  24.340  24.290  1.00  0.00     0.024 H 
ATOM     40  H   UNL A   1      30.121  23.486  22.799  1.00  0.00     0.024 H 
ENDBRANCH  14  37
ENDBRANCH  11  14
ENDBRANCH   7  10
ENDBRANCH   4   7
ENDBRANCH   1   4
BRANCH   1  41
ATOM     41  C   UNL A   1      36.679  20.383  24.969  1.00  0.00    -0.052 C 
ATOM     42  H   UNL A   1      36.133  20.137  24.081  1.00  0.00     0.027 H 
ATOM     43  H   UNL A   1      36.147  20.201  25.878  1.00  0.00     0.027 H 
BRANCH  41  44
ATOM     44  C   UNL A   1      37.909  19.473  25.026  1.00  0.00    -0.036 C 
ATOM     45  H   UNL A   1      38.184  19.228  24.021  1.00  0.00     0.028 H 
ATOM     46  H   UNL A   1      37.619  18.629  25.616  1.00  0.00     0.028 H 
BRANCH  44  47
ATOM     47  C   UNL A   1      39.138  20.059  25.717  1.00  0.00     0.018 C 
ATOM     48  H   UNL A   1      38.847  20.416  26.683  1.00  0.00     0.049 H 
ATOM     49  H   UNL A   1      39.510  20.847  25.097  1.00  0.00     0.049 H 
BRANCH  47  50
ATOM     50  N   UNL A   1      40.208  19.092  25.884  1.00  0.00    -0.352 N 
ATOM     51  C   UNL A   1      41.541  19.290  26.146  1.00  0.00     0.251 C 
ATOM     52  H   UNL A   1      39.937  18.151  25.794  1.00  0.00     0.163 HD
ATOM     53  O   UNL A   1      42.320  18.344  26.116  1.00  0.00    -0.269 OA
BRANCH  51  54
ATOM     54  C   UNL A   1      42.053  20.648  26.438  1.00  0.00     0.039 A 
ATOM     55  C   UNL A   1      42.395  21.478  25.367  1.00  0.00    -0.049 A 
ATOM     56  C   UNL A   1      42.218  21.097  27.751  1.00  0.00    -0.049 A 
ATOM     57  C   UNL A   1      42.832  22.782  25.609  1.00  0.00    -0.053 A 
ATOM     58  H   UNL A   1      42.323  21.128  24.398  1.00  0.00     0.063 H 
ATOM     59  C   UNL A   1      42.595  22.418  27.991  1.00  0.00    -0.053 A 
ATOM     60  H   UNL A   1      42.061  20.453  28.542  1.00  0.00     0.063 H 
ATOM     61  C   UNL A   1      42.900  23.275  26.922  1.00  0.00    -0.014 A 
ATOM     62  H   UNL A   1      43.108  23.387  24.819  1.00  0.00     0.063 H 
ATOM     63  H   UNL A   1      42.650  22.767  28.960  1.00  0.00     0.063 H 
BRANCH  61  64
ATOM     64  C   UNL A   1      43.264  24.690  27.195  1.00  0.00     0.031 A 
ATOM     65  C   UNL A   1      44.671  25.168  26.975  1.00  0.00     0.074 A 
ATOM     66  C   UNL A   1      42.339  25.526  27.706  1.00  0.00     0.049 A 
ATOM     67  N   UNL A   1      45.200  26.336  27.243  1.00  0.00    -0.248 NA
ATOM     68  C   UNL A   1      45.616  24.200  26.397  1.00  0.00    -0.034 C 
ATOM     69  C   UNL A   1      40.948  25.172  27.998  1.00  0.00    -0.036 A 
ATOM     70  N   UNL A   1      42.432  26.842  28.086  1.00  0.00    -0.354 N 
ATOM     71  C   UNL A   1      46.537  26.240  26.877  1.00  0.00     0.074 A 
ATOM     72  C   UNL A   1      46.749  24.886  26.412  1.00  0.00    -0.034 C 
ATOM     73  H   UNL A   1      45.441  23.238  26.068  1.00  0.00     0.065 H 
ATOM     74  C   UNL A   1      40.318  26.245  28.499  1.00  0.00    -0.036 A 
ATOM     75  H   UNL A   1      40.523  24.245  27.843  1.00  0.00     0.065 H 
ATOM     76  C   UNL A   1      41.266  27.350  28.604  1.00  0.00     0.049 A 
ATOM     77  H   UNL A   1      43.257  27.372  27.996  1.00  0.00     0.167 HD
ATOM     78  C   UNL A   1      47.492  27.199  26.908  1.00  0.00     0.037 A 
ATOM     79  H   UNL A   1      47.666  24.504  26.128  1.00  0.00     0.065 H 
ATOM     80  H   UNL A   1      39.322  26.283  28.769  1.00  0.00     0.065 H 
ATOM     81  C   UNL A   1      40.995  28.564  29.120  1.00  0.00     0.037 A 
ATOM     82  C   UNL A   1      47.272  28.551  27.353  1.00  0.00     0.049 A 
ATOM     83  C   UNL A   1      42.082  29.604  29.162  1.00  0.00     0.074 A 
ATOM     84  C   UNL A   1      48.165  29.608  27.375  1.00  0.00    -0.036 A 
ATOM     85  N   UNL A   1      46.073  29.032  27.858  1.00  0.00    -0.354 N 
ATOM     86  N   UNL A   1      43.327  29.517  28.759  1.00  0.00    -0.248 NA
ATOM     87  C   UNL A   1      41.724  30.912  29.727  1.00  0.00    -0.034 C 
ATOM     88  C   UNL A   1      47.520  30.717  27.935  1.00  0.00    -0.036 A 
ATOM     89  H   UNL A   1      49.140  29.584  27.037  1.00  0.00     0.065 H 
ATOM     90  C   UNL A   1      46.210  30.364  28.214  1.00  0.00     0.049 A 
ATOM     91  H   UNL A   1      45.246  28.504  27.949  1.00  0.00     0.167 HD
ATOM     92  C   UNL A   1      43.891  30.763  28.996  1.00  0.00     0.074 A 
ATOM     93  C   UNL A   1      42.849  31.594  29.561  1.00  0.00    -0.034 C 
ATOM     94  H   UNL A   1      40.831  31.220  30.143  1.00  0.00     0.065 H 
ATOM     95  H   UNL A   1      47.947  31.639  28.110  1.00  0.00     0.065 H 
ATOM     96  C   UNL A   1      45.160  31.180  28.768  1.00  0.00     0.037 A 
ATOM     97  H   UNL A   1      42.967  32.590  29.803  1.00  0.00     0.065 H 
BRANCH  78  98
ATOM     98  C   UNL A   1      48.869  26.827  26.441  1.00  0.00     0.064 A 
ATOM     99  C   UNL A   1      49.260  26.994  25.104  1.00  0.00     0.173 A 
ATOM    100  C   UNL A   1      49.828  26.352  27.349  1.00  0.00     0.173 A 
ATOM    101  F   UNL A   1      48.379  27.435  24.193  1.00  0.00    -0.203 F 
ATOM    102  C   UNL A   1      50.551  26.678  24.689  1.00  0.00     0.198 A 
ATOM    103  C   UNL A   1      51.126  26.066  26.938  1.00  0.00     0.198 A 
ATOM    104  F   UNL A   1      49.507  26.182  28.642  1.00  0.00    -0.203 F 
ATOM    105  F   UNL A   1      50.890  26.808  23.399  1.00  0.00    -0.200 F 
ATOM    106  C   UNL A   1      51.485  26.223  25.608  1.00  0.00     0.200 A 
ATOM    107  F   UNL A   1      52.031  25.639  27.829  1.00  0.00    -0.200 F 
ATOM    108  F   UNL A   1      52.731  25.932  25.210  1.00  0.00    -0.200 F 
ENDBRANCH  78  98
BRANCH  81 109
ATOM    109  C   UNL A   1      39.635  28.867  29.638  1.00  0.00     0.064 A 
ATOM    110  C   UNL A   1      39.278  28.553  30.957  1.00  0.00     0.173 A 
ATOM    111  C   UNL A   1      38.658  29.457  28.821  1.00  0.00     0.173 A 
ATOM    112  F   UNL A   1      40.171  27.966  31.768  1.00  0.00    -0.203 F 
ATOM    113  C   UNL A   1      37.990  28.791  31.432  1.00  0.00     0.198 A 
ATOM    114  C   UNL A   1      37.380  29.724  29.307  1.00  0.00     0.198 A 
ATOM    115  F   UNL A   1      38.948  29.781  27.553  1.00  0.00    -0.203 F 
ATOM    116  F   UNL A   1      37.662  28.431  32.679  1.00  0.00    -0.200 F 
ATOM    117  C   UNL A   1      37.044  29.381  30.608  1.00  0.00     0.200 A 
ATOM    118  F   UNL A   1      36.472  30.307  28.512  1.00  0.00    -0.200 F 
ATOM    119  F   UNL A   1      35.804  29.610  31.064  1.00  0.00    -0.200 F 
ENDBRANCH  81 109
BRANCH  96 120
ATOM    120  C   UNL A   1      45.484  32.609  29.100  1.00  0.00     0.064 A 
ATOM    121  C   UNL A   1      45.285  33.643  28.173  1.00  0.00     0.173 A 
ATOM    122  C   UNL A   1      45.967  32.950  30.372  1.00  0.00     0.173 A 
ATOM    123  F   UNL A   1      44.840  33.365  26.938  1.00  0.00    -0.203 F 
ATOM    124  C   UNL A   1      45.584  34.963  28.499  1.00  0.00     0.198 A 
ATOM    125  C   UNL A   1      46.235  34.275  30.705  1.00  0.00     0.198 A 
ATOM    126  F   UNL A   1      46.168  31.999  31.297  1.00  0.00    -0.203 F 
ATOM    127  F   UNL A   1      45.433  35.928  27.581  1.00  0.00    -0.200 F 
ATOM    128  C   UNL A   1      46.050  35.279  29.766  1.00  0.00     0.200 A 
ATOM    129  F   UNL A   1      46.674  34.579  31.934  1.00  0.00    -0.200 F 
ATOM    130  F   UNL A   1      46.331  36.551  30.080  1.00  0.00    -0.200 F 
ENDBRANCH  96 120
ENDBRANCH  61  64
ENDBRANCH  51  54
ENDBRANCH  47  50
ENDBRANCH  44  47
ENDBRANCH  41  44
ENDBRANCH   1  41
TORSDOF 17
ENDMDL
MODEL 7
REMARK VINA RESULT:     -11.5      3.592      8.687
REMARK SMILES COc1ccc2cc([C@H](C)C(=O)NCCCCCCNC(=O)c3ccc(-c4c5nc(c(-c6c(F)c(F)c(F)c(F)c6F)c6ccc([nH]6)c(-c6c(F)c(F)c(F)c(F)c6F)c6nc(c(-c7c(F)c(F)c(F)c(F)c7F)c7ccc4[nH]7)C=C6)C=C5)cc3)ccc2c1
REMARK SMILES IDX 16 1 15 4 14 7 13 10 11 11 12 12 9 14 8 16 3 17 4 18 89 19
REMARK SMILES IDX 5 20 88 22 6 24 87 26 7 27 86 28 2 32 1 33 10 37 17 41 18 44
REMARK SMILES IDX 19 47 20 50 21 51 22 53 23 54 24 55 85 56 25 57 84 59 26 61
REMARK SMILES IDX 27 64 28 65 78 66 29 67 83 68 77 69 79 70 30 71 82 72 76 74
REMARK SMILES IDX 75 76 31 78 63 81 43 82 62 83 44 84 47 85 61 86 80 87 45 88
REMARK SMILES IDX 46 90 60 92 81 93 48 96 32 98 33 99 41 100 34 101 35 102
REMARK SMILES IDX 39 103 42 104 36 105 37 106 40 107 38 108 64 109 65 110
REMARK SMILES IDX 73 111 66 112 67 113 71 114 74 115 68 116 69 117 72 118
REMARK SMILES IDX 70 119 49 120 50 121 58 122 51 123 52 124 56 125 59 126
REMARK SMILES IDX 53 127 54 128 57 129 55 130
REMARK H PARENT 16 2 16 3 15 5 15 6 14 8 14 9 13 13 9 15 4 21 89 23 5 25 87 29
REMARK H PARENT 7 30 86 31 1 34 1 35 1 36 10 38 10 39 10 40 17 42 17 43 18 45
REMARK H PARENT 18 46 19 48 19 49 20 52 24 58 85 60 25 62 84 63 83 73 77 75
REMARK H PARENT 79 77 82 79 76 80 44 89 47 91 80 94 45 95 81 97
REMARK Flexibility Score: inf
ROOT
ATOM      1  C   UNL A   1      34.402  25.399  25.252  1.00  0.00    -0.052 C 
ATOM      2  H   UNL A   1      34.228  25.063  24.252  1.00  0.00     0.027 H 
ATOM      3  H   UNL A   1      35.320  25.934  25.381  1.00  0.00     0.027 H 
ENDROOT
BRANCH   1   4
ATOM      4  C   UNL A   1      34.513  24.166  26.149  1.00  0.00    -0.036 C 
ATOM      5  H   UNL A   1      35.391  24.275  26.750  1.00  0.00     0.028 H 
ATOM      6  H   UNL A   1      33.604  24.130  26.712  1.00  0.00     0.028 H 
BRANCH   4   7
ATOM      7  C   UNL A   1      34.606  22.830  25.419  1.00  0.00     0.017 C 
ATOM      8  H   UNL A   1      34.691  23.022  24.370  1.00  0.00     0.049 H 
ATOM      9  H   UNL A   1      35.461  22.316  25.806  1.00  0.00     0.049 H 
BRANCH   7  10
ATOM     10  N   UNL A   1      33.457  21.977  25.638  1.00  0.00    -0.356 N 
ATOM     11  C   UNL A   1      32.613  21.411  24.725  1.00  0.00     0.227 C 
ATOM     12  O   UNL A   1      31.767  20.617  25.150  1.00  0.00    -0.274 OA
ATOM     13  H   UNL A   1      33.255  21.777  26.581  1.00  0.00     0.163 HD
BRANCH  11  14
ATOM     14  C   UNL A   1      32.688  21.744  23.224  1.00  0.00     0.060 C 
ATOM     15  H   UNL A   1      33.696  21.628  22.882  1.00  0.00     0.045 H 
BRANCH  14  16
ATOM     16  C   UNL A   1      32.418  23.222  22.956  1.00  0.00    -0.035 A 
ATOM     17  C   UNL A   1      30.143  27.752  22.598  1.00  0.00     0.119 A 
ATOM     18  C   UNL A   1      29.425  27.049  23.561  1.00  0.00    -0.019 A 
ATOM     19  C   UNL A   1      31.247  27.173  21.977  1.00  0.00    -0.012 A 
ATOM     20  C   UNL A   1      29.812  25.750  23.898  1.00  0.00    -0.051 A 
ATOM     21  H   UNL A   1      28.610  27.485  24.021  1.00  0.00     0.066 H 
ATOM     22  C   UNL A   1      31.662  25.882  22.332  1.00  0.00    -0.015 A 
ATOM     23  H   UNL A   1      31.760  27.696  21.251  1.00  0.00     0.067 H 
ATOM     24  C   UNL A   1      30.921  25.147  23.280  1.00  0.00    -0.018 A 
ATOM     25  H   UNL A   1      29.278  25.227  24.610  1.00  0.00     0.063 H 
ATOM     26  C   UNL A   1      32.803  25.307  21.760  1.00  0.00    -0.054 A 
ATOM     27  C   UNL A   1      31.297  23.822  23.563  1.00  0.00    -0.050 A 
ATOM     28  C   UNL A   1      33.193  24.007  22.093  1.00  0.00    -0.058 A 
ATOM     29  H   UNL A   1      33.364  25.849  21.084  1.00  0.00     0.063 H 
ATOM     30  H   UNL A   1      30.736  23.273  24.233  1.00  0.00     0.063 H 
ATOM     31  H   UNL A   1      34.064  23.621  21.698  1.00  0.00     0.063 H 
BRANCH  17  32
ATOM     32  O   UNL A   1      29.757  28.992  22.165  1.00  0.00    -0.497 OA
BRANCH  32  33
ATOM     33  C   UNL A   1      29.156  29.747  23.215  1.00  0.00     0.078 C 
ATOM     34  H   UNL A   1      29.913  30.290  23.742  1.00  0.00     0.067 H 
ATOM     35  H   UNL A   1      28.657  29.083  23.891  1.00  0.00     0.067 H 
ATOM     36  H   UNL A   1      28.448  30.433  22.801  1.00  0.00     0.067 H 
ENDBRANCH  32  33
ENDBRANCH  17  32
ENDBRANCH  14  16
BRANCH  14  37
ATOM     37  C   UNL A   1      31.936  20.715  22.368  1.00  0.00    -0.049 C 
ATOM     38  H   UNL A   1      32.294  20.760  21.360  1.00  0.00     0.024 H 
ATOM     39  H   UNL A   1      30.889  20.934  22.385  1.00  0.00     0.024 H 
ATOM     40  H   UNL A   1      32.102  19.735  22.763  1.00  0.00     0.024 H 
ENDBRANCH  14  37
ENDBRANCH  11  14
ENDBRANCH   7  10
ENDBRANCH   4   7
ENDBRANCH   1   4
BRANCH   1  41
ATOM     41  C   UNL A   1      33.291  26.391  25.612  1.00  0.00    -0.052 C 
ATOM     42  H   UNL A   1      32.791  26.019  26.483  1.00  0.00     0.027 H 
ATOM     43  H   UNL A   1      32.672  26.456  24.743  1.00  0.00     0.027 H 
BRANCH  41  44
ATOM     44  C   UNL A   1      33.735  27.826  25.907  1.00  0.00    -0.036 C 
ATOM     45  H   UNL A   1      33.202  28.477  25.247  1.00  0.00     0.028 H 
ATOM     46  H   UNL A   1      34.795  27.837  25.768  1.00  0.00     0.028 H 
BRANCH  44  47
ATOM     47  C   UNL A   1      33.500  28.313  27.335  1.00  0.00     0.018 C 
ATOM     48  H   UNL A   1      34.276  27.923  27.961  1.00  0.00     0.049 H 
ATOM     49  H   UNL A   1      32.534  27.968  27.638  1.00  0.00     0.049 H 
BRANCH  47  50
ATOM     50  N   UNL A   1      33.501  29.761  27.446  1.00  0.00    -0.352 N 
ATOM     51  C   UNL A   1      34.478  30.609  27.906  1.00  0.00     0.251 C 
ATOM     52  H   UNL A   1      32.675  30.202  27.145  1.00  0.00     0.163 HD
ATOM     53  O   UNL A   1      34.237  31.803  28.050  1.00  0.00    -0.269 OA
BRANCH  51  54
ATOM     54  C   UNL A   1      35.817  30.087  28.258  1.00  0.00     0.039 A 
ATOM     55  C   UNL A   1      36.822  30.113  27.286  1.00  0.00    -0.049 A 
ATOM     56  C   UNL A   1      36.083  29.557  29.523  1.00  0.00    -0.049 A 
ATOM     57  C   UNL A   1      38.109  29.675  27.604  1.00  0.00    -0.053 A 
ATOM     58  H   UNL A   1      36.612  30.455  26.335  1.00  0.00     0.063 H 
ATOM     59  C   UNL A   1      37.383  29.178  29.859  1.00  0.00    -0.053 A 
ATOM     60  H   UNL A   1      35.319  29.446  30.208  1.00  0.00     0.063 H 
ATOM     61  C   UNL A   1      38.409  29.240  28.905  1.00  0.00    -0.014 A 
ATOM     62  H   UNL A   1      38.845  29.672  26.880  1.00  0.00     0.063 H 
ATOM     63  H   UNL A   1      37.590  28.851  30.815  1.00  0.00     0.063 H 
BRANCH  61  64
ATOM     64  C   UNL A   1      39.796  28.868  29.291  1.00  0.00     0.031 A 
ATOM     65  C   UNL A   1      40.631  29.804  30.117  1.00  0.00     0.074 A 
ATOM     66  C   UNL A   1      40.323  27.714  28.837  1.00  0.00     0.049 A 
ATOM     67  N   UNL A   1      41.887  29.697  30.473  1.00  0.00    -0.248 NA
ATOM     68  C   UNL A   1      39.976  31.034  30.588  1.00  0.00    -0.034 C 
ATOM     69  C   UNL A   1      39.626  26.738  27.998  1.00  0.00    -0.036 A 
ATOM     70  N   UNL A   1      41.574  27.173  29.005  1.00  0.00    -0.354 N 
ATOM     71  C   UNL A   1      42.174  30.846  31.199  1.00  0.00     0.074 A 
ATOM     72  C   UNL A   1      40.976  31.658  31.194  1.00  0.00    -0.034 C 
ATOM     73  H   UNL A   1      38.994  31.332  30.475  1.00  0.00     0.065 H 
ATOM     74  C   UNL A   1      40.453  25.715  27.734  1.00  0.00    -0.036 A 
ATOM     75  H   UNL A   1      38.654  26.824  27.663  1.00  0.00     0.065 H 
ATOM     76  C   UNL A   1      41.750  25.979  28.349  1.00  0.00     0.049 A 
ATOM     77  H   UNL A   1      42.278  27.600  29.545  1.00  0.00     0.167 HD
ATOM     78  C   UNL A   1      43.324  31.182  31.829  1.00  0.00     0.037 A 
ATOM     79  H   UNL A   1      40.909  32.602  31.607  1.00  0.00     0.065 H 
ATOM     80  H   UNL A   1      40.211  24.875  27.184  1.00  0.00     0.065 H 
ATOM     81  C   UNL A   1      42.839  25.194  28.241  1.00  0.00     0.037 A 
ATOM     82  C   UNL A   1      44.509  30.362  31.849  1.00  0.00     0.049 A 
ATOM     83  C   UNL A   1      44.112  25.603  28.933  1.00  0.00     0.074 A 
ATOM     84  C   UNL A   1      45.708  30.595  32.501  1.00  0.00    -0.036 A 
ATOM     85  N   UNL A   1      44.645  29.153  31.184  1.00  0.00    -0.354 N 
ATOM     86  N   UNL A   1      44.351  26.664  29.665  1.00  0.00    -0.248 NA
ATOM     87  C   UNL A   1      45.263  24.701  28.789  1.00  0.00    -0.034 C 
ATOM     88  C   UNL A   1      46.584  29.548  32.195  1.00  0.00    -0.036 A 
ATOM     89  H   UNL A   1      45.919  31.401  33.109  1.00  0.00     0.065 H 
ATOM     90  C   UNL A   1      45.914  28.639  31.393  1.00  0.00     0.049 A 
ATOM     91  H   UNL A   1      43.942  28.723  30.644  1.00  0.00     0.167 HD
ATOM     92  C   UNL A   1      45.669  26.545  30.088  1.00  0.00     0.074 A 
ATOM     93  C   UNL A   1      46.171  25.299  29.547  1.00  0.00    -0.034 C 
ATOM     94  H   UNL A   1      45.343  23.831  28.240  1.00  0.00     0.065 H 
ATOM     95  H   UNL A   1      47.563  29.468  32.511  1.00  0.00     0.065 H 
ATOM     96  C   UNL A   1      46.397  27.393  30.854  1.00  0.00     0.037 A 
ATOM     97  H   UNL A   1      47.114  24.925  29.730  1.00  0.00     0.065 H 
BRANCH  78  98
ATOM     98  C   UNL A   1      43.364  32.493  32.559  1.00  0.00     0.064 A 
ATOM     99  C   UNL A   1      43.734  33.682  31.912  1.00  0.00     0.173 A 
ATOM    100  C   UNL A   1      42.973  32.575  33.904  1.00  0.00     0.173 A 
ATOM    101  F   UNL A   1      44.126  33.657  30.628  1.00  0.00    -0.203 F 
ATOM    102  C   UNL A   1      43.734  34.898  32.589  1.00  0.00     0.198 A 
ATOM    103  C   UNL A   1      42.945  33.796  34.571  1.00  0.00     0.198 A 
ATOM    104  F   UNL A   1      42.602  31.469  34.568  1.00  0.00    -0.203 F 
ATOM    105  F   UNL A   1      44.130  36.014  31.961  1.00  0.00    -0.200 F 
ATOM    106  C   UNL A   1      43.331  34.955  33.915  1.00  0.00     0.200 A 
ATOM    107  F   UNL A   1      42.543  33.853  35.848  1.00  0.00    -0.200 F 
ATOM    108  F   UNL A   1      43.319  36.129  34.562  1.00  0.00    -0.200 F 
ENDBRANCH  78  98
BRANCH  81 109
ATOM    109  C   UNL A   1      42.777  23.937  27.449  1.00  0.00     0.064 A 
ATOM    110  C   UNL A   1      42.360  22.734  28.036  1.00  0.00     0.173 A 
ATOM    111  C   UNL A   1      43.154  23.908  26.098  1.00  0.00     0.173 A 
ATOM    112  F   UNL A   1      42.012  22.709  29.331  1.00  0.00    -0.203 F 
ATOM    113  C   UNL A   1      42.347  21.545  27.310  1.00  0.00     0.198 A 
ATOM    114  C   UNL A   1      43.111  22.724  25.365  1.00  0.00     0.198 A 
ATOM    115  F   UNL A   1      43.558  25.031  25.488  1.00  0.00    -0.203 F 
ATOM    116  F   UNL A   1      41.995  20.401  27.911  1.00  0.00    -0.200 F 
ATOM    117  C   UNL A   1      42.717  21.542  25.974  1.00  0.00     0.200 A 
ATOM    118  F   UNL A   1      43.457  22.727  24.070  1.00  0.00    -0.200 F 
ATOM    119  F   UNL A   1      42.705  20.397  25.276  1.00  0.00    -0.200 F 
ENDBRANCH  81 109
BRANCH  96 120
ATOM    120  C   UNL A   1      47.805  26.986  31.180  1.00  0.00     0.064 A 
ATOM    121  C   UNL A   1      48.093  26.117  32.243  1.00  0.00     0.173 A 
ATOM    122  C   UNL A   1      48.876  27.446  30.398  1.00  0.00     0.173 A 
ATOM    123  F   UNL A   1      47.106  25.664  33.030  1.00  0.00    -0.203 F 
ATOM    124  C   UNL A   1      49.404  25.746  32.527  1.00  0.00     0.198 A 
ATOM    125  C   UNL A   1      50.182  27.047  30.666  1.00  0.00     0.198 A 
ATOM    126  F   UNL A   1      48.653  28.273  29.366  1.00  0.00    -0.203 F 
ATOM    127  F   UNL A   1      49.661  24.954  33.579  1.00  0.00    -0.200 F 
ATOM    128  C   UNL A   1      50.446  26.203  31.734  1.00  0.00     0.200 A 
ATOM    129  F   UNL A   1      51.186  27.480  29.891  1.00  0.00    -0.200 F 
ATOM    130  F   UNL A   1      51.706  25.839  32.006  1.00  0.00    -0.200 F 
ENDBRANCH  96 120
ENDBRANCH  61  64
ENDBRANCH  51  54
ENDBRANCH  47  50
ENDBRANCH  44  47
ENDBRANCH  41  44
ENDBRANCH   1  41
TORSDOF 17
ENDMDL
MODEL 8
REMARK VINA RESULT:     -11.5      5.248     11.601
REMARK SMILES COc1ccc2cc([C@H](C)C(=O)NCCCCCCNC(=O)c3ccc(-c4c5nc(c(-c6c(F)c(F)c(F)c(F)c6F)c6ccc([nH]6)c(-c6c(F)c(F)c(F)c(F)c6F)c6nc(c(-c7c(F)c(F)c(F)c(F)c7F)c7ccc4[nH]7)C=C6)C=C5)cc3)ccc2c1
REMARK SMILES IDX 16 1 15 4 14 7 13 10 11 11 12 12 9 14 8 16 3 17 4 18 89 19
REMARK SMILES IDX 5 20 88 22 6 24 87 26 7 27 86 28 2 32 1 33 10 37 17 41 18 44
REMARK SMILES IDX 19 47 20 50 21 51 22 53 23 54 24 55 85 56 25 57 84 59 26 61
REMARK SMILES IDX 27 64 28 65 78 66 29 67 83 68 77 69 79 70 30 71 82 72 76 74
REMARK SMILES IDX 75 76 31 78 63 81 43 82 62 83 44 84 47 85 61 86 80 87 45 88
REMARK SMILES IDX 46 90 60 92 81 93 48 96 32 98 33 99 41 100 34 101 35 102
REMARK SMILES IDX 39 103 42 104 36 105 37 106 40 107 38 108 64 109 65 110
REMARK SMILES IDX 73 111 66 112 67 113 71 114 74 115 68 116 69 117 72 118
REMARK SMILES IDX 70 119 49 120 50 121 58 122 51 123 52 124 56 125 59 126
REMARK SMILES IDX 53 127 54 128 57 129 55 130
REMARK H PARENT 16 2 16 3 15 5 15 6 14 8 14 9 13 13 9 15 4 21 89 23 5 25 87 29
REMARK H PARENT 7 30 86 31 1 34 1 35 1 36 10 38 10 39 10 40 17 42 17 43 18 45
REMARK H PARENT 18 46 19 48 19 49 20 52 24 58 85 60 25 62 84 63 83 73 77 75
REMARK H PARENT 79 77 82 79 76 80 44 89 47 91 80 94 45 95 81 97
REMARK Flexibility Score: inf
ROOT
ATOM      1  C   UNL A   1      47.364  26.211  31.537  1.00  0.00    -0.052 C 
ATOM      2  H   UNL A   1      47.223  25.167  31.353  1.00  0.00     0.027 H 
ATOM      3  H   UNL A   1      46.608  26.654  32.151  1.00  0.00     0.027 H 
ENDROOT
BRANCH   1   4
ATOM      4  C   UNL A   1      47.286  26.938  30.194  1.00  0.00    -0.036 C 
ATOM      5  H   UNL A   1      46.618  26.391  29.563  1.00  0.00     0.028 H 
ATOM      6  H   UNL A   1      46.955  27.931  30.417  1.00  0.00     0.028 H 
BRANCH   4   7
ATOM      7  C   UNL A   1      48.610  27.094  29.455  1.00  0.00     0.017 C 
ATOM      8  H   UNL A   1      48.446  27.704  28.591  1.00  0.00     0.049 H 
ATOM      9  H   UNL A   1      49.304  27.540  30.137  1.00  0.00     0.049 H 
BRANCH   7  10
ATOM     10  N   UNL A   1      49.178  25.834  29.027  1.00  0.00    -0.356 N 
ATOM     11  C   UNL A   1      49.030  25.177  27.838  1.00  0.00     0.227 C 
ATOM     12  O   UNL A   1      49.715  24.164  27.660  1.00  0.00    -0.274 OA
ATOM     13  H   UNL A   1      49.753  25.385  29.688  1.00  0.00     0.163 HD
BRANCH  11  14
ATOM     14  C   UNL A   1      48.047  25.656  26.755  1.00  0.00     0.060 C 
ATOM     15  H   UNL A   1      47.615  26.589  27.052  1.00  0.00     0.045 H 
BRANCH  14  16
ATOM     16  C   UNL A   1      46.825  24.746  26.653  1.00  0.00    -0.035 A 
ATOM     17  C   UNL A   1      42.769  21.921  27.831  1.00  0.00     0.119 A 
ATOM     18  C   UNL A   1      42.916  22.818  28.884  1.00  0.00    -0.019 A 
ATOM     19  C   UNL A   1      43.644  21.952  26.748  1.00  0.00    -0.012 A 
ATOM     20  C   UNL A   1      43.956  23.751  28.855  1.00  0.00    -0.051 A 
ATOM     21  H   UNL A   1      42.263  22.794  29.682  1.00  0.00     0.066 H 
ATOM     22  C   UNL A   1      44.670  22.905  26.694  1.00  0.00    -0.015 A 
ATOM     23  H   UNL A   1      43.536  21.269  25.981  1.00  0.00     0.067 H 
ATOM     24  C   UNL A   1      44.851  23.797  27.772  1.00  0.00    -0.018 A 
ATOM     25  H   UNL A   1      44.067  24.416  29.637  1.00  0.00     0.063 H 
ATOM     26  C   UNL A   1      45.523  22.989  25.587  1.00  0.00    -0.054 A 
ATOM     27  C   UNL A   1      45.937  24.689  27.746  1.00  0.00    -0.050 A 
ATOM     28  C   UNL A   1      46.564  23.919  25.555  1.00  0.00    -0.058 A 
ATOM     29  H   UNL A   1      45.379  22.356  24.784  1.00  0.00     0.063 H 
ATOM     30  H   UNL A   1      46.089  25.320  28.549  1.00  0.00     0.063 H 
ATOM     31  H   UNL A   1      47.150  23.998  24.709  1.00  0.00     0.063 H 
BRANCH  17  32
ATOM     32  O   UNL A   1      41.825  20.930  27.848  1.00  0.00    -0.497 OA
BRANCH  32  33
ATOM     33  C   UNL A   1      40.719  21.248  27.007  1.00  0.00     0.078 C 
ATOM     34  H   UNL A   1      41.077  21.538  26.041  1.00  0.00     0.067 H 
ATOM     35  H   UNL A   1      40.164  22.056  27.438  1.00  0.00     0.067 H 
ATOM     36  H   UNL A   1      40.086  20.392  26.911  1.00  0.00     0.067 H 
ENDBRANCH  32  33
ENDBRANCH  17  32
ENDBRANCH  14  16
BRANCH  14  37
ATOM     37  C   UNL A   1      48.765  26.033  25.451  1.00  0.00    -0.049 C 
ATOM     38  H   UNL A   1      49.352  26.914  25.609  1.00  0.00     0.024 H 
ATOM     39  H   UNL A   1      48.041  26.219  24.686  1.00  0.00     0.024 H 
ATOM     40  H   UNL A   1      49.403  25.228  25.151  1.00  0.00     0.024 H 
ENDBRANCH  14  37
ENDBRANCH  11  14
ENDBRANCH   7  10
ENDBRANCH   4   7
ENDBRANCH   1   4
BRANCH   1  41
ATOM     41  C   UNL A   1      48.675  26.377  32.312  1.00  0.00    -0.052 C 
ATOM     42  H   UNL A   1      48.536  27.165  33.024  1.00  0.00     0.027 H 
ATOM     43  H   UNL A   1      49.421  26.579  31.573  1.00  0.00     0.027 H 
BRANCH  41  44
ATOM     44  C   UNL A   1      49.174  25.145  33.071  1.00  0.00    -0.036 C 
ATOM     45  H   UNL A   1      50.019  25.440  33.658  1.00  0.00     0.028 H 
ATOM     46  H   UNL A   1      49.397  24.414  32.323  1.00  0.00     0.028 H 
BRANCH  44  47
ATOM     47  C   UNL A   1      48.162  24.487  34.006  1.00  0.00     0.018 C 
ATOM     48  H   UNL A   1      48.292  23.426  33.956  1.00  0.00     0.049 H 
ATOM     49  H   UNL A   1      47.186  24.784  33.685  1.00  0.00     0.049 H 
BRANCH  47  50
ATOM     50  N   UNL A   1      48.313  24.906  35.388  1.00  0.00    -0.352 N 
ATOM     51  C   UNL A   1      47.593  25.821  36.115  1.00  0.00     0.251 C 
ATOM     52  H   UNL A   1      49.044  24.466  35.880  1.00  0.00     0.163 HD
ATOM     53  O   UNL A   1      47.963  26.140  37.240  1.00  0.00    -0.269 OA
BRANCH  51  54
ATOM     54  C   UNL A   1      46.384  26.451  35.538  1.00  0.00     0.039 A 
ATOM     55  C   UNL A   1      46.505  27.712  34.947  1.00  0.00    -0.049 A 
ATOM     56  C   UNL A   1      45.138  25.822  35.593  1.00  0.00    -0.049 A 
ATOM     57  C   UNL A   1      45.394  28.310  34.349  1.00  0.00    -0.053 A 
ATOM     58  H   UNL A   1      47.415  28.201  34.953  1.00  0.00     0.063 H 
ATOM     59  C   UNL A   1      44.043  26.391  34.942  1.00  0.00    -0.053 A 
ATOM     60  H   UNL A   1      45.028  24.938  36.115  1.00  0.00     0.063 H 
ATOM     61  C   UNL A   1      44.163  27.637  34.308  1.00  0.00    -0.014 A 
ATOM     62  H   UNL A   1      45.478  29.252  33.934  1.00  0.00     0.063 H 
ATOM     63  H   UNL A   1      43.141  25.892  34.926  1.00  0.00     0.063 H 
BRANCH  61  64
ATOM     64  C   UNL A   1      42.996  28.210  33.587  1.00  0.00     0.031 A 
ATOM     65  C   UNL A   1      42.801  27.941  32.122  1.00  0.00     0.074 A 
ATOM     66  C   UNL A   1      42.151  29.030  34.241  1.00  0.00     0.049 A 
ATOM     67  N   UNL A   1      41.901  28.426  31.304  1.00  0.00    -0.248 NA
ATOM     68  C   UNL A   1      43.757  27.020  31.487  1.00  0.00    -0.034 C 
ATOM     69  C   UNL A   1      42.253  29.398  35.655  1.00  0.00    -0.036 A 
ATOM     70  N   UNL A   1      41.046  29.716  33.800  1.00  0.00    -0.354 N 
ATOM     71  C   UNL A   1      42.187  27.880  30.059  1.00  0.00     0.074 A 
ATOM     72  C   UNL A   1      43.371  27.063  30.219  1.00  0.00    -0.034 C 
ATOM     73  H   UNL A   1      44.526  26.483  31.916  1.00  0.00     0.065 H 
ATOM     74  C   UNL A   1      41.248  30.232  35.966  1.00  0.00    -0.036 A 
ATOM     75  H   UNL A   1      42.982  29.070  36.306  1.00  0.00     0.065 H 
ATOM     76  C   UNL A   1      40.455  30.491  34.768  1.00  0.00     0.049 A 
ATOM     77  H   UNL A   1      40.709  29.659  32.876  1.00  0.00     0.167 HD
ATOM     78  C   UNL A   1      41.511  28.029  28.895  1.00  0.00     0.037 A 
ATOM     79  H   UNL A   1      43.854  26.577  29.446  1.00  0.00     0.065 H 
ATOM     80  H   UNL A   1      41.066  30.628  36.902  1.00  0.00     0.065 H 
ATOM     81  C   UNL A   1      39.402  31.328  34.696  1.00  0.00     0.037 A 
ATOM     82  C   UNL A   1      40.322  28.827  28.744  1.00  0.00     0.049 A 
ATOM     83  C   UNL A   1      38.684  31.493  33.383  1.00  0.00     0.074 A 
ATOM     84  C   UNL A   1      39.538  29.002  27.616  1.00  0.00    -0.036 A 
ATOM     85  N   UNL A   1      39.745  29.587  29.751  1.00  0.00    -0.354 N 
ATOM     86  N   UNL A   1      38.930  30.925  32.228  1.00  0.00    -0.248 NA
ATOM     87  C   UNL A   1      37.537  32.411  33.368  1.00  0.00    -0.034 C 
ATOM     88  C   UNL A   1      38.513  29.901  27.929  1.00  0.00    -0.036 A 
ATOM     89  H   UNL A   1      39.684  28.547  26.702  1.00  0.00     0.065 H 
ATOM     90  C   UNL A   1      38.629  30.248  29.265  1.00  0.00     0.049 A 
ATOM     91  H   UNL A   1      40.080  29.646  30.675  1.00  0.00     0.167 HD
ATOM     92  C   UNL A   1      37.956  31.395  31.357  1.00  0.00     0.074 A 
ATOM     93  C   UNL A   1      37.103  32.281  32.122  1.00  0.00    -0.034 C 
ATOM     94  H   UNL A   1      37.165  33.002  34.128  1.00  0.00     0.065 H 
ATOM     95  H   UNL A   1      37.794  30.249  27.275  1.00  0.00     0.065 H 
ATOM     96  C   UNL A   1      37.785  31.120  30.041  1.00  0.00     0.037 A 
ATOM     97  H   UNL A   1      36.265  32.750  31.745  1.00  0.00     0.065 H 
BRANCH  78  98
ATOM     98  C   UNL A   1      42.036  27.311  27.686  1.00  0.00     0.064 A 
ATOM     99  C   UNL A   1      43.127  27.806  26.955  1.00  0.00     0.173 A 
ATOM    100  C   UNL A   1      41.480  26.087  27.285  1.00  0.00     0.173 A 
ATOM    101  F   UNL A   1      43.688  28.978  27.291  1.00  0.00    -0.203 F 
ATOM    102  C   UNL A   1      43.627  27.114  25.856  1.00  0.00     0.198 A 
ATOM    103  C   UNL A   1      42.001  25.382  26.203  1.00  0.00     0.198 A 
ATOM    104  F   UNL A   1      40.439  25.566  27.954  1.00  0.00    -0.203 F 
ATOM    105  F   UNL A   1      44.644  27.626  25.149  1.00  0.00    -0.200 F 
ATOM    106  C   UNL A   1      43.069  25.899  25.486  1.00  0.00     0.200 A 
ATOM    107  F   UNL A   1      41.470  24.202  25.855  1.00  0.00    -0.200 F 
ATOM    108  F   UNL A   1      43.560  25.227  24.435  1.00  0.00    -0.200 F 
ENDBRANCH  78  98
BRANCH  81 109
ATOM    109  C   UNL A   1      38.959  32.075  35.902  1.00  0.00     0.064 A 
ATOM    110  C   UNL A   1      39.372  33.397  36.124  1.00  0.00     0.173 A 
ATOM    111  C   UNL A   1      38.134  31.479  36.867  1.00  0.00     0.173 A 
ATOM    112  F   UNL A   1      40.180  34.001  35.240  1.00  0.00    -0.203 F 
ATOM    113  C   UNL A   1      38.998  34.085  37.276  1.00  0.00     0.198 A 
ATOM    114  C   UNL A   1      37.736  32.179  38.004  1.00  0.00     0.198 A 
ATOM    115  F   UNL A   1      37.709  30.218  36.702  1.00  0.00    -0.203 F 
ATOM    116  F   UNL A   1      39.451  35.327  37.488  1.00  0.00    -0.200 F 
ATOM    117  C   UNL A   1      38.176  33.477  38.213  1.00  0.00     0.200 A 
ATOM    118  F   UNL A   1      36.930  31.592  38.901  1.00  0.00    -0.200 F 
ATOM    119  F   UNL A   1      37.818  34.138  39.322  1.00  0.00    -0.200 F 
ENDBRANCH  81 109
BRANCH  96 120
ATOM    120  C   UNL A   1      36.613  31.758  29.353  1.00  0.00     0.064 A 
ATOM    121  C   UNL A   1      35.488  31.013  28.972  1.00  0.00     0.173 A 
ATOM    122  C   UNL A   1      36.603  33.139  29.101  1.00  0.00     0.173 A 
ATOM    123  F   UNL A   1      35.457  29.687  29.175  1.00  0.00    -0.203 F 
ATOM    124  C   UNL A   1      34.407  31.622  28.339  1.00  0.00     0.198 A 
ATOM    125  C   UNL A   1      35.508  33.749  28.498  1.00  0.00     0.198 A 
ATOM    126  F   UNL A   1      37.652  33.898  29.453  1.00  0.00    -0.203 F 
ATOM    127  F   UNL A   1      33.364  30.881  27.939  1.00  0.00    -0.200 F 
ATOM    128  C   UNL A   1      34.414  32.989  28.111  1.00  0.00     0.200 A 
ATOM    129  F   UNL A   1      35.511  35.073  28.289  1.00  0.00    -0.200 F 
ATOM    130  F   UNL A   1      33.370  33.574  27.509  1.00  0.00    -0.200 F 
ENDBRANCH  96 120
ENDBRANCH  61  64
ENDBRANCH  51  54
ENDBRANCH  47  50
ENDBRANCH  44  47
ENDBRANCH  41  44
ENDBRANCH   1  41
TORSDOF 17
ENDMDL
MODEL 9
REMARK VINA RESULT:     -11.5      4.376      8.523
REMARK SMILES COc1ccc2cc([C@H](C)C(=O)NCCCCCCNC(=O)c3ccc(-c4c5nc(c(-c6c(F)c(F)c(F)c(F)c6F)c6ccc([nH]6)c(-c6c(F)c(F)c(F)c(F)c6F)c6nc(c(-c7c(F)c(F)c(F)c(F)c7F)c7ccc4[nH]7)C=C6)C=C5)cc3)ccc2c1
REMARK SMILES IDX 16 1 15 4 14 7 13 10 11 11 12 12 9 14 8 16 3 17 4 18 89 19
REMARK SMILES IDX 5 20 88 22 6 24 87 26 7 27 86 28 2 32 1 33 10 37 17 41 18 44
REMARK SMILES IDX 19 47 20 50 21 51 22 53 23 54 24 55 85 56 25 57 84 59 26 61
REMARK SMILES IDX 27 64 28 65 78 66 29 67 83 68 77 69 79 70 30 71 82 72 76 74
REMARK SMILES IDX 75 76 31 78 63 81 43 82 62 83 44 84 47 85 61 86 80 87 45 88
REMARK SMILES IDX 46 90 60 92 81 93 48 96 32 98 33 99 41 100 34 101 35 102
REMARK SMILES IDX 39 103 42 104 36 105 37 106 40 107 38 108 64 109 65 110
REMARK SMILES IDX 73 111 66 112 67 113 71 114 74 115 68 116 69 117 72 118
REMARK SMILES IDX 70 119 49 120 50 121 58 122 51 123 52 124 56 125 59 126
REMARK SMILES IDX 53 127 54 128 57 129 55 130
REMARK H PARENT 16 2 16 3 15 5 15 6 14 8 14 9 13 13 9 15 4 21 89 23 5 25 87 29
REMARK H PARENT 7 30 86 31 1 34 1 35 1 36 10 38 10 39 10 40 17 42 17 43 18 45
REMARK H PARENT 18 46 19 48 19 49 20 52 24 58 85 60 25 62 84 63 83 73 77 75
REMARK H PARENT 79 77 82 79 76 80 44 89 47 91 80 94 45 95 81 97
REMARK Flexibility Score: inf
ROOT
ATOM      1  C   UNL A   1      33.737  24.244  26.276  1.00  0.00    -0.052 C 
ATOM      2  H   UNL A   1      32.995  23.799  25.647  1.00  0.00     0.027 H 
ATOM      3  H   UNL A   1      33.399  24.454  27.270  1.00  0.00     0.027 H 
ENDROOT
BRANCH   1   4
ATOM      4  C   UNL A   1      34.113  25.598  25.672  1.00  0.00    -0.036 C 
ATOM      5  H   UNL A   1      33.920  26.351  26.407  1.00  0.00     0.028 H 
ATOM      6  H   UNL A   1      35.143  25.519  25.394  1.00  0.00     0.028 H 
BRANCH   4   7
ATOM      7  C   UNL A   1      33.363  25.979  24.400  1.00  0.00     0.017 C 
ATOM      8  H   UNL A   1      32.315  25.861  24.576  1.00  0.00     0.049 H 
ATOM      9  H   UNL A   1      33.622  26.992  24.171  1.00  0.00     0.049 H 
BRANCH   7  10
ATOM     10  N   UNL A   1      33.732  25.173  23.256  1.00  0.00    -0.356 N 
ATOM     11  C   UNL A   1      33.118  24.063  22.746  1.00  0.00     0.227 C 
ATOM     12  O   UNL A   1      33.555  23.612  21.681  1.00  0.00    -0.274 OA
ATOM     13  H   UNL A   1      34.540  25.466  22.777  1.00  0.00     0.163 HD
BRANCH  11  14
ATOM     14  C   UNL A   1      31.938  23.380  23.459  1.00  0.00     0.060 C 
ATOM     15  H   UNL A   1      32.003  23.561  24.511  1.00  0.00     0.045 H 
BRANCH  14  16
ATOM     16  C   UNL A   1      32.031  21.858  23.382  1.00  0.00    -0.035 A 
ATOM     17  C   UNL A   1      33.053  16.999  24.465  1.00  0.00     0.119 A 
ATOM     18  C   UNL A   1      33.062  17.663  25.687  1.00  0.00    -0.019 A 
ATOM     19  C   UNL A   1      32.781  17.690  23.287  1.00  0.00    -0.012 A 
ATOM     20  C   UNL A   1      32.804  19.036  25.729  1.00  0.00    -0.051 A 
ATOM     21  H   UNL A   1      33.260  17.145  26.558  1.00  0.00     0.066 H 
ATOM     22  C   UNL A   1      32.489  19.061  23.322  1.00  0.00    -0.015 A 
ATOM     23  H   UNL A   1      32.795  17.192  22.384  1.00  0.00     0.067 H 
ATOM     24  C   UNL A   1      32.531  19.752  24.551  1.00  0.00    -0.018 A 
ATOM     25  H   UNL A   1      32.813  19.529  26.635  1.00  0.00     0.063 H 
ATOM     26  C   UNL A   1      32.156  19.760  22.156  1.00  0.00    -0.054 A 
ATOM     27  C   UNL A   1      32.322  21.142  24.561  1.00  0.00    -0.050 A 
ATOM     28  C   UNL A   1      31.899  21.132  22.192  1.00  0.00    -0.058 A 
ATOM     29  H   UNL A   1      32.100  19.255  21.257  1.00  0.00     0.063 H 
ATOM     30  H   UNL A   1      32.383  21.653  25.455  1.00  0.00     0.063 H 
ATOM     31  H   UNL A   1      31.608  21.618  21.330  1.00  0.00     0.063 H 
BRANCH  17  32
ATOM     32  O   UNL A   1      33.385  15.676  24.355  1.00  0.00    -0.497 OA
BRANCH  32  33
ATOM     33  C   UNL A   1      32.791  14.901  25.393  1.00  0.00     0.078 C 
ATOM     34  H   UNL A   1      31.879  14.467  25.038  1.00  0.00     0.067 H 
ATOM     35  H   UNL A   1      32.582  15.530  26.233  1.00  0.00     0.067 H 
ATOM     36  H   UNL A   1      33.464  14.124  25.688  1.00  0.00     0.067 H 
ENDBRANCH  32  33
ENDBRANCH  17  32
ENDBRANCH  14  16
BRANCH  14  37
ATOM     37  C   UNL A   1      30.595  24.030  23.100  1.00  0.00    -0.049 C 
ATOM     38  H   UNL A   1      30.505  24.099  22.036  1.00  0.00     0.024 H 
ATOM     39  H   UNL A   1      30.548  25.010  23.527  1.00  0.00     0.024 H 
ATOM     40  H   UNL A   1      29.796  23.434  23.487  1.00  0.00     0.024 H 
ENDBRANCH  14  37
ENDBRANCH  11  14
ENDBRANCH   7  10
ENDBRANCH   4   7
ENDBRANCH   1   4
BRANCH   1  41
ATOM     41  C   UNL A   1      34.883  23.240  26.433  1.00  0.00    -0.052 C 
ATOM     42  H   UNL A   1      34.455  22.292  26.687  1.00  0.00     0.027 H 
ATOM     43  H   UNL A   1      35.522  23.650  27.186  1.00  0.00     0.027 H 
BRANCH  41  44
ATOM     44  C   UNL A   1      35.775  23.034  25.206  1.00  0.00    -0.036 C 
ATOM     45  H   UNL A   1      35.249  23.404  24.351  1.00  0.00     0.028 H 
ATOM     46  H   UNL A   1      35.981  21.985  25.170  1.00  0.00     0.028 H 
BRANCH  44  47
ATOM     47  C   UNL A   1      37.137  23.723  25.252  1.00  0.00     0.018 C 
ATOM     48  H   UNL A   1      37.111  24.481  26.006  1.00  0.00     0.049 H 
ATOM     49  H   UNL A   1      37.323  24.133  24.282  1.00  0.00     0.049 H 
BRANCH  47  50
ATOM     50  N   UNL A   1      38.223  22.808  25.554  1.00  0.00    -0.352 N 
ATOM     51  C   UNL A   1      39.410  23.034  26.205  1.00  0.00     0.251 C 
ATOM     52  H   UNL A   1      38.088  21.883  25.244  1.00  0.00     0.163 HD
ATOM     53  O   UNL A   1      40.267  22.157  26.243  1.00  0.00    -0.269 OA
BRANCH  51  54
ATOM     54  C   UNL A   1      39.678  24.344  26.840  1.00  0.00     0.039 A 
ATOM     55  C   UNL A   1      39.240  24.553  28.151  1.00  0.00    -0.049 A 
ATOM     56  C   UNL A   1      40.335  25.367  26.151  1.00  0.00    -0.049 A 
ATOM     57  C   UNL A   1      39.523  25.759  28.796  1.00  0.00    -0.053 A 
ATOM     58  H   UNL A   1      38.709  23.816  28.642  1.00  0.00     0.063 H 
ATOM     59  C   UNL A   1      40.671  26.547  26.815  1.00  0.00    -0.053 A 
ATOM     60  H   UNL A   1      40.570  25.250  25.153  1.00  0.00     0.063 H 
ATOM     61  C   UNL A   1      40.274  26.751  28.145  1.00  0.00    -0.014 A 
ATOM     62  H   UNL A   1      39.179  25.923  29.755  1.00  0.00     0.063 H 
ATOM     63  H   UNL A   1      41.215  27.273  26.324  1.00  0.00     0.063 H 
BRANCH  61  64
ATOM     64  C   UNL A   1      40.673  27.999  28.848  1.00  0.00     0.031 A 
ATOM     65  C   UNL A   1      42.062  28.146  29.402  1.00  0.00     0.074 A 
ATOM     66  C   UNL A   1      39.761  28.969  29.046  1.00  0.00     0.049 A 
ATOM     67  N   UNL A   1      42.566  29.116  30.124  1.00  0.00    -0.248 NA
ATOM     68  C   UNL A   1      43.003  27.050  29.128  1.00  0.00    -0.034 C 
ATOM     69  C   UNL A   1      38.370  28.929  28.588  1.00  0.00    -0.036 A 
ATOM     70  N   UNL A   1      39.859  30.174  29.697  1.00  0.00    -0.354 N 
ATOM     71  C   UNL A   1      43.876  28.744  30.397  1.00  0.00     0.074 A 
ATOM     72  C   UNL A   1      44.075  27.439  29.804  1.00  0.00    -0.034 C 
ATOM     73  H   UNL A   1      42.865  26.201  28.558  1.00  0.00     0.065 H 
ATOM     74  C   UNL A   1      37.751  30.059  28.962  1.00  0.00    -0.036 A 
ATOM     75  H   UNL A   1      37.937  28.154  28.062  1.00  0.00     0.065 H 
ATOM     76  C   UNL A   1      38.685  30.886  29.720  1.00  0.00     0.049 A 
ATOM     77  H   UNL A   1      40.694  30.498  30.108  1.00  0.00     0.167 HD
ATOM     78  C   UNL A   1      44.830  29.436  31.064  1.00  0.00     0.037 A 
ATOM     79  H   UNL A   1      44.940  26.882  29.896  1.00  0.00     0.065 H 
ATOM     80  H   UNL A   1      36.771  30.305  28.748  1.00  0.00     0.065 H 
ATOM     81  C   UNL A   1      38.389  32.065  30.301  1.00  0.00     0.037 A 
ATOM     82  C   UNL A   1      44.634  30.743  31.636  1.00  0.00     0.049 A 
ATOM     83  C   UNL A   1      39.463  32.802  31.055  1.00  0.00     0.074 A 
ATOM     84  C   UNL A   1      45.554  31.546  32.288  1.00  0.00    -0.036 A 
ATOM     85  N   UNL A   1      43.434  31.438  31.628  1.00  0.00    -0.354 N 
ATOM     86  N   UNL A   1      40.714  32.465  31.256  1.00  0.00    -0.248 NA
ATOM     87  C   UNL A   1      39.084  34.087  31.658  1.00  0.00    -0.034 C 
ATOM     88  C   UNL A   1      44.900  32.708  32.713  1.00  0.00    -0.036 A 
ATOM     89  H   UNL A   1      46.551  31.326  32.436  1.00  0.00     0.065 H 
ATOM     90  C   UNL A   1      43.585  32.651  32.282  1.00  0.00     0.049 A 
ATOM     91  H   UNL A   1      42.598  31.118  31.217  1.00  0.00     0.167 HD
ATOM     92  C   UNL A   1      41.276  33.505  31.984  1.00  0.00     0.074 A 
ATOM     93  C   UNL A   1      40.236  34.494  32.174  1.00  0.00    -0.034 C 
ATOM     94  H   UNL A   1      38.163  34.552  31.676  1.00  0.00     0.065 H 
ATOM     95  H   UNL A   1      45.324  33.476  33.256  1.00  0.00     0.065 H 
ATOM     96  C   UNL A   1      42.541  33.628  32.455  1.00  0.00     0.037 A 
ATOM     97  H   UNL A   1      40.374  35.399  32.648  1.00  0.00     0.065 H 
BRANCH  78  98
ATOM     98  C   UNL A   1      46.181  28.799  31.210  1.00  0.00     0.064 A 
ATOM     99  C   UNL A   1      46.488  27.972  32.300  1.00  0.00     0.173 A 
ATOM    100  C   UNL A   1      47.163  28.972  30.222  1.00  0.00     0.173 A 
ATOM    101  F   UNL A   1      45.587  27.782  33.277  1.00  0.00    -0.203 F 
ATOM    102  C   UNL A   1      47.733  27.358  32.408  1.00  0.00     0.198 A 
ATOM    103  C   UNL A   1      48.396  28.334  30.317  1.00  0.00     0.198 A 
ATOM    104  F   UNL A   1      46.918  29.748  29.155  1.00  0.00    -0.203 F 
ATOM    105  F   UNL A   1      48.017  26.604  33.478  1.00  0.00    -0.200 F 
ATOM    106  C   UNL A   1      48.683  27.533  31.412  1.00  0.00     0.200 A 
ATOM    107  F   UNL A   1      49.308  28.493  29.348  1.00  0.00    -0.200 F 
ATOM    108  F   UNL A   1      49.876  26.931  31.510  1.00  0.00    -0.200 F 
ENDBRANCH  78  98
BRANCH  81 109
ATOM    109  C   UNL A   1      37.017  32.626  30.192  1.00  0.00     0.064 A 
ATOM    110  C   UNL A   1      36.642  33.405  29.088  1.00  0.00     0.173 A 
ATOM    111  C   UNL A   1      36.061  32.416  31.197  1.00  0.00     0.173 A 
ATOM    112  F   UNL A   1      37.529  33.653  28.114  1.00  0.00    -0.203 F 
ATOM    113  C   UNL A   1      35.373  33.973  29.005  1.00  0.00     0.198 A 
ATOM    114  C   UNL A   1      34.782  32.959  31.098  1.00  0.00     0.198 A 
ATOM    115  F   UNL A   1      36.367  31.676  32.273  1.00  0.00    -0.203 F 
ATOM    116  F   UNL A   1      35.059  34.757  27.965  1.00  0.00    -0.200 F 
ATOM    117  C   UNL A   1      34.442  33.745  30.008  1.00  0.00     0.200 A 
ATOM    118  F   UNL A   1      33.881  32.725  32.063  1.00  0.00    -0.200 F 
ATOM    119  F   UNL A   1      33.221  34.293  29.928  1.00  0.00    -0.200 F 
ENDBRANCH  81 109
BRANCH  96 120
ATOM    120  C   UNL A   1      42.879  34.892  33.193  1.00  0.00     0.064 A 
ATOM    121  C   UNL A   1      42.772  34.980  34.589  1.00  0.00     0.173 A 
ATOM    122  C   UNL A   1      43.347  36.017  32.497  1.00  0.00     0.173 A 
ATOM    123  F   UNL A   1      42.314  33.937  35.298  1.00  0.00    -0.203 F 
ATOM    124  C   UNL A   1      43.096  36.157  35.258  1.00  0.00     0.198 A 
ATOM    125  C   UNL A   1      43.700  37.181  33.172  1.00  0.00     0.198 A 
ATOM    126  F   UNL A   1      43.474  35.981  31.162  1.00  0.00    -0.203 F 
ATOM    127  F   UNL A   1      42.939  36.235  36.587  1.00  0.00    -0.200 F 
ATOM    128  C   UNL A   1      43.568  37.253  34.551  1.00  0.00     0.200 A 
ATOM    129  F   UNL A   1      44.167  38.235  32.489  1.00  0.00    -0.200 F 
ATOM    130  F   UNL A   1      43.885  38.383  35.197  1.00  0.00    -0.200 F 
ENDBRANCH  96 120
ENDBRANCH  61  64
ENDBRANCH  51  54
ENDBRANCH  47  50
ENDBRANCH  44  47
ENDBRANCH  41  44
ENDBRANCH   1  41
TORSDOF 17
ENDMDL
MODEL 10
REMARK VINA RESULT:     -11.4      2.045      4.315
REMARK SMILES COc1ccc2cc([C@H](C)C(=O)NCCCCCCNC(=O)c3ccc(-c4c5nc(c(-c6c(F)c(F)c(F)c(F)c6F)c6ccc([nH]6)c(-c6c(F)c(F)c(F)c(F)c6F)c6nc(c(-c7c(F)c(F)c(F)c(F)c7F)c7ccc4[nH]7)C=C6)C=C5)cc3)ccc2c1
REMARK SMILES IDX 16 1 15 4 14 7 13 10 11 11 12 12 9 14 8 16 3 17 4 18 89 19
REMARK SMILES IDX 5 20 88 22 6 24 87 26 7 27 86 28 2 32 1 33 10 37 17 41 18 44
REMARK SMILES IDX 19 47 20 50 21 51 22 53 23 54 24 55 85 56 25 57 84 59 26 61
REMARK SMILES IDX 27 64 28 65 78 66 29 67 83 68 77 69 79 70 30 71 82 72 76 74
REMARK SMILES IDX 75 76 31 78 63 81 43 82 62 83 44 84 47 85 61 86 80 87 45 88
REMARK SMILES IDX 46 90 60 92 81 93 48 96 32 98 33 99 41 100 34 101 35 102
REMARK SMILES IDX 39 103 42 104 36 105 37 106 40 107 38 108 64 109 65 110
REMARK SMILES IDX 73 111 66 112 67 113 71 114 74 115 68 116 69 117 72 118
REMARK SMILES IDX 70 119 49 120 50 121 58 122 51 123 52 124 56 125 59 126
REMARK SMILES IDX 53 127 54 128 57 129 55 130
REMARK H PARENT 16 2 16 3 15 5 15 6 14 8 14 9 13 13 9 15 4 21 89 23 5 25 87 29
REMARK H PARENT 7 30 86 31 1 34 1 35 1 36 10 38 10 39 10 40 17 42 17 43 18 45
REMARK H PARENT 18 46 19 48 19 49 20 52 24 58 85 60 25 62 84 63 83 73 77 75
REMARK H PARENT 79 77 82 79 76 80 44 89 47 91 80 94 45 95 81 97
REMARK Flexibility Score: inf
ROOT
ATOM      1  C   UNL A   1      32.479  29.648  26.882  1.00  0.00    -0.052 C 
ATOM      2  H   UNL A   1      33.334  29.343  26.317  1.00  0.00     0.027 H 
ATOM      3  H   UNL A   1      32.712  30.213  27.761  1.00  0.00     0.027 H 
ENDROOT
BRANCH   1   4
ATOM      4  C   UNL A   1      31.769  28.387  27.377  1.00  0.00    -0.036 C 
ATOM      5  H   UNL A   1      32.400  27.919  28.103  1.00  0.00     0.028 H 
ATOM      6  H   UNL A   1      30.829  28.714  27.768  1.00  0.00     0.028 H 
BRANCH   4   7
ATOM      7  C   UNL A   1      31.441  27.356  26.303  1.00  0.00     0.017 C 
ATOM      8  H   UNL A   1      30.585  27.693  25.759  1.00  0.00     0.049 H 
ATOM      9  H   UNL A   1      32.305  27.262  25.679  1.00  0.00     0.049 H 
BRANCH   7  10
ATOM     10  N   UNL A   1      31.156  26.042  26.840  1.00  0.00    -0.356 N 
ATOM     11  C   UNL A   1      31.790  24.854  26.604  1.00  0.00     0.227 C 
ATOM     12  O   UNL A   1      31.437  23.879  27.275  1.00  0.00    -0.274 OA
ATOM     13  H   UNL A   1      30.396  25.998  27.465  1.00  0.00     0.163 HD
BRANCH  11  14
ATOM     14  C   UNL A   1      32.894  24.713  25.541  1.00  0.00     0.060 C 
ATOM     15  H   UNL A   1      32.516  25.026  24.589  1.00  0.00     0.045 H 
BRANCH  14  16
ATOM     16  C   UNL A   1      33.254  23.252  25.286  1.00  0.00    -0.035 A 
ATOM     17  C   UNL A   1      33.123  18.430  23.687  1.00  0.00     0.119 A 
ATOM     18  C   UNL A   1      32.303  19.135  22.812  1.00  0.00    -0.019 A 
ATOM     19  C   UNL A   1      33.780  19.086  24.725  1.00  0.00    -0.012 A 
ATOM     20  C   UNL A   1      32.133  20.511  22.983  1.00  0.00    -0.051 A 
ATOM     21  H   UNL A   1      31.821  18.644  22.042  1.00  0.00     0.066 H 
ATOM     22  C   UNL A   1      33.642  20.472  24.885  1.00  0.00    -0.015 A 
ATOM     23  H   UNL A   1      34.371  18.551  25.379  1.00  0.00     0.067 H 
ATOM     24  C   UNL A   1      32.785  21.192  24.026  1.00  0.00    -0.018 A 
ATOM     25  H   UNL A   1      31.523  21.034  22.335  1.00  0.00     0.063 H 
ATOM     26  C   UNL A   1      34.341  21.158  25.885  1.00  0.00    -0.054 A 
ATOM     27  C   UNL A   1      32.588  22.566  24.251  1.00  0.00    -0.050 A 
ATOM     28  C   UNL A   1      34.173  22.534  26.061  1.00  0.00    -0.058 A 
ATOM     29  H   UNL A   1      34.988  20.641  26.501  1.00  0.00     0.063 H 
ATOM     30  H   UNL A   1      31.937  23.086  23.643  1.00  0.00     0.063 H 
ATOM     31  H   UNL A   1      34.734  23.028  26.772  1.00  0.00     0.063 H 
BRANCH  17  32
ATOM     32  O   UNL A   1      33.255  17.069  23.621  1.00  0.00    -0.497 OA
BRANCH  32  33
ATOM     33  C   UNL A   1      33.363  16.493  24.921  1.00  0.00     0.078 C 
ATOM     34  H   UNL A   1      33.132  17.232  25.660  1.00  0.00     0.067 H 
ATOM     35  H   UNL A   1      34.361  16.137  25.072  1.00  0.00     0.067 H 
ATOM     36  H   UNL A   1      32.677  15.676  25.007  1.00  0.00     0.067 H 
ENDBRANCH  32  33
ENDBRANCH  17  32
ENDBRANCH  14  16
BRANCH  14  37
ATOM     37  C   UNL A   1      34.046  25.701  25.772  1.00  0.00    -0.049 C 
ATOM     38  H   UNL A   1      33.779  26.383  26.552  1.00  0.00     0.024 H 
ATOM     39  H   UNL A   1      34.234  26.246  24.871  1.00  0.00     0.024 H 
ATOM     40  H   UNL A   1      34.925  25.162  26.054  1.00  0.00     0.024 H 
ENDBRANCH  14  37
ENDBRANCH  11  14
ENDBRANCH   7  10
ENDBRANCH   4   7
ENDBRANCH   1   4
BRANCH   1  41
ATOM     41  C   UNL A   1      31.644  30.583  26.001  1.00  0.00    -0.052 C 
ATOM     42  H   UNL A   1      30.690  30.122  25.848  1.00  0.00     0.027 H 
ATOM     43  H   UNL A   1      32.216  30.719  25.107  1.00  0.00     0.027 H 
BRANCH  41  44
ATOM     44  C   UNL A   1      31.400  31.991  26.549  1.00  0.00    -0.036 C 
ATOM     45  H   UNL A   1      30.577  31.940  27.231  1.00  0.00     0.028 H 
ATOM     46  H   UNL A   1      31.218  32.608  25.694  1.00  0.00     0.028 H 
BRANCH  44  47
ATOM     47  C   UNL A   1      32.576  32.633  27.281  1.00  0.00     0.018 C 
ATOM     48  H   UNL A   1      33.440  32.578  26.652  1.00  0.00     0.049 H 
ATOM     49  H   UNL A   1      32.716  32.097  28.196  1.00  0.00     0.049 H 
BRANCH  47  50
ATOM     50  N   UNL A   1      32.339  34.024  27.621  1.00  0.00    -0.352 N 
ATOM     51  C   UNL A   1      32.971  34.827  28.538  1.00  0.00     0.251 C 
ATOM     52  H   UNL A   1      31.613  34.459  27.118  1.00  0.00     0.163 HD
ATOM     53  O   UNL A   1      32.534  35.947  28.779  1.00  0.00    -0.269 OA
BRANCH  51  54
ATOM     54  C   UNL A   1      34.167  34.339  29.261  1.00  0.00     0.039 A 
ATOM     55  C   UNL A   1      33.987  33.679  30.480  1.00  0.00    -0.049 A 
ATOM     56  C   UNL A   1      35.455  34.545  28.762  1.00  0.00    -0.049 A 
ATOM     57  C   UNL A   1      35.091  33.162  31.162  1.00  0.00    -0.053 A 
ATOM     58  H   UNL A   1      33.039  33.574  30.876  1.00  0.00     0.063 H 
ATOM     59  C   UNL A   1      36.551  33.975  29.410  1.00  0.00    -0.053 A 
ATOM     60  H   UNL A   1      35.596  35.117  27.914  1.00  0.00     0.063 H 
ATOM     61  C   UNL A   1      36.378  33.273  30.613  1.00  0.00    -0.014 A 
ATOM     62  H   UNL A   1      34.961  32.697  32.074  1.00  0.00     0.063 H 
ATOM     63  H   UNL A   1      37.494  34.070  29.003  1.00  0.00     0.063 H 
BRANCH  61  64
ATOM     64  C   UNL A   1      37.552  32.641  31.270  1.00  0.00     0.031 A 
ATOM     65  C   UNL A   1      38.277  31.507  30.603  1.00  0.00     0.074 A 
ATOM     66  C   UNL A   1      37.921  33.047  32.501  1.00  0.00     0.049 A 
ATOM     67  N   UNL A   1      39.259  30.771  31.058  1.00  0.00    -0.248 NA
ATOM     68  C   UNL A   1      37.825  31.137  29.253  1.00  0.00    -0.034 C 
ATOM     69  C   UNL A   1      37.274  34.113  33.269  1.00  0.00    -0.036 A 
ATOM     70  N   UNL A   1      38.919  32.600  33.331  1.00  0.00    -0.354 N 
ATOM     71  C   UNL A   1      39.535  29.846  30.059  1.00  0.00     0.074 A 
ATOM     72  C   UNL A   1      38.587  30.085  28.992  1.00  0.00    -0.034 C 
ATOM     73  H   UNL A   1      37.103  31.581  28.665  1.00  0.00     0.065 H 
ATOM     74  C   UNL A   1      37.899  34.245  34.449  1.00  0.00    -0.036 A 
ATOM     75  H   UNL A   1      36.468  34.673  32.952  1.00  0.00     0.065 H 
ATOM     76  C   UNL A   1      38.961  33.248  34.541  1.00  0.00     0.049 A 
ATOM     77  H   UNL A   1      39.546  31.882  33.082  1.00  0.00     0.167 HD
ATOM     78  C   UNL A   1      40.504  28.901  30.026  1.00  0.00     0.037 A 
ATOM     79  H   UNL A   1      38.513  29.509  28.138  1.00  0.00     0.065 H 
ATOM     80  H   UNL A   1      37.665  34.940  35.177  1.00  0.00     0.065 H 
ATOM     81  C   UNL A   1      39.755  33.051  35.611  1.00  0.00     0.037 A 
ATOM     82  C   UNL A   1      41.458  28.679  31.082  1.00  0.00     0.049 A 
ATOM     83  C   UNL A   1      40.809  31.977  35.556  1.00  0.00     0.074 A 
ATOM     84  C   UNL A   1      42.508  27.777  31.120  1.00  0.00    -0.036 A 
ATOM     85  N   UNL A   1      41.478  29.365  32.287  1.00  0.00    -0.354 N 
ATOM     86  N   UNL A   1      41.096  31.149  34.581  1.00  0.00    -0.248 NA
ATOM     87  C   UNL A   1      41.651  31.815  36.749  1.00  0.00    -0.034 C 
ATOM     88  C   UNL A   1      43.135  27.887  32.367  1.00  0.00    -0.036 A 
ATOM     89  H   UNL A   1      42.782  27.135  30.361  1.00  0.00     0.065 H 
ATOM     90  C   UNL A   1      42.508  28.892  33.084  1.00  0.00     0.049 A 
ATOM     91  H   UNL A   1      40.852  30.083  32.539  1.00  0.00     0.167 HD
ATOM     92  C   UNL A   1      42.167  30.388  35.032  1.00  0.00     0.074 A 
ATOM     93  C   UNL A   1      42.490  30.865  36.360  1.00  0.00    -0.034 C 
ATOM     94  H   UNL A   1      41.603  32.311  37.652  1.00  0.00     0.065 H 
ATOM     95  H   UNL A   1      43.929  27.316  32.695  1.00  0.00     0.065 H 
ATOM     96  C   UNL A   1      42.821  29.383  34.402  1.00  0.00     0.037 A 
ATOM     97  H   UNL A   1      43.273  30.511  36.930  1.00  0.00     0.065 H 
BRANCH  78  98
ATOM     98  C   UNL A   1      40.589  28.030  28.806  1.00  0.00     0.064 A 
ATOM     99  C   UNL A   1      39.876  26.826  28.713  1.00  0.00     0.173 A 
ATOM    100  C   UNL A   1      41.347  28.430  27.695  1.00  0.00     0.173 A 
ATOM    101  F   UNL A   1      39.144  26.393  29.752  1.00  0.00    -0.203 F 
ATOM    102  C   UNL A   1      39.935  26.044  27.563  1.00  0.00     0.198 A 
ATOM    103  C   UNL A   1      41.381  27.661  26.535  1.00  0.00     0.198 A 
ATOM    104  F   UNL A   1      42.043  29.578  27.729  1.00  0.00    -0.203 F 
ATOM    105  F   UNL A   1      39.277  24.877  27.512  1.00  0.00    -0.200 F 
ATOM    106  C   UNL A   1      40.681  26.466  26.473  1.00  0.00     0.200 A 
ATOM    107  F   UNL A   1      42.091  28.077  25.477  1.00  0.00    -0.200 F 
ATOM    108  F   UNL A   1      40.726  25.719  25.361  1.00  0.00    -0.200 F 
ENDBRANCH  78  98
BRANCH  81 109
ATOM    109  C   UNL A   1      39.589  33.888  36.828  1.00  0.00     0.064 A 
ATOM    110  C   UNL A   1      38.797  33.455  37.900  1.00  0.00     0.173 A 
ATOM    111  C   UNL A   1      40.200  35.147  36.936  1.00  0.00     0.173 A 
ATOM    112  F   UNL A   1      38.173  32.269  37.832  1.00  0.00    -0.203 F 
ATOM    113  C   UNL A   1      38.600  34.257  39.021  1.00  0.00     0.198 A 
ATOM    114  C   UNL A   1      40.027  35.935  38.071  1.00  0.00     0.198 A 
ATOM    115  F   UNL A   1      40.971  35.608  35.940  1.00  0.00    -0.203 F 
ATOM    116  F   UNL A   1      37.794  33.840  40.007  1.00  0.00    -0.200 F 
ATOM    117  C   UNL A   1      39.219  35.494  39.109  1.00  0.00     0.200 A 
ATOM    118  F   UNL A   1      40.639  37.125  38.158  1.00  0.00    -0.200 F 
ATOM    119  F   UNL A   1      39.029  36.267  40.187  1.00  0.00    -0.200 F 
ENDBRANCH  81 109
BRANCH  96 120
ATOM    120  C   UNL A   1      43.974  28.752  35.129  1.00  0.00     0.064 A 
ATOM    121  C   UNL A   1      45.282  29.244  35.003  1.00  0.00     0.173 A 
ATOM    122  C   UNL A   1      43.762  27.663  35.989  1.00  0.00     0.173 A 
ATOM    123  F   UNL A   1      45.539  30.272  34.180  1.00  0.00    -0.203 F 
ATOM    124  C   UNL A   1      46.338  28.651  35.689  1.00  0.00     0.198 A 
ATOM    125  C   UNL A   1      44.815  27.093  36.698  1.00  0.00     0.198 A 
ATOM    126  F   UNL A   1      42.529  27.160  36.150  1.00  0.00    -0.203 F 
ATOM    127  F   UNL A   1      47.587  29.106  35.514  1.00  0.00    -0.200 F 
ATOM    128  C   UNL A   1      46.103  27.583  36.542  1.00  0.00     0.200 A 
ATOM    129  F   UNL A   1      44.584  26.070  37.531  1.00  0.00    -0.200 F 
ATOM    130  F   UNL A   1      47.120  27.019  37.206  1.00  0.00    -0.200 F 
ENDBRANCH  96 120
ENDBRANCH  61  64
ENDBRANCH  51  54
ENDBRANCH  47  50
ENDBRANCH  44  47
ENDBRANCH  41  44
ENDBRANCH   1  41
TORSDOF 17
ENDMDL
