MODEL 1
REMARK VINA RESULT:     -12.0      0.000      0.000
REMARK SMILES C[C@@H](C(=O)NCCCCCCNC(=O)c1ccc(-c2c3nc(c(-c4c(F)c(F)c(F)c(F)c4F)c4ccc([nH]4)c(-c4c(F)c(F)c(F)c(F)c4F)c4nc(c(-c5c(F)c(F)c(F)c(F)c5F)c5ccc2[nH]5)C=C4)C=C3)cc1)c1cccn(C(F)F)c1=O
REMARK SMILES IDX 8 1 7 4 6 7 5 10 3 11 4 12 2 14 1 16 78 20 79 21 86 22 80 23
REMARK SMILES IDX 82 25 87 26 81 27 83 30 84 31 85 32 9 34 10 37 11 40 12 43
REMARK SMILES IDX 13 44 14 46 15 47 16 48 77 49 17 50 76 52 18 54 19 57 20 58
REMARK SMILES IDX 70 59 21 60 75 61 69 62 71 63 22 64 74 65 68 67 67 69 23 71
REMARK SMILES IDX 55 74 35 75 54 76 36 77 39 78 53 79 72 80 37 81 38 83 52 85
REMARK SMILES IDX 73 86 40 89 24 91 25 92 33 93 26 94 27 95 31 96 34 97 28 98
REMARK SMILES IDX 29 99 32 100 30 101 56 102 57 103 65 104 58 105 59 106
REMARK SMILES IDX 63 107 66 108 60 109 61 110 64 111 62 112 41 113 42 114
REMARK SMILES IDX 50 115 43 116 44 117 48 118 51 119 45 120 46 121 49 122
REMARK SMILES IDX 47 123
REMARK H PARENT 8 2 8 3 7 5 7 6 6 8 6 9 5 13 2 15 1 17 1 18 1 19 79 24 80 28
REMARK H PARENT 81 29 83 33 9 35 9 36 10 38 10 39 11 41 11 42 12 45 16 51
REMARK H PARENT 77 53 17 55 76 56 75 66 69 68 71 70 74 72 68 73 36 82 39 84
REMARK H PARENT 72 87 37 88 73 90
REMARK Flexibility Score: inf
ROOT
ATOM      1  C   UNL A   1      32.552  29.917  25.723  1.00  0.00    -0.052 C 
ATOM      2  H   UNL A   1      32.153  30.209  24.773  1.00  0.00     0.027 H 
ATOM      3  H   UNL A   1      33.552  30.262  25.885  1.00  0.00     0.027 H 
ENDROOT
BRANCH   1   4
ATOM      4  C   UNL A   1      32.611  28.382  25.765  1.00  0.00    -0.036 C 
ATOM      5  H   UNL A   1      33.464  28.060  25.204  1.00  0.00     0.028 H 
ATOM      6  H   UNL A   1      32.674  28.097  26.795  1.00  0.00     0.028 H 
BRANCH   4   7
ATOM      7  C   UNL A   1      31.364  27.711  25.183  1.00  0.00     0.017 C 
ATOM      8  H   UNL A   1      31.395  26.662  25.392  1.00  0.00     0.049 H 
ATOM      9  H   UNL A   1      30.490  28.140  25.627  1.00  0.00     0.049 H 
BRANCH   7  10
ATOM     10  N   UNL A   1      31.323  27.916  23.750  1.00  0.00    -0.356 N 
ATOM     11  C   UNL A   1      30.267  28.225  22.943  1.00  0.00     0.227 C 
ATOM     12  O   UNL A   1      30.438  28.076  21.731  1.00  0.00    -0.274 OA
ATOM     13  H   UNL A   1      32.188  27.815  23.290  1.00  0.00     0.163 HD
BRANCH  11  14
ATOM     14  C   UNL A   1      28.983  28.819  23.551  1.00  0.00     0.066 C 
ATOM     15  H   UNL A   1      29.017  28.792  24.619  1.00  0.00     0.045 H 
BRANCH  14  16
ATOM     16  C   UNL A   1      27.749  27.966  23.242  1.00  0.00    -0.049 C 
ATOM     17  H   UNL A   1      27.962  26.940  23.463  1.00  0.00     0.024 H 
ATOM     18  H   UNL A   1      27.497  28.064  22.207  1.00  0.00     0.024 H 
ATOM     19  H   UNL A   1      26.928  28.297  23.843  1.00  0.00     0.024 H 
ENDBRANCH  14  16
BRANCH  14  20
ATOM     20  C   UNL A   1      28.898  30.292  23.160  1.00  0.00     0.030 A 
ATOM     21  C   UNL A   1      29.294  31.263  24.010  1.00  0.00    -0.051 A 
ATOM     22  C   UNL A   1      28.383  30.718  21.807  1.00  0.00     0.258 A 
ATOM     23  C   UNL A   1      29.250  32.657  23.655  1.00  0.00    -0.045 A 
ATOM     24  H   UNL A   1      29.639  30.998  24.944  1.00  0.00     0.063 H 
ATOM     25  N   UNL A   1      28.264  32.081  21.593  1.00  0.00    -0.258 N 
ATOM     26  O   UNL A   1      28.054  29.896  20.957  1.00  0.00    -0.269 OA
ATOM     27  C   UNL A   1      28.726  33.026  22.483  1.00  0.00     0.013 A 
ATOM     28  H   UNL A   1      29.624  33.369  24.302  1.00  0.00     0.064 H 
ATOM     29  H   UNL A   1      28.666  34.028  22.243  1.00  0.00     0.082 H 
BRANCH  25  30
ATOM     30  C   UNL A   1      27.656  32.507  20.358  1.00  0.00     0.321 C 
ATOM     31  F   UNL A   1      27.227  33.793  20.487  1.00  0.00    -0.185 F 
ATOM     32  F   UNL A   1      28.585  32.518  19.366  1.00  0.00    -0.185 F 
ATOM     33  H   UNL A   1      26.852  31.839  20.131  1.00  0.00     0.131 H 
ENDBRANCH  25  30
ENDBRANCH  14  20
ENDBRANCH  11  14
ENDBRANCH   7  10
ENDBRANCH   4   7
ENDBRANCH   1   4
BRANCH   1  34
ATOM     34  C   UNL A   1      31.691  30.555  26.818  1.00  0.00    -0.052 C 
ATOM     35  H   UNL A   1      32.113  30.298  27.768  1.00  0.00     0.027 H 
ATOM     36  H   UNL A   1      30.699  30.177  26.685  1.00  0.00     0.027 H 
BRANCH  34  37
ATOM     37  C   UNL A   1      31.591  32.079  26.737  1.00  0.00    -0.036 C 
ATOM     38  H   UNL A   1      30.721  32.390  27.276  1.00  0.00     0.028 H 
ATOM     39  H   UNL A   1      31.544  32.333  25.700  1.00  0.00     0.028 H 
BRANCH  37  40
ATOM     40  C   UNL A   1      32.799  32.807  27.316  1.00  0.00     0.018 C 
ATOM     41  H   UNL A   1      33.597  32.774  26.603  1.00  0.00     0.049 H 
ATOM     42  H   UNL A   1      33.077  32.320  28.227  1.00  0.00     0.049 H 
BRANCH  40  43
ATOM     43  N   UNL A   1      32.496  34.198  27.621  1.00  0.00    -0.352 N 
ATOM     44  C   UNL A   1      33.015  34.994  28.609  1.00  0.00     0.251 C 
ATOM     45  H   UNL A   1      31.828  34.625  27.038  1.00  0.00     0.163 HD
ATOM     46  O   UNL A   1      32.504  36.078  28.876  1.00  0.00    -0.269 OA
BRANCH  44  47
ATOM     47  C   UNL A   1      34.191  34.525  29.366  1.00  0.00     0.039 A 
ATOM     48  C   UNL A   1      34.008  33.962  30.632  1.00  0.00    -0.049 A 
ATOM     49  C   UNL A   1      35.469  34.618  28.809  1.00  0.00    -0.049 A 
ATOM     50  C   UNL A   1      35.106  33.432  31.313  1.00  0.00    -0.053 A 
ATOM     51  H   UNL A   1      33.070  33.939  31.060  1.00  0.00     0.063 H 
ATOM     52  C   UNL A   1      36.544  34.019  29.452  1.00  0.00    -0.053 A 
ATOM     53  H   UNL A   1      35.613  35.129  27.924  1.00  0.00     0.063 H 
ATOM     54  C   UNL A   1      36.375  33.424  30.712  1.00  0.00    -0.014 A 
ATOM     55  H   UNL A   1      34.984  33.045  32.262  1.00  0.00     0.063 H 
ATOM     56  H   UNL A   1      37.473  34.012  29.001  1.00  0.00     0.063 H 
BRANCH  54  57
ATOM     57  C   UNL A   1      37.548  32.807  31.377  1.00  0.00     0.031 A 
ATOM     58  C   UNL A   1      38.232  31.630  30.741  1.00  0.00     0.074 A 
ATOM     59  C   UNL A   1      37.931  33.234  32.595  1.00  0.00     0.049 A 
ATOM     60  N   UNL A   1      39.180  30.863  31.217  1.00  0.00    -0.248 NA
ATOM     61  C   UNL A   1      37.758  31.243  29.403  1.00  0.00    -0.034 C 
ATOM     62  C   UNL A   1      37.314  34.335  33.335  1.00  0.00    -0.036 A 
ATOM     63  N   UNL A   1      38.913  32.774  33.438  1.00  0.00    -0.354 N 
ATOM     64  C   UNL A   1      39.397  29.892  30.249  1.00  0.00     0.074 A 
ATOM     65  C   UNL A   1      38.445  30.132  29.187  1.00  0.00    -0.034 C 
ATOM     66  H   UNL A   1      37.072  31.713  28.794  1.00  0.00     0.065 H 
ATOM     67  C   UNL A   1      37.931  34.467  34.519  1.00  0.00    -0.036 A 
ATOM     68  H   UNL A   1      36.531  34.918  32.999  1.00  0.00     0.065 H 
ATOM     69  C   UNL A   1      38.954  33.431  34.642  1.00  0.00     0.049 A 
ATOM     70  H   UNL A   1      39.527  32.043  33.200  1.00  0.00     0.167 HD
ATOM     71  C   UNL A   1      40.321  28.901  30.241  1.00  0.00     0.037 A 
ATOM     72  H   UNL A   1      38.317  29.517  28.367  1.00  0.00     0.065 H 
ATOM     73  H   UNL A   1      37.716  35.184  35.230  1.00  0.00     0.065 H 
ATOM     74  C   UNL A   1      39.711  33.208  35.734  1.00  0.00     0.037 A 
ATOM     75  C   UNL A   1      41.275  28.683  31.295  1.00  0.00     0.049 A 
ATOM     76  C   UNL A   1      40.725  32.098  35.711  1.00  0.00     0.074 A 
ATOM     77  C   UNL A   1      42.301  27.757  31.353  1.00  0.00    -0.036 A 
ATOM     78  N   UNL A   1      41.311  29.394  32.488  1.00  0.00    -0.354 N 
ATOM     79  N   UNL A   1      40.979  31.233  34.759  1.00  0.00    -0.248 NA
ATOM     80  C   UNL A   1      41.563  31.936  36.906  1.00  0.00    -0.034 C 
ATOM     81  C   UNL A   1      42.914  27.862  32.605  1.00  0.00    -0.036 A 
ATOM     82  H   UNL A   1      42.568  27.102  30.601  1.00  0.00     0.065 H 
ATOM     83  C   UNL A   1      42.318  28.902  33.302  1.00  0.00     0.049 A 
ATOM     84  H   UNL A   1      40.709  30.137  32.720  1.00  0.00     0.167 HD
ATOM     85  C   UNL A   1      42.021  30.442  35.227  1.00  0.00     0.074 A 
ATOM     86  C   UNL A   1      42.356  30.935  36.547  1.00  0.00    -0.034 C 
ATOM     87  H   UNL A   1      41.541  32.463  37.793  1.00  0.00     0.065 H 
ATOM     88  H   UNL A   1      43.682  27.266  32.952  1.00  0.00     0.065 H 
ATOM     89  C   UNL A   1      42.644  29.406  34.614  1.00  0.00     0.037 A 
ATOM     90  H   UNL A   1      43.115  30.556  37.133  1.00  0.00     0.065 H 
BRANCH  71  91
ATOM     91  C   UNL A   1      40.325  27.970  29.062  1.00  0.00     0.064 A 
ATOM     92  C   UNL A   1      41.061  28.246  27.898  1.00  0.00     0.173 A 
ATOM     93  C   UNL A   1      39.580  26.781  29.094  1.00  0.00     0.173 A 
ATOM     94  F   UNL A   1      41.786  29.372  27.809  1.00  0.00    -0.203 F 
ATOM     95  C   UNL A   1      41.010  27.396  26.797  1.00  0.00     0.198 A 
ATOM     96  C   UNL A   1      39.563  25.913  28.006  1.00  0.00     0.198 A 
ATOM     97  F   UNL A   1      38.864  26.460  30.182  1.00  0.00    -0.203 F 
ATOM     98  F   UNL A   1      41.663  27.720  25.672  1.00  0.00    -0.200 F 
ATOM     99  C   UNL A   1      40.265  26.228  26.853  1.00  0.00     0.200 A 
ATOM    100  F   UNL A   1      38.854  24.777  28.068  1.00  0.00    -0.200 F 
ATOM    101  F   UNL A   1      40.215  25.412  25.792  1.00  0.00    -0.200 F 
ENDBRANCH  71  91
BRANCH  74 102
ATOM    102  C   UNL A   1      39.529  34.066  36.934  1.00  0.00     0.064 A 
ATOM    103  C   UNL A   1      38.742  33.643  38.014  1.00  0.00     0.173 A 
ATOM    104  C   UNL A   1      40.171  35.309  37.041  1.00  0.00     0.173 A 
ATOM    105  F   UNL A   1      38.094  32.471  37.951  1.00  0.00    -0.203 F 
ATOM    106  C   UNL A   1      38.598  34.434  39.152  1.00  0.00     0.198 A 
ATOM    107  C   UNL A   1      40.050  36.086  38.192  1.00  0.00     0.198 A 
ATOM    108  F   UNL A   1      40.942  35.755  36.039  1.00  0.00    -0.203 F 
ATOM    109  F   UNL A   1      37.815  34.020  40.158  1.00  0.00    -0.200 F 
ATOM    110  C   UNL A   1      39.259  35.650  39.244  1.00  0.00     0.200 A 
ATOM    111  F   UNL A   1      40.706  37.250  38.284  1.00  0.00    -0.200 F 
ATOM    112  F   UNL A   1      39.134  36.402  40.345  1.00  0.00    -0.200 F 
ENDBRANCH  74 102
BRANCH  89 113
ATOM    113  C   UNL A   1      43.784  28.749  35.339  1.00  0.00     0.064 A 
ATOM    114  C   UNL A   1      45.111  29.168  35.164  1.00  0.00     0.173 A 
ATOM    115  C   UNL A   1      43.532  27.741  36.283  1.00  0.00     0.173 A 
ATOM    116  F   UNL A   1      45.406  30.118  34.265  1.00  0.00    -0.203 F 
ATOM    117  C   UNL A   1      46.143  28.595  35.902  1.00  0.00     0.198 A 
ATOM    118  C   UNL A   1      44.563  27.192  37.040  1.00  0.00     0.198 A 
ATOM    119  F   UNL A   1      42.279  27.308  36.491  1.00  0.00    -0.203 F 
ATOM    120  F   UNL A   1      47.409  28.988  35.697  1.00  0.00    -0.200 F 
ATOM    121  C   UNL A   1      45.867  27.617  36.847  1.00  0.00     0.200 A 
ATOM    122  F   UNL A   1      44.291  26.260  37.963  1.00  0.00    -0.200 F 
ATOM    123  F   UNL A   1      46.861  27.084  37.571  1.00  0.00    -0.200 F 
ENDBRANCH  89 113
ENDBRANCH  54  57
ENDBRANCH  44  47
ENDBRANCH  40  43
ENDBRANCH  37  40
ENDBRANCH  34  37
ENDBRANCH   1  34
TORSDOF 16
ENDMDL
MODEL 2
REMARK VINA RESULT:     -11.9      1.298      1.783
REMARK SMILES C[C@@H](C(=O)NCCCCCCNC(=O)c1ccc(-c2c3nc(c(-c4c(F)c(F)c(F)c(F)c4F)c4ccc([nH]4)c(-c4c(F)c(F)c(F)c(F)c4F)c4nc(c(-c5c(F)c(F)c(F)c(F)c5F)c5ccc2[nH]5)C=C4)C=C3)cc1)c1cccn(C(F)F)c1=O
REMARK SMILES IDX 8 1 7 4 6 7 5 10 3 11 4 12 2 14 1 16 78 20 79 21 86 22 80 23
REMARK SMILES IDX 82 25 87 26 81 27 83 30 84 31 85 32 9 34 10 37 11 40 12 43
REMARK SMILES IDX 13 44 14 46 15 47 16 48 77 49 17 50 76 52 18 54 19 57 20 58
REMARK SMILES IDX 70 59 21 60 75 61 69 62 71 63 22 64 74 65 68 67 67 69 23 71
REMARK SMILES IDX 55 74 35 75 54 76 36 77 39 78 53 79 72 80 37 81 38 83 52 85
REMARK SMILES IDX 73 86 40 89 24 91 25 92 33 93 26 94 27 95 31 96 34 97 28 98
REMARK SMILES IDX 29 99 32 100 30 101 56 102 57 103 65 104 58 105 59 106
REMARK SMILES IDX 63 107 66 108 60 109 61 110 64 111 62 112 41 113 42 114
REMARK SMILES IDX 50 115 43 116 44 117 48 118 51 119 45 120 46 121 49 122
REMARK SMILES IDX 47 123
REMARK H PARENT 8 2 8 3 7 5 7 6 6 8 6 9 5 13 2 15 1 17 1 18 1 19 79 24 80 28
REMARK H PARENT 81 29 83 33 9 35 9 36 10 38 10 39 11 41 11 42 12 45 16 51
REMARK H PARENT 77 53 17 55 76 56 75 66 69 68 71 70 74 72 68 73 36 82 39 84
REMARK H PARENT 72 87 37 88 73 90
REMARK Flexibility Score: inf
ROOT
ATOM      1  C   UNL A   1      32.762  29.763  26.841  1.00  0.00    -0.052 C 
ATOM      2  H   UNL A   1      33.513  29.406  26.165  1.00  0.00     0.027 H 
ATOM      3  H   UNL A   1      33.162  30.343  27.647  1.00  0.00     0.027 H 
ENDROOT
BRANCH   1   4
ATOM      4  C   UNL A   1      32.078  28.545  27.481  1.00  0.00    -0.036 C 
ATOM      5  H   UNL A   1      32.513  28.378  28.444  1.00  0.00     0.028 H 
ATOM      6  H   UNL A   1      31.033  28.767  27.543  1.00  0.00     0.028 H 
BRANCH   4   7
ATOM      7  C   UNL A   1      32.222  27.265  26.654  1.00  0.00     0.017 C 
ATOM      8  H   UNL A   1      32.255  27.515  25.613  1.00  0.00     0.049 H 
ATOM      9  H   UNL A   1      33.125  26.762  26.931  1.00  0.00     0.049 H 
BRANCH   7  10
ATOM     10  N   UNL A   1      31.093  26.393  26.903  1.00  0.00    -0.356 N 
ATOM     11  C   UNL A   1      30.263  25.767  26.018  1.00  0.00     0.227 C 
ATOM     12  O   UNL A   1      29.217  25.304  26.478  1.00  0.00    -0.274 OA
ATOM     13  H   UNL A   1      30.895  26.228  27.853  1.00  0.00     0.163 HD
BRANCH  11  14
ATOM     14  C   UNL A   1      30.696  25.587  24.551  1.00  0.00     0.066 C 
ATOM     15  H   UNL A   1      30.075  24.872  24.053  1.00  0.00     0.045 H 
BRANCH  14  16
ATOM     16  C   UNL A   1      32.084  24.952  24.432  1.00  0.00    -0.049 C 
ATOM     17  H   UNL A   1      32.264  24.681  23.412  1.00  0.00     0.024 H 
ATOM     18  H   UNL A   1      32.131  24.078  25.047  1.00  0.00     0.024 H 
ATOM     19  H   UNL A   1      32.826  25.653  24.750  1.00  0.00     0.024 H 
ENDBRANCH  14  16
BRANCH  14  20
ATOM     20  C   UNL A   1      30.497  26.913  23.822  1.00  0.00     0.030 A 
ATOM     21  C   UNL A   1      31.551  27.674  23.457  1.00  0.00    -0.051 A 
ATOM     22  C   UNL A   1      29.120  27.419  23.471  1.00  0.00     0.258 A 
ATOM     23  C   UNL A   1      31.392  28.913  22.744  1.00  0.00    -0.045 A 
ATOM     24  H   UNL A   1      32.503  27.355  23.695  1.00  0.00     0.063 H 
ATOM     25  N   UNL A   1      29.051  28.675  22.892  1.00  0.00    -0.258 N 
ATOM     26  O   UNL A   1      28.112  26.762  23.720  1.00  0.00    -0.269 OA
ATOM     27  C   UNL A   1      30.166  29.386  22.502  1.00  0.00     0.013 A 
ATOM     28  H   UNL A   1      32.221  29.436  22.420  1.00  0.00     0.064 H 
ATOM     29  H   UNL A   1      30.053  30.290  22.020  1.00  0.00     0.082 H 
BRANCH  25  30
ATOM     30  C   UNL A   1      27.741  29.230  22.665  1.00  0.00     0.321 C 
ATOM     31  F   UNL A   1      27.441  30.101  23.668  1.00  0.00    -0.185 F 
ATOM     32  F   UNL A   1      27.742  29.960  21.520  1.00  0.00    -0.185 F 
ATOM     33  H   UNL A   1      27.039  28.424  22.613  1.00  0.00     0.131 H 
ENDBRANCH  25  30
ENDBRANCH  14  20
ENDBRANCH  11  14
ENDBRANCH   7  10
ENDBRANCH   4   7
ENDBRANCH   1   4
BRANCH   1  34
ATOM     34  C   UNL A   1      31.823  30.691  26.064  1.00  0.00    -0.052 C 
ATOM     35  H   UNL A   1      30.907  30.165  25.883  1.00  0.00     0.027 H 
ATOM     36  H   UNL A   1      32.335  30.961  25.165  1.00  0.00     0.027 H 
BRANCH  34  37
ATOM     37  C   UNL A   1      31.487  31.998  26.783  1.00  0.00    -0.036 C 
ATOM     38  H   UNL A   1      30.809  31.780  27.582  1.00  0.00     0.028 H 
ATOM     39  H   UNL A   1      31.063  32.655  26.053  1.00  0.00     0.028 H 
BRANCH  37  40
ATOM     40  C   UNL A   1      32.701  32.711  27.367  1.00  0.00     0.018 C 
ATOM     41  H   UNL A   1      33.514  32.633  26.675  1.00  0.00     0.049 H 
ATOM     42  H   UNL A   1      32.944  32.245  28.299  1.00  0.00     0.049 H 
BRANCH  40  43
ATOM     43  N   UNL A   1      32.431  34.118  27.620  1.00  0.00    -0.352 N 
ATOM     44  C   UNL A   1      32.982  34.942  28.569  1.00  0.00     0.251 C 
ATOM     45  H   UNL A   1      31.763  34.536  27.031  1.00  0.00     0.163 HD
ATOM     46  O   UNL A   1      32.497  36.046  28.801  1.00  0.00    -0.269 OA
BRANCH  44  47
ATOM     47  C   UNL A   1      34.159  34.478  29.327  1.00  0.00     0.039 A 
ATOM     48  C   UNL A   1      33.975  33.884  30.578  1.00  0.00    -0.049 A 
ATOM     49  C   UNL A   1      35.441  34.609  28.785  1.00  0.00    -0.049 A 
ATOM     50  C   UNL A   1      35.076  33.359  31.258  1.00  0.00    -0.053 A 
ATOM     51  H   UNL A   1      33.034  33.833  30.996  1.00  0.00     0.063 H 
ATOM     52  C   UNL A   1      36.521  34.016  29.426  1.00  0.00    -0.053 A 
ATOM     53  H   UNL A   1      35.582  35.142  27.913  1.00  0.00     0.063 H 
ATOM     54  C   UNL A   1      36.351  33.390  30.670  1.00  0.00    -0.014 A 
ATOM     55  H   UNL A   1      34.953  32.949  32.197  1.00  0.00     0.063 H 
ATOM     56  H   UNL A   1      37.454  34.037  28.984  1.00  0.00     0.063 H 
BRANCH  54  57
ATOM     57  C   UNL A   1      37.529  32.780  31.333  1.00  0.00     0.031 A 
ATOM     58  C   UNL A   1      38.220  31.609  30.695  1.00  0.00     0.074 A 
ATOM     59  C   UNL A   1      37.912  33.210  32.550  1.00  0.00     0.049 A 
ATOM     60  N   UNL A   1      39.174  30.848  31.169  1.00  0.00    -0.248 NA
ATOM     61  C   UNL A   1      37.746  31.218  29.358  1.00  0.00    -0.034 C 
ATOM     62  C   UNL A   1      37.289  34.307  33.291  1.00  0.00    -0.036 A 
ATOM     63  N   UNL A   1      38.898  32.756  33.391  1.00  0.00    -0.354 N 
ATOM     64  C   UNL A   1      39.396  29.878  30.201  1.00  0.00     0.074 A 
ATOM     65  C   UNL A   1      38.441  30.111  29.141  1.00  0.00    -0.034 C 
ATOM     66  H   UNL A   1      37.056  31.684  28.750  1.00  0.00     0.065 H 
ATOM     67  C   UNL A   1      37.907  34.442  34.474  1.00  0.00    -0.036 A 
ATOM     68  H   UNL A   1      36.501  34.884  32.957  1.00  0.00     0.065 H 
ATOM     69  C   UNL A   1      38.937  33.414  34.595  1.00  0.00     0.049 A 
ATOM     70  H   UNL A   1      39.517  32.029  33.152  1.00  0.00     0.167 HD
ATOM     71  C   UNL A   1      40.326  28.894  30.191  1.00  0.00     0.037 A 
ATOM     72  H   UNL A   1      38.315  29.496  28.321  1.00  0.00     0.065 H 
ATOM     73  H   UNL A   1      37.689  35.159  35.186  1.00  0.00     0.065 H 
ATOM     74  C   UNL A   1      39.697  33.196  35.685  1.00  0.00     0.037 A 
ATOM     75  C   UNL A   1      41.284  28.682  31.244  1.00  0.00     0.049 A 
ATOM     76  C   UNL A   1      40.719  32.092  35.661  1.00  0.00     0.074 A 
ATOM     77  C   UNL A   1      42.317  27.763  31.299  1.00  0.00    -0.036 A 
ATOM     78  N   UNL A   1      41.317  29.393  32.436  1.00  0.00    -0.354 N 
ATOM     79  N   UNL A   1      40.978  31.229  34.708  1.00  0.00    -0.248 NA
ATOM     80  C   UNL A   1      41.561  31.936  36.854  1.00  0.00    -0.034 C 
ATOM     81  C   UNL A   1      42.931  27.872  32.550  1.00  0.00    -0.036 A 
ATOM     82  H   UNL A   1      42.586  27.110  30.546  1.00  0.00     0.065 H 
ATOM     83  C   UNL A   1      42.329  28.907  33.248  1.00  0.00     0.049 A 
ATOM     84  H   UNL A   1      40.710  30.132  32.670  1.00  0.00     0.167 HD
ATOM     85  C   UNL A   1      42.025  30.445  35.174  1.00  0.00     0.074 A 
ATOM     86  C   UNL A   1      42.360  30.941  36.493  1.00  0.00    -0.034 C 
ATOM     87  H   UNL A   1      41.537  32.462  37.741  1.00  0.00     0.065 H 
ATOM     88  H   UNL A   1      43.703  27.281  32.896  1.00  0.00     0.065 H 
ATOM     89  C   UNL A   1      42.654  29.414  34.560  1.00  0.00     0.037 A 
ATOM     90  H   UNL A   1      43.122  30.566  37.078  1.00  0.00     0.065 H 
BRANCH  71  91
ATOM     91  C   UNL A   1      40.334  27.962  29.012  1.00  0.00     0.064 A 
ATOM     92  C   UNL A   1      41.057  28.249  27.843  1.00  0.00     0.173 A 
ATOM     93  C   UNL A   1      39.607  26.763  29.050  1.00  0.00     0.173 A 
ATOM     94  F   UNL A   1      41.765  29.386  27.748  1.00  0.00    -0.203 F 
ATOM     95  C   UNL A   1      41.010  27.398  26.742  1.00  0.00     0.198 A 
ATOM     96  C   UNL A   1      39.593  25.895  27.962  1.00  0.00     0.198 A 
ATOM     97  F   UNL A   1      38.904  26.432  30.143  1.00  0.00    -0.203 F 
ATOM     98  F   UNL A   1      41.649  27.732  25.612  1.00  0.00    -0.200 F 
ATOM     99  C   UNL A   1      40.282  26.220  26.803  1.00  0.00     0.200 A 
ATOM    100  F   UNL A   1      38.902  24.748  28.029  1.00  0.00    -0.200 F 
ATOM    101  F   UNL A   1      40.235  25.403  25.742  1.00  0.00    -0.200 F 
ENDBRANCH  71  91
BRANCH  74 102
ATOM    102  C   UNL A   1      39.512  34.052  36.886  1.00  0.00     0.064 A 
ATOM    103  C   UNL A   1      38.739  33.620  37.972  1.00  0.00     0.173 A 
ATOM    104  C   UNL A   1      40.138  35.304  36.988  1.00  0.00     0.173 A 
ATOM    105  F   UNL A   1      38.107  32.438  37.915  1.00  0.00    -0.203 F 
ATOM    106  C   UNL A   1      38.592  34.409  39.110  1.00  0.00     0.198 A 
ATOM    107  C   UNL A   1      40.014  36.080  38.138  1.00  0.00     0.198 A 
ATOM    108  F   UNL A   1      40.895  35.760  35.980  1.00  0.00    -0.203 F 
ATOM    109  F   UNL A   1      37.822  33.986  40.122  1.00  0.00    -0.200 F 
ATOM    110  C   UNL A   1      39.237  35.634  39.196  1.00  0.00     0.200 A 
ATOM    111  F   UNL A   1      40.654  37.254  38.224  1.00  0.00    -0.200 F 
ATOM    112  F   UNL A   1      39.109  36.386  40.298  1.00  0.00    -0.200 F 
ENDBRANCH  74 102
BRANCH  89 113
ATOM    113  C   UNL A   1      43.800  28.764  35.283  1.00  0.00     0.064 A 
ATOM    114  C   UNL A   1      45.119  29.218  35.137  1.00  0.00     0.173 A 
ATOM    115  C   UNL A   1      43.560  27.726  36.196  1.00  0.00     0.173 A 
ATOM    116  F   UNL A   1      45.403  30.198  34.266  1.00  0.00    -0.203 F 
ATOM    117  C   UNL A   1      46.155  28.650  35.873  1.00  0.00     0.198 A 
ATOM    118  C   UNL A   1      44.593  27.181  36.953  1.00  0.00     0.198 A 
ATOM    119  F   UNL A   1      42.314  27.259  36.376  1.00  0.00    -0.203 F 
ATOM    120  F   UNL A   1      47.413  29.077  35.694  1.00  0.00    -0.200 F 
ATOM    121  C   UNL A   1      45.890  27.641  36.788  1.00  0.00     0.200 A 
ATOM    122  F   UNL A   1      44.331  26.219  37.848  1.00  0.00    -0.200 F 
ATOM    123  F   UNL A   1      46.886  27.112  37.511  1.00  0.00    -0.200 F 
ENDBRANCH  89 113
ENDBRANCH  54  57
ENDBRANCH  44  47
ENDBRANCH  40  43
ENDBRANCH  37  40
ENDBRANCH  34  37
ENDBRANCH   1  34
TORSDOF 16
ENDMDL
MODEL 3
REMARK VINA RESULT:     -11.8      3.006      4.479
REMARK SMILES C[C@@H](C(=O)NCCCCCCNC(=O)c1ccc(-c2c3nc(c(-c4c(F)c(F)c(F)c(F)c4F)c4ccc([nH]4)c(-c4c(F)c(F)c(F)c(F)c4F)c4nc(c(-c5c(F)c(F)c(F)c(F)c5F)c5ccc2[nH]5)C=C4)C=C3)cc1)c1cccn(C(F)F)c1=O
REMARK SMILES IDX 8 1 7 4 6 7 5 10 3 11 4 12 2 14 1 16 78 20 79 21 86 22 80 23
REMARK SMILES IDX 82 25 87 26 81 27 83 30 84 31 85 32 9 34 10 37 11 40 12 43
REMARK SMILES IDX 13 44 14 46 15 47 16 48 77 49 17 50 76 52 18 54 19 57 20 58
REMARK SMILES IDX 70 59 21 60 75 61 69 62 71 63 22 64 74 65 68 67 67 69 23 71
REMARK SMILES IDX 55 74 35 75 54 76 36 77 39 78 53 79 72 80 37 81 38 83 52 85
REMARK SMILES IDX 73 86 40 89 24 91 25 92 33 93 26 94 27 95 31 96 34 97 28 98
REMARK SMILES IDX 29 99 32 100 30 101 56 102 57 103 65 104 58 105 59 106
REMARK SMILES IDX 63 107 66 108 60 109 61 110 64 111 62 112 41 113 42 114
REMARK SMILES IDX 50 115 43 116 44 117 48 118 51 119 45 120 46 121 49 122
REMARK SMILES IDX 47 123
REMARK H PARENT 8 2 8 3 7 5 7 6 6 8 6 9 5 13 2 15 1 17 1 18 1 19 79 24 80 28
REMARK H PARENT 81 29 83 33 9 35 9 36 10 38 10 39 11 41 11 42 12 45 16 51
REMARK H PARENT 77 53 17 55 76 56 75 66 69 68 71 70 74 72 68 73 36 82 39 84
REMARK H PARENT 72 87 37 88 73 90
REMARK Flexibility Score: inf
ROOT
ATOM      1  C   UNL A   1      32.431  29.689  27.234  1.00  0.00    -0.052 C 
ATOM      2  H   UNL A   1      33.410  29.425  26.891  1.00  0.00     0.027 H 
ATOM      3  H   UNL A   1      32.439  30.235  28.154  1.00  0.00     0.027 H 
ENDROOT
BRANCH   1   4
ATOM      4  C   UNL A   1      31.655  28.391  27.507  1.00  0.00    -0.036 C 
ATOM      5  H   UNL A   1      32.067  27.926  28.379  1.00  0.00     0.028 H 
ATOM      6  H   UNL A   1      30.627  28.660  27.641  1.00  0.00     0.028 H 
BRANCH   4   7
ATOM      7  C   UNL A   1      31.716  27.393  26.348  1.00  0.00     0.017 C 
ATOM      8  H   UNL A   1      31.061  27.716  25.566  1.00  0.00     0.049 H 
ATOM      9  H   UNL A   1      32.719  27.338  25.979  1.00  0.00     0.049 H 
BRANCH   7  10
ATOM     10  N   UNL A   1      31.304  26.083  26.810  1.00  0.00    -0.356 N 
ATOM     11  C   UNL A   1      31.059  24.945  26.098  1.00  0.00     0.227 C 
ATOM     12  O   UNL A   1      30.460  24.043  26.689  1.00  0.00    -0.274 OA
ATOM     13  H   UNL A   1      31.182  26.003  27.783  1.00  0.00     0.163 HD
BRANCH  11  14
ATOM     14  C   UNL A   1      31.606  24.801  24.665  1.00  0.00     0.066 C 
ATOM     15  H   UNL A   1      32.025  25.723  24.321  1.00  0.00     0.045 H 
BRANCH  14  16
ATOM     16  C   UNL A   1      30.494  24.547  23.644  1.00  0.00    -0.049 C 
ATOM     17  H   UNL A   1      29.679  25.217  23.832  1.00  0.00     0.024 H 
ATOM     18  H   UNL A   1      30.152  23.537  23.731  1.00  0.00     0.024 H 
ATOM     19  H   UNL A   1      30.871  24.713  22.657  1.00  0.00     0.024 H 
ENDBRANCH  14  16
BRANCH  14  20
ATOM     20  C   UNL A   1      32.747  23.788  24.683  1.00  0.00     0.030 A 
ATOM     21  C   UNL A   1      32.572  22.530  24.225  1.00  0.00    -0.051 A 
ATOM     22  C   UNL A   1      34.117  24.155  25.199  1.00  0.00     0.258 A 
ATOM     23  C   UNL A   1      33.639  21.566  24.205  1.00  0.00    -0.045 A 
ATOM     24  H   UNL A   1      31.642  22.251  23.877  1.00  0.00     0.063 H 
ATOM     25  N   UNL A   1      35.051  23.135  25.253  1.00  0.00    -0.258 N 
ATOM     26  O   UNL A   1      34.374  25.293  25.582  1.00  0.00    -0.269 OA
ATOM     27  C   UNL A   1      34.826  21.879  24.730  1.00  0.00     0.013 A 
ATOM     28  H   UNL A   1      33.489  20.634  23.785  1.00  0.00     0.064 H 
ATOM     29  H   UNL A   1      35.581  21.177  24.744  1.00  0.00     0.082 H 
BRANCH  25  30
ATOM     30  C   UNL A   1      36.324  23.433  25.860  1.00  0.00     0.321 C 
ATOM     31  F   UNL A   1      36.962  22.269  26.163  1.00  0.00    -0.185 F 
ATOM     32  F   UNL A   1      37.120  24.078  24.968  1.00  0.00    -0.185 F 
ATOM     33  H   UNL A   1      36.149  24.030  26.731  1.00  0.00     0.131 H 
ENDBRANCH  25  30
ENDBRANCH  14  20
ENDBRANCH  11  14
ENDBRANCH   7  10
ENDBRANCH   4   7
ENDBRANCH   1   4
BRANCH   1  34
ATOM     34  C   UNL A   1      31.791  30.609  26.189  1.00  0.00    -0.052 C 
ATOM     35  H   UNL A   1      30.867  30.169  25.876  1.00  0.00     0.027 H 
ATOM     36  H   UNL A   1      32.500  30.706  25.394  1.00  0.00     0.027 H 
BRANCH  34  37
ATOM     37  C   UNL A   1      31.499  32.025  26.687  1.00  0.00    -0.036 C 
ATOM     38  H   UNL A   1      30.702  31.976  27.399  1.00  0.00     0.028 H 
ATOM     39  H   UNL A   1      31.246  32.611  25.828  1.00  0.00     0.028 H 
BRANCH  37  40
ATOM     40  C   UNL A   1      32.692  32.705  27.349  1.00  0.00     0.018 C 
ATOM     41  H   UNL A   1      33.538  32.631  26.698  1.00  0.00     0.049 H 
ATOM     42  H   UNL A   1      32.880  32.213  28.281  1.00  0.00     0.049 H 
BRANCH  40  43
ATOM     43  N   UNL A   1      32.429  34.110  27.624  1.00  0.00    -0.352 N 
ATOM     44  C   UNL A   1      32.994  34.920  28.575  1.00  0.00     0.251 C 
ATOM     45  H   UNL A   1      31.755  34.537  27.048  1.00  0.00     0.163 HD
ATOM     46  O   UNL A   1      32.516  36.022  28.827  1.00  0.00    -0.269 OA
BRANCH  44  47
ATOM     47  C   UNL A   1      34.179  34.443  29.313  1.00  0.00     0.039 A 
ATOM     48  C   UNL A   1      34.006  33.787  30.534  1.00  0.00    -0.049 A 
ATOM     49  C   UNL A   1      35.459  34.624  28.780  1.00  0.00    -0.049 A 
ATOM     50  C   UNL A   1      35.115  33.252  31.191  1.00  0.00    -0.053 A 
ATOM     51  H   UNL A   1      33.065  33.699  30.947  1.00  0.00     0.063 H 
ATOM     52  C   UNL A   1      36.549  34.022  29.395  1.00  0.00    -0.053 A 
ATOM     53  H   UNL A   1      35.591  35.200  27.935  1.00  0.00     0.063 H 
ATOM     54  C   UNL A   1      36.390  33.335  30.608  1.00  0.00    -0.014 A 
ATOM     55  H   UNL A   1      34.999  32.796  32.110  1.00  0.00     0.063 H 
ATOM     56  H   UNL A   1      37.482  34.082  28.956  1.00  0.00     0.063 H 
BRANCH  54  57
ATOM     57  C   UNL A   1      37.579  32.717  31.243  1.00  0.00     0.031 A 
ATOM     58  C   UNL A   1      38.258  31.552  30.581  1.00  0.00     0.074 A 
ATOM     59  C   UNL A   1      37.983  33.133  32.458  1.00  0.00     0.049 A 
ATOM     60  N   UNL A   1      39.220  30.786  31.030  1.00  0.00    -0.248 NA
ATOM     61  C   UNL A   1      37.761  31.177  29.248  1.00  0.00    -0.034 C 
ATOM     62  C   UNL A   1      37.374  34.222  33.222  1.00  0.00    -0.036 A 
ATOM     63  N   UNL A   1      38.983  32.670  33.277  1.00  0.00    -0.354 N 
ATOM     64  C   UNL A   1      39.424  29.827  30.047  1.00  0.00     0.074 A 
ATOM     65  C   UNL A   1      38.451  30.073  29.006  1.00  0.00    -0.034 C 
ATOM     66  H   UNL A   1      37.061  31.650  28.657  1.00  0.00     0.065 H 
ATOM     67  C   UNL A   1      38.012  34.344  34.396  1.00  0.00    -0.036 A 
ATOM     68  H   UNL A   1      36.581  34.803  32.908  1.00  0.00     0.065 H 
ATOM     69  C   UNL A   1      39.043  33.314  34.488  1.00  0.00     0.049 A 
ATOM     70  H   UNL A   1      39.598  31.945  33.019  1.00  0.00     0.167 HD
ATOM     71  C   UNL A   1      40.353  28.842  30.010  1.00  0.00     0.037 A 
ATOM     72  H   UNL A   1      38.311  29.466  28.182  1.00  0.00     0.065 H 
ATOM     73  H   UNL A   1      37.807  35.053  35.119  1.00  0.00     0.065 H 
ATOM     74  C   UNL A   1      39.822  33.083  35.562  1.00  0.00     0.037 A 
ATOM     75  C   UNL A   1      41.329  28.618  31.044  1.00  0.00     0.049 A 
ATOM     76  C   UNL A   1      40.843  31.980  35.507  1.00  0.00     0.074 A 
ATOM     77  C   UNL A   1      42.361  27.698  31.072  1.00  0.00    -0.036 A 
ATOM     78  N   UNL A   1      41.383  29.316  32.243  1.00  0.00    -0.354 N 
ATOM     79  N   UNL A   1      41.084  31.127  34.541  1.00  0.00    -0.248 NA
ATOM     80  C   UNL A   1      41.704  31.809  36.684  1.00  0.00    -0.034 C 
ATOM     81  C   UNL A   1      42.998  27.793  32.313  1.00  0.00    -0.036 A 
ATOM     82  H   UNL A   1      42.617  27.053  30.307  1.00  0.00     0.065 H 
ATOM     83  C   UNL A   1      42.408  28.821  33.033  1.00  0.00     0.049 A 
ATOM     84  H   UNL A   1      40.781  30.053  32.495  1.00  0.00     0.167 HD
ATOM     85  C   UNL A   1      42.139  30.337  34.980  1.00  0.00     0.074 A 
ATOM     86  C   UNL A   1      42.496  30.818  36.299  1.00  0.00    -0.034 C 
ATOM     87  H   UNL A   1      41.697  32.326  37.578  1.00  0.00     0.065 H 
ATOM     88  H   UNL A   1      43.775  27.198  32.639  1.00  0.00     0.065 H 
ATOM     89  C   UNL A   1      42.757  29.312  34.344  1.00  0.00     0.037 A 
ATOM     90  H   UNL A   1      43.269  30.436  36.867  1.00  0.00     0.065 H 
BRANCH  71  91
ATOM     91  C   UNL A   1      40.340  27.923  28.821  1.00  0.00     0.064 A 
ATOM     92  C   UNL A   1      39.610  26.724  28.816  1.00  0.00     0.173 A 
ATOM     93  C   UNL A   1      41.070  28.247  27.667  1.00  0.00     0.173 A 
ATOM     94  F   UNL A   1      38.900  26.361  29.895  1.00  0.00    -0.203 F 
ATOM     95  C   UNL A   1      39.653  25.862  27.724  1.00  0.00     0.198 A 
ATOM     96  C   UNL A   1      41.079  27.401  26.561  1.00  0.00     0.198 A 
ATOM     97  F   UNL A   1      41.779  29.384  27.611  1.00  0.00    -0.203 F 
ATOM     98  F   UNL A   1      39.007  24.688  27.773  1.00  0.00    -0.200 F 
ATOM     99  C   UNL A   1      40.384  26.202  26.596  1.00  0.00     0.200 A 
ATOM    100  F   UNL A   1      41.773  27.740  25.465  1.00  0.00    -0.200 F 
ATOM    101  F   UNL A   1      40.426  25.371  25.546  1.00  0.00    -0.200 F 
ENDBRANCH  71  91
BRANCH  74 102
ATOM    102  C   UNL A   1      39.659  33.926  36.775  1.00  0.00     0.064 A 
ATOM    103  C   UNL A   1      40.290  35.173  36.881  1.00  0.00     0.173 A 
ATOM    104  C   UNL A   1      38.836  33.518  37.837  1.00  0.00     0.173 A 
ATOM    105  F   UNL A   1      41.100  35.598  35.901  1.00  0.00    -0.203 F 
ATOM    106  C   UNL A   1      40.110  35.977  38.005  1.00  0.00     0.198 A 
ATOM    107  C   UNL A   1      38.634  34.335  38.947  1.00  0.00     0.198 A 
ATOM    108  F   UNL A   1      38.203  32.338  37.780  1.00  0.00    -0.203 F 
ATOM    109  F   UNL A   1      40.749  37.151  38.095  1.00  0.00    -0.200 F 
ATOM    110  C   UNL A   1      39.275  35.562  39.032  1.00  0.00     0.200 A 
ATOM    111  F   UNL A   1      37.812  33.939  39.927  1.00  0.00    -0.200 F 
ATOM    112  F   UNL A   1      39.090  36.342  40.106  1.00  0.00    -0.200 F 
ENDBRANCH  74 102
BRANCH  89 113
ATOM    113  C   UNL A   1      43.914  28.654  35.040  1.00  0.00     0.064 A 
ATOM    114  C   UNL A   1      45.223  29.143  34.921  1.00  0.00     0.173 A 
ATOM    115  C   UNL A   1      43.694  27.568  35.901  1.00  0.00     0.173 A 
ATOM    116  F   UNL A   1      45.488  30.169  34.100  1.00  0.00    -0.203 F 
ATOM    117  C   UNL A   1      46.269  28.563  35.634  1.00  0.00     0.198 A 
ATOM    118  C   UNL A   1      44.736  27.010  36.635  1.00  0.00     0.198 A 
ATOM    119  F   UNL A   1      42.458  27.066  36.054  1.00  0.00    -0.203 F 
ATOM    120  F   UNL A   1      47.518  29.026  35.481  1.00  0.00    -0.200 F 
ATOM    121  C   UNL A   1      46.023  27.506  36.498  1.00  0.00     0.200 A 
ATOM    122  F   UNL A   1      44.493  26.001  37.482  1.00  0.00    -0.200 F 
ATOM    123  F   UNL A   1      47.029  26.965  37.200  1.00  0.00    -0.200 F 
ENDBRANCH  89 113
ENDBRANCH  54  57
ENDBRANCH  44  47
ENDBRANCH  40  43
ENDBRANCH  37  40
ENDBRANCH  34  37
ENDBRANCH   1  34
TORSDOF 16
ENDMDL
MODEL 4
REMARK VINA RESULT:     -11.7      2.424      8.114
REMARK SMILES C[C@@H](C(=O)NCCCCCCNC(=O)c1ccc(-c2c3nc(c(-c4c(F)c(F)c(F)c(F)c4F)c4ccc([nH]4)c(-c4c(F)c(F)c(F)c(F)c4F)c4nc(c(-c5c(F)c(F)c(F)c(F)c5F)c5ccc2[nH]5)C=C4)C=C3)cc1)c1cccn(C(F)F)c1=O
REMARK SMILES IDX 8 1 7 4 6 7 5 10 3 11 4 12 2 14 1 16 78 20 79 21 86 22 80 23
REMARK SMILES IDX 82 25 87 26 81 27 83 30 84 31 85 32 9 34 10 37 11 40 12 43
REMARK SMILES IDX 13 44 14 46 15 47 16 48 77 49 17 50 76 52 18 54 19 57 20 58
REMARK SMILES IDX 70 59 21 60 75 61 69 62 71 63 22 64 74 65 68 67 67 69 23 71
REMARK SMILES IDX 55 74 35 75 54 76 36 77 39 78 53 79 72 80 37 81 38 83 52 85
REMARK SMILES IDX 73 86 40 89 24 91 25 92 33 93 26 94 27 95 31 96 34 97 28 98
REMARK SMILES IDX 29 99 32 100 30 101 56 102 57 103 65 104 58 105 59 106
REMARK SMILES IDX 63 107 66 108 60 109 61 110 64 111 62 112 41 113 42 114
REMARK SMILES IDX 50 115 43 116 44 117 48 118 51 119 45 120 46 121 49 122
REMARK SMILES IDX 47 123
REMARK H PARENT 8 2 8 3 7 5 7 6 6 8 6 9 5 13 2 15 1 17 1 18 1 19 79 24 80 28
REMARK H PARENT 81 29 83 33 9 35 9 36 10 38 10 39 11 41 11 42 12 45 16 51
REMARK H PARENT 77 53 17 55 76 56 75 66 69 68 71 70 74 72 68 73 36 82 39 84
REMARK H PARENT 72 87 37 88 73 90
REMARK Flexibility Score: inf
ROOT
ATOM      1  C   UNL A   1      34.498  32.226  28.011  1.00  0.00    -0.052 C 
ATOM      2  H   UNL A   1      33.518  32.083  27.604  1.00  0.00     0.027 H 
ATOM      3  H   UNL A   1      35.205  32.581  27.290  1.00  0.00     0.027 H 
ENDROOT
BRANCH   1   4
ATOM      4  C   UNL A   1      35.019  30.864  28.495  1.00  0.00    -0.036 C 
ATOM      5  H   UNL A   1      36.039  30.978  28.796  1.00  0.00     0.028 H 
ATOM      6  H   UNL A   1      34.390  30.556  29.305  1.00  0.00     0.028 H 
BRANCH   4   7
ATOM      7  C   UNL A   1      34.947  29.772  27.424  1.00  0.00     0.017 C 
ATOM      8  H   UNL A   1      34.932  30.226  26.454  1.00  0.00     0.049 H 
ATOM      9  H   UNL A   1      35.801  29.134  27.509  1.00  0.00     0.049 H 
BRANCH   7  10
ATOM     10  N   UNL A   1      33.743  28.987  27.606  1.00  0.00    -0.356 N 
ATOM     11  C   UNL A   1      32.486  29.192  27.117  1.00  0.00     0.227 C 
ATOM     12  O   UNL A   1      31.579  28.538  27.636  1.00  0.00    -0.274 OA
ATOM     13  H   UNL A   1      33.849  28.186  28.169  1.00  0.00     0.163 HD
BRANCH  11  14
ATOM     14  C   UNL A   1      32.272  30.129  25.913  1.00  0.00     0.066 C 
ATOM     15  H   UNL A   1      33.176  30.644  25.664  1.00  0.00     0.045 H 
BRANCH  14  16
ATOM     16  C   UNL A   1      31.320  31.283  26.240  1.00  0.00    -0.049 C 
ATOM     17  H   UNL A   1      30.603  30.958  26.966  1.00  0.00     0.024 H 
ATOM     18  H   UNL A   1      30.813  31.591  25.350  1.00  0.00     0.024 H 
ATOM     19  H   UNL A   1      31.879  32.106  26.635  1.00  0.00     0.024 H 
ENDBRANCH  14  16
BRANCH  14  20
ATOM     20  C   UNL A   1      31.909  29.281  24.698  1.00  0.00     0.030 A 
ATOM     21  C   UNL A   1      30.648  29.256  24.215  1.00  0.00    -0.051 A 
ATOM     22  C   UNL A   1      32.944  28.448  23.983  1.00  0.00     0.258 A 
ATOM     23  C   UNL A   1      30.287  28.486  23.055  1.00  0.00    -0.045 A 
ATOM     24  H   UNL A   1      29.920  29.808  24.694  1.00  0.00     0.063 H 
ATOM     25  N   UNL A   1      32.487  27.647  22.950  1.00  0.00    -0.258 N 
ATOM     26  O   UNL A   1      34.124  28.457  24.325  1.00  0.00    -0.269 OA
ATOM     27  C   UNL A   1      31.195  27.698  22.474  1.00  0.00     0.013 A 
ATOM     28  H   UNL A   1      29.330  28.543  22.672  1.00  0.00     0.064 H 
ATOM     29  H   UNL A   1      30.926  27.121  21.661  1.00  0.00     0.082 H 
BRANCH  25  30
ATOM     30  C   UNL A   1      33.435  26.750  22.337  1.00  0.00     0.321 C 
ATOM     31  F   UNL A   1      33.583  25.647  23.122  1.00  0.00    -0.185 F 
ATOM     32  F   UNL A   1      32.947  26.305  21.150  1.00  0.00    -0.185 F 
ATOM     33  H   UNL A   1      34.358  27.275  22.207  1.00  0.00     0.131 H 
ENDBRANCH  25  30
ENDBRANCH  14  20
ENDBRANCH  11  14
ENDBRANCH   7  10
ENDBRANCH   4   7
ENDBRANCH   1   4
BRANCH   1  34
ATOM     34  C   UNL A   1      34.411  33.302  29.098  1.00  0.00    -0.052 C 
ATOM     35  H   UNL A   1      35.338  33.838  29.113  1.00  0.00     0.027 H 
ATOM     36  H   UNL A   1      34.208  32.792  30.016  1.00  0.00     0.027 H 
BRANCH  34  37
ATOM     37  C   UNL A   1      33.281  34.312  28.901  1.00  0.00    -0.036 C 
ATOM     38  H   UNL A   1      32.421  33.967  29.437  1.00  0.00     0.028 H 
ATOM     39  H   UNL A   1      33.106  34.382  27.847  1.00  0.00     0.028 H 
BRANCH  37  40
ATOM     40  C   UNL A   1      33.617  35.717  29.386  1.00  0.00     0.018 C 
ATOM     41  H   UNL A   1      33.549  36.394  28.560  1.00  0.00     0.049 H 
ATOM     42  H   UNL A   1      34.607  35.702  29.790  1.00  0.00     0.049 H 
BRANCH  40  43
ATOM     43  N   UNL A   1      32.707  36.158  30.434  1.00  0.00    -0.352 N 
ATOM     44  C   UNL A   1      32.694  35.816  31.762  1.00  0.00     0.251 C 
ATOM     45  H   UNL A   1      32.007  36.790  30.151  1.00  0.00     0.163 HD
ATOM     46  O   UNL A   1      31.736  36.100  32.475  1.00  0.00    -0.269 OA
BRANCH  44  47
ATOM     47  C   UNL A   1      33.842  35.079  32.324  1.00  0.00     0.039 A 
ATOM     48  C   UNL A   1      33.653  33.780  32.801  1.00  0.00    -0.049 A 
ATOM     49  C   UNL A   1      35.109  35.669  32.354  1.00  0.00    -0.049 A 
ATOM     50  C   UNL A   1      34.753  33.045  33.249  1.00  0.00    -0.053 A 
ATOM     51  H   UNL A   1      32.708  33.366  32.823  1.00  0.00     0.063 H 
ATOM     52  C   UNL A   1      36.211  34.909  32.724  1.00  0.00    -0.053 A 
ATOM     53  H   UNL A   1      35.224  36.662  32.101  1.00  0.00     0.063 H 
ATOM     54  C   UNL A   1      36.044  33.592  33.180  1.00  0.00    -0.014 A 
ATOM     55  H   UNL A   1      34.616  32.097  33.634  1.00  0.00     0.063 H 
ATOM     56  H   UNL A   1      37.158  35.316  32.664  1.00  0.00     0.063 H 
BRANCH  54  57
ATOM     57  C   UNL A   1      37.242  32.815  33.581  1.00  0.00     0.031 A 
ATOM     58  C   UNL A   1      37.942  33.137  34.870  1.00  0.00     0.074 A 
ATOM     59  C   UNL A   1      37.758  31.897  32.742  1.00  0.00     0.049 A 
ATOM     60  N   UNL A   1      39.074  32.675  35.339  1.00  0.00    -0.248 NA
ATOM     61  C   UNL A   1      37.298  34.141  35.731  1.00  0.00    -0.034 C 
ATOM     62  C   UNL A   1      37.195  31.532  31.442  1.00  0.00    -0.036 A 
ATOM     63  N   UNL A   1      38.889  31.124  32.846  1.00  0.00    -0.354 N 
ATOM     64  C   UNL A   1      39.288  33.350  36.533  1.00  0.00     0.074 A 
ATOM     65  C   UNL A   1      38.201  34.290  36.689  1.00  0.00    -0.034 C 
ATOM     66  H   UNL A   1      36.385  34.605  35.619  1.00  0.00     0.065 H 
ATOM     67  C   UNL A   1      37.981  30.607  30.869  1.00  0.00    -0.036 A 
ATOM     68  H   UNL A   1      36.333  31.923  31.031  1.00  0.00     0.065 H 
ATOM     69  C   UNL A   1      39.125  30.348  31.739  1.00  0.00     0.049 A 
ATOM     70  H   UNL A   1      39.472  31.128  33.638  1.00  0.00     0.167 HD
ATOM     71  C   UNL A   1      40.292  33.184  37.426  1.00  0.00     0.037 A 
ATOM     72  H   UNL A   1      38.136  34.988  37.447  1.00  0.00     0.065 H 
ATOM     73  H   UNL A   1      37.804  30.152  29.959  1.00  0.00     0.065 H 
ATOM     74  C   UNL A   1      40.161  29.539  31.444  1.00  0.00     0.037 A 
ATOM     75  C   UNL A   1      41.360  32.232  37.269  1.00  0.00     0.049 A 
ATOM     76  C   UNL A   1      41.273  29.374  32.444  1.00  0.00     0.074 A 
ATOM     77  C   UNL A   1      42.384  31.931  38.149  1.00  0.00    -0.036 A 
ATOM     78  N   UNL A   1      41.548  31.435  36.148  1.00  0.00    -0.354 N 
ATOM     79  N   UNL A   1      41.427  29.957  33.609  1.00  0.00    -0.248 NA
ATOM     80  C   UNL A   1      42.348  28.436  32.097  1.00  0.00    -0.034 C 
ATOM     81  C   UNL A   1      43.229  31.002  37.534  1.00  0.00    -0.036 A 
ATOM     82  H   UNL A   1      42.504  32.325  39.095  1.00  0.00     0.065 H 
ATOM     83  C   UNL A   1      42.693  30.669  36.299  1.00  0.00     0.049 A 
ATOM     84  H   UNL A   1      40.955  31.417  35.362  1.00  0.00     0.167 HD
ATOM     85  C   UNL A   1      42.600  29.439  34.144  1.00  0.00     0.074 A 
ATOM     86  C   UNL A   1      43.113  28.489  33.179  1.00  0.00    -0.034 C 
ATOM     87  H   UNL A   1      42.476  27.881  31.236  1.00  0.00     0.065 H 
ATOM     88  H   UNL A   1      44.104  30.627  37.931  1.00  0.00     0.065 H 
ATOM     89  C   UNL A   1      43.191  29.722  35.330  1.00  0.00     0.037 A 
ATOM     90  H   UNL A   1      43.966  27.925  33.316  1.00  0.00     0.065 H 
BRANCH  71  91
ATOM     91  C   UNL A   1      40.289  34.069  38.642  1.00  0.00     0.064 A 
ATOM     92  C   UNL A   1      39.622  33.707  39.823  1.00  0.00     0.173 A 
ATOM     93  C   UNL A   1      40.963  35.299  38.625  1.00  0.00     0.173 A 
ATOM     94  F   UNL A   1      38.954  32.544  39.893  1.00  0.00    -0.203 F 
ATOM     95  C   UNL A   1      39.587  34.563  40.919  1.00  0.00     0.198 A 
ATOM     96  C   UNL A   1      40.960  36.136  39.737  1.00  0.00     0.198 A 
ATOM     97  F   UNL A   1      41.625  35.694  37.527  1.00  0.00    -0.203 F 
ATOM     98  F   UNL A   1      38.881  34.227  42.008  1.00  0.00    -0.200 F 
ATOM     99  C   UNL A   1      40.259  35.775  40.878  1.00  0.00     0.200 A 
ATOM    100  F   UNL A   1      41.624  37.300  39.701  1.00  0.00    -0.200 F 
ATOM    101  F   UNL A   1      40.224  36.600  41.933  1.00  0.00    -0.200 F 
ENDBRANCH  71  91
BRANCH  74 102
ATOM    102  C   UNL A   1      40.181  28.826  30.140  1.00  0.00     0.064 A 
ATOM    103  C   UNL A   1      39.540  27.591  29.981  1.00  0.00     0.173 A 
ATOM    104  C   UNL A   1      40.810  29.385  29.017  1.00  0.00     0.173 A 
ATOM    105  F   UNL A   1      38.940  27.008  31.029  1.00  0.00    -0.203 F 
ATOM    106  C   UNL A   1      39.532  26.937  28.750  1.00  0.00     0.198 A 
ATOM    107  C   UNL A   1      40.777  28.745  27.780  1.00  0.00     0.198 A 
ATOM    108  F   UNL A   1      41.431  30.569  29.115  1.00  0.00    -0.203 F 
ATOM    109  F   UNL A   1      38.937  25.743  28.632  1.00  0.00    -0.200 F 
ATOM    110  C   UNL A   1      40.142  27.519  27.648  1.00  0.00     0.200 A 
ATOM    111  F   UNL A   1      41.351  29.320  26.715  1.00  0.00    -0.200 F 
ATOM    112  F   UNL A   1      40.120  26.899  26.461  1.00  0.00    -0.200 F 
ENDBRANCH  74 102
BRANCH  89 113
ATOM    113  C   UNL A   1      44.444  28.973  35.683  1.00  0.00     0.064 A 
ATOM    114  C   UNL A   1      44.406  27.748  36.363  1.00  0.00     0.173 A 
ATOM    115  C   UNL A   1      45.694  29.452  35.260  1.00  0.00     0.173 A 
ATOM    116  F   UNL A   1      43.239  27.254  36.801  1.00  0.00    -0.203 F 
ATOM    117  C   UNL A   1      45.575  27.034  36.614  1.00  0.00     0.198 A 
ATOM    118  C   UNL A   1      46.857  28.722  35.486  1.00  0.00     0.198 A 
ATOM    119  F   UNL A   1      45.784  30.618  34.601  1.00  0.00    -0.203 F 
ATOM    120  F   UNL A   1      45.520  25.880  37.294  1.00  0.00    -0.200 F 
ATOM    121  C   UNL A   1      46.797  27.515  36.165  1.00  0.00     0.200 A 
ATOM    122  F   UNL A   1      48.033  29.180  35.036  1.00  0.00    -0.200 F 
ATOM    123  F   UNL A   1      47.918  26.815  36.389  1.00  0.00    -0.200 F 
ENDBRANCH  89 113
ENDBRANCH  54  57
ENDBRANCH  44  47
ENDBRANCH  40  43
ENDBRANCH  37  40
ENDBRANCH  34  37
ENDBRANCH   1  34
TORSDOF 16
ENDMDL
MODEL 5
REMARK VINA RESULT:     -11.7      3.014      4.504
REMARK SMILES C[C@@H](C(=O)NCCCCCCNC(=O)c1ccc(-c2c3nc(c(-c4c(F)c(F)c(F)c(F)c4F)c4ccc([nH]4)c(-c4c(F)c(F)c(F)c(F)c4F)c4nc(c(-c5c(F)c(F)c(F)c(F)c5F)c5ccc2[nH]5)C=C4)C=C3)cc1)c1cccn(C(F)F)c1=O
REMARK SMILES IDX 8 1 7 4 6 7 5 10 3 11 4 12 2 14 1 16 78 20 79 21 86 22 80 23
REMARK SMILES IDX 82 25 87 26 81 27 83 30 84 31 85 32 9 34 10 37 11 40 12 43
REMARK SMILES IDX 13 44 14 46 15 47 16 48 77 49 17 50 76 52 18 54 19 57 20 58
REMARK SMILES IDX 70 59 21 60 75 61 69 62 71 63 22 64 74 65 68 67 67 69 23 71
REMARK SMILES IDX 55 74 35 75 54 76 36 77 39 78 53 79 72 80 37 81 38 83 52 85
REMARK SMILES IDX 73 86 40 89 24 91 25 92 33 93 26 94 27 95 31 96 34 97 28 98
REMARK SMILES IDX 29 99 32 100 30 101 56 102 57 103 65 104 58 105 59 106
REMARK SMILES IDX 63 107 66 108 60 109 61 110 64 111 62 112 41 113 42 114
REMARK SMILES IDX 50 115 43 116 44 117 48 118 51 119 45 120 46 121 49 122
REMARK SMILES IDX 47 123
REMARK H PARENT 8 2 8 3 7 5 7 6 6 8 6 9 5 13 2 15 1 17 1 18 1 19 79 24 80 28
REMARK H PARENT 81 29 83 33 9 35 9 36 10 38 10 39 11 41 11 42 12 45 16 51
REMARK H PARENT 77 53 17 55 76 56 75 66 69 68 71 70 74 72 68 73 36 82 39 84
REMARK H PARENT 72 87 37 88 73 90
REMARK Flexibility Score: inf
ROOT
ATOM      1  C   UNL A   1      31.775  29.490  27.028  1.00  0.00    -0.052 C 
ATOM      2  H   UNL A   1      31.525  29.802  28.021  1.00  0.00     0.027 H 
ATOM      3  H   UNL A   1      31.059  28.816  26.605  1.00  0.00     0.027 H 
ENDROOT
BRANCH   1   4
ATOM      4  C   UNL A   1      33.107  28.728  27.088  1.00  0.00    -0.036 C 
ATOM      5  H   UNL A   1      33.844  29.288  26.552  1.00  0.00     0.028 H 
ATOM      6  H   UNL A   1      33.360  28.615  28.122  1.00  0.00     0.028 H 
BRANCH   4   7
ATOM      7  C   UNL A   1      33.029  27.323  26.484  1.00  0.00     0.017 C 
ATOM      8  H   UNL A   1      33.127  27.388  25.420  1.00  0.00     0.049 H 
ATOM      9  H   UNL A   1      33.819  26.721  26.881  1.00  0.00     0.049 H 
BRANCH   7  10
ATOM     10  N   UNL A   1      31.754  26.720  26.814  1.00  0.00    -0.356 N 
ATOM     11  C   UNL A   1      31.030  25.784  26.134  1.00  0.00     0.227 C 
ATOM     12  O   UNL A   1      29.856  25.636  26.480  1.00  0.00    -0.274 OA
ATOM     13  H   UNL A   1      31.350  27.033  27.655  1.00  0.00     0.163 HD
BRANCH  11  14
ATOM     14  C   UNL A   1      31.713  24.912  25.062  1.00  0.00     0.066 C 
ATOM     15  H   UNL A   1      32.293  25.512  24.394  1.00  0.00     0.045 H 
BRANCH  14  16
ATOM     16  C   UNL A   1      30.701  24.258  24.118  1.00  0.00    -0.049 C 
ATOM     17  H   UNL A   1      30.931  23.217  24.016  1.00  0.00     0.024 H 
ATOM     18  H   UNL A   1      30.752  24.730  23.158  1.00  0.00     0.024 H 
ATOM     19  H   UNL A   1      29.716  24.369  24.518  1.00  0.00     0.024 H 
ENDBRANCH  14  16
BRANCH  14  20
ATOM     20  C   UNL A   1      32.692  23.971  25.757  1.00  0.00     0.030 A 
ATOM     21  C   UNL A   1      32.322  23.253  26.839  1.00  0.00    -0.051 A 
ATOM     22  C   UNL A   1      34.105  23.795  25.256  1.00  0.00     0.258 A 
ATOM     23  C   UNL A   1      33.218  22.338  27.495  1.00  0.00    -0.045 A 
ATOM     24  H   UNL A   1      31.365  23.364  27.207  1.00  0.00     0.063 H 
ATOM     25  N   UNL A   1      34.934  22.986  26.015  1.00  0.00    -0.258 N 
ATOM     26  O   UNL A   1      34.504  24.370  24.247  1.00  0.00    -0.269 OA
ATOM     27  C   UNL A   1      34.486  22.244  27.087  1.00  0.00     0.013 A 
ATOM     28  H   UNL A   1      32.882  21.754  28.277  1.00  0.00     0.064 H 
ATOM     29  H   UNL A   1      35.136  21.612  27.578  1.00  0.00     0.082 H 
BRANCH  25  30
ATOM     30  C   UNL A   1      36.319  22.907  25.627  1.00  0.00     0.321 C 
ATOM     31  F   UNL A   1      37.008  23.931  26.202  1.00  0.00    -0.185 F 
ATOM     32  F   UNL A   1      36.869  21.763  26.112  1.00  0.00    -0.185 F 
ATOM     33  H   UNL A   1      36.370  22.941  24.558  1.00  0.00     0.131 H 
ENDBRANCH  25  30
ENDBRANCH  14  20
ENDBRANCH  11  14
ENDBRANCH   7  10
ENDBRANCH   4   7
ENDBRANCH   1   4
BRANCH   1  34
ATOM     34  C   UNL A   1      31.787  30.730  26.128  1.00  0.00    -0.052 C 
ATOM     35  H   UNL A   1      31.054  30.593  25.360  1.00  0.00     0.027 H 
ATOM     36  H   UNL A   1      32.782  30.820  25.745  1.00  0.00     0.027 H 
BRANCH  34  37
ATOM     37  C   UNL A   1      31.478  32.041  26.851  1.00  0.00    -0.036 C 
ATOM     38  H   UNL A   1      30.865  31.823  27.700  1.00  0.00     0.028 H 
ATOM     39  H   UNL A   1      30.990  32.679  26.145  1.00  0.00     0.028 H 
BRANCH  37  40
ATOM     40  C   UNL A   1      32.718  32.785  27.335  1.00  0.00     0.018 C 
ATOM     41  H   UNL A   1      33.469  32.737  26.574  1.00  0.00     0.049 H 
ATOM     42  H   UNL A   1      33.055  32.320  28.237  1.00  0.00     0.049 H 
BRANCH  40  43
ATOM     43  N   UNL A   1      32.430  34.182  27.626  1.00  0.00    -0.352 N 
ATOM     44  C   UNL A   1      32.969  34.986  28.597  1.00  0.00     0.251 C 
ATOM     45  H   UNL A   1      31.757  34.608  27.047  1.00  0.00     0.163 HD
ATOM     46  O   UNL A   1      32.470  36.077  28.859  1.00  0.00    -0.269 OA
BRANCH  44  47
ATOM     47  C   UNL A   1      34.150  34.516  29.345  1.00  0.00     0.039 A 
ATOM     48  C   UNL A   1      33.981  33.973  30.621  1.00  0.00    -0.049 A 
ATOM     49  C   UNL A   1      35.422  34.590  28.769  1.00  0.00    -0.049 A 
ATOM     50  C   UNL A   1      35.082  33.442  31.295  1.00  0.00    -0.053 A 
ATOM     51  H   UNL A   1      33.048  33.964  31.062  1.00  0.00     0.063 H 
ATOM     52  C   UNL A   1      36.500  33.990  29.406  1.00  0.00    -0.053 A 
ATOM     53  H   UNL A   1      35.557  35.088  27.876  1.00  0.00     0.063 H 
ATOM     54  C   UNL A   1      36.343  33.415  30.677  1.00  0.00    -0.014 A 
ATOM     55  H   UNL A   1      34.970  33.070  32.251  1.00  0.00     0.063 H 
ATOM     56  H   UNL A   1      37.423  33.968  28.943  1.00  0.00     0.063 H 
BRANCH  54  57
ATOM     57  C   UNL A   1      37.520  32.796  31.334  1.00  0.00     0.031 A 
ATOM     58  C   UNL A   1      38.194  31.615  30.696  1.00  0.00     0.074 A 
ATOM     59  C   UNL A   1      37.914  33.226  32.547  1.00  0.00     0.049 A 
ATOM     60  N   UNL A   1      39.144  30.847  31.167  1.00  0.00    -0.248 NA
ATOM     61  C   UNL A   1      37.708  31.225  29.364  1.00  0.00    -0.034 C 
ATOM     62  C   UNL A   1      37.307  34.332  33.288  1.00  0.00    -0.036 A 
ATOM     63  N   UNL A   1      38.901  32.766  33.383  1.00  0.00    -0.354 N 
ATOM     64  C   UNL A   1      39.350  29.871  30.201  1.00  0.00     0.074 A 
ATOM     65  C   UNL A   1      38.390  30.111  29.146  1.00  0.00    -0.034 C 
ATOM     66  H   UNL A   1      37.019  31.695  28.758  1.00  0.00     0.065 H 
ATOM     67  C   UNL A   1      37.934  34.465  34.467  1.00  0.00    -0.036 A 
ATOM     68  H   UNL A   1      36.522  34.915  32.957  1.00  0.00     0.065 H 
ATOM     69  C   UNL A   1      38.954  33.427  34.585  1.00  0.00     0.049 A 
ATOM     70  H   UNL A   1      39.512  32.032  33.143  1.00  0.00     0.167 HD
ATOM     71  C   UNL A   1      40.270  28.878  30.188  1.00  0.00     0.037 A 
ATOM     72  H   UNL A   1      38.253  29.493  28.329  1.00  0.00     0.065 H 
ATOM     73  H   UNL A   1      37.727  35.186  35.177  1.00  0.00     0.065 H 
ATOM     74  C   UNL A   1      39.719  33.205  35.671  1.00  0.00     0.037 A 
ATOM     75  C   UNL A   1      41.233  28.660  31.236  1.00  0.00     0.049 A 
ATOM     76  C   UNL A   1      40.730  32.092  35.644  1.00  0.00     0.074 A 
ATOM     77  C   UNL A   1      42.257  27.731  31.288  1.00  0.00    -0.036 A 
ATOM     78  N   UNL A   1      41.281  29.375  32.425  1.00  0.00    -0.354 N 
ATOM     79  N   UNL A   1      40.974  31.222  34.692  1.00  0.00    -0.248 NA
ATOM     80  C   UNL A   1      41.578  31.931  36.832  1.00  0.00    -0.034 C 
ATOM     81  C   UNL A   1      42.880  27.839  32.534  1.00  0.00    -0.036 A 
ATOM     82  H   UNL A   1      42.515  27.073  30.536  1.00  0.00     0.065 H 
ATOM     83  C   UNL A   1      42.293  28.882  33.233  1.00  0.00     0.049 A 
ATOM     84  H   UNL A   1      40.683  30.121  32.660  1.00  0.00     0.167 HD
ATOM     85  C   UNL A   1      42.016  30.430  35.155  1.00  0.00     0.074 A 
ATOM     86  C   UNL A   1      42.364  30.927  36.470  1.00  0.00    -0.034 C 
ATOM     87  H   UNL A   1      41.565  32.461  37.718  1.00  0.00     0.065 H 
ATOM     88  H   UNL A   1      43.649  27.241  32.877  1.00  0.00     0.065 H 
ATOM     89  C   UNL A   1      42.632  29.390  34.540  1.00  0.00     0.037 A 
ATOM     90  H   UNL A   1      43.127  30.547  37.051  1.00  0.00     0.065 H 
BRANCH  71  91
ATOM     91  C   UNL A   1      40.262  27.942  29.012  1.00  0.00     0.064 A 
ATOM     92  C   UNL A   1      39.552  26.731  29.031  1.00  0.00     0.173 A 
ATOM     93  C   UNL A   1      40.976  28.260  27.847  1.00  0.00     0.173 A 
ATOM     94  F   UNL A   1      38.858  26.371  30.123  1.00  0.00    -0.203 F 
ATOM     95  C   UNL A   1      39.599  25.853  27.952  1.00  0.00     0.198 A 
ATOM     96  C   UNL A   1      40.988  27.399  26.754  1.00  0.00     0.198 A 
ATOM     97  F   UNL A   1      41.665  29.408  27.768  1.00  0.00    -0.203 F 
ATOM     98  F   UNL A   1      38.973  24.670  28.024  1.00  0.00    -0.200 F 
ATOM     99  C   UNL A   1      40.314  26.189  26.812  1.00  0.00     0.200 A 
ATOM    100  F   UNL A   1      41.666  27.733  25.646  1.00  0.00    -0.200 F 
ATOM    101  F   UNL A   1      40.360  25.343  25.774  1.00  0.00    -0.200 F 
ENDBRANCH  71  91
BRANCH  74 102
ATOM    102  C   UNL A   1      39.551  34.067  36.870  1.00  0.00     0.064 A 
ATOM    103  C   UNL A   1      38.771  33.651  37.957  1.00  0.00     0.173 A 
ATOM    104  C   UNL A   1      40.198  35.309  36.967  1.00  0.00     0.173 A 
ATOM    105  F   UNL A   1      38.119  32.480  37.904  1.00  0.00    -0.203 F 
ATOM    106  C   UNL A   1      38.639  34.446  39.094  1.00  0.00     0.198 A 
ATOM    107  C   UNL A   1      40.088  36.090  38.116  1.00  0.00     0.198 A 
ATOM    108  F   UNL A   1      40.961  35.750  35.958  1.00  0.00    -0.203 F 
ATOM    109  F   UNL A   1      37.864  34.038  40.108  1.00  0.00    -0.200 F 
ATOM    110  C   UNL A   1      39.305  35.660  39.177  1.00  0.00     0.200 A 
ATOM    111  F   UNL A   1      40.749  37.253  38.199  1.00  0.00    -0.200 F 
ATOM    112  F   UNL A   1      39.191  36.417  40.276  1.00  0.00    -0.200 F 
ENDBRANCH  74 102
BRANCH  89 113
ATOM    113  C   UNL A   1      43.775  28.732  35.258  1.00  0.00     0.064 A 
ATOM    114  C   UNL A   1      43.580  27.637  36.112  1.00  0.00     0.173 A 
ATOM    115  C   UNL A   1      45.093  29.154  35.021  1.00  0.00     0.173 A 
ATOM    116  F   UNL A   1      42.340  27.204  36.383  1.00  0.00    -0.203 F 
ATOM    117  C   UNL A   1      44.662  26.995  36.709  1.00  0.00     0.198 A 
ATOM    118  C   UNL A   1      46.174  28.491  35.595  1.00  0.00     0.198 A 
ATOM    119  F   UNL A   1      45.334  30.194  34.208  1.00  0.00    -0.203 F 
ATOM    120  F   UNL A   1      44.452  25.971  37.547  1.00  0.00    -0.200 F 
ATOM    121  C   UNL A   1      45.957  27.415  36.441  1.00  0.00     0.200 A 
ATOM    122  F   UNL A   1      47.424  28.888  35.321  1.00  0.00    -0.200 F 
ATOM    123  F   UNL A   1      46.998  26.780  36.999  1.00  0.00    -0.200 F 
ENDBRANCH  89 113
ENDBRANCH  54  57
ENDBRANCH  44  47
ENDBRANCH  40  43
ENDBRANCH  37  40
ENDBRANCH  34  37
ENDBRANCH   1  34
TORSDOF 16
ENDMDL
MODEL 6
REMARK VINA RESULT:     -11.7      1.699      2.967
REMARK SMILES C[C@@H](C(=O)NCCCCCCNC(=O)c1ccc(-c2c3nc(c(-c4c(F)c(F)c(F)c(F)c4F)c4ccc([nH]4)c(-c4c(F)c(F)c(F)c(F)c4F)c4nc(c(-c5c(F)c(F)c(F)c(F)c5F)c5ccc2[nH]5)C=C4)C=C3)cc1)c1cccn(C(F)F)c1=O
REMARK SMILES IDX 8 1 7 4 6 7 5 10 3 11 4 12 2 14 1 16 78 20 79 21 86 22 80 23
REMARK SMILES IDX 82 25 87 26 81 27 83 30 84 31 85 32 9 34 10 37 11 40 12 43
REMARK SMILES IDX 13 44 14 46 15 47 16 48 77 49 17 50 76 52 18 54 19 57 20 58
REMARK SMILES IDX 70 59 21 60 75 61 69 62 71 63 22 64 74 65 68 67 67 69 23 71
REMARK SMILES IDX 55 74 35 75 54 76 36 77 39 78 53 79 72 80 37 81 38 83 52 85
REMARK SMILES IDX 73 86 40 89 24 91 25 92 33 93 26 94 27 95 31 96 34 97 28 98
REMARK SMILES IDX 29 99 32 100 30 101 56 102 57 103 65 104 58 105 59 106
REMARK SMILES IDX 63 107 66 108 60 109 61 110 64 111 62 112 41 113 42 114
REMARK SMILES IDX 50 115 43 116 44 117 48 118 51 119 45 120 46 121 49 122
REMARK SMILES IDX 47 123
REMARK H PARENT 8 2 8 3 7 5 7 6 6 8 6 9 5 13 2 15 1 17 1 18 1 19 79 24 80 28
REMARK H PARENT 81 29 83 33 9 35 9 36 10 38 10 39 11 41 11 42 12 45 16 51
REMARK H PARENT 77 53 17 55 76 56 75 66 69 68 71 70 74 72 68 73 36 82 39 84
REMARK H PARENT 72 87 37 88 73 90
REMARK Flexibility Score: inf
ROOT
ATOM      1  C   UNL A   1      32.175  29.584  27.170  1.00  0.00    -0.052 C 
ATOM      2  H   UNL A   1      33.128  29.833  27.592  1.00  0.00     0.027 H 
ATOM      3  H   UNL A   1      31.387  29.560  27.893  1.00  0.00     0.027 H 
ENDROOT
BRANCH   1   4
ATOM      4  C   UNL A   1      32.269  28.168  26.582  1.00  0.00    -0.036 C 
ATOM      5  H   UNL A   1      31.947  27.470  27.326  1.00  0.00     0.028 H 
ATOM      6  H   UNL A   1      31.646  28.146  25.712  1.00  0.00     0.028 H 
BRANCH   4   7
ATOM      7  C   UNL A   1      33.684  27.789  26.137  1.00  0.00     0.017 C 
ATOM      8  H   UNL A   1      34.376  28.018  26.921  1.00  0.00     0.049 H 
ATOM      9  H   UNL A   1      33.720  26.742  25.921  1.00  0.00     0.049 H 
BRANCH   7  10
ATOM     10  N   UNL A   1      34.039  28.536  24.949  1.00  0.00    -0.356 N 
ATOM     11  C   UNL A   1      33.917  28.193  23.633  1.00  0.00     0.227 C 
ATOM     12  O   UNL A   1      34.540  28.882  22.823  1.00  0.00    -0.274 OA
ATOM     13  H   UNL A   1      34.429  29.425  25.115  1.00  0.00     0.163 HD
BRANCH  11  14
ATOM     14  C   UNL A   1      32.962  27.056  23.221  1.00  0.00     0.066 C 
ATOM     15  H   UNL A   1      32.937  26.288  23.965  1.00  0.00     0.045 H 
BRANCH  14  16
ATOM     16  C   UNL A   1      33.462  26.299  21.988  1.00  0.00    -0.049 C 
ATOM     17  H   UNL A   1      34.011  26.969  21.358  1.00  0.00     0.024 H 
ATOM     18  H   UNL A   1      32.627  25.906  21.447  1.00  0.00     0.024 H 
ATOM     19  H   UNL A   1      34.099  25.497  22.295  1.00  0.00     0.024 H 
ENDBRANCH  14  16
BRANCH  14  20
ATOM     20  C   UNL A   1      31.547  27.621  23.137  1.00  0.00     0.030 A 
ATOM     21  C   UNL A   1      31.327  28.901  22.768  1.00  0.00    -0.051 A 
ATOM     22  C   UNL A   1      30.341  26.770  23.449  1.00  0.00     0.258 A 
ATOM     23  C   UNL A   1      30.001  29.449  22.654  1.00  0.00    -0.045 A 
ATOM     24  H   UNL A   1      32.136  29.506  22.559  1.00  0.00     0.063 H 
ATOM     25  N   UNL A   1      29.112  27.409  23.430  1.00  0.00    -0.258 N 
ATOM     26  O   UNL A   1      30.451  25.582  23.740  1.00  0.00    -0.269 OA
ATOM     27  C   UNL A   1      28.946  28.709  23.001  1.00  0.00     0.013 A 
ATOM     28  H   UNL A   1      29.866  30.410  22.303  1.00  0.00     0.064 H 
ATOM     29  H   UNL A   1      27.998  29.113  22.950  1.00  0.00     0.082 H 
BRANCH  25  30
ATOM     30  C   UNL A   1      27.962  26.647  23.848  1.00  0.00     0.321 C 
ATOM     31  F   UNL A   1      28.193  26.126  25.085  1.00  0.00    -0.185 F 
ATOM     32  F   UNL A   1      26.888  27.469  23.980  1.00  0.00    -0.185 F 
ATOM     33  H   UNL A   1      27.782  25.884  23.120  1.00  0.00     0.131 H 
ENDBRANCH  25  30
ENDBRANCH  14  20
ENDBRANCH  11  14
ENDBRANCH   7  10
ENDBRANCH   4   7
ENDBRANCH   1   4
BRANCH   1  34
ATOM     34  C   UNL A   1      31.802  30.674  26.160  1.00  0.00    -0.052 C 
ATOM     35  H   UNL A   1      30.937  30.349  25.620  1.00  0.00     0.027 H 
ATOM     36  H   UNL A   1      32.658  30.815  25.533  1.00  0.00     0.027 H 
BRANCH  34  37
ATOM     37  C   UNL A   1      31.490  32.035  26.783  1.00  0.00    -0.036 C 
ATOM     38  H   UNL A   1      30.784  31.892  27.573  1.00  0.00     0.028 H 
ATOM     39  H   UNL A   1      31.109  32.656  26.000  1.00  0.00     0.028 H 
BRANCH  37  40
ATOM     40  C   UNL A   1      32.711  32.746  27.355  1.00  0.00     0.018 C 
ATOM     41  H   UNL A   1      33.509  32.691  26.644  1.00  0.00     0.049 H 
ATOM     42  H   UNL A   1      32.979  32.262  28.271  1.00  0.00     0.049 H 
BRANCH  40  43
ATOM     43  N   UNL A   1      32.434  34.145  27.647  1.00  0.00    -0.352 N 
ATOM     44  C   UNL A   1      32.989  34.949  28.610  1.00  0.00     0.251 C 
ATOM     45  H   UNL A   1      31.757  34.573  27.075  1.00  0.00     0.163 HD
ATOM     46  O   UNL A   1      32.500  36.043  28.874  1.00  0.00    -0.269 OA
BRANCH  44  47
ATOM     47  C   UNL A   1      34.177  34.474  29.344  1.00  0.00     0.039 A 
ATOM     48  C   UNL A   1      34.012  33.864  30.590  1.00  0.00    -0.049 A 
ATOM     49  C   UNL A   1      35.451  34.611  28.784  1.00  0.00    -0.049 A 
ATOM     50  C   UNL A   1      35.123  33.330  31.247  1.00  0.00    -0.053 A 
ATOM     51  H   UNL A   1      33.077  33.808  31.021  1.00  0.00     0.063 H 
ATOM     52  C   UNL A   1      36.540  34.009  29.401  1.00  0.00    -0.053 A 
ATOM     53  H   UNL A   1      35.580  35.155  27.917  1.00  0.00     0.063 H 
ATOM     54  C   UNL A   1      36.389  33.367  30.640  1.00  0.00    -0.014 A 
ATOM     55  H   UNL A   1      35.013  32.908  32.182  1.00  0.00     0.063 H 
ATOM     56  H   UNL A   1      37.466  34.035  28.945  1.00  0.00     0.063 H 
BRANCH  54  57
ATOM     57  C   UNL A   1      37.576  32.748  31.277  1.00  0.00     0.031 A 
ATOM     58  C   UNL A   1      38.263  31.592  30.607  1.00  0.00     0.074 A 
ATOM     59  C   UNL A   1      37.971  33.154  32.498  1.00  0.00     0.049 A 
ATOM     60  N   UNL A   1      39.225  30.825  31.055  1.00  0.00    -0.248 NA
ATOM     61  C   UNL A   1      37.776  31.227  29.268  1.00  0.00    -0.034 C 
ATOM     62  C   UNL A   1      37.353  34.234  33.268  1.00  0.00    -0.036 A 
ATOM     63  N   UNL A   1      38.968  32.687  33.318  1.00  0.00    -0.354 N 
ATOM     64  C   UNL A   1      39.439  29.876  30.065  1.00  0.00     0.074 A 
ATOM     65  C   UNL A   1      38.471  30.128  29.020  1.00  0.00    -0.034 C 
ATOM     66  H   UNL A   1      37.077  31.703  28.678  1.00  0.00     0.065 H 
ATOM     67  C   UNL A   1      37.984  34.347  34.447  1.00  0.00    -0.036 A 
ATOM     68  H   UNL A   1      36.560  34.815  32.955  1.00  0.00     0.065 H 
ATOM     69  C   UNL A   1      39.018  33.320  34.535  1.00  0.00     0.049 A 
ATOM     70  H   UNL A   1      39.587  31.967  33.058  1.00  0.00     0.167 HD
ATOM     71  C   UNL A   1      40.372  28.895  30.024  1.00  0.00     0.037 A 
ATOM     72  H   UNL A   1      38.338  29.528  28.190  1.00  0.00     0.065 H 
ATOM     73  H   UNL A   1      37.772  35.048  35.175  1.00  0.00     0.065 H 
ATOM     74  C   UNL A   1      39.792  33.082  35.612  1.00  0.00     0.037 A 
ATOM     75  C   UNL A   1      41.343  28.665  31.062  1.00  0.00     0.049 A 
ATOM     76  C   UNL A   1      40.817  31.983  35.553  1.00  0.00     0.074 A 
ATOM     77  C   UNL A   1      42.379  27.749  31.087  1.00  0.00    -0.036 A 
ATOM     78  N   UNL A   1      41.387  29.352  32.268  1.00  0.00    -0.354 N 
ATOM     79  N   UNL A   1      41.067  31.140  34.580  1.00  0.00    -0.248 NA
ATOM     80  C   UNL A   1      41.672  31.805  36.734  1.00  0.00    -0.034 C 
ATOM     81  C   UNL A   1      43.007  27.835  32.333  1.00  0.00    -0.036 A 
ATOM     82  H   UNL A   1      42.642  27.112  30.318  1.00  0.00     0.065 H 
ATOM     83  C   UNL A   1      42.410  28.854  33.059  1.00  0.00     0.049 A 
ATOM     84  H   UNL A   1      40.781  30.084  32.523  1.00  0.00     0.167 HD
ATOM     85  C   UNL A   1      42.122  30.351  35.019  1.00  0.00     0.074 A 
ATOM     86  C   UNL A   1      42.470  30.821  36.344  1.00  0.00    -0.034 C 
ATOM     87  H   UNL A   1      41.657  32.313  37.632  1.00  0.00     0.065 H 
ATOM     88  H   UNL A   1      43.785  27.239  32.658  1.00  0.00     0.065 H 
ATOM     89  C   UNL A   1      42.748  29.334  34.377  1.00  0.00     0.037 A 
ATOM     90  H   UNL A   1      43.241  30.437  36.913  1.00  0.00     0.065 H 
BRANCH  71  91
ATOM     91  C   UNL A   1      40.370  27.988  28.826  1.00  0.00     0.064 A 
ATOM     92  C   UNL A   1      39.659  26.777  28.812  1.00  0.00     0.173 A 
ATOM     93  C   UNL A   1      41.092  28.333  27.674  1.00  0.00     0.173 A 
ATOM     94  F   UNL A   1      38.957  26.393  29.890  1.00  0.00    -0.203 F 
ATOM     95  C   UNL A   1      39.712  25.926  27.712  1.00  0.00     0.198 A 
ATOM     96  C   UNL A   1      41.111  27.498  26.560  1.00  0.00     0.198 A 
ATOM     97  F   UNL A   1      41.783  29.482  27.626  1.00  0.00    -0.203 F 
ATOM     98  F   UNL A   1      39.084  24.742  27.752  1.00  0.00    -0.200 F 
ATOM     99  C   UNL A   1      40.434  26.288  26.585  1.00  0.00     0.200 A 
ATOM    100  F   UNL A   1      41.796  27.858  25.465  1.00  0.00    -0.200 F 
ATOM    101  F   UNL A   1      40.486  25.467  25.528  1.00  0.00    -0.200 F 
ENDBRANCH  71  91
BRANCH  74 102
ATOM    102  C   UNL A   1      39.618  33.913  36.832  1.00  0.00     0.064 A 
ATOM    103  C   UNL A   1      40.227  35.170  36.945  1.00  0.00     0.173 A 
ATOM    104  C   UNL A   1      38.806  33.483  37.893  1.00  0.00     0.173 A 
ATOM    105  F   UNL A   1      41.026  35.617  35.966  1.00  0.00    -0.203 F 
ATOM    106  C   UNL A   1      40.038  35.963  38.076  1.00  0.00     0.198 A 
ATOM    107  C   UNL A   1      38.594  34.288  39.010  1.00  0.00     0.198 A 
ATOM    108  F   UNL A   1      38.194  32.292  37.830  1.00  0.00    -0.203 F 
ATOM    109  F   UNL A   1      40.656  37.147  38.172  1.00  0.00    -0.200 F 
ATOM    110  C   UNL A   1      39.214  35.525  39.103  1.00  0.00     0.200 A 
ATOM    111  F   UNL A   1      37.782  33.870  39.990  1.00  0.00    -0.200 F 
ATOM    112  F   UNL A   1      39.018  36.294  40.182  1.00  0.00    -0.200 F 
ENDBRANCH  74 102
BRANCH  89 113
ATOM    113  C   UNL A   1      43.904  28.674  35.073  1.00  0.00     0.064 A 
ATOM    114  C   UNL A   1      43.734  27.526  35.860  1.00  0.00     0.173 A 
ATOM    115  C   UNL A   1      45.209  29.152  34.881  1.00  0.00     0.173 A 
ATOM    116  F   UNL A   1      42.506  27.037  36.087  1.00  0.00    -0.203 F 
ATOM    117  C   UNL A   1      44.830  26.887  36.436  1.00  0.00     0.198 A 
ATOM    118  C   UNL A   1      46.304  28.494  35.433  1.00  0.00     0.198 A 
ATOM    119  F   UNL A   1      45.425  30.245  34.132  1.00  0.00    -0.203 F 
ATOM    120  F   UNL A   1      44.643  25.809  37.211  1.00  0.00    -0.200 F 
ATOM    121  C   UNL A   1      46.113  27.364  36.212  1.00  0.00     0.200 A 
ATOM    122  F   UNL A   1      47.544  28.947  35.201  1.00  0.00    -0.200 F 
ATOM    123  F   UNL A   1      47.167  26.734  36.749  1.00  0.00    -0.200 F 
ENDBRANCH  89 113
ENDBRANCH  54  57
ENDBRANCH  44  47
ENDBRANCH  40  43
ENDBRANCH  37  40
ENDBRANCH  34  37
ENDBRANCH   1  34
TORSDOF 16
ENDMDL
MODEL 7
REMARK VINA RESULT:     -11.6      1.841      7.952
REMARK SMILES C[C@@H](C(=O)NCCCCCCNC(=O)c1ccc(-c2c3nc(c(-c4c(F)c(F)c(F)c(F)c4F)c4ccc([nH]4)c(-c4c(F)c(F)c(F)c(F)c4F)c4nc(c(-c5c(F)c(F)c(F)c(F)c5F)c5ccc2[nH]5)C=C4)C=C3)cc1)c1cccn(C(F)F)c1=O
REMARK SMILES IDX 8 1 7 4 6 7 5 10 3 11 4 12 2 14 1 16 78 20 79 21 86 22 80 23
REMARK SMILES IDX 82 25 87 26 81 27 83 30 84 31 85 32 9 34 10 37 11 40 12 43
REMARK SMILES IDX 13 44 14 46 15 47 16 48 77 49 17 50 76 52 18 54 19 57 20 58
REMARK SMILES IDX 70 59 21 60 75 61 69 62 71 63 22 64 74 65 68 67 67 69 23 71
REMARK SMILES IDX 55 74 35 75 54 76 36 77 39 78 53 79 72 80 37 81 38 83 52 85
REMARK SMILES IDX 73 86 40 89 24 91 25 92 33 93 26 94 27 95 31 96 34 97 28 98
REMARK SMILES IDX 29 99 32 100 30 101 56 102 57 103 65 104 58 105 59 106
REMARK SMILES IDX 63 107 66 108 60 109 61 110 64 111 62 112 41 113 42 114
REMARK SMILES IDX 50 115 43 116 44 117 48 118 51 119 45 120 46 121 49 122
REMARK SMILES IDX 47 123
REMARK H PARENT 8 2 8 3 7 5 7 6 6 8 6 9 5 13 2 15 1 17 1 18 1 19 79 24 80 28
REMARK H PARENT 81 29 83 33 9 35 9 36 10 38 10 39 11 41 11 42 12 45 16 51
REMARK H PARENT 77 53 17 55 76 56 75 66 69 68 71 70 74 72 68 73 36 82 39 84
REMARK H PARENT 72 87 37 88 73 90
REMARK Flexibility Score: inf
ROOT
ATOM      1  C   UNL A   1      34.927  32.792  29.127  1.00  0.00    -0.052 C 
ATOM      2  H   UNL A   1      35.558  32.246  29.798  1.00  0.00     0.027 H 
ATOM      3  H   UNL A   1      33.905  32.826  29.445  1.00  0.00     0.027 H 
ENDROOT
BRANCH   1   4
ATOM      4  C   UNL A   1      34.936  32.073  27.770  1.00  0.00    -0.036 C 
ATOM      5  H   UNL A   1      34.820  32.805  26.997  1.00  0.00     0.028 H 
ATOM      6  H   UNL A   1      35.867  31.551  27.696  1.00  0.00     0.028 H 
BRANCH   4   7
ATOM      7  C   UNL A   1      33.820  31.035  27.627  1.00  0.00     0.017 C 
ATOM      8  H   UNL A   1      33.755  30.457  28.525  1.00  0.00     0.049 H 
ATOM      9  H   UNL A   1      32.890  31.534  27.453  1.00  0.00     0.049 H 
BRANCH   7  10
ATOM     10  N   UNL A   1      34.109  30.158  26.511  1.00  0.00    -0.356 N 
ATOM     11  C   UNL A   1      33.416  29.077  26.049  1.00  0.00     0.227 C 
ATOM     12  O   UNL A   1      34.009  28.338  25.260  1.00  0.00    -0.274 OA
ATOM     13  H   UNL A   1      34.929  30.375  26.011  1.00  0.00     0.163 HD
BRANCH  11  14
ATOM     14  C   UNL A   1      31.940  28.883  26.444  1.00  0.00     0.066 C 
ATOM     15  H   UNL A   1      31.510  29.802  26.782  1.00  0.00     0.045 H 
BRANCH  14  16
ATOM     16  C   UNL A   1      31.783  27.980  27.670  1.00  0.00    -0.049 C 
ATOM     17  H   UNL A   1      31.426  27.018  27.360  1.00  0.00     0.024 H 
ATOM     18  H   UNL A   1      31.082  28.418  28.349  1.00  0.00     0.024 H 
ATOM     19  H   UNL A   1      32.729  27.869  28.155  1.00  0.00     0.024 H 
ENDBRANCH  14  16
BRANCH  14  20
ATOM     20  C   UNL A   1      31.156  28.473  25.200  1.00  0.00     0.030 A 
ATOM     21  C   UNL A   1      31.001  27.173  24.870  1.00  0.00    -0.051 A 
ATOM     22  C   UNL A   1      30.516  29.500  24.300  1.00  0.00     0.258 A 
ATOM     23  C   UNL A   1      30.244  26.759  23.719  1.00  0.00    -0.045 A 
ATOM     24  H   UNL A   1      31.439  26.452  25.463  1.00  0.00     0.063 H 
ATOM     25  N   UNL A   1      29.907  29.022  23.151  1.00  0.00    -0.258 N 
ATOM     26  O   UNL A   1      30.563  30.700  24.559  1.00  0.00    -0.269 OA
ATOM     27  C   UNL A   1      29.742  27.679  22.890  1.00  0.00     0.013 A 
ATOM     28  H   UNL A   1      30.088  25.756  23.534  1.00  0.00     0.064 H 
ATOM     29  H   UNL A   1      29.227  27.381  22.048  1.00  0.00     0.082 H 
BRANCH  25  30
ATOM     30  C   UNL A   1      29.401  29.994  22.216  1.00  0.00     0.321 C 
ATOM     31  F   UNL A   1      30.274  30.119  21.178  1.00  0.00    -0.185 F 
ATOM     32  F   UNL A   1      28.235  29.551  21.676  1.00  0.00    -0.185 F 
ATOM     33  H   UNL A   1      29.262  30.920  22.735  1.00  0.00     0.131 H 
ENDBRANCH  25  30
ENDBRANCH  14  20
ENDBRANCH  11  14
ENDBRANCH   7  10
ENDBRANCH   4   7
ENDBRANCH   1   4
BRANCH   1  34
ATOM     34  C   UNL A   1      35.416  34.244  29.087  1.00  0.00    -0.052 C 
ATOM     35  H   UNL A   1      36.061  34.356  28.239  1.00  0.00     0.027 H 
ATOM     36  H   UNL A   1      35.912  34.425  30.017  1.00  0.00     0.027 H 
BRANCH  34  37
ATOM     37  C   UNL A   1      34.302  35.285  28.978  1.00  0.00    -0.036 C 
ATOM     38  H   UNL A   1      34.112  35.470  27.941  1.00  0.00     0.028 H 
ATOM     39  H   UNL A   1      34.640  36.158  29.495  1.00  0.00     0.028 H 
BRANCH  37  40
ATOM     40  C   UNL A   1      32.994  34.860  29.636  1.00  0.00     0.018 C 
ATOM     41  H   UNL A   1      33.146  33.926  30.135  1.00  0.00     0.049 H 
ATOM     42  H   UNL A   1      32.250  34.772  28.872  1.00  0.00     0.049 H 
BRANCH  40  43
ATOM     43  N   UNL A   1      32.533  35.844  30.605  1.00  0.00    -0.352 N 
ATOM     44  C   UNL A   1      32.874  35.973  31.927  1.00  0.00     0.251 C 
ATOM     45  H   UNL A   1      31.890  36.507  30.265  1.00  0.00     0.163 HD
ATOM     46  O   UNL A   1      32.239  36.717  32.670  1.00  0.00    -0.269 OA
BRANCH  44  47
ATOM     47  C   UNL A   1      34.006  35.190  32.457  1.00  0.00     0.039 A 
ATOM     48  C   UNL A   1      33.781  33.891  32.921  1.00  0.00    -0.049 A 
ATOM     49  C   UNL A   1      35.293  35.734  32.469  1.00  0.00    -0.049 A 
ATOM     50  C   UNL A   1      34.862  33.113  33.337  1.00  0.00    -0.053 A 
ATOM     51  H   UNL A   1      32.823  33.511  32.956  1.00  0.00     0.063 H 
ATOM     52  C   UNL A   1      36.375  34.932  32.807  1.00  0.00    -0.053 A 
ATOM     53  H   UNL A   1      35.438  36.727  32.227  1.00  0.00     0.063 H 
ATOM     54  C   UNL A   1      36.171  33.615  33.249  1.00  0.00    -0.014 A 
ATOM     55  H   UNL A   1      34.700  32.165  33.712  1.00  0.00     0.063 H 
ATOM     56  H   UNL A   1      37.334  35.306  32.733  1.00  0.00     0.063 H 
BRANCH  54  57
ATOM     57  C   UNL A   1      37.348  32.791  33.616  1.00  0.00     0.031 A 
ATOM     58  C   UNL A   1      38.102  33.090  34.880  1.00  0.00     0.074 A 
ATOM     59  C   UNL A   1      37.799  31.849  32.766  1.00  0.00     0.049 A 
ATOM     60  N   UNL A   1      39.229  32.584  35.314  1.00  0.00    -0.248 NA
ATOM     61  C   UNL A   1      37.528  34.123  35.755  1.00  0.00    -0.034 C 
ATOM     62  C   UNL A   1      37.180  31.502  31.487  1.00  0.00    -0.036 A 
ATOM     63  N   UNL A   1      38.899  31.031  32.838  1.00  0.00    -0.354 N 
ATOM     64  C   UNL A   1      39.509  33.255  36.497  1.00  0.00     0.074 A 
ATOM     65  C   UNL A   1      38.466  34.240  36.683  1.00  0.00    -0.034 C 
ATOM     66  H   UNL A   1      36.631  34.625  35.670  1.00  0.00     0.065 H 
ATOM     67  C   UNL A   1      37.908  30.543  30.894  1.00  0.00    -0.036 A 
ATOM     68  H   UNL A   1      36.321  31.926  31.102  1.00  0.00     0.065 H 
ATOM     69  C   UNL A   1      39.068  30.241  31.728  1.00  0.00     0.049 A 
ATOM     70  H   UNL A   1      39.508  31.014  33.611  1.00  0.00     0.167 HD
ATOM     71  C   UNL A   1      40.534  33.053  37.359  1.00  0.00     0.037 A 
ATOM     72  H   UNL A   1      38.455  34.943  37.439  1.00  0.00     0.065 H 
ATOM     73  H   UNL A   1      37.684  30.091  29.993  1.00  0.00     0.065 H 
ATOM     74  C   UNL A   1      40.060  29.389  31.405  1.00  0.00     0.037 A 
ATOM     75  C   UNL A   1      41.556  32.057  37.173  1.00  0.00     0.049 A 
ATOM     76  C   UNL A   1      41.196  29.183  32.370  1.00  0.00     0.074 A 
ATOM     77  C   UNL A   1      42.595  31.718  38.021  1.00  0.00    -0.036 A 
ATOM     78  N   UNL A   1      41.675  31.247  36.051  1.00  0.00    -0.354 N 
ATOM     79  N   UNL A   1      41.412  29.764  33.526  1.00  0.00    -0.248 NA
ATOM     80  C   UNL A   1      42.220  28.201  31.994  1.00  0.00    -0.034 C 
ATOM     81  C   UNL A   1      43.380  30.752  37.384  1.00  0.00    -0.036 A 
ATOM     82  H   UNL A   1      42.761  32.111  38.961  1.00  0.00     0.065 H 
ATOM     83  C   UNL A   1      42.791  30.436  36.170  1.00  0.00     0.049 A 
ATOM     84  H   UNL A   1      41.057  31.250  35.285  1.00  0.00     0.167 HD
ATOM     85  C   UNL A   1      42.579  29.201  34.026  1.00  0.00     0.074 A 
ATOM     86  C   UNL A   1      43.021  28.227  33.050  1.00  0.00    -0.034 C 
ATOM     87  H   UNL A   1      42.297  27.637  31.133  1.00  0.00     0.065 H 
ATOM     88  H   UNL A   1      44.252  30.343  37.756  1.00  0.00     0.065 H 
ATOM     89  C   UNL A   1      43.219  29.465  35.191  1.00  0.00     0.037 A 
ATOM     90  H   UNL A   1      43.855  27.629  33.163  1.00  0.00     0.065 H 
BRANCH  71  91
ATOM     91  C   UNL A   1      40.606  33.942  38.569  1.00  0.00     0.064 A 
ATOM     92  C   UNL A   1      41.351  35.132  38.573  1.00  0.00     0.173 A 
ATOM     93  C   UNL A   1      39.920  33.599  39.743  1.00  0.00     0.173 A 
ATOM     94  F   UNL A   1      42.034  35.506  37.479  1.00  0.00    -0.203 F 
ATOM     95  C   UNL A   1      41.448  35.915  39.719  1.00  0.00     0.198 A 
ATOM     96  C   UNL A   1      39.987  34.405  40.876  1.00  0.00     0.198 A 
ATOM     97  F   UNL A   1      39.185  32.478  39.795  1.00  0.00    -0.203 F 
ATOM     98  F   UNL A   1      42.225  37.007  39.719  1.00  0.00    -0.200 F 
ATOM     99  C   UNL A   1      40.762  35.554  40.869  1.00  0.00     0.200 A 
ATOM    100  F   UNL A   1      39.310  34.062  41.982  1.00  0.00    -0.200 F 
ATOM    101  F   UNL A   1      40.858  36.307  41.973  1.00  0.00    -0.200 F 
ENDBRANCH  71  91
BRANCH  74 102
ATOM    102  C   UNL A   1      40.009  28.670  30.106  1.00  0.00     0.064 A 
ATOM    103  C   UNL A   1      40.591  29.214  28.953  1.00  0.00     0.173 A 
ATOM    104  C   UNL A   1      39.410  27.405  30.000  1.00  0.00     0.173 A 
ATOM    105  F   UNL A   1      41.160  30.428  29.000  1.00  0.00    -0.203 F 
ATOM    106  C   UNL A   1      40.571  28.525  27.742  1.00  0.00     0.198 A 
ATOM    107  C   UNL A   1      39.416  26.704  28.795  1.00  0.00     0.198 A 
ATOM    108  F   UNL A   1      38.847  26.837  31.075  1.00  0.00    -0.203 F 
ATOM    109  F   UNL A   1      41.108  29.081  26.648  1.00  0.00    -0.200 F 
ATOM    110  C   UNL A   1      39.992  27.267  27.667  1.00  0.00     0.200 A 
ATOM    111  F   UNL A   1      38.872  25.481  28.732  1.00  0.00    -0.200 F 
ATOM    112  F   UNL A   1      39.986  26.597  26.506  1.00  0.00    -0.200 F 
ENDBRANCH  74 102
BRANCH  89 113
ATOM    113  C   UNL A   1      44.451  28.667  35.507  1.00  0.00     0.064 A 
ATOM    114  C   UNL A   1      44.385  27.444  36.189  1.00  0.00     0.173 A 
ATOM    115  C   UNL A   1      45.706  29.096  35.048  1.00  0.00     0.173 A 
ATOM    116  F   UNL A   1      43.212  26.996  36.662  1.00  0.00    -0.203 F 
ATOM    117  C   UNL A   1      45.532  26.684  36.407  1.00  0.00     0.198 A 
ATOM    118  C   UNL A   1      46.846  28.320  35.240  1.00  0.00     0.198 A 
ATOM    119  F   UNL A   1      45.823  30.258  34.386  1.00  0.00    -0.203 F 
ATOM    120  F   UNL A   1      45.451  25.533  37.089  1.00  0.00    -0.200 F 
ATOM    121  C   UNL A   1      46.758  27.117  35.922  1.00  0.00     0.200 A 
ATOM    122  F   UNL A   1      48.025  28.732  34.756  1.00  0.00    -0.200 F 
ATOM    123  F   UNL A   1      47.856  26.372  36.113  1.00  0.00    -0.200 F 
ENDBRANCH  89 113
ENDBRANCH  54  57
ENDBRANCH  44  47
ENDBRANCH  40  43
ENDBRANCH  37  40
ENDBRANCH  34  37
ENDBRANCH   1  34
TORSDOF 16
ENDMDL
MODEL 8
REMARK VINA RESULT:     -11.6      1.765      7.810
REMARK SMILES C[C@@H](C(=O)NCCCCCCNC(=O)c1ccc(-c2c3nc(c(-c4c(F)c(F)c(F)c(F)c4F)c4ccc([nH]4)c(-c4c(F)c(F)c(F)c(F)c4F)c4nc(c(-c5c(F)c(F)c(F)c(F)c5F)c5ccc2[nH]5)C=C4)C=C3)cc1)c1cccn(C(F)F)c1=O
REMARK SMILES IDX 8 1 7 4 6 7 5 10 3 11 4 12 2 14 1 16 78 20 79 21 86 22 80 23
REMARK SMILES IDX 82 25 87 26 81 27 83 30 84 31 85 32 9 34 10 37 11 40 12 43
REMARK SMILES IDX 13 44 14 46 15 47 16 48 77 49 17 50 76 52 18 54 19 57 20 58
REMARK SMILES IDX 70 59 21 60 75 61 69 62 71 63 22 64 74 65 68 67 67 69 23 71
REMARK SMILES IDX 55 74 35 75 54 76 36 77 39 78 53 79 72 80 37 81 38 83 52 85
REMARK SMILES IDX 73 86 40 89 24 91 25 92 33 93 26 94 27 95 31 96 34 97 28 98
REMARK SMILES IDX 29 99 32 100 30 101 56 102 57 103 65 104 58 105 59 106
REMARK SMILES IDX 63 107 66 108 60 109 61 110 64 111 62 112 41 113 42 114
REMARK SMILES IDX 50 115 43 116 44 117 48 118 51 119 45 120 46 121 49 122
REMARK SMILES IDX 47 123
REMARK H PARENT 8 2 8 3 7 5 7 6 6 8 6 9 5 13 2 15 1 17 1 18 1 19 79 24 80 28
REMARK H PARENT 81 29 83 33 9 35 9 36 10 38 10 39 11 41 11 42 12 45 16 51
REMARK H PARENT 77 53 17 55 76 56 75 66 69 68 71 70 74 72 68 73 36 82 39 84
REMARK H PARENT 72 87 37 88 73 90
REMARK Flexibility Score: inf
ROOT
ATOM      1  C   UNL A   1      34.773  32.310  27.995  1.00  0.00    -0.052 C 
ATOM      2  H   UNL A   1      34.913  32.936  27.138  1.00  0.00     0.027 H 
ATOM      3  H   UNL A   1      35.666  31.803  28.297  1.00  0.00     0.027 H 
ENDROOT
BRANCH   1   4
ATOM      4  C   UNL A   1      33.757  31.217  27.629  1.00  0.00    -0.036 C 
ATOM      5  H   UNL A   1      33.044  31.137  28.422  1.00  0.00     0.028 H 
ATOM      6  H   UNL A   1      33.303  31.506  26.704  1.00  0.00     0.028 H 
BRANCH   4   7
ATOM      7  C   UNL A   1      34.397  29.843  27.410  1.00  0.00     0.017 C 
ATOM      8  H   UNL A   1      35.392  29.847  27.807  1.00  0.00     0.049 H 
ATOM      9  H   UNL A   1      33.815  29.097  27.908  1.00  0.00     0.049 H 
BRANCH   7  10
ATOM     10  N   UNL A   1      34.446  29.547  25.993  1.00  0.00    -0.356 N 
ATOM     11  C   UNL A   1      33.727  28.643  25.266  1.00  0.00     0.227 C 
ATOM     12  O   UNL A   1      34.143  28.391  24.133  1.00  0.00    -0.274 OA
ATOM     13  H   UNL A   1      35.096  30.078  25.478  1.00  0.00     0.163 HD
BRANCH  11  14
ATOM     14  C   UNL A   1      32.416  28.068  25.834  1.00  0.00     0.066 C 
ATOM     15  H   UNL A   1      32.118  28.593  26.717  1.00  0.00     0.045 H 
BRANCH  14  16
ATOM     16  C   UNL A   1      32.588  26.636  26.349  1.00  0.00    -0.049 C 
ATOM     17  H   UNL A   1      33.091  26.050  25.607  1.00  0.00     0.024 H 
ATOM     18  H   UNL A   1      31.627  26.210  26.548  1.00  0.00     0.024 H 
ATOM     19  H   UNL A   1      33.167  26.647  27.248  1.00  0.00     0.024 H 
ENDBRANCH  14  16
BRANCH  14  20
ATOM     20  C   UNL A   1      31.307  28.286  24.808  1.00  0.00     0.030 A 
ATOM     21  C   UNL A   1      30.829  27.262  24.069  1.00  0.00    -0.051 A 
ATOM     22  C   UNL A   1      30.696  29.647  24.588  1.00  0.00     0.258 A 
ATOM     23  C   UNL A   1      29.765  27.436  23.116  1.00  0.00    -0.045 A 
ATOM     24  H   UNL A   1      31.238  26.324  24.193  1.00  0.00     0.063 H 
ATOM     25  N   UNL A   1      29.762  29.749  23.570  1.00  0.00    -0.258 N 
ATOM     26  O   UNL A   1      31.036  30.619  25.257  1.00  0.00    -0.269 OA
ATOM     27  C   UNL A   1      29.281  28.658  22.879  1.00  0.00     0.013 A 
ATOM     28  H   UNL A   1      29.377  26.620  22.617  1.00  0.00     0.064 H 
ATOM     29  H   UNL A   1      28.541  28.787  22.172  1.00  0.00     0.082 H 
BRANCH  25  30
ATOM     30  C   UNL A   1      29.260  31.064  23.260  1.00  0.00     0.321 C 
ATOM     31  F   UNL A   1      28.896  31.109  21.949  1.00  0.00    -0.185 F 
ATOM     32  F   UNL A   1      28.129  31.305  23.974  1.00  0.00    -0.185 F 
ATOM     33  H   UNL A   1      30.024  31.777  23.488  1.00  0.00     0.131 H 
ENDBRANCH  25  30
ENDBRANCH  14  20
ENDBRANCH  11  14
ENDBRANCH   7  10
ENDBRANCH   4   7
ENDBRANCH   1   4
BRANCH   1  34
ATOM     34  C   UNL A   1      34.360  33.199  29.173  1.00  0.00    -0.052 C 
ATOM     35  H   UNL A   1      35.230  33.718  29.521  1.00  0.00     0.027 H 
ATOM     36  H   UNL A   1      33.937  32.550  29.911  1.00  0.00     0.027 H 
BRANCH  34  37
ATOM     37  C   UNL A   1      33.289  34.236  28.838  1.00  0.00    -0.036 C 
ATOM     38  H   UNL A   1      32.375  33.944  29.312  1.00  0.00     0.028 H 
ATOM     39  H   UNL A   1      33.206  34.266  27.772  1.00  0.00     0.028 H 
BRANCH  37  40
ATOM     40  C   UNL A   1      33.634  35.650  29.293  1.00  0.00     0.018 C 
ATOM     41  H   UNL A   1      33.562  36.310  28.454  1.00  0.00     0.049 H 
ATOM     42  H   UNL A   1      34.628  35.638  29.688  1.00  0.00     0.049 H 
BRANCH  40  43
ATOM     43  N   UNL A   1      32.736  36.115  30.340  1.00  0.00    -0.352 N 
ATOM     44  C   UNL A   1      32.732  35.795  31.674  1.00  0.00     0.251 C 
ATOM     45  H   UNL A   1      32.038  36.745  30.052  1.00  0.00     0.163 HD
ATOM     46  O   UNL A   1      31.781  36.097  32.389  1.00  0.00    -0.269 OA
BRANCH  44  47
ATOM     47  C   UNL A   1      33.879  35.061  32.240  1.00  0.00     0.039 A 
ATOM     48  C   UNL A   1      33.680  33.783  32.767  1.00  0.00    -0.049 A 
ATOM     49  C   UNL A   1      35.155  35.631  32.223  1.00  0.00    -0.049 A 
ATOM     50  C   UNL A   1      34.777  33.047  33.219  1.00  0.00    -0.053 A 
ATOM     51  H   UNL A   1      32.730  33.385  32.822  1.00  0.00     0.063 H 
ATOM     52  C   UNL A   1      36.253  34.867  32.599  1.00  0.00    -0.053 A 
ATOM     53  H   UNL A   1      35.280  36.613  31.933  1.00  0.00     0.063 H 
ATOM     54  C   UNL A   1      36.076  33.571  33.105  1.00  0.00    -0.014 A 
ATOM     55  H   UNL A   1      34.634  32.116  33.641  1.00  0.00     0.063 H 
ATOM     56  H   UNL A   1      37.205  35.257  32.505  1.00  0.00     0.063 H 
BRANCH  54  57
ATOM     57  C   UNL A   1      37.269  32.789  33.510  1.00  0.00     0.031 A 
ATOM     58  C   UNL A   1      37.967  33.110  34.801  1.00  0.00     0.074 A 
ATOM     59  C   UNL A   1      37.784  31.868  32.674  1.00  0.00     0.049 A 
ATOM     60  N   UNL A   1      39.096  32.645  35.273  1.00  0.00    -0.248 NA
ATOM     61  C   UNL A   1      37.325  34.118  35.659  1.00  0.00    -0.034 C 
ATOM     62  C   UNL A   1      37.223  31.503  31.373  1.00  0.00    -0.036 A 
ATOM     63  N   UNL A   1      38.911  31.091  32.782  1.00  0.00    -0.354 N 
ATOM     64  C   UNL A   1      39.310  33.320  36.466  1.00  0.00     0.074 A 
ATOM     65  C   UNL A   1      38.226  34.265  36.618  1.00  0.00    -0.034 C 
ATOM     66  H   UNL A   1      36.413  34.586  35.544  1.00  0.00     0.065 H 
ATOM     67  C   UNL A   1      38.006  30.574  30.803  1.00  0.00    -0.036 A 
ATOM     68  H   UNL A   1      36.363  31.897  30.959  1.00  0.00     0.065 H 
ATOM     69  C   UNL A   1      39.147  30.312  31.676  1.00  0.00     0.049 A 
ATOM     70  H   UNL A   1      39.492  31.093  33.576  1.00  0.00     0.167 HD
ATOM     71  C   UNL A   1      40.311  33.152  37.363  1.00  0.00     0.037 A 
ATOM     72  H   UNL A   1      38.162  34.964  37.376  1.00  0.00     0.065 H 
ATOM     73  H   UNL A   1      37.830  30.119  29.893  1.00  0.00     0.065 H 
ATOM     74  C   UNL A   1      40.181  29.499  31.386  1.00  0.00     0.037 A 
ATOM     75  C   UNL A   1      41.375  32.195  37.210  1.00  0.00     0.049 A 
ATOM     76  C   UNL A   1      41.289  29.331  32.389  1.00  0.00     0.074 A 
ATOM     77  C   UNL A   1      42.396  31.892  38.093  1.00  0.00    -0.036 A 
ATOM     78  N   UNL A   1      41.563  31.396  36.091  1.00  0.00    -0.354 N 
ATOM     79  N   UNL A   1      41.443  29.915  33.553  1.00  0.00    -0.248 NA
ATOM     80  C   UNL A   1      42.362  28.388  32.045  1.00  0.00    -0.034 C 
ATOM     81  C   UNL A   1      43.238  30.958  37.481  1.00  0.00    -0.036 A 
ATOM     82  H   UNL A   1      42.515  32.286  39.039  1.00  0.00     0.065 H 
ATOM     83  C   UNL A   1      42.704  30.626  36.246  1.00  0.00     0.049 A 
ATOM     84  H   UNL A   1      40.972  31.379  35.303  1.00  0.00     0.167 HD
ATOM     85  C   UNL A   1      42.612  29.393  34.092  1.00  0.00     0.074 A 
ATOM     86  C   UNL A   1      43.124  28.440  33.130  1.00  0.00    -0.034 C 
ATOM     87  H   UNL A   1      42.490  27.832  31.186  1.00  0.00     0.065 H 
ATOM     88  H   UNL A   1      44.111  30.581  37.882  1.00  0.00     0.065 H 
ATOM     89  C   UNL A   1      43.201  29.676  35.279  1.00  0.00     0.037 A 
ATOM     90  H   UNL A   1      43.975  27.873  33.270  1.00  0.00     0.065 H 
BRANCH  71  91
ATOM     91  C   UNL A   1      40.308  34.038  38.577  1.00  0.00     0.064 A 
ATOM     92  C   UNL A   1      39.634  33.682  39.756  1.00  0.00     0.173 A 
ATOM     93  C   UNL A   1      40.989  35.265  38.561  1.00  0.00     0.173 A 
ATOM     94  F   UNL A   1      38.960  32.523  39.825  1.00  0.00    -0.203 F 
ATOM     95  C   UNL A   1      39.600  34.540  40.851  1.00  0.00     0.198 A 
ATOM     96  C   UNL A   1      40.986  36.103  39.673  1.00  0.00     0.198 A 
ATOM     97  F   UNL A   1      41.658  35.654  37.465  1.00  0.00    -0.203 F 
ATOM     98  F   UNL A   1      38.888  34.209  41.938  1.00  0.00    -0.200 F 
ATOM     99  C   UNL A   1      40.280  35.748  40.811  1.00  0.00     0.200 A 
ATOM    100  F   UNL A   1      41.658  37.263  39.637  1.00  0.00    -0.200 F 
ATOM    101  F   UNL A   1      40.244  36.575  41.865  1.00  0.00    -0.200 F 
ENDBRANCH  71  91
BRANCH  74 102
ATOM    102  C   UNL A   1      40.201  28.784  30.083  1.00  0.00     0.064 A 
ATOM    103  C   UNL A   1      39.557  27.550  29.924  1.00  0.00     0.173 A 
ATOM    104  C   UNL A   1      40.834  29.340  28.960  1.00  0.00     0.173 A 
ATOM    105  F   UNL A   1      38.953  26.970  30.972  1.00  0.00    -0.203 F 
ATOM    106  C   UNL A   1      39.549  26.895  28.694  1.00  0.00     0.198 A 
ATOM    107  C   UNL A   1      40.802  28.698  27.724  1.00  0.00     0.198 A 
ATOM    108  F   UNL A   1      41.458  30.521  29.058  1.00  0.00    -0.203 F 
ATOM    109  F   UNL A   1      38.951  25.702  28.576  1.00  0.00    -0.200 F 
ATOM    110  C   UNL A   1      40.163  27.474  27.593  1.00  0.00     0.200 A 
ATOM    111  F   UNL A   1      41.379  29.270  26.659  1.00  0.00    -0.200 F 
ATOM    112  F   UNL A   1      40.142  26.852  26.406  1.00  0.00    -0.200 F 
ENDBRANCH  74 102
BRANCH  89 113
ATOM    113  C   UNL A   1      44.451  28.922  35.636  1.00  0.00     0.064 A 
ATOM    114  C   UNL A   1      45.726  29.418  35.328  1.00  0.00     0.173 A 
ATOM    115  C   UNL A   1      44.369  27.729  36.370  1.00  0.00     0.173 A 
ATOM    116  F   UNL A   1      45.858  30.546  34.616  1.00  0.00    -0.203 F 
ATOM    117  C   UNL A   1      46.872  28.739  35.734  1.00  0.00     0.198 A 
ATOM    118  C   UNL A   1      45.517  27.069  36.800  1.00  0.00     0.198 A 
ATOM    119  F   UNL A   1      43.172  27.215  36.695  1.00  0.00    -0.203 F 
ATOM    120  F   UNL A   1      48.081  29.213  35.401  1.00  0.00    -0.200 F 
ATOM    121  C   UNL A   1      46.767  27.574  36.479  1.00  0.00     0.200 A 
ATOM    122  F   UNL A   1      45.412  25.953  37.534  1.00  0.00    -0.200 F 
ATOM    123  F   UNL A   1      47.873  26.936  36.887  1.00  0.00    -0.200 F 
ENDBRANCH  89 113
ENDBRANCH  54  57
ENDBRANCH  44  47
ENDBRANCH  40  43
ENDBRANCH  37  40
ENDBRANCH  34  37
ENDBRANCH   1  34
TORSDOF 16
ENDMDL
MODEL 9
REMARK VINA RESULT:     -11.6      7.652     12.126
REMARK SMILES C[C@@H](C(=O)NCCCCCCNC(=O)c1ccc(-c2c3nc(c(-c4c(F)c(F)c(F)c(F)c4F)c4ccc([nH]4)c(-c4c(F)c(F)c(F)c(F)c4F)c4nc(c(-c5c(F)c(F)c(F)c(F)c5F)c5ccc2[nH]5)C=C4)C=C3)cc1)c1cccn(C(F)F)c1=O
REMARK SMILES IDX 8 1 7 4 6 7 5 10 3 11 4 12 2 14 1 16 78 20 79 21 86 22 80 23
REMARK SMILES IDX 82 25 87 26 81 27 83 30 84 31 85 32 9 34 10 37 11 40 12 43
REMARK SMILES IDX 13 44 14 46 15 47 16 48 77 49 17 50 76 52 18 54 19 57 20 58
REMARK SMILES IDX 70 59 21 60 75 61 69 62 71 63 22 64 74 65 68 67 67 69 23 71
REMARK SMILES IDX 55 74 35 75 54 76 36 77 39 78 53 79 72 80 37 81 38 83 52 85
REMARK SMILES IDX 73 86 40 89 24 91 25 92 33 93 26 94 27 95 31 96 34 97 28 98
REMARK SMILES IDX 29 99 32 100 30 101 56 102 57 103 65 104 58 105 59 106
REMARK SMILES IDX 63 107 66 108 60 109 61 110 64 111 62 112 41 113 42 114
REMARK SMILES IDX 50 115 43 116 44 117 48 118 51 119 45 120 46 121 49 122
REMARK SMILES IDX 47 123
REMARK H PARENT 8 2 8 3 7 5 7 6 6 8 6 9 5 13 2 15 1 17 1 18 1 19 79 24 80 28
REMARK H PARENT 81 29 83 33 9 35 9 36 10 38 10 39 11 41 11 42 12 45 16 51
REMARK H PARENT 77 53 17 55 76 56 75 66 69 68 71 70 74 72 68 73 36 82 39 84
REMARK H PARENT 72 87 37 88 73 90
REMARK Flexibility Score: inf
ROOT
ATOM      1  C   UNL A   1      41.461  21.603  26.462  1.00  0.00    -0.052 C 
ATOM      2  H   UNL A   1      42.006  22.013  27.287  1.00  0.00     0.027 H 
ATOM      3  H   UNL A   1      42.000  21.645  25.538  1.00  0.00     0.027 H 
ENDROOT
BRANCH   1   4
ATOM      4  C   UNL A   1      40.192  22.446  26.262  1.00  0.00    -0.036 C 
ATOM      5  H   UNL A   1      39.973  22.952  27.178  1.00  0.00     0.028 H 
ATOM      6  H   UNL A   1      40.388  23.127  25.461  1.00  0.00     0.028 H 
BRANCH   4   7
ATOM      7  C   UNL A   1      38.969  21.615  25.862  1.00  0.00     0.017 C 
ATOM      8  H   UNL A   1      38.912  21.558  24.794  1.00  0.00     0.049 H 
ATOM      9  H   UNL A   1      39.060  20.630  26.270  1.00  0.00     0.049 H 
BRANCH   7  10
ATOM     10  N   UNL A   1      37.767  22.237  26.375  1.00  0.00    -0.356 N 
ATOM     11  C   UNL A   1      36.638  22.630  25.716  1.00  0.00     0.227 C 
ATOM     12  O   UNL A   1      35.874  23.379  26.328  1.00  0.00    -0.274 OA
ATOM     13  H   UNL A   1      37.764  22.403  27.346  1.00  0.00     0.163 HD
BRANCH  11  14
ATOM     14  C   UNL A   1      36.328  22.064  24.317  1.00  0.00     0.066 C 
ATOM     15  H   UNL A   1      36.977  21.246  24.083  1.00  0.00     0.045 H 
BRANCH  14  16
ATOM     16  C   UNL A   1      36.650  23.064  23.203  1.00  0.00    -0.049 C 
ATOM     17  H   UNL A   1      35.911  22.988  22.432  1.00  0.00     0.024 H 
ATOM     18  H   UNL A   1      37.615  22.846  22.796  1.00  0.00     0.024 H 
ATOM     19  H   UNL A   1      36.647  24.056  23.603  1.00  0.00     0.024 H 
ENDBRANCH  14  16
BRANCH  14  20
ATOM     20  C   UNL A   1      34.910  21.500  24.326  1.00  0.00     0.030 A 
ATOM     21  C   UNL A   1      33.849  22.276  24.018  1.00  0.00    -0.051 A 
ATOM     22  C   UNL A   1      34.640  20.056  24.668  1.00  0.00     0.258 A 
ATOM     23  C   UNL A   1      32.505  21.762  23.993  1.00  0.00    -0.045 A 
ATOM     24  H   UNL A   1      34.006  23.270  23.792  1.00  0.00     0.063 H 
ATOM     25  N   UNL A   1      33.310  19.675  24.735  1.00  0.00    -0.258 N 
ATOM     26  O   UNL A   1      35.553  19.271  24.907  1.00  0.00    -0.269 OA
ATOM     27  C   UNL A   1      32.271  20.501  24.365  1.00  0.00     0.013 A 
ATOM     28  H   UNL A   1      31.725  22.365  23.686  1.00  0.00     0.064 H 
ATOM     29  H   UNL A   1      31.304  20.143  24.378  1.00  0.00     0.082 H 
BRANCH  25  30
ATOM     30  C   UNL A   1      33.026  18.334  25.182  1.00  0.00     0.321 C 
ATOM     31  F   UNL A   1      32.677  18.363  26.498  1.00  0.00    -0.185 F 
ATOM     32  F   UNL A   1      31.947  17.845  24.517  1.00  0.00    -0.185 F 
ATOM     33  H   UNL A   1      33.895  17.733  25.012  1.00  0.00     0.131 H 
ENDBRANCH  25  30
ENDBRANCH  14  20
ENDBRANCH  11  14
ENDBRANCH   7  10
ENDBRANCH   4   7
ENDBRANCH   1   4
BRANCH   1  34
ATOM     34  C   UNL A   1      41.206  20.120  26.748  1.00  0.00    -0.052 C 
ATOM     35  H   UNL A   1      40.149  19.951  26.726  1.00  0.00     0.027 H 
ATOM     36  H   UNL A   1      41.643  19.914  27.703  1.00  0.00     0.027 H 
BRANCH  34  37
ATOM     37  C   UNL A   1      41.862  19.161  25.753  1.00  0.00    -0.036 C 
ATOM     38  H   UNL A   1      41.941  19.656  24.808  1.00  0.00     0.028 H 
ATOM     39  H   UNL A   1      41.245  18.288  25.709  1.00  0.00     0.028 H 
BRANCH  37  40
ATOM     40  C   UNL A   1      43.254  18.698  26.169  1.00  0.00     0.018 C 
ATOM     41  H   UNL A   1      43.167  17.767  26.690  1.00  0.00     0.049 H 
ATOM     42  H   UNL A   1      43.682  19.451  26.796  1.00  0.00     0.049 H 
BRANCH  40  43
ATOM     43  N   UNL A   1      44.128  18.515  25.019  1.00  0.00    -0.352 N 
ATOM     44  C   UNL A   1      44.756  19.467  24.257  1.00  0.00     0.251 C 
ATOM     45  H   UNL A   1      44.291  17.582  24.753  1.00  0.00     0.163 HD
ATOM     46  O   UNL A   1      45.286  19.169  23.191  1.00  0.00    -0.269 OA
BRANCH  44  47
ATOM     47  C   UNL A   1      44.772  20.866  24.725  1.00  0.00     0.039 A 
ATOM     48  C   UNL A   1      45.253  21.154  26.004  1.00  0.00    -0.049 A 
ATOM     49  C   UNL A   1      44.334  21.893  23.884  1.00  0.00    -0.049 A 
ATOM     50  C   UNL A   1      45.357  22.484  26.417  1.00  0.00    -0.053 A 
ATOM     51  H   UNL A   1      45.530  20.390  26.640  1.00  0.00     0.063 H 
ATOM     52  C   UNL A   1      44.514  23.217  24.266  1.00  0.00    -0.053 A 
ATOM     53  H   UNL A   1      43.882  21.669  22.985  1.00  0.00     0.063 H 
ATOM     54  C   UNL A   1      45.022  23.525  25.537  1.00  0.00    -0.014 A 
ATOM     55  H   UNL A   1      45.680  22.702  27.373  1.00  0.00     0.063 H 
ATOM     56  H   UNL A   1      44.271  23.977  23.611  1.00  0.00     0.063 H 
BRANCH  54  57
ATOM     57  C   UNL A   1      45.186  24.950  25.917  1.00  0.00     0.031 A 
ATOM     58  C   UNL A   1      46.546  25.585  25.856  1.00  0.00     0.074 A 
ATOM     59  C   UNL A   1      44.140  25.637  26.413  1.00  0.00     0.049 A 
ATOM     60  N   UNL A   1      46.930  26.766  26.270  1.00  0.00    -0.248 NA
ATOM     61  C   UNL A   1      47.626  24.766  25.285  1.00  0.00    -0.034 C 
ATOM     62  C   UNL A   1      42.783  25.112  26.566  1.00  0.00    -0.036 A 
ATOM     63  N   UNL A   1      44.062  26.916  26.907  1.00  0.00    -0.354 N 
ATOM     64  C   UNL A   1      48.297  26.820  26.032  1.00  0.00     0.074 A 
ATOM     65  C   UNL A   1      48.684  25.536  25.491  1.00  0.00    -0.034 C 
ATOM     66  H   UNL A   1      47.574  23.837  24.841  1.00  0.00     0.065 H 
ATOM     67  C   UNL A   1      42.007  26.060  27.115  1.00  0.00    -0.036 A 
ATOM     68  H   UNL A   1      42.472  24.166  26.295  1.00  0.00     0.065 H 
ATOM     69  C   UNL A   1      42.821  27.240  27.395  1.00  0.00     0.049 A 
ATOM     70  H   UNL A   1      44.824  27.539  26.910  1.00  0.00     0.167 HD
ATOM     71  C   UNL A   1      49.147  27.856  26.230  1.00  0.00     0.037 A 
ATOM     72  H   UNL A   1      49.657  25.255  25.293  1.00  0.00     0.065 H 
ATOM     73  H   UNL A   1      40.997  25.969  27.309  1.00  0.00     0.065 H 
ATOM     74  C   UNL A   1      42.392  28.352  28.023  1.00  0.00     0.037 A 
ATOM     75  C   UNL A   1      48.747  29.136  26.751  1.00  0.00     0.049 A 
ATOM     76  C   UNL A   1      43.352  29.489  28.243  1.00  0.00     0.074 A 
ATOM     77  C   UNL A   1      49.512  30.276  26.921  1.00  0.00    -0.036 A 
ATOM     78  N   UNL A   1      47.470  29.441  27.203  1.00  0.00    -0.354 N 
ATOM     79  N   UNL A   1      44.626  29.562  27.942  1.00  0.00    -0.248 NA
ATOM     80  C   UNL A   1      42.817  30.699  28.880  1.00  0.00    -0.034 C 
ATOM     81  C   UNL A   1      48.717  31.248  27.535  1.00  0.00    -0.036 A 
ATOM     82  H   UNL A   1      50.500  30.389  26.641  1.00  0.00     0.065 H 
ATOM     83  C   UNL A   1      47.436  30.739  27.684  1.00  0.00     0.049 A 
ATOM     84  H   UNL A   1      46.703  28.824  27.183  1.00  0.00     0.167 HD
ATOM     85  C   UNL A   1      45.039  30.830  28.328  1.00  0.00     0.074 A 
ATOM     86  C   UNL A   1      43.877  31.496  28.879  1.00  0.00    -0.034 C 
ATOM     87  H   UNL A   1      41.866  30.882  29.236  1.00  0.00     0.065 H 
ATOM     88  H   UNL A   1      49.031  32.186  27.829  1.00  0.00     0.065 H 
ATOM     89  C   UNL A   1      46.269  31.392  28.227  1.00  0.00     0.037 A 
ATOM     90  H   UNL A   1      43.875  32.467  29.227  1.00  0.00     0.065 H 
BRANCH  71  91
ATOM     91  C   UNL A   1      50.596  27.634  25.898  1.00  0.00     0.064 A 
ATOM     92  C   UNL A   1      51.092  27.788  24.593  1.00  0.00     0.173 A 
ATOM     93  C   UNL A   1      51.504  27.259  26.900  1.00  0.00     0.173 A 
ATOM     94  F   UNL A   1      50.267  28.137  23.593  1.00  0.00    -0.203 F 
ATOM     95  C   UNL A   1      52.427  27.527  24.297  1.00  0.00     0.198 A 
ATOM     96  C   UNL A   1      52.847  27.038  26.607  1.00  0.00     0.198 A 
ATOM     97  F   UNL A   1      51.089  27.106  28.166  1.00  0.00    -0.203 F 
ATOM     98  F   UNL A   1      52.859  27.610  23.030  1.00  0.00    -0.200 F 
ATOM     99  C   UNL A   1      53.304  27.156  25.304  1.00  0.00     0.200 A 
ATOM    100  F   UNL A   1      53.697  26.696  27.586  1.00  0.00    -0.200 F 
ATOM    101  F   UNL A   1      54.588  26.903  25.017  1.00  0.00    -0.200 F 
ENDBRANCH  71  91
BRANCH  74 102
ATOM    102  C   UNL A   1      40.980  28.431  28.481  1.00  0.00     0.064 A 
ATOM    103  C   UNL A   1      40.615  28.033  29.774  1.00  0.00     0.173 A 
ATOM    104  C   UNL A   1      39.975  28.945  27.647  1.00  0.00     0.173 A 
ATOM    105  F   UNL A   1      41.536  27.520  30.602  1.00  0.00    -0.203 F 
ATOM    106  C   UNL A   1      39.296  28.138  30.213  1.00  0.00     0.198 A 
ATOM    107  C   UNL A   1      38.663  29.076  28.097  1.00  0.00     0.198 A 
ATOM    108  F   UNL A   1      40.274  29.347  26.404  1.00  0.00    -0.203 F 
ATOM    109  F   UNL A   1      38.968  27.722  31.443  1.00  0.00    -0.200 F 
ATOM    110  C   UNL A   1      38.324  28.668  29.378  1.00  0.00     0.200 A 
ATOM    111  F   UNL A   1      37.731  29.606  27.293  1.00  0.00    -0.200 F 
ATOM    112  F   UNL A   1      37.060  28.784  29.806  1.00  0.00    -0.200 F 
ENDBRANCH  74 102
BRANCH  89 113
ATOM    113  C   UNL A   1      46.427  32.813  28.686  1.00  0.00     0.064 A 
ATOM    114  C   UNL A   1      46.205  33.897  27.824  1.00  0.00     0.173 A 
ATOM    115  C   UNL A   1      46.726  33.092  30.029  1.00  0.00     0.173 A 
ATOM    116  F   UNL A   1      45.931  33.685  26.529  1.00  0.00    -0.203 F 
ATOM    117  C   UNL A   1      46.285  35.207  28.290  1.00  0.00     0.198 A 
ATOM    118  C   UNL A   1      46.775  34.401  30.497  1.00  0.00     0.198 A 
ATOM    119  F   UNL A   1      46.943  32.089  30.895  1.00  0.00    -0.203 F 
ATOM    120  F   UNL A   1      46.101  36.229  27.443  1.00  0.00    -0.200 F 
ATOM    121  C   UNL A   1      46.558  35.458  29.627  1.00  0.00     0.200 A 
ATOM    122  F   UNL A   1      47.022  34.639  31.793  1.00  0.00    -0.200 F 
ATOM    123  F   UNL A   1      46.612  36.719  30.077  1.00  0.00    -0.200 F 
ENDBRANCH  89 113
ENDBRANCH  54  57
ENDBRANCH  44  47
ENDBRANCH  40  43
ENDBRANCH  37  40
ENDBRANCH  34  37
ENDBRANCH   1  34
TORSDOF 16
ENDMDL
MODEL 10
REMARK VINA RESULT:     -11.5      6.231     11.480
REMARK SMILES C[C@@H](C(=O)NCCCCCCNC(=O)c1ccc(-c2c3nc(c(-c4c(F)c(F)c(F)c(F)c4F)c4ccc([nH]4)c(-c4c(F)c(F)c(F)c(F)c4F)c4nc(c(-c5c(F)c(F)c(F)c(F)c5F)c5ccc2[nH]5)C=C4)C=C3)cc1)c1cccn(C(F)F)c1=O
REMARK SMILES IDX 8 1 7 4 6 7 5 10 3 11 4 12 2 14 1 16 78 20 79 21 86 22 80 23
REMARK SMILES IDX 82 25 87 26 81 27 83 30 84 31 85 32 9 34 10 37 11 40 12 43
REMARK SMILES IDX 13 44 14 46 15 47 16 48 77 49 17 50 76 52 18 54 19 57 20 58
REMARK SMILES IDX 70 59 21 60 75 61 69 62 71 63 22 64 74 65 68 67 67 69 23 71
REMARK SMILES IDX 55 74 35 75 54 76 36 77 39 78 53 79 72 80 37 81 38 83 52 85
REMARK SMILES IDX 73 86 40 89 24 91 25 92 33 93 26 94 27 95 31 96 34 97 28 98
REMARK SMILES IDX 29 99 32 100 30 101 56 102 57 103 65 104 58 105 59 106
REMARK SMILES IDX 63 107 66 108 60 109 61 110 64 111 62 112 41 113 42 114
REMARK SMILES IDX 50 115 43 116 44 117 48 118 51 119 45 120 46 121 49 122
REMARK SMILES IDX 47 123
REMARK H PARENT 8 2 8 3 7 5 7 6 6 8 6 9 5 13 2 15 1 17 1 18 1 19 79 24 80 28
REMARK H PARENT 81 29 83 33 9 35 9 36 10 38 10 39 11 41 11 42 12 45 16 51
REMARK H PARENT 77 53 17 55 76 56 75 66 69 68 71 70 74 72 68 73 36 82 39 84
REMARK H PARENT 72 87 37 88 73 90
REMARK Flexibility Score: inf
ROOT
ATOM      1  C   UNL A   1      37.456  22.421  25.239  1.00  0.00    -0.052 C 
ATOM      2  H   UNL A   1      37.754  22.300  26.260  1.00  0.00     0.027 H 
ATOM      3  H   UNL A   1      38.254  22.742  24.602  1.00  0.00     0.027 H 
ENDROOT
BRANCH   1   4
ATOM      4  C   UNL A   1      36.385  23.522  25.181  1.00  0.00    -0.036 C 
ATOM      5  H   UNL A   1      36.268  23.933  26.162  1.00  0.00     0.028 H 
ATOM      6  H   UNL A   1      36.721  24.252  24.474  1.00  0.00     0.028 H 
BRANCH   4   7
ATOM      7  C   UNL A   1      35.023  23.017  24.699  1.00  0.00     0.017 C 
ATOM      8  H   UNL A   1      35.021  21.947  24.695  1.00  0.00     0.049 H 
ATOM      9  H   UNL A   1      34.259  23.375  25.356  1.00  0.00     0.049 H 
BRANCH   7  10
ATOM     10  N   UNL A   1      34.768  23.503  23.359  1.00  0.00    -0.356 N 
ATOM     11  C   UNL A   1      33.628  24.031  22.824  1.00  0.00     0.227 C 
ATOM     12  O   UNL A   1      33.583  24.115  21.595  1.00  0.00    -0.274 OA
ATOM     13  H   UNL A   1      35.532  23.443  22.741  1.00  0.00     0.163 HD
BRANCH  11  14
ATOM     14  C   UNL A   1      32.522  24.571  23.751  1.00  0.00     0.066 C 
ATOM     15  H   UNL A   1      32.453  23.987  24.644  1.00  0.00     0.045 H 
BRANCH  14  16
ATOM     16  C   UNL A   1      31.127  24.404  23.144  1.00  0.00    -0.049 C 
ATOM     17  H   UNL A   1      30.968  25.161  22.403  1.00  0.00     0.024 H 
ATOM     18  H   UNL A   1      30.389  24.498  23.913  1.00  0.00     0.024 H 
ATOM     19  H   UNL A   1      31.048  23.439  22.689  1.00  0.00     0.024 H 
ENDBRANCH  14  16
BRANCH  14  20
ATOM     20  C   UNL A   1      32.903  25.982  24.187  1.00  0.00     0.030 A 
ATOM     21  C   UNL A   1      33.521  26.832  23.339  1.00  0.00    -0.051 A 
ATOM     22  C   UNL A   1      32.594  26.487  25.575  1.00  0.00     0.258 A 
ATOM     23  C   UNL A   1      33.865  28.177  23.717  1.00  0.00    -0.045 A 
ATOM     24  H   UNL A   1      33.753  26.507  22.388  1.00  0.00     0.063 H 
ATOM     25  N   UNL A   1      33.065  27.750  25.893  1.00  0.00    -0.258 N 
ATOM     26  O   UNL A   1      31.987  25.797  26.389  1.00  0.00    -0.269 OA
ATOM     27  C   UNL A   1      33.652  28.589  24.969  1.00  0.00     0.013 A 
ATOM     28  H   UNL A   1      34.275  28.822  23.023  1.00  0.00     0.064 H 
ATOM     29  H   UNL A   1      33.928  29.543  25.248  1.00  0.00     0.082 H 
BRANCH  25  30
ATOM     30  C   UNL A   1      32.892  28.200  27.251  1.00  0.00     0.321 C 
ATOM     31  F   UNL A   1      33.940  28.997  27.598  1.00  0.00    -0.185 F 
ATOM     32  F   UNL A   1      31.781  28.977  27.341  1.00  0.00    -0.185 F 
ATOM     33  H   UNL A   1      32.818  27.339  27.882  1.00  0.00     0.131 H 
ENDBRANCH  25  30
ENDBRANCH  14  20
ENDBRANCH  11  14
ENDBRANCH   7  10
ENDBRANCH   4   7
ENDBRANCH   1   4
BRANCH   1  34
ATOM     34  C   UNL A   1      37.001  21.057  24.710  1.00  0.00    -0.052 C 
ATOM     35  H   UNL A   1      36.883  21.132  23.648  1.00  0.00     0.027 H 
ATOM     36  H   UNL A   1      36.089  20.822  25.217  1.00  0.00     0.027 H 
BRANCH  34  37
ATOM     37  C   UNL A   1      37.969  19.910  25.001  1.00  0.00    -0.036 C 
ATOM     38  H   UNL A   1      38.279  19.484  24.070  1.00  0.00     0.028 H 
ATOM     39  H   UNL A   1      37.446  19.210  25.618  1.00  0.00     0.028 H 
BRANCH  37  40
ATOM     40  C   UNL A   1      39.214  20.334  25.772  1.00  0.00     0.018 C 
ATOM     41  H   UNL A   1      38.919  20.687  26.738  1.00  0.00     0.049 H 
ATOM     42  H   UNL A   1      39.704  21.105  25.215  1.00  0.00     0.049 H 
BRANCH  40  43
ATOM     43  N   UNL A   1      40.149  19.231  25.937  1.00  0.00    -0.352 N 
ATOM     44  C   UNL A   1      41.507  19.276  26.125  1.00  0.00     0.251 C 
ATOM     45  H   UNL A   1      39.753  18.330  25.912  1.00  0.00     0.163 HD
ATOM     46  O   UNL A   1      42.188  18.259  26.032  1.00  0.00    -0.269 OA
BRANCH  44  47
ATOM     47  C   UNL A   1      42.149  20.570  26.423  1.00  0.00     0.039 A 
ATOM     48  C   UNL A   1      42.600  21.368  25.370  1.00  0.00    -0.049 A 
ATOM     49  C   UNL A   1      42.277  21.003  27.746  1.00  0.00    -0.049 A 
ATOM     50  C   UNL A   1      43.123  22.634  25.641  1.00  0.00    -0.053 A 
ATOM     51  H   UNL A   1      42.548  21.025  24.398  1.00  0.00     0.063 H 
ATOM     52  C   UNL A   1      42.723  22.292  28.007  1.00  0.00    -0.053 A 
ATOM     53  H   UNL A   1      42.041  20.367  28.524  1.00  0.00     0.063 H 
ATOM     54  C   UNL A   1      43.155  23.119  26.958  1.00  0.00    -0.014 A 
ATOM     55  H   UNL A   1      43.490  23.215  24.870  1.00  0.00     0.063 H 
ATOM     56  H   UNL A   1      42.737  22.643  28.978  1.00  0.00     0.063 H 
BRANCH  54  57
ATOM     57  C   UNL A   1      43.639  24.485  27.275  1.00  0.00     0.031 A 
ATOM     58  C   UNL A   1      42.669  25.525  27.757  1.00  0.00     0.074 A 
ATOM     59  C   UNL A   1      44.921  24.816  27.031  1.00  0.00     0.049 A 
ATOM     60  N   UNL A   1      42.856  26.806  27.958  1.00  0.00    -0.248 NA
ATOM     61  C   UNL A   1      41.294  25.070  28.012  1.00  0.00    -0.034 C 
ATOM     62  C   UNL A   1      45.943  23.905  26.517  1.00  0.00    -0.036 A 
ATOM     63  N   UNL A   1      45.574  26.017  27.155  1.00  0.00    -0.354 N 
ATOM     64  C   UNL A   1      41.620  27.310  28.337  1.00  0.00     0.074 A 
ATOM     65  C   UNL A   1      40.680  26.212  28.285  1.00  0.00    -0.034 C 
ATOM     66  H   UNL A   1      40.909  24.114  27.986  1.00  0.00     0.065 H 
ATOM     67  C   UNL A   1      47.095  24.578  26.371  1.00  0.00    -0.036 A 
ATOM     68  H   UNL A   1      45.802  22.905  26.302  1.00  0.00     0.065 H 
ATOM     69  C   UNL A   1      46.880  25.976  26.735  1.00  0.00     0.049 A 
ATOM     70  H   UNL A   1      45.147  26.828  27.511  1.00  0.00     0.167 HD
ATOM     71  C   UNL A   1      41.304  28.572  28.715  1.00  0.00     0.037 A 
ATOM     72  H   UNL A   1      39.663  26.306  28.438  1.00  0.00     0.065 H 
ATOM     73  H   UNL A   1      47.990  24.172  26.051  1.00  0.00     0.065 H 
ATOM     74  C   UNL A   1      47.795  26.959  26.629  1.00  0.00     0.037 A 
ATOM     75  C   UNL A   1      42.251  29.653  28.781  1.00  0.00     0.049 A 
ATOM     76  C   UNL A   1      47.424  28.356  27.043  1.00  0.00     0.074 A 
ATOM     77  C   UNL A   1      42.053  30.949  29.221  1.00  0.00    -0.036 A 
ATOM     78  N   UNL A   1      43.578  29.565  28.381  1.00  0.00    -0.354 N 
ATOM     79  N   UNL A   1      46.273  28.809  27.478  1.00  0.00    -0.248 NA
ATOM     80  C   UNL A   1      48.477  29.377  26.961  1.00  0.00    -0.034 C 
ATOM     81  C   UNL A   1      43.239  31.663  29.025  1.00  0.00    -0.036 A 
ATOM     82  H   UNL A   1      41.179  31.324  29.624  1.00  0.00     0.065 H 
ATOM     83  C   UNL A   1      44.199  30.794  28.530  1.00  0.00     0.049 A 
ATOM     84  H   UNL A   1      44.013  28.749  28.042  1.00  0.00     0.167 HD
ATOM     85  C   UNL A   1      46.468  30.158  27.746  1.00  0.00     0.074 A 
ATOM     86  C   UNL A   1      47.851  30.448  27.431  1.00  0.00    -0.034 C 
ATOM     87  H   UNL A   1      49.449  29.286  26.627  1.00  0.00     0.065 H 
ATOM     88  H   UNL A   1      43.376  32.667  29.217  1.00  0.00     0.065 H 
ATOM     89  C   UNL A   1      45.581  31.069  28.216  1.00  0.00     0.037 A 
ATOM     90  H   UNL A   1      48.294  31.372  27.555  1.00  0.00     0.065 H 
BRANCH  71  91
ATOM     91  C   UNL A   1      39.868  28.850  29.063  1.00  0.00     0.064 A 
ATOM     92  C   UNL A   1      39.376  28.689  30.368  1.00  0.00     0.173 A 
ATOM     93  C   UNL A   1      38.970  29.283  28.077  1.00  0.00     0.173 A 
ATOM     94  F   UNL A   1      40.189  28.269  31.351  1.00  0.00    -0.203 F 
ATOM     95  C   UNL A   1      38.032  28.902  30.660  1.00  0.00     0.198 A 
ATOM     96  C   UNL A   1      37.635  29.534  28.380  1.00  0.00     0.198 A 
ATOM     97  F   UNL A   1      39.386  29.463  26.814  1.00  0.00    -0.203 F 
ATOM     98  F   UNL A   1      37.571  28.669  31.898  1.00  0.00    -0.200 F 
ATOM     99  C   UNL A   1      37.162  29.328  29.667  1.00  0.00     0.200 A 
ATOM    100  F   UNL A   1      36.800  29.961  27.422  1.00  0.00    -0.200 F 
ATOM    101  F   UNL A   1      35.868  29.530  29.949  1.00  0.00    -0.200 F 
ENDBRANCH  71  91
BRANCH  74 102
ATOM    102  C   UNL A   1      49.150  26.640  26.109  1.00  0.00     0.064 A 
ATOM    103  C   UNL A   1      50.124  26.058  26.932  1.00  0.00     0.173 A 
ATOM    104  C   UNL A   1      49.486  26.876  24.766  1.00  0.00     0.173 A 
ATOM    105  F   UNL A   1      49.856  25.830  28.226  1.00  0.00    -0.203 F 
ATOM    106  C   UNL A   1      51.384  25.730  26.435  1.00  0.00     0.198 A 
ATOM    107  C   UNL A   1      50.736  26.521  24.264  1.00  0.00     0.198 A 
ATOM    108  F   UNL A   1      48.588  27.423  23.936  1.00  0.00    -0.203 F 
ATOM    109  F   UNL A   1      52.306  25.203  27.251  1.00  0.00    -0.200 F 
ATOM    110  C   UNL A   1      51.686  25.953  25.100  1.00  0.00     0.200 A 
ATOM    111  F   UNL A   1      51.016  26.720  22.969  1.00  0.00    -0.200 F 
ATOM    112  F   UNL A   1      52.892  25.622  24.618  1.00  0.00    -0.200 F 
ENDBRANCH  74 102
BRANCH  89 113
ATOM    113  C   UNL A   1      46.077  32.465  28.461  1.00  0.00     0.064 A 
ATOM    114  C   UNL A   1      45.982  33.465  27.482  1.00  0.00     0.173 A 
ATOM    115  C   UNL A   1      46.578  32.825  29.721  1.00  0.00     0.173 A 
ATOM    116  F   UNL A   1      45.524  33.170  26.257  1.00  0.00    -0.203 F 
ATOM    117  C   UNL A   1      46.380  34.771  27.755  1.00  0.00     0.198 A 
ATOM    118  C   UNL A   1      46.946  34.138  30.001  1.00  0.00     0.198 A 
ATOM    119  F   UNL A   1      46.684  31.906  30.694  1.00  0.00    -0.203 F 
ATOM    120  F   UNL A   1      46.311  35.705  26.796  1.00  0.00    -0.200 F 
ATOM    121  C   UNL A   1      46.850  35.109  29.017  1.00  0.00     0.200 A 
ATOM    122  F   UNL A   1      47.383  34.464  31.225  1.00  0.00    -0.200 F 
ATOM    123  F   UNL A   1      47.210  36.372  29.283  1.00  0.00    -0.200 F 
ENDBRANCH  89 113
ENDBRANCH  54  57
ENDBRANCH  44  47
ENDBRANCH  40  43
ENDBRANCH  37  40
ENDBRANCH  34  37
ENDBRANCH   1  34
TORSDOF 16
ENDMDL
