MODEL 1
REMARK VINA RESULT:     -13.8      0.000      0.000
REMARK SMILES O=C(NCCCCCCNC(=O)c1ccccc1Nc1cccc(S(F)(F)(F)(F)F)c1)c1ccc(-c2c3nc(c(-c4c(F)c(F)c(F)c(F)c4F)c4ccc([nH]4)c(-c4c(F)c(F)c(F)c(F)c4F)c4nc(c(-c5c(F)c(F)c(F)c(F)c5F)c5ccc2[nH]5)C=C4)C=C3)cc1
REMARK SMILES IDX 7 1 6 4 5 7 4 10 3 13 1 14 2 15 32 17 33 18 94 19 34 20
REMARK SMILES IDX 93 22 35 24 36 27 37 28 87 29 38 30 92 31 86 32 88 33 39 34
REMARK SMILES IDX 91 35 85 37 84 39 40 41 72 44 52 45 71 46 53 47 56 48 70 49
REMARK SMILES IDX 89 50 54 51 55 53 69 55 90 56 57 59 41 61 42 62 50 63 43 64
REMARK SMILES IDX 44 65 48 66 51 67 45 68 46 69 49 70 47 71 73 72 74 73 82 74
REMARK SMILES IDX 75 75 76 76 80 77 83 78 77 79 78 80 81 81 79 82 58 83 59 84
REMARK SMILES IDX 67 85 60 86 61 87 65 88 68 89 62 90 63 91 66 92 64 93 8 94
REMARK SMILES IDX 9 97 10 100 11 101 12 103 13 104 14 105 18 106 15 107 17 109
REMARK SMILES IDX 16 110 19 114 20 116 21 117 31 118 22 119 24 121 23 123
REMARK SMILES IDX 25 126 26 127 27 128 28 129 29 130 30 131
REMARK H PARENT 7 2 7 3 6 5 6 6 5 8 5 9 4 11 4 12 3 16 33 21 94 23 34 25 93 26
REMARK H PARENT 92 36 86 38 88 40 91 42 85 43 53 52 56 54 89 57 54 58 90 60
REMARK H PARENT 8 95 8 96 9 98 9 99 10 102 14 108 15 111 17 112 16 113 19 115
REMARK H PARENT 21 120 31 122 22 124 23 125
REMARK Flexibility Score: inf
ROOT
ATOM      1  C   UNL A   1      33.052  30.332  27.141  1.00  0.00    -0.052 C 
ATOM      2  H   UNL A   1      33.020  29.831  28.085  1.00  0.00     0.027 H 
ATOM      3  H   UNL A   1      33.622  31.232  27.235  1.00  0.00     0.027 H 
ENDROOT
BRANCH   1   4
ATOM      4  C   UNL A   1      31.637  30.672  26.701  1.00  0.00    -0.052 C 
ATOM      5  H   UNL A   1      31.514  30.419  25.668  1.00  0.00     0.027 H 
ATOM      6  H   UNL A   1      30.937  30.117  27.290  1.00  0.00     0.027 H 
BRANCH   4   7
ATOM      7  C   UNL A   1      31.391  32.160  26.891  1.00  0.00    -0.036 C 
ATOM      8  H   UNL A   1      30.881  32.549  26.035  1.00  0.00     0.028 H 
ATOM      9  H   UNL A   1      30.793  32.314  27.764  1.00  0.00     0.028 H 
BRANCH   7  10
ATOM     10  C   UNL A   1      32.722  32.876  27.055  1.00  0.00     0.018 C 
ATOM     11  H   UNL A   1      33.355  32.308  27.704  1.00  0.00     0.049 H 
ATOM     12  H   UNL A   1      33.192  32.978  26.099  1.00  0.00     0.049 H 
BRANCH  10  13
ATOM     13  N   UNL A   1      32.494  34.208  27.634  1.00  0.00    -0.352 N 
ATOM     14  O   UNL A   1      33.179  35.859  29.200  1.00  0.00    -0.269 OA
ATOM     15  C   UNL A   1      33.376  34.707  28.699  1.00  0.00     0.251 C 
ATOM     16  H   UNL A   1      31.751  34.766  27.308  1.00  0.00     0.163 HD
BRANCH  15  17
ATOM     17  C   UNL A   1      34.524  33.847  29.200  1.00  0.00     0.039 A 
ATOM     18  C   UNL A   1      35.789  34.320  28.892  1.00  0.00    -0.049 A 
ATOM     19  C   UNL A   1      34.357  32.768  29.957  1.00  0.00    -0.049 A 
ATOM     20  C   UNL A   1      36.830  33.412  29.197  1.00  0.00    -0.053 A 
ATOM     21  H   UNL A   1      35.957  35.251  28.480  1.00  0.00     0.063 H 
ATOM     22  C   UNL A   1      35.435  32.002  30.330  1.00  0.00    -0.053 A 
ATOM     23  H   UNL A   1      33.409  32.504  30.268  1.00  0.00     0.063 H 
ATOM     24  C   UNL A   1      36.710  32.379  30.011  1.00  0.00    -0.014 A 
ATOM     25  H   UNL A   1      37.748  33.567  28.751  1.00  0.00     0.063 H 
ATOM     26  H   UNL A   1      35.280  31.130  30.860  1.00  0.00     0.063 H 
BRANCH  24  27
ATOM     27  C   UNL A   1      37.923  31.648  30.561  1.00  0.00     0.031 A 
ATOM     28  C   UNL A   1      38.606  30.691  29.807  1.00  0.00     0.074 A 
ATOM     29  C   UNL A   1      38.213  31.942  31.882  1.00  0.00     0.049 A 
ATOM     30  N   UNL A   1      39.641  29.942  30.188  1.00  0.00    -0.248 NA
ATOM     31  C   UNL A   1      38.277  30.352  28.415  1.00  0.00    -0.034 C 
ATOM     32  C   UNL A   1      37.535  32.911  32.647  1.00  0.00    -0.036 A 
ATOM     33  N   UNL A   1      39.181  31.375  32.682  1.00  0.00    -0.354 N 
ATOM     34  C   UNL A   1      40.037  29.157  29.184  1.00  0.00     0.074 A 
ATOM     35  C   UNL A   1      39.161  29.405  28.031  1.00  0.00    -0.034 C 
ATOM     36  H   UNL A   1      37.519  30.757  27.843  1.00  0.00     0.065 H 
ATOM     37  C   UNL A   1      38.077  32.919  33.894  1.00  0.00    -0.036 A 
ATOM     38  H   UNL A   1      36.761  33.510  32.320  1.00  0.00     0.065 H 
ATOM     39  C   UNL A   1      39.104  31.957  33.928  1.00  0.00     0.049 A 
ATOM     40  H   UNL A   1      39.817  30.675  32.411  1.00  0.00     0.167 HD
ATOM     41  C   UNL A   1      41.094  28.246  29.184  1.00  0.00     0.037 A 
ATOM     42  H   UNL A   1      39.211  28.946  27.108  1.00  0.00     0.065 H 
ATOM     43  H   UNL A   1      37.786  33.525  34.677  1.00  0.00     0.065 H 
ATOM     44  C   UNL A   1      39.875  31.676  35.045  1.00  0.00     0.037 A 
ATOM     45  C   UNL A   1      41.893  27.997  30.289  1.00  0.00     0.049 A 
ATOM     46  C   UNL A   1      40.896  30.722  35.063  1.00  0.00     0.074 A 
ATOM     47  C   UNL A   1      42.968  27.087  30.302  1.00  0.00    -0.036 A 
ATOM     48  N   UNL A   1      41.800  28.561  31.541  1.00  0.00    -0.354 N 
ATOM     49  N   UNL A   1      41.316  29.967  34.047  1.00  0.00    -0.248 NA
ATOM     50  C   UNL A   1      41.697  30.394  36.248  1.00  0.00    -0.034 C 
ATOM     51  C   UNL A   1      43.510  27.095  31.550  1.00  0.00    -0.036 A 
ATOM     52  H   UNL A   1      43.288  26.514  29.506  1.00  0.00     0.065 H 
ATOM     53  C   UNL A   1      42.782  28.010  32.335  1.00  0.00     0.049 A 
ATOM     54  H   UNL A   1      41.146  29.240  31.822  1.00  0.00     0.167 HD
ATOM     55  C   UNL A   1      42.325  29.187  34.442  1.00  0.00     0.074 A 
ATOM     56  C   UNL A   1      42.580  29.445  35.865  1.00  0.00    -0.034 C 
ATOM     57  H   UNL A   1      41.605  30.807  37.190  1.00  0.00     0.065 H 
ATOM     58  H   UNL A   1      44.314  26.530  31.866  1.00  0.00     0.065 H 
ATOM     59  C   UNL A   1      43.045  28.273  33.670  1.00  0.00     0.037 A 
ATOM     60  H   UNL A   1      43.294  28.992  36.457  1.00  0.00     0.065 H 
BRANCH  41  61
ATOM     61  C   UNL A   1      41.384  27.485  27.901  1.00  0.00     0.064 A 
ATOM     62  C   UNL A   1      42.243  27.959  26.924  1.00  0.00     0.173 A 
ATOM     63  C   UNL A   1      40.878  26.258  27.837  1.00  0.00     0.173 A 
ATOM     64  F   UNL A   1      42.967  29.065  27.068  1.00  0.00    -0.203 F 
ATOM     65  C   UNL A   1      42.281  27.160  25.756  1.00  0.00     0.198 A 
ATOM     66  C   UNL A   1      41.068  25.481  26.721  1.00  0.00     0.198 A 
ATOM     67  F   UNL A   1      40.180  25.781  28.863  1.00  0.00    -0.203 F 
ATOM     68  F   UNL A   1      42.777  27.704  24.649  1.00  0.00    -0.200 F 
ATOM     69  C   UNL A   1      41.856  25.911  25.690  1.00  0.00     0.200 A 
ATOM     70  F   UNL A   1      40.476  24.292  26.642  1.00  0.00    -0.200 F 
ATOM     71  F   UNL A   1      42.179  25.114  24.675  1.00  0.00    -0.200 F 
ENDBRANCH  41  61
BRANCH  44  72
ATOM     72  C   UNL A   1      39.595  32.450  36.323  1.00  0.00     0.064 A 
ATOM     73  C   UNL A   1      38.502  32.139  37.115  1.00  0.00     0.173 A 
ATOM     74  C   UNL A   1      40.334  33.527  36.561  1.00  0.00     0.173 A 
ATOM     75  F   UNL A   1      37.893  30.957  37.078  1.00  0.00    -0.203 F 
ATOM     76  C   UNL A   1      38.093  33.192  37.967  1.00  0.00     0.198 A 
ATOM     77  C   UNL A   1      39.944  34.448  37.505  1.00  0.00     0.198 A 
ATOM     78  F   UNL A   1      41.460  33.718  35.881  1.00  0.00    -0.203 F 
ATOM     79  F   UNL A   1      36.869  33.128  38.485  1.00  0.00    -0.200 F 
ATOM     80  C   UNL A   1      38.840  34.234  38.282  1.00  0.00     0.200 A 
ATOM     81  F   UNL A   1      40.651  35.564  37.662  1.00  0.00    -0.200 F 
ATOM     82  F   UNL A   1      38.536  35.032  39.302  1.00  0.00    -0.200 F 
ENDBRANCH  44  72
BRANCH  59  83
ATOM     83  C   UNL A   1      44.188  27.523  34.335  1.00  0.00     0.064 A 
ATOM     84  C   UNL A   1      43.828  26.326  34.932  1.00  0.00     0.173 A 
ATOM     85  C   UNL A   1      45.454  27.919  34.294  1.00  0.00     0.173 A 
ATOM     86  F   UNL A   1      42.630  25.770  34.779  1.00  0.00    -0.203 F 
ATOM     87  C   UNL A   1      44.851  25.749  35.721  1.00  0.00     0.198 A 
ATOM     88  C   UNL A   1      46.426  27.229  34.979  1.00  0.00     0.198 A 
ATOM     89  F   UNL A   1      45.785  28.994  33.585  1.00  0.00    -0.203 F 
ATOM     90  F   UNL A   1      44.501  24.819  36.604  1.00  0.00    -0.200 F 
ATOM     91  C   UNL A   1      46.130  26.070  35.641  1.00  0.00     0.200 A 
ATOM     92  F   UNL A   1      47.671  27.696  34.998  1.00  0.00    -0.200 F 
ATOM     93  F   UNL A   1      47.079  25.307  36.175  1.00  0.00    -0.200 F 
ENDBRANCH  59  83
ENDBRANCH  24  27
ENDBRANCH  15  17
ENDBRANCH  10  13
ENDBRANCH   7  10
ENDBRANCH   4   7
ENDBRANCH   1   4
BRANCH   1  94
ATOM     94  C   UNL A   1      33.701  29.426  26.107  1.00  0.00    -0.036 C 
ATOM     95  H   UNL A   1      33.876  28.461  26.538  1.00  0.00     0.028 H 
ATOM     96  H   UNL A   1      34.632  29.851  25.794  1.00  0.00     0.028 H 
BRANCH  94  97
ATOM     97  C   UNL A   1      32.779  29.285  24.907  1.00  0.00     0.018 C 
ATOM     98  H   UNL A   1      32.042  30.061  24.929  1.00  0.00     0.049 H 
ATOM     99  H   UNL A   1      32.294  28.332  24.940  1.00  0.00     0.049 H 
BRANCH  97 100
ATOM    100  N   UNL A   1      33.566  29.391  23.670  1.00  0.00    -0.352 N 
ATOM    101  C   UNL A   1      33.744  28.214  22.808  1.00  0.00     0.253 C 
ATOM    102  H   UNL A   1      33.974  30.251  23.419  1.00  0.00     0.163 HD
ATOM    103  O   UNL A   1      34.425  28.306  21.739  1.00  0.00    -0.269 OA
BRANCH 101 104
ATOM    104  C   UNL A   1      33.114  26.886  23.196  1.00  0.00     0.063 A 
ATOM    105  C   UNL A   1      33.782  26.048  24.073  1.00  0.00    -0.047 A 
ATOM    106  C   UNL A   1      31.933  26.552  22.688  1.00  0.00     0.051 A 
ATOM    107  C   UNL A   1      33.251  24.737  24.130  1.00  0.00    -0.061 A 
ATOM    108  H   UNL A   1      34.593  26.351  24.634  1.00  0.00     0.063 H 
ATOM    109  C   UNL A   1      31.411  25.298  22.896  1.00  0.00    -0.038 A 
ATOM    110  C   UNL A   1      32.047  24.397  23.704  1.00  0.00    -0.060 A 
ATOM    111  H   UNL A   1      33.845  23.995  24.531  1.00  0.00     0.062 H 
ATOM    112  H   UNL A   1      30.526  25.033  22.437  1.00  0.00     0.064 H 
ATOM    113  H   UNL A   1      31.611  23.501  23.967  1.00  0.00     0.062 H 
BRANCH 106 114
ATOM    114  N   UNL A   1      31.178  27.533  21.896  1.00  0.00    -0.355 N 
ATOM    115  H   UNL A   1      31.454  27.738  20.974  1.00  0.00     0.167 HD
BRANCH 114 116
ATOM    116  C   UNL A   1      30.009  28.206  22.479  1.00  0.00     0.040 A 
ATOM    117  C   UNL A   1      29.013  27.439  23.059  1.00  0.00    -0.039 A 
ATOM    118  C   UNL A   1      29.942  29.532  22.477  1.00  0.00    -0.016 A 
ATOM    119  C   UNL A   1      27.833  28.161  23.361  1.00  0.00    -0.059 A 
ATOM    120  H   UNL A   1      29.120  26.431  23.254  1.00  0.00     0.064 H 
ATOM    121  C   UNL A   1      28.809  30.178  22.913  1.00  0.00     0.109 A 
ATOM    122  H   UNL A   1      30.748  30.084  22.145  1.00  0.00     0.066 H 
ATOM    123  C   UNL A   1      27.762  29.477  23.443  1.00  0.00    -0.039 A 
ATOM    124  H   UNL A   1      26.969  27.622  23.527  1.00  0.00     0.062 H 
ATOM    125  H   UNL A   1      26.959  29.950  23.886  1.00  0.00     0.064 H 
BRANCH 121 126
ATOM    126  S   UNL A   1      28.703  31.980  22.784  1.00  0.00     0.310 S 
ATOM    127  F   UNL A   1      27.278  32.018  23.480  1.00  0.00    -0.094 F 
ATOM    128  F   UNL A   1      27.951  31.835  21.408  1.00  0.00    -0.094 F 
ATOM    129  F   UNL A   1      28.633  33.531  22.692  1.00  0.00    -0.094 F 
ATOM    130  F   UNL A   1      29.330  32.103  24.229  1.00  0.00    -0.094 F 
ATOM    131  F   UNL A   1      28.681  30.408  22.945  1.00  0.00    -0.094 F 
ENDBRANCH 121 126
ENDBRANCH 114 116
ENDBRANCH 106 114
ENDBRANCH 101 104
ENDBRANCH  97 100
ENDBRANCH  94  97
ENDBRANCH   1  94
TORSDOF 16
ENDMDL
MODEL 2
REMARK VINA RESULT:     -13.5      0.619      1.318
REMARK SMILES O=C(NCCCCCCNC(=O)c1ccccc1Nc1cccc(S(F)(F)(F)(F)F)c1)c1ccc(-c2c3nc(c(-c4c(F)c(F)c(F)c(F)c4F)c4ccc([nH]4)c(-c4c(F)c(F)c(F)c(F)c4F)c4nc(c(-c5c(F)c(F)c(F)c(F)c5F)c5ccc2[nH]5)C=C4)C=C3)cc1
REMARK SMILES IDX 7 1 6 4 5 7 4 10 3 13 1 14 2 15 32 17 33 18 94 19 34 20
REMARK SMILES IDX 93 22 35 24 36 27 37 28 87 29 38 30 92 31 86 32 88 33 39 34
REMARK SMILES IDX 91 35 85 37 84 39 40 41 72 44 52 45 71 46 53 47 56 48 70 49
REMARK SMILES IDX 89 50 54 51 55 53 69 55 90 56 57 59 41 61 42 62 50 63 43 64
REMARK SMILES IDX 44 65 48 66 51 67 45 68 46 69 49 70 47 71 73 72 74 73 82 74
REMARK SMILES IDX 75 75 76 76 80 77 83 78 77 79 78 80 81 81 79 82 58 83 59 84
REMARK SMILES IDX 67 85 60 86 61 87 65 88 68 89 62 90 63 91 66 92 64 93 8 94
REMARK SMILES IDX 9 97 10 100 11 101 12 103 13 104 14 105 18 106 15 107 17 109
REMARK SMILES IDX 16 110 19 114 20 116 21 117 31 118 22 119 24 121 23 123
REMARK SMILES IDX 25 126 26 127 27 128 28 129 29 130 30 131
REMARK H PARENT 7 2 7 3 6 5 6 6 5 8 5 9 4 11 4 12 3 16 33 21 94 23 34 25 93 26
REMARK H PARENT 92 36 86 38 88 40 91 42 85 43 53 52 56 54 89 57 54 58 90 60
REMARK H PARENT 8 95 8 96 9 98 9 99 10 102 14 108 15 111 17 112 16 113 19 115
REMARK H PARENT 21 120 31 122 22 124 23 125
REMARK Flexibility Score: inf
ROOT
ATOM      1  C   UNL A   1      33.285  30.450  27.111  1.00  0.00    -0.052 C 
ATOM      2  H   UNL A   1      33.463  30.163  28.126  1.00  0.00     0.027 H 
ATOM      3  H   UNL A   1      33.765  31.386  26.916  1.00  0.00     0.027 H 
ENDROOT
BRANCH   1   4
ATOM      4  C   UNL A   1      31.788  30.592  26.882  1.00  0.00    -0.052 C 
ATOM      5  H   UNL A   1      31.520  30.106  25.967  1.00  0.00     0.027 H 
ATOM      6  H   UNL A   1      31.258  30.140  27.694  1.00  0.00     0.027 H 
BRANCH   4   7
ATOM      7  C   UNL A   1      31.425  32.065  26.798  1.00  0.00    -0.036 C 
ATOM      8  H   UNL A   1      31.099  32.297  25.806  1.00  0.00     0.028 H 
ATOM      9  H   UNL A   1      30.639  32.279  27.491  1.00  0.00     0.028 H 
BRANCH   7  10
ATOM     10  C   UNL A   1      32.644  32.907  27.139  1.00  0.00     0.018 C 
ATOM     11  H   UNL A   1      33.224  32.408  27.888  1.00  0.00     0.049 H 
ATOM     12  H   UNL A   1      33.240  33.044  26.261  1.00  0.00     0.049 H 
BRANCH  10  13
ATOM     13  N   UNL A   1      32.210  34.216  27.647  1.00  0.00    -0.352 N 
ATOM     14  O   UNL A   1      32.629  36.040  29.111  1.00  0.00    -0.269 OA
ATOM     15  C   UNL A   1      33.005  34.908  28.672  1.00  0.00     0.251 C 
ATOM     16  H   UNL A   1      31.387  34.630  27.300  1.00  0.00     0.163 HD
BRANCH  15  17
ATOM     17  C   UNL A   1      34.276  34.269  29.207  1.00  0.00     0.039 A 
ATOM     18  C   UNL A   1      34.083  33.317  30.195  1.00  0.00    -0.049 A 
ATOM     19  C   UNL A   1      35.485  34.519  28.717  1.00  0.00    -0.049 A 
ATOM     20  C   UNL A   1      35.280  32.880  30.810  1.00  0.00    -0.053 A 
ATOM     21  H   UNL A   1      33.151  32.959  30.457  1.00  0.00     0.063 H 
ATOM     22  C   UNL A   1      36.600  33.950  29.284  1.00  0.00    -0.053 A 
ATOM     23  H   UNL A   1      35.588  35.145  27.904  1.00  0.00     0.063 H 
ATOM     24  C   UNL A   1      36.488  33.045  30.303  1.00  0.00    -0.014 A 
ATOM     25  H   UNL A   1      35.203  32.398  31.720  1.00  0.00     0.063 H 
ATOM     26  H   UNL A   1      37.536  34.208  28.936  1.00  0.00     0.063 H 
BRANCH  24  27
ATOM     27  C   UNL A   1      37.687  32.271  30.824  1.00  0.00     0.031 A 
ATOM     28  C   UNL A   1      38.296  31.269  30.067  1.00  0.00     0.074 A 
ATOM     29  C   UNL A   1      38.042  32.580  32.126  1.00  0.00     0.049 A 
ATOM     30  N   UNL A   1      39.311  30.481  30.425  1.00  0.00    -0.248 NA
ATOM     31  C   UNL A   1      37.898  30.915  28.696  1.00  0.00    -0.034 C 
ATOM     32  C   UNL A   1      37.439  33.595  32.894  1.00  0.00    -0.036 A 
ATOM     33  N   UNL A   1      39.013  31.986  32.901  1.00  0.00    -0.354 N 
ATOM     34  C   UNL A   1      39.631  29.657  29.425  1.00  0.00     0.074 A 
ATOM     35  C   UNL A   1      38.723  29.921  28.301  1.00  0.00    -0.034 C 
ATOM     36  H   UNL A   1      37.138  31.342  28.145  1.00  0.00     0.065 H 
ATOM     37  C   UNL A   1      38.029  33.605  34.118  1.00  0.00    -0.036 A 
ATOM     38  H   UNL A   1      36.680  34.222  32.582  1.00  0.00     0.065 H 
ATOM     39  C   UNL A   1      39.012  32.598  34.135  1.00  0.00     0.049 A 
ATOM     40  H   UNL A   1      39.606  31.252  32.622  1.00  0.00     0.167 HD
ATOM     41  C   UNL A   1      40.646  28.699  29.405  1.00  0.00     0.037 A 
ATOM     42  H   UNL A   1      38.716  29.440  27.388  1.00  0.00     0.065 H 
ATOM     43  H   UNL A   1      37.796  34.240  34.898  1.00  0.00     0.065 H 
ATOM     44  C   UNL A   1      39.813  32.306  35.228  1.00  0.00     0.037 A 
ATOM     45  C   UNL A   1      41.476  28.437  30.484  1.00  0.00     0.049 A 
ATOM     46  C   UNL A   1      40.789  31.307  35.229  1.00  0.00     0.074 A 
ATOM     47  C   UNL A   1      42.507  27.480  30.478  1.00  0.00    -0.036 A 
ATOM     48  N   UNL A   1      41.457  29.031  31.726  1.00  0.00    -0.354 N 
ATOM     49  N   UNL A   1      41.135  30.511  34.216  1.00  0.00    -0.248 NA
ATOM     50  C   UNL A   1      41.621  30.967  36.390  1.00  0.00    -0.034 C 
ATOM     51  C   UNL A   1      43.099  27.490  31.703  1.00  0.00    -0.036 A 
ATOM     52  H   UNL A   1      42.770  26.876  29.683  1.00  0.00     0.065 H 
ATOM     53  C   UNL A   1      42.444  28.453  32.494  1.00  0.00     0.049 A 
ATOM     54  H   UNL A   1      40.845  29.746  32.015  1.00  0.00     0.167 HD
ATOM     55  C   UNL A   1      42.123  29.694  34.589  1.00  0.00     0.074 A 
ATOM     56  C   UNL A   1      42.445  29.971  35.995  1.00  0.00    -0.034 C 
ATOM     57  H   UNL A   1      41.585  31.404  37.325  1.00  0.00     0.065 H 
ATOM     58  H   UNL A   1      43.888  26.895  32.001  1.00  0.00     0.065 H 
ATOM     59  C   UNL A   1      42.770  28.733  33.812  1.00  0.00     0.037 A 
ATOM     60  H   UNL A   1      43.160  29.498  36.570  1.00  0.00     0.065 H 
BRANCH  41  61
ATOM     61  C   UNL A   1      40.851  27.898  28.130  1.00  0.00     0.064 A 
ATOM     62  C   UNL A   1      41.754  28.267  27.148  1.00  0.00     0.173 A 
ATOM     63  C   UNL A   1      40.215  26.733  28.079  1.00  0.00     0.173 A 
ATOM     64  F   UNL A   1      42.593  29.291  27.281  1.00  0.00    -0.203 F 
ATOM     65  C   UNL A   1      41.704  27.457  25.989  1.00  0.00     0.198 A 
ATOM     66  C   UNL A   1      40.319  25.928  26.970  1.00  0.00     0.198 A 
ATOM     67  F   UNL A   1      39.471  26.343  29.109  1.00  0.00    -0.203 F 
ATOM     68  F   UNL A   1      42.255  27.934  24.876  1.00  0.00    -0.200 F 
ATOM     69  C   UNL A   1      41.148  26.260  25.935  1.00  0.00     0.200 A 
ATOM     70  F   UNL A   1      39.603  24.809  26.904  1.00  0.00    -0.200 F 
ATOM     71  F   UNL A   1      41.383  25.423  24.928  1.00  0.00    -0.200 F 
ENDBRANCH  41  61
BRANCH  44  72
ATOM     72  C   UNL A   1      39.618  33.118  36.498  1.00  0.00     0.064 A 
ATOM     73  C   UNL A   1      40.404  34.230  36.756  1.00  0.00     0.173 A 
ATOM     74  C   UNL A   1      38.790  32.632  37.415  1.00  0.00     0.173 A 
ATOM     75  F   UNL A   1      41.048  34.898  35.804  1.00  0.00    -0.203 F 
ATOM     76  C   UNL A   1      40.458  34.589  38.123  1.00  0.00     0.198 A 
ATOM     77  C   UNL A   1      38.803  33.124  38.699  1.00  0.00     0.198 A 
ATOM     78  F   UNL A   1      37.943  31.661  37.090  1.00  0.00    -0.203 F 
ATOM     79  F   UNL A   1      41.444  35.392  38.513  1.00  0.00    -0.200 F 
ATOM     80  C   UNL A   1      39.598  34.182  39.039  1.00  0.00     0.200 A 
ATOM     81  F   UNL A   1      38.030  32.561  39.623  1.00  0.00    -0.200 F 
ATOM     82  F   UNL A   1      39.510  34.772  40.228  1.00  0.00    -0.200 F 
ENDBRANCH  44  72
BRANCH  59  83
ATOM     83  C   UNL A   1      43.903  27.945  34.449  1.00  0.00     0.064 A 
ATOM     84  C   UNL A   1      43.522  26.750  35.037  1.00  0.00     0.173 A 
ATOM     85  C   UNL A   1      45.179  28.310  34.395  1.00  0.00     0.173 A 
ATOM     86  F   UNL A   1      42.308  26.227  34.896  1.00  0.00    -0.203 F 
ATOM     87  C   UNL A   1      44.542  26.137  35.804  1.00  0.00     0.198 A 
ATOM     88  C   UNL A   1      46.142  27.586  35.056  1.00  0.00     0.198 A 
ATOM     89  F   UNL A   1      45.527  29.385  33.693  1.00  0.00    -0.203 F 
ATOM     90  F   UNL A   1      44.182  25.205  36.680  1.00  0.00    -0.200 F 
ATOM     91  C   UNL A   1      45.827  26.426  35.707  1.00  0.00     0.200 A 
ATOM     92  F   UNL A   1      47.400  28.021  35.061  1.00  0.00    -0.200 F 
ATOM     93  F   UNL A   1      46.764  25.633  36.218  1.00  0.00    -0.200 F 
ENDBRANCH  59  83
ENDBRANCH  24  27
ENDBRANCH  15  17
ENDBRANCH  10  13
ENDBRANCH   7  10
ENDBRANCH   4   7
ENDBRANCH   1   4
BRANCH   1  94
ATOM     94  C   UNL A   1      33.843  29.388  26.178  1.00  0.00    -0.036 C 
ATOM     95  H   UNL A   1      33.943  28.464  26.709  1.00  0.00     0.028 H 
ATOM     96  H   UNL A   1      34.801  29.698  25.817  1.00  0.00     0.028 H 
BRANCH  94  97
ATOM     97  C   UNL A   1      32.896  29.197  25.004  1.00  0.00     0.018 C 
ATOM     98  H   UNL A   1      32.120  29.932  25.047  1.00  0.00     0.049 H 
ATOM     99  H   UNL A   1      32.464  28.219  25.049  1.00  0.00     0.049 H 
BRANCH  97 100
ATOM    100  N   UNL A   1      33.642  29.347  23.745  1.00  0.00    -0.352 N 
ATOM    101  C   UNL A   1      33.763  28.208  22.823  1.00  0.00     0.253 C 
ATOM    102  H   UNL A   1      34.059  30.209  23.520  1.00  0.00     0.163 HD
ATOM    103  O   UNL A   1      34.407  28.338  21.735  1.00  0.00    -0.269 OA
BRANCH 101 104
ATOM    104  C   UNL A   1      33.117  26.877  23.171  1.00  0.00     0.063 A 
ATOM    105  C   UNL A   1      33.771  26.010  24.031  1.00  0.00    -0.047 A 
ATOM    106  C   UNL A   1      31.938  26.568  22.645  1.00  0.00     0.051 A 
ATOM    107  C   UNL A   1      33.227  24.703  24.049  1.00  0.00    -0.061 A 
ATOM    108  H   UNL A   1      34.581  26.290  24.605  1.00  0.00     0.063 H 
ATOM    109  C   UNL A   1      31.403  25.313  22.816  1.00  0.00    -0.038 A 
ATOM    110  C   UNL A   1      32.024  24.385  23.605  1.00  0.00    -0.060 A 
ATOM    111  H   UNL A   1      33.812  23.945  24.434  1.00  0.00     0.062 H 
ATOM    112  H   UNL A   1      30.520  25.068  22.343  1.00  0.00     0.064 H 
ATOM    113  H   UNL A   1      31.578  23.486  23.841  1.00  0.00     0.062 H 
BRANCH 106 114
ATOM    114  N   UNL A   1      31.198  27.576  21.873  1.00  0.00    -0.355 N 
ATOM    115  H   UNL A   1      31.486  27.806  20.961  1.00  0.00     0.167 HD
BRANCH 114 116
ATOM    116  C   UNL A   1      30.026  28.239  22.463  1.00  0.00     0.040 A 
ATOM    117  C   UNL A   1      29.037  27.464  23.043  1.00  0.00    -0.039 A 
ATOM    118  C   UNL A   1      29.952  29.565  22.466  1.00  0.00    -0.016 A 
ATOM    119  C   UNL A   1      27.854  28.177  23.351  1.00  0.00    -0.059 A 
ATOM    120  H   UNL A   1      29.151  26.456  23.233  1.00  0.00     0.064 H 
ATOM    121  C   UNL A   1      28.816  30.202  22.908  1.00  0.00     0.109 A 
ATOM    122  H   UNL A   1      30.753  30.123  22.133  1.00  0.00     0.066 H 
ATOM    123  C   UNL A   1      27.775  29.492  23.439  1.00  0.00    -0.039 A 
ATOM    124  H   UNL A   1      26.994  27.632  23.518  1.00  0.00     0.062 H 
ATOM    125  H   UNL A   1      26.970  29.959  23.885  1.00  0.00     0.064 H 
BRANCH 121 126
ATOM    126  S   UNL A   1      28.698  32.003  22.786  1.00  0.00     0.310 S 
ATOM    127  F   UNL A   1      27.268  32.029  23.471  1.00  0.00    -0.094 F 
ATOM    128  F   UNL A   1      27.957  31.859  21.403  1.00  0.00    -0.094 F 
ATOM    129  F   UNL A   1      28.617  33.554  22.700  1.00  0.00    -0.094 F 
ATOM    130  F   UNL A   1      29.313  32.124  24.235  1.00  0.00    -0.094 F 
ATOM    131  F   UNL A   1      28.686  30.430  22.939  1.00  0.00    -0.094 F 
ENDBRANCH 121 126
ENDBRANCH 114 116
ENDBRANCH 106 114
ENDBRANCH 101 104
ENDBRANCH  97 100
ENDBRANCH  94  97
ENDBRANCH   1  94
TORSDOF 16
ENDMDL
MODEL 3
REMARK VINA RESULT:     -13.3      1.276      7.021
REMARK SMILES O=C(NCCCCCCNC(=O)c1ccccc1Nc1cccc(S(F)(F)(F)(F)F)c1)c1ccc(-c2c3nc(c(-c4c(F)c(F)c(F)c(F)c4F)c4ccc([nH]4)c(-c4c(F)c(F)c(F)c(F)c4F)c4nc(c(-c5c(F)c(F)c(F)c(F)c5F)c5ccc2[nH]5)C=C4)C=C3)cc1
REMARK SMILES IDX 7 1 6 4 5 7 4 10 3 13 1 14 2 15 32 17 33 18 94 19 34 20
REMARK SMILES IDX 93 22 35 24 36 27 37 28 87 29 38 30 92 31 86 32 88 33 39 34
REMARK SMILES IDX 91 35 85 37 84 39 40 41 72 44 52 45 71 46 53 47 56 48 70 49
REMARK SMILES IDX 89 50 54 51 55 53 69 55 90 56 57 59 41 61 42 62 50 63 43 64
REMARK SMILES IDX 44 65 48 66 51 67 45 68 46 69 49 70 47 71 73 72 74 73 82 74
REMARK SMILES IDX 75 75 76 76 80 77 83 78 77 79 78 80 81 81 79 82 58 83 59 84
REMARK SMILES IDX 67 85 60 86 61 87 65 88 68 89 62 90 63 91 66 92 64 93 8 94
REMARK SMILES IDX 9 97 10 100 11 101 12 103 13 104 14 105 18 106 15 107 17 109
REMARK SMILES IDX 16 110 19 114 20 116 21 117 31 118 22 119 24 121 23 123
REMARK SMILES IDX 25 126 26 127 27 128 28 129 29 130 30 131
REMARK H PARENT 7 2 7 3 6 5 6 6 5 8 5 9 4 11 4 12 3 16 33 21 94 23 34 25 93 26
REMARK H PARENT 92 36 86 38 88 40 91 42 85 43 53 52 56 54 89 57 54 58 90 60
REMARK H PARENT 8 95 8 96 9 98 9 99 10 102 14 108 15 111 17 112 16 113 19 115
REMARK H PARENT 21 120 31 122 22 124 23 125
REMARK Flexibility Score: inf
ROOT
ATOM      1  C   UNL A   1      33.320  30.406  27.134  1.00  0.00    -0.052 C 
ATOM      2  H   UNL A   1      33.442  29.982  28.108  1.00  0.00     0.027 H 
ATOM      3  H   UNL A   1      33.824  31.349  27.090  1.00  0.00     0.027 H 
ENDROOT
BRANCH   1   4
ATOM      4  C   UNL A   1      31.840  30.610  26.853  1.00  0.00    -0.052 C 
ATOM      5  H   UNL A   1      31.590  30.162  25.914  1.00  0.00     0.027 H 
ATOM      6  H   UNL A   1      31.263  30.155  27.631  1.00  0.00     0.027 H 
BRANCH   4   7
ATOM      7  C   UNL A   1      31.534  32.098  26.801  1.00  0.00    -0.036 C 
ATOM      8  H   UNL A   1      31.383  32.397  25.785  1.00  0.00     0.028 H 
ATOM      9  H   UNL A   1      30.650  32.301  27.368  1.00  0.00     0.028 H 
BRANCH   7  10
ATOM     10  C   UNL A   1      32.701  32.876  27.388  1.00  0.00     0.018 C 
ATOM     11  H   UNL A   1      33.057  32.378  28.266  1.00  0.00     0.049 H 
ATOM     12  H   UNL A   1      33.491  32.932  26.667  1.00  0.00     0.049 H 
BRANCH  10  13
ATOM     13  N   UNL A   1      32.260  34.233  27.738  1.00  0.00    -0.352 N 
ATOM     14  O   UNL A   1      32.670  36.218  28.978  1.00  0.00    -0.269 OA
ATOM     15  C   UNL A   1      33.051  35.044  28.675  1.00  0.00     0.251 C 
ATOM     16  H   UNL A   1      31.435  34.599  27.345  1.00  0.00     0.163 HD
BRANCH  15  17
ATOM     17  C   UNL A   1      34.326  34.480  29.280  1.00  0.00     0.039 A 
ATOM     18  C   UNL A   1      34.167  33.861  30.510  1.00  0.00    -0.049 A 
ATOM     19  C   UNL A   1      35.499  34.482  28.657  1.00  0.00    -0.049 A 
ATOM     20  C   UNL A   1      35.386  33.518  31.140  1.00  0.00    -0.053 A 
ATOM     21  H   UNL A   1      33.243  33.668  30.928  1.00  0.00     0.063 H 
ATOM     22  C   UNL A   1      36.625  34.006  29.284  1.00  0.00    -0.053 A 
ATOM     23  H   UNL A   1      35.564  34.845  27.694  1.00  0.00     0.063 H 
ATOM     24  C   UNL A   1      36.551  33.435  30.525  1.00  0.00    -0.014 A 
ATOM     25  H   UNL A   1      35.363  33.318  32.153  1.00  0.00     0.063 H 
ATOM     26  H   UNL A   1      37.539  34.079  28.812  1.00  0.00     0.063 H 
BRANCH  24  27
ATOM     27  C   UNL A   1      37.745  32.743  31.160  1.00  0.00     0.031 A 
ATOM     28  C   UNL A   1      38.401  33.285  32.268  1.00  0.00     0.074 A 
ATOM     29  C   UNL A   1      38.169  31.609  30.490  1.00  0.00     0.049 A 
ATOM     30  N   UNL A   1      39.487  32.814  32.882  1.00  0.00    -0.248 NA
ATOM     31  C   UNL A   1      37.973  34.509  32.960  1.00  0.00    -0.034 C 
ATOM     32  C   UNL A   1      37.509  31.051  29.378  1.00  0.00    -0.036 A 
ATOM     33  N   UNL A   1      39.271  30.828  30.761  1.00  0.00    -0.354 N 
ATOM     34  C   UNL A   1      39.807  33.593  33.917  1.00  0.00     0.074 A 
ATOM     35  C   UNL A   1      38.841  34.699  33.978  1.00  0.00    -0.034 C 
ATOM     36  H   UNL A   1      37.168  35.107  32.717  1.00  0.00     0.065 H 
ATOM     37  C   UNL A   1      38.210  29.958  28.976  1.00  0.00    -0.036 A 
ATOM     38  H   UNL A   1      36.645  31.409  28.942  1.00  0.00     0.065 H 
ATOM     39  C   UNL A   1      39.318  29.813  29.832  1.00  0.00     0.049 A 
ATOM     40  H   UNL A   1      39.914  30.972  31.492  1.00  0.00     0.167 HD
ATOM     41  C   UNL A   1      40.864  33.425  34.812  1.00  0.00     0.037 A 
ATOM     42  H   UNL A   1      38.828  35.469  34.664  1.00  0.00     0.065 H 
ATOM     43  H   UNL A   1      37.971  29.342  28.183  1.00  0.00     0.065 H 
ATOM     44  C   UNL A   1      40.267  28.810  29.718  1.00  0.00     0.037 A 
ATOM     45  C   UNL A   1      41.788  32.396  34.724  1.00  0.00     0.049 A 
ATOM     46  C   UNL A   1      41.360  28.674  30.579  1.00  0.00     0.074 A 
ATOM     47  C   UNL A   1      42.855  32.208  35.623  1.00  0.00    -0.036 A 
ATOM     48  N   UNL A   1      41.849  31.395  33.780  1.00  0.00    -0.354 N 
ATOM     49  N   UNL A   1      41.656  29.431  31.637  1.00  0.00    -0.248 NA
ATOM     50  C   UNL A   1      42.388  27.635  30.450  1.00  0.00    -0.034 C 
ATOM     51  C   UNL A   1      43.557  31.114  35.222  1.00  0.00    -0.036 A 
ATOM     52  H   UNL A   1      43.069  32.797  36.443  1.00  0.00     0.065 H 
ATOM     53  C   UNL A   1      42.939  30.601  34.065  1.00  0.00     0.049 A 
ATOM     54  H   UNL A   1      41.223  31.269  33.032  1.00  0.00     0.167 HD
ATOM     55  C   UNL A   1      42.767  28.983  32.226  1.00  0.00     0.074 A 
ATOM     56  C   UNL A   1      43.258  27.825  31.466  1.00  0.00    -0.034 C 
ATOM     57  H   UNL A   1      42.438  26.902  29.724  1.00  0.00     0.065 H 
ATOM     58  H   UNL A   1      44.395  30.727  35.684  1.00  0.00     0.065 H 
ATOM     59  C   UNL A   1      43.388  29.491  33.368  1.00  0.00     0.037 A 
ATOM     60  H   UNL A   1      44.102  27.267  31.669  1.00  0.00     0.065 H 
BRANCH  41  61
ATOM     61  C   UNL A   1      41.009  34.427  35.946  1.00  0.00     0.064 A 
ATOM     62  C   UNL A   1      40.425  34.246  37.188  1.00  0.00     0.173 A 
ATOM     63  C   UNL A   1      41.860  35.422  35.723  1.00  0.00     0.173 A 
ATOM     64  F   UNL A   1      39.777  33.137  37.531  1.00  0.00    -0.203 F 
ATOM     65  C   UNL A   1      40.580  35.350  38.061  1.00  0.00     0.198 A 
ATOM     66  C   UNL A   1      42.066  36.393  36.673  1.00  0.00     0.198 A 
ATOM     67  F   UNL A   1      42.518  35.480  34.569  1.00  0.00    -0.203 F 
ATOM     68  F   UNL A   1      39.769  35.425  39.112  1.00  0.00    -0.200 F 
ATOM     69  C   UNL A   1      41.473  36.310  37.902  1.00  0.00     0.200 A 
ATOM     70  F   UNL A   1      42.852  37.428  36.393  1.00  0.00    -0.200 F 
ATOM     71  F   UNL A   1      41.779  37.150  38.887  1.00  0.00    -0.200 F 
ENDBRANCH  41  61
BRANCH  44  72
ATOM     72  C   UNL A   1      40.112  27.798  28.594  1.00  0.00     0.064 A 
ATOM     73  C   UNL A   1      39.549  26.555  28.832  1.00  0.00     0.173 A 
ATOM     74  C   UNL A   1      40.680  28.086  27.429  1.00  0.00     0.173 A 
ATOM     75  F   UNL A   1      38.756  26.305  29.870  1.00  0.00    -0.203 F 
ATOM     76  C   UNL A   1      39.892  25.577  27.869  1.00  0.00     0.198 A 
ATOM     77  C   UNL A   1      40.862  27.108  26.479  1.00  0.00     0.198 A 
ATOM     78  F   UNL A   1      41.076  29.330  27.178  1.00  0.00    -0.203 F 
ATOM     79  F   UNL A   1      39.709  24.299  28.194  1.00  0.00    -0.200 F 
ATOM     80  C   UNL A   1      40.384  25.842  26.673  1.00  0.00     0.200 A 
ATOM     81  F   UNL A   1      41.514  27.399  25.357  1.00  0.00    -0.200 F 
ATOM     82  F   UNL A   1      40.411  24.928  25.707  1.00  0.00    -0.200 F 
ENDBRANCH  44  72
BRANCH  59  83
ATOM     83  C   UNL A   1      44.631  28.782  33.879  1.00  0.00     0.064 A 
ATOM     84  C   UNL A   1      44.387  27.752  34.773  1.00  0.00     0.173 A 
ATOM     85  C   UNL A   1      45.862  29.053  33.460  1.00  0.00     0.173 A 
ATOM     86  F   UNL A   1      43.169  27.282  35.024  1.00  0.00    -0.203 F 
ATOM     87  C   UNL A   1      45.553  27.245  35.396  1.00  0.00     0.198 A 
ATOM     88  C   UNL A   1      46.947  28.422  34.019  1.00  0.00     0.198 A 
ATOM     89  F   UNL A   1      46.045  29.945  32.491  1.00  0.00    -0.203 F 
ATOM     90  F   UNL A   1      45.400  26.529  36.505  1.00  0.00    -0.200 F 
ATOM     91  C   UNL A   1      46.782  27.435  34.951  1.00  0.00     0.200 A 
ATOM     92  F   UNL A   1      48.174  28.774  33.647  1.00  0.00    -0.200 F 
ATOM     93  F   UNL A   1      47.805  26.706  35.387  1.00  0.00    -0.200 F 
ENDBRANCH  59  83
ENDBRANCH  24  27
ENDBRANCH  15  17
ENDBRANCH  10  13
ENDBRANCH   7  10
ENDBRANCH   4   7
ENDBRANCH   1   4
BRANCH   1  94
ATOM     94  C   UNL A   1      33.909  29.467  26.094  1.00  0.00    -0.036 C 
ATOM     95  H   UNL A   1      34.099  28.513  26.542  1.00  0.00     0.028 H 
ATOM     96  H   UNL A   1      34.825  29.875  25.722  1.00  0.00     0.028 H 
BRANCH  94  97
ATOM     97  C   UNL A   1      32.925  29.300  24.947  1.00  0.00     0.018 C 
ATOM     98  H   UNL A   1      32.185  30.071  24.996  1.00  0.00     0.049 H 
ATOM     99  H   UNL A   1      32.450  28.344  25.021  1.00  0.00     0.049 H 
BRANCH  97 100
ATOM    100  N   UNL A   1      33.645  29.392  23.668  1.00  0.00    -0.352 N 
ATOM    101  C   UNL A   1      33.748  28.213  22.796  1.00  0.00     0.253 C 
ATOM    102  H   UNL A   1      34.057  30.243  23.396  1.00  0.00     0.163 HD
ATOM    103  O   UNL A   1      34.370  28.293  21.691  1.00  0.00    -0.269 OA
BRANCH 101 104
ATOM    104  C   UNL A   1      33.111  26.899  23.217  1.00  0.00     0.063 A 
ATOM    105  C   UNL A   1      33.781  26.072  24.103  1.00  0.00    -0.047 A 
ATOM    106  C   UNL A   1      31.922  26.565  22.728  1.00  0.00     0.051 A 
ATOM    107  C   UNL A   1      33.240  24.768  24.192  1.00  0.00    -0.061 A 
ATOM    108  H   UNL A   1      34.601  26.380  24.650  1.00  0.00     0.063 H 
ATOM    109  C   UNL A   1      31.391  25.320  22.967  1.00  0.00    -0.038 A 
ATOM    110  C   UNL A   1      32.029  24.430  23.786  1.00  0.00    -0.060 A 
ATOM    111  H   UNL A   1      33.832  24.029  24.601  1.00  0.00     0.062 H 
ATOM    112  H   UNL A   1      30.500  25.053  22.522  1.00  0.00     0.064 H 
ATOM    113  H   UNL A   1      31.588  23.542  24.071  1.00  0.00     0.062 H 
BRANCH 106 114
ATOM    114  N   UNL A   1      31.167  27.537  21.924  1.00  0.00    -0.355 N 
ATOM    115  H   UNL A   1      31.445  27.735  21.001  1.00  0.00     0.167 HD
BRANCH 114 116
ATOM    116  C   UNL A   1      29.993  28.211  22.498  1.00  0.00     0.040 A 
ATOM    117  C   UNL A   1      28.996  27.446  23.078  1.00  0.00    -0.039 A 
ATOM    118  C   UNL A   1      29.925  29.537  22.486  1.00  0.00    -0.016 A 
ATOM    119  C   UNL A   1      27.814  28.168  23.369  1.00  0.00    -0.059 A 
ATOM    120  H   UNL A   1      29.105  26.440  23.280  1.00  0.00     0.064 H 
ATOM    121  C   UNL A   1      28.788  30.183  22.913  1.00  0.00     0.109 A 
ATOM    122  H   UNL A   1      30.731  30.089  22.154  1.00  0.00     0.066 H 
ATOM    123  C   UNL A   1      27.740  29.484  23.442  1.00  0.00    -0.039 A 
ATOM    124  H   UNL A   1      26.950  27.628  23.535  1.00  0.00     0.062 H 
ATOM    125  H   UNL A   1      26.934  29.959  23.877  1.00  0.00     0.064 H 
BRANCH 121 126
ATOM    126  S   UNL A   1      28.679  31.984  22.771  1.00  0.00     0.310 S 
ATOM    127  F   UNL A   1      27.276  32.030  23.509  1.00  0.00    -0.094 F 
ATOM    128  F   UNL A   1      27.886  31.828  21.419  1.00  0.00    -0.094 F 
ATOM    129  F   UNL A   1      28.606  33.534  22.667  1.00  0.00    -0.094 F 
ATOM    130  F   UNL A   1      29.350  32.120  24.194  1.00  0.00    -0.094 F 
ATOM    131  F   UNL A   1      28.661  30.414  22.945  1.00  0.00    -0.094 F 
ENDBRANCH 121 126
ENDBRANCH 114 116
ENDBRANCH 106 114
ENDBRANCH 101 104
ENDBRANCH  97 100
ENDBRANCH  94  97
ENDBRANCH   1  94
TORSDOF 16
ENDMDL
MODEL 4
REMARK VINA RESULT:     -13.3      1.324      1.939
REMARK SMILES O=C(NCCCCCCNC(=O)c1ccccc1Nc1cccc(S(F)(F)(F)(F)F)c1)c1ccc(-c2c3nc(c(-c4c(F)c(F)c(F)c(F)c4F)c4ccc([nH]4)c(-c4c(F)c(F)c(F)c(F)c4F)c4nc(c(-c5c(F)c(F)c(F)c(F)c5F)c5ccc2[nH]5)C=C4)C=C3)cc1
REMARK SMILES IDX 7 1 6 4 5 7 4 10 3 13 1 14 2 15 32 17 33 18 94 19 34 20
REMARK SMILES IDX 93 22 35 24 36 27 37 28 87 29 38 30 92 31 86 32 88 33 39 34
REMARK SMILES IDX 91 35 85 37 84 39 40 41 72 44 52 45 71 46 53 47 56 48 70 49
REMARK SMILES IDX 89 50 54 51 55 53 69 55 90 56 57 59 41 61 42 62 50 63 43 64
REMARK SMILES IDX 44 65 48 66 51 67 45 68 46 69 49 70 47 71 73 72 74 73 82 74
REMARK SMILES IDX 75 75 76 76 80 77 83 78 77 79 78 80 81 81 79 82 58 83 59 84
REMARK SMILES IDX 67 85 60 86 61 87 65 88 68 89 62 90 63 91 66 92 64 93 8 94
REMARK SMILES IDX 9 97 10 100 11 101 12 103 13 104 14 105 18 106 15 107 17 109
REMARK SMILES IDX 16 110 19 114 20 116 21 117 31 118 22 119 24 121 23 123
REMARK SMILES IDX 25 126 26 127 27 128 28 129 29 130 30 131
REMARK H PARENT 7 2 7 3 6 5 6 6 5 8 5 9 4 11 4 12 3 16 33 21 94 23 34 25 93 26
REMARK H PARENT 92 36 86 38 88 40 91 42 85 43 53 52 56 54 89 57 54 58 90 60
REMARK H PARENT 8 95 8 96 9 98 9 99 10 102 14 108 15 111 17 112 16 113 19 115
REMARK H PARENT 21 120 31 122 22 124 23 125
REMARK Flexibility Score: inf
ROOT
ATOM      1  C   UNL A   1      31.776  29.155  26.962  1.00  0.00    -0.052 C 
ATOM      2  H   UNL A   1      30.881  28.570  27.000  1.00  0.00     0.027 H 
ATOM      3  H   UNL A   1      31.927  29.638  27.904  1.00  0.00     0.027 H 
ENDROOT
BRANCH   1   4
ATOM      4  C   UNL A   1      31.648  30.205  25.870  1.00  0.00    -0.052 C 
ATOM      5  H   UNL A   1      32.551  30.236  25.297  1.00  0.00     0.027 H 
ATOM      6  H   UNL A   1      30.827  29.955  25.229  1.00  0.00     0.027 H 
BRANCH   4   7
ATOM      7  C   UNL A   1      31.401  31.565  26.501  1.00  0.00    -0.036 C 
ATOM      8  H   UNL A   1      30.891  32.196  25.803  1.00  0.00     0.028 H 
ATOM      9  H   UNL A   1      30.801  31.448  27.379  1.00  0.00     0.028 H 
BRANCH   7  10
ATOM     10  C   UNL A   1      32.731  32.199  26.876  1.00  0.00     0.018 C 
ATOM     11  H   UNL A   1      33.193  31.625  27.652  1.00  0.00     0.049 H 
ATOM     12  H   UNL A   1      33.371  32.218  26.019  1.00  0.00     0.049 H 
BRANCH  10  13
ATOM     13  N   UNL A   1      32.504  33.571  27.350  1.00  0.00    -0.352 N 
ATOM     14  O   UNL A   1      33.201  35.344  28.770  1.00  0.00    -0.269 OA
ATOM     15  C   UNL A   1      33.397  34.157  28.360  1.00  0.00     0.251 C 
ATOM     16  H   UNL A   1      31.754  34.098  26.991  1.00  0.00     0.163 HD
BRANCH  15  17
ATOM     17  C   UNL A   1      34.556  33.344  28.913  1.00  0.00     0.039 A 
ATOM     18  C   UNL A   1      35.815  33.797  28.552  1.00  0.00    -0.049 A 
ATOM     19  C   UNL A   1      34.404  32.328  29.755  1.00  0.00    -0.049 A 
ATOM     20  C   UNL A   1      36.864  32.919  28.914  1.00  0.00    -0.053 A 
ATOM     21  H   UNL A   1      35.973  34.693  28.066  1.00  0.00     0.063 H 
ATOM     22  C   UNL A   1      35.491  31.598  30.173  1.00  0.00    -0.053 A 
ATOM     23  H   UNL A   1      33.462  32.085  30.098  1.00  0.00     0.063 H 
ATOM     24  C   UNL A   1      36.760  31.953  29.808  1.00  0.00    -0.014 A 
ATOM     25  H   UNL A   1      37.776  33.043  28.445  1.00  0.00     0.063 H 
ATOM     26  H   UNL A   1      35.347  30.770  30.772  1.00  0.00     0.063 H 
BRANCH  24  27
ATOM     27  C   UNL A   1      37.983  31.274  30.399  1.00  0.00     0.031 A 
ATOM     28  C   UNL A   1      38.726  30.342  29.671  1.00  0.00     0.074 A 
ATOM     29  C   UNL A   1      38.222  31.584  31.727  1.00  0.00     0.049 A 
ATOM     30  N   UNL A   1      39.778  29.636  30.087  1.00  0.00    -0.248 NA
ATOM     31  C   UNL A   1      38.453  29.985  28.271  1.00  0.00    -0.034 C 
ATOM     32  C   UNL A   1      37.483  32.528  32.466  1.00  0.00    -0.036 A 
ATOM     33  N   UNL A   1      39.186  31.059  32.558  1.00  0.00    -0.354 N 
ATOM     34  C   UNL A   1      40.235  28.863  29.099  1.00  0.00     0.074 A 
ATOM     35  C   UNL A   1      39.386  29.072  27.919  1.00  0.00    -0.034 C 
ATOM     36  H   UNL A   1      37.698  30.357  27.675  1.00  0.00     0.065 H 
ATOM     37  C   UNL A   1      37.986  32.563  33.728  1.00  0.00    -0.036 A 
ATOM     38  H   UNL A   1      36.696  33.095  32.112  1.00  0.00     0.065 H 
ATOM     39  C   UNL A   1      39.048  31.642  33.799  1.00  0.00     0.049 A 
ATOM     40  H   UNL A   1      39.857  30.383  32.310  1.00  0.00     0.167 HD
ATOM     41  C   UNL A   1      41.327  27.995  29.136  1.00  0.00     0.037 A 
ATOM     42  H   UNL A   1      39.481  28.611  27.001  1.00  0.00     0.065 H 
ATOM     43  H   UNL A   1      37.647  33.160  34.500  1.00  0.00     0.065 H 
ATOM     44  C   UNL A   1      39.795  31.397  34.940  1.00  0.00     0.037 A 
ATOM     45  C   UNL A   1      42.101  27.782  30.265  1.00  0.00     0.049 A 
ATOM     46  C   UNL A   1      40.852  30.484  34.993  1.00  0.00     0.074 A 
ATOM     47  C   UNL A   1      43.210  26.915  30.316  1.00  0.00    -0.036 A 
ATOM     48  N   UNL A   1      41.948  28.346  31.512  1.00  0.00    -0.354 N 
ATOM     49  N   UNL A   1      41.333  29.742  33.995  1.00  0.00    -0.248 NA
ATOM     50  C   UNL A   1      41.630  30.193  36.204  1.00  0.00    -0.034 C 
ATOM     51  C   UNL A   1      43.714  26.950  31.579  1.00  0.00    -0.036 A 
ATOM     52  H   UNL A   1      43.576  26.352  29.533  1.00  0.00     0.065 H 
ATOM     53  C   UNL A   1      42.926  27.838  32.338  1.00  0.00     0.049 A 
ATOM     54  H   UNL A   1      41.259  29.001  31.769  1.00  0.00     0.167 HD
ATOM     55  C   UNL A   1      42.359  29.004  34.423  1.00  0.00     0.074 A 
ATOM     56  C   UNL A   1      42.560  29.278  35.852  1.00  0.00    -0.034 C 
ATOM     57  H   UNL A   1      41.493  30.605  37.140  1.00  0.00     0.065 H 
ATOM     58  H   UNL A   1      44.529  26.418  31.922  1.00  0.00     0.065 H 
ATOM     59  C   UNL A   1      43.138  28.117  33.678  1.00  0.00     0.037 A 
ATOM     60  H   UNL A   1      43.273  28.855  36.468  1.00  0.00     0.065 H 
BRANCH  41  61
ATOM     61  C   UNL A   1      41.686  27.240  27.866  1.00  0.00     0.064 A 
ATOM     62  C   UNL A   1      42.597  27.719  26.940  1.00  0.00     0.173 A 
ATOM     63  C   UNL A   1      41.182  26.015  27.768  1.00  0.00     0.173 A 
ATOM     64  F   UNL A   1      43.313  28.823  27.130  1.00  0.00    -0.203 F 
ATOM     65  C   UNL A   1      42.697  26.926  25.771  1.00  0.00     0.198 A 
ATOM     66  C   UNL A   1      41.432  25.243  26.659  1.00  0.00     0.198 A 
ATOM     67  F   UNL A   1      40.429  25.532  28.751  1.00  0.00    -0.203 F 
ATOM     68  F   UNL A   1      43.254  27.477  24.696  1.00  0.00    -0.200 F 
ATOM     69  C   UNL A   1      42.276  25.678  25.675  1.00  0.00     0.200 A 
ATOM     70  F   UNL A   1      40.844  24.056  26.541  1.00  0.00    -0.200 F 
ATOM     71  F   UNL A   1      42.653  24.887  24.675  1.00  0.00    -0.200 F 
ENDBRANCH  41  61
BRANCH  44  72
ATOM     72  C   UNL A   1      39.446  32.164  36.205  1.00  0.00     0.064 A 
ATOM     73  C   UNL A   1      38.357  31.797  36.979  1.00  0.00     0.173 A 
ATOM     74  C   UNL A   1      40.117  33.284  36.446  1.00  0.00     0.173 A 
ATOM     75  F   UNL A   1      37.818  30.582  36.941  1.00  0.00    -0.203 F 
ATOM     76  C   UNL A   1      37.872  32.832  37.812  1.00  0.00     0.198 A 
ATOM     77  C   UNL A   1      39.656  34.189  37.374  1.00  0.00     0.198 A 
ATOM     78  F   UNL A   1      41.243  33.533  35.786  1.00  0.00    -0.203 F 
ATOM     79  F   UNL A   1      36.644  32.702  38.308  1.00  0.00    -0.200 F 
ATOM     80  C   UNL A   1      38.552  33.918  38.132  1.00  0.00     0.200 A 
ATOM     81  F   UNL A   1      40.295  35.344  37.533  1.00  0.00    -0.200 F 
ATOM     82  F   UNL A   1      38.182  34.705  39.138  1.00  0.00    -0.200 F 
ENDBRANCH  44  72
BRANCH  59  83
ATOM     83  C   UNL A   1      44.289  27.415  34.381  1.00  0.00     0.064 A 
ATOM     84  C   UNL A   1      45.484  28.115  34.381  1.00  0.00     0.173 A 
ATOM     85  C   UNL A   1      44.168  26.258  35.022  1.00  0.00     0.173 A 
ATOM     86  F   UNL A   1      45.585  29.377  33.976  1.00  0.00    -0.203 F 
ATOM     87  C   UNL A   1      46.589  27.364  34.848  1.00  0.00     0.198 A 
ATOM     88  C   UNL A   1      45.267  25.646  35.574  1.00  0.00     0.198 A 
ATOM     89  F   UNL A   1      42.972  25.688  35.131  1.00  0.00    -0.203 F 
ATOM     90  F   UNL A   1      47.807  27.806  34.554  1.00  0.00    -0.200 F 
ATOM     91  C   UNL A   1      46.492  26.254  35.558  1.00  0.00     0.200 A 
ATOM     92  F   UNL A   1      45.138  24.446  36.132  1.00  0.00    -0.200 F 
ATOM     93  F   UNL A   1      47.531  25.753  36.220  1.00  0.00    -0.200 F 
ENDBRANCH  59  83
ENDBRANCH  24  27
ENDBRANCH  15  17
ENDBRANCH  10  13
ENDBRANCH   7  10
ENDBRANCH   4   7
ENDBRANCH   1   4
BRANCH   1  94
ATOM     94  C   UNL A   1      32.960  28.252  26.660  1.00  0.00    -0.036 C 
ATOM     95  H   UNL A   1      33.551  28.128  27.545  1.00  0.00     0.028 H 
ATOM     96  H   UNL A   1      33.559  28.693  25.891  1.00  0.00     0.028 H 
BRANCH  94  97
ATOM     97  C   UNL A   1      32.457  26.894  26.195  1.00  0.00     0.018 C 
ATOM     98  H   UNL A   1      33.150  26.135  26.492  1.00  0.00     0.049 H 
ATOM     99  H   UNL A   1      32.363  26.894  25.129  1.00  0.00     0.049 H 
BRANCH  97 100
ATOM    100  N   UNL A   1      31.145  26.625  26.802  1.00  0.00    -0.352 N 
ATOM    101  C   UNL A   1      30.348  25.476  26.351  1.00  0.00     0.253 C 
ATOM    102  H   UNL A   1      30.801  27.215  27.512  1.00  0.00     0.163 HD
ATOM    103  O   UNL A   1      29.214  25.244  26.876  1.00  0.00    -0.269 OA
BRANCH 101 104
ATOM    104  C   UNL A   1      30.879  24.566  25.256  1.00  0.00     0.063 A 
ATOM    105  C   UNL A   1      31.705  23.506  25.595  1.00  0.00    -0.047 A 
ATOM    106  C   UNL A   1      30.544  24.802  23.993  1.00  0.00     0.051 A 
ATOM    107  C   UNL A   1      32.364  22.917  24.490  1.00  0.00    -0.061 A 
ATOM    108  H   UNL A   1      31.827  23.176  26.565  1.00  0.00     0.063 H 
ATOM    109  C   UNL A   1      31.129  24.095  22.969  1.00  0.00    -0.038 A 
ATOM    110  C   UNL A   1      32.000  23.072  23.229  1.00  0.00    -0.060 A 
ATOM    111  H   UNL A   1      33.188  22.326  24.681  1.00  0.00     0.062 H 
ATOM    112  H   UNL A   1      30.909  24.338  21.992  1.00  0.00     0.064 H 
ATOM    113  H   UNL A   1      32.352  22.456  22.482  1.00  0.00     0.062 H 
BRANCH 106 114
ATOM    114  N   UNL A   1      29.538  25.828  23.686  1.00  0.00    -0.355 N 
ATOM    115  H   UNL A   1      28.582  25.635  23.818  1.00  0.00     0.167 HD
BRANCH 114 116
ATOM    116  C   UNL A   1      29.959  27.144  23.183  1.00  0.00     0.040 A 
ATOM    117  C   UNL A   1      31.258  27.306  22.733  1.00  0.00    -0.039 A 
ATOM    118  C   UNL A   1      29.084  28.141  23.132  1.00  0.00    -0.016 A 
ATOM    119  C   UNL A   1      31.625  28.655  22.511  1.00  0.00    -0.059 A 
ATOM    120  H   UNL A   1      31.902  26.515  22.575  1.00  0.00     0.064 H 
ATOM    121  C   UNL A   1      29.484  29.407  22.775  1.00  0.00     0.109 A 
ATOM    122  H   UNL A   1      28.094  27.965  23.364  1.00  0.00     0.066 H 
ATOM    123  C   UNL A   1      30.769  29.651  22.376  1.00  0.00    -0.039 A 
ATOM    124  H   UNL A   1      32.632  28.875  22.450  1.00  0.00     0.062 H 
ATOM    125  H   UNL A   1      31.054  30.564  21.990  1.00  0.00     0.064 H 
BRANCH 121 126
ATOM    126  S   UNL A   1      28.294  30.769  22.832  1.00  0.00     0.310 S 
ATOM    127  F   UNL A   1      27.215  29.891  23.595  1.00  0.00    -0.094 F 
ATOM    128  F   UNL A   1      27.653  30.263  21.485  1.00  0.00    -0.094 F 
ATOM    129  F   UNL A   1      27.288  31.953  22.900  1.00  0.00    -0.094 F 
ATOM    130  F   UNL A   1      28.857  31.177  24.251  1.00  0.00    -0.094 F 
ATOM    131  F   UNL A   1      29.247  29.508  22.835  1.00  0.00    -0.094 F 
ENDBRANCH 121 126
ENDBRANCH 114 116
ENDBRANCH 106 114
ENDBRANCH 101 104
ENDBRANCH  97 100
ENDBRANCH  94  97
ENDBRANCH   1  94
TORSDOF 16
ENDMDL
MODEL 5
REMARK VINA RESULT:     -13.2      4.144      8.756
REMARK SMILES O=C(NCCCCCCNC(=O)c1ccccc1Nc1cccc(S(F)(F)(F)(F)F)c1)c1ccc(-c2c3nc(c(-c4c(F)c(F)c(F)c(F)c4F)c4ccc([nH]4)c(-c4c(F)c(F)c(F)c(F)c4F)c4nc(c(-c5c(F)c(F)c(F)c(F)c5F)c5ccc2[nH]5)C=C4)C=C3)cc1
REMARK SMILES IDX 7 1 6 4 5 7 4 10 3 13 1 14 2 15 32 17 33 18 94 19 34 20
REMARK SMILES IDX 93 22 35 24 36 27 37 28 87 29 38 30 92 31 86 32 88 33 39 34
REMARK SMILES IDX 91 35 85 37 84 39 40 41 72 44 52 45 71 46 53 47 56 48 70 49
REMARK SMILES IDX 89 50 54 51 55 53 69 55 90 56 57 59 41 61 42 62 50 63 43 64
REMARK SMILES IDX 44 65 48 66 51 67 45 68 46 69 49 70 47 71 73 72 74 73 82 74
REMARK SMILES IDX 75 75 76 76 80 77 83 78 77 79 78 80 81 81 79 82 58 83 59 84
REMARK SMILES IDX 67 85 60 86 61 87 65 88 68 89 62 90 63 91 66 92 64 93 8 94
REMARK SMILES IDX 9 97 10 100 11 101 12 103 13 104 14 105 18 106 15 107 17 109
REMARK SMILES IDX 16 110 19 114 20 116 21 117 31 118 22 119 24 121 23 123
REMARK SMILES IDX 25 126 26 127 27 128 28 129 29 130 30 131
REMARK H PARENT 7 2 7 3 6 5 6 6 5 8 5 9 4 11 4 12 3 16 33 21 94 23 34 25 93 26
REMARK H PARENT 92 36 86 38 88 40 91 42 85 43 53 52 56 54 89 57 54 58 90 60
REMARK H PARENT 8 95 8 96 9 98 9 99 10 102 14 108 15 111 17 112 16 113 19 115
REMARK H PARENT 21 120 31 122 22 124 23 125
REMARK Flexibility Score: inf
ROOT
ATOM      1  C   UNL A   1      33.997  22.252  24.661  1.00  0.00    -0.052 C 
ATOM      2  H   UNL A   1      33.826  23.229  25.061  1.00  0.00     0.027 H 
ATOM      3  H   UNL A   1      33.776  21.518  25.406  1.00  0.00     0.027 H 
ENDROOT
BRANCH   1   4
ATOM      4  C   UNL A   1      35.454  22.125  24.242  1.00  0.00    -0.052 C 
ATOM      5  H   UNL A   1      35.919  21.341  24.802  1.00  0.00     0.027 H 
ATOM      6  H   UNL A   1      35.506  21.897  23.197  1.00  0.00     0.027 H 
BRANCH   4   7
ATOM      7  C   UNL A   1      36.174  23.437  24.510  1.00  0.00    -0.036 C 
ATOM      8  H   UNL A   1      36.947  23.574  23.783  1.00  0.00     0.028 H 
ATOM      9  H   UNL A   1      35.477  24.246  24.448  1.00  0.00     0.028 H 
BRANCH   7  10
ATOM     10  C   UNL A   1      36.788  23.402  25.900  1.00  0.00     0.018 C 
ATOM     11  H   UNL A   1      37.245  24.346  26.112  1.00  0.00     0.049 H 
ATOM     12  H   UNL A   1      36.023  23.208  26.623  1.00  0.00     0.049 H 
BRANCH  10  13
ATOM     13  N   UNL A   1      37.803  22.340  25.962  1.00  0.00    -0.352 N 
ATOM     14  O   UNL A   1      40.027  21.722  26.522  1.00  0.00    -0.269 OA
ATOM     15  C   UNL A   1      39.149  22.640  26.469  1.00  0.00     0.251 C 
ATOM     16  H   UNL A   1      37.580  21.429  25.664  1.00  0.00     0.163 HD
BRANCH  15  17
ATOM     17  C   UNL A   1      39.493  24.046  26.930  1.00  0.00     0.039 A 
ATOM     18  C   UNL A   1      39.282  24.289  28.278  1.00  0.00    -0.049 A 
ATOM     19  C   UNL A   1      40.040  24.965  26.142  1.00  0.00    -0.049 A 
ATOM     20  C   UNL A   1      39.422  25.649  28.644  1.00  0.00    -0.053 A 
ATOM     21  H   UNL A   1      39.047  23.545  28.954  1.00  0.00     0.063 H 
ATOM     22  C   UNL A   1      40.274  26.236  26.608  1.00  0.00    -0.053 A 
ATOM     23  H   UNL A   1      40.293  24.720  25.172  1.00  0.00     0.063 H 
ATOM     24  C   UNL A   1      40.034  26.563  27.914  1.00  0.00    -0.014 A 
ATOM     25  H   UNL A   1      39.017  25.947  29.546  1.00  0.00     0.063 H 
ATOM     26  H   UNL A   1      40.635  26.955  25.962  1.00  0.00     0.063 H 
BRANCH  24  27
ATOM     27  C   UNL A   1      40.450  27.904  28.493  1.00  0.00     0.031 A 
ATOM     28  C   UNL A   1      39.513  28.899  28.780  1.00  0.00     0.074 A 
ATOM     29  C   UNL A   1      41.818  28.075  28.610  1.00  0.00     0.049 A 
ATOM     30  N   UNL A   1      39.747  30.131  29.234  1.00  0.00    -0.248 NA
ATOM     31  C   UNL A   1      38.060  28.732  28.624  1.00  0.00    -0.034 C 
ATOM     32  C   UNL A   1      42.770  27.075  28.330  1.00  0.00    -0.036 A 
ATOM     33  N   UNL A   1      42.499  29.205  29.005  1.00  0.00    -0.354 N 
ATOM     34  C   UNL A   1      38.596  30.785  29.408  1.00  0.00     0.074 A 
ATOM     35  C   UNL A   1      37.496  29.897  29.012  1.00  0.00    -0.034 C 
ATOM     36  H   UNL A   1      37.569  27.890  28.285  1.00  0.00     0.065 H 
ATOM     37  C   UNL A   1      44.006  27.597  28.542  1.00  0.00    -0.036 A 
ATOM     38  H   UNL A   1      42.565  26.112  28.019  1.00  0.00     0.065 H 
ATOM     39  C   UNL A   1      43.849  28.933  28.959  1.00  0.00     0.049 A 
ATOM     40  H   UNL A   1      42.092  30.060  29.274  1.00  0.00     0.167 HD
ATOM     41  C   UNL A   1      38.422  32.086  29.882  1.00  0.00     0.037 A 
ATOM     42  H   UNL A   1      36.488  30.118  29.027  1.00  0.00     0.065 H 
ATOM     43  H   UNL A   1      44.903  27.102  28.418  1.00  0.00     0.065 H 
ATOM     44  C   UNL A   1      44.898  29.788  29.256  1.00  0.00     0.037 A 
ATOM     45  C   UNL A   1      39.471  32.927  30.221  1.00  0.00     0.049 A 
ATOM     46  C   UNL A   1      44.726  31.110  29.675  1.00  0.00     0.074 A 
ATOM     47  C   UNL A   1      39.312  34.238  30.708  1.00  0.00    -0.036 A 
ATOM     48  N   UNL A   1      40.820  32.662  30.151  1.00  0.00    -0.354 N 
ATOM     49  N   UNL A   1      43.575  31.749  29.886  1.00  0.00    -0.248 NA
ATOM     50  C   UNL A   1      45.830  32.034  29.963  1.00  0.00    -0.034 C 
ATOM     51  C   UNL A   1      40.549  34.762  30.920  1.00  0.00    -0.036 A 
ATOM     52  H   UNL A   1      38.414  34.719  30.874  1.00  0.00     0.065 H 
ATOM     53  C   UNL A   1      41.501  33.785  30.568  1.00  0.00     0.049 A 
ATOM     54  H   UNL A   1      41.229  31.817  29.854  1.00  0.00     0.167 HD
ATOM     55  C   UNL A   1      43.811  32.996  30.300  1.00  0.00     0.074 A 
ATOM     56  C   UNL A   1      45.265  33.199  30.348  1.00  0.00    -0.034 C 
ATOM     57  H   UNL A   1      46.840  31.833  29.885  1.00  0.00     0.065 H 
ATOM     58  H   UNL A   1      40.755  35.709  31.276  1.00  0.00     0.065 H 
ATOM     59  C   UNL A   1      42.872  33.970  30.643  1.00  0.00     0.037 A 
ATOM     60  H   UNL A   1      45.759  34.063  30.623  1.00  0.00     0.065 H 
BRANCH  41  61
ATOM     61  C   UNL A   1      37.003  32.610  30.034  1.00  0.00     0.064 A 
ATOM     62  C   UNL A   1      36.318  32.585  31.237  1.00  0.00     0.173 A 
ATOM     63  C   UNL A   1      36.509  33.235  28.971  1.00  0.00     0.173 A 
ATOM     64  F   UNL A   1      36.874  32.199  32.381  1.00  0.00    -0.203 F 
ATOM     65  C   UNL A   1      34.970  33.005  31.137  1.00  0.00     0.198 A 
ATOM     66  C   UNL A   1      35.231  33.742  28.990  1.00  0.00     0.198 A 
ATOM     67  F   UNL A   1      37.255  33.370  27.880  1.00  0.00    -0.203 F 
ATOM     68  F   UNL A   1      34.146  32.681  32.129  1.00  0.00    -0.200 F 
ATOM     69  C   UNL A   1      34.474  33.698  30.128  1.00  0.00     0.200 A 
ATOM     70  F   UNL A   1      34.725  34.283  27.886  1.00  0.00    -0.200 F 
ATOM     71  F   UNL A   1      33.302  34.318  30.214  1.00  0.00    -0.200 F 
ENDBRANCH  41  61
BRANCH  44  72
ATOM     72  C   UNL A   1      46.316  29.258  29.120  1.00  0.00     0.064 A 
ATOM     73  C   UNL A   1      46.981  29.315  27.906  1.00  0.00     0.173 A 
ATOM     74  C   UNL A   1      46.825  28.597  30.153  1.00  0.00     0.173 A 
ATOM     75  F   UNL A   1      46.645  30.160  26.935  1.00  0.00    -0.203 F 
ATOM     76  C   UNL A   1      48.048  28.394  27.793  1.00  0.00     0.198 A 
ATOM     77  C   UNL A   1      47.951  27.822  30.002  1.00  0.00     0.198 A 
ATOM     78  F   UNL A   1      46.241  28.685  31.344  1.00  0.00    -0.203 F 
ATOM     79  F   UNL A   1      48.503  28.121  26.573  1.00  0.00    -0.200 F 
ATOM     80  C   UNL A   1      48.624  27.785  28.813  1.00  0.00     0.200 A 
ATOM     81  F   UNL A   1      48.389  27.099  31.028  1.00  0.00    -0.200 F 
ATOM     82  F   UNL A   1      49.797  27.169  28.691  1.00  0.00    -0.200 F 
ENDBRANCH  44  72
BRANCH  59  83
ATOM     83  C   UNL A   1      43.386  35.316  31.130  1.00  0.00     0.064 A 
ATOM     84  C   UNL A   1      43.573  36.261  30.135  1.00  0.00     0.173 A 
ATOM     85  C   UNL A   1      43.575  35.615  32.409  1.00  0.00     0.173 A 
ATOM     86  F   UNL A   1      43.159  36.089  28.883  1.00  0.00    -0.203 F 
ATOM     87  C   UNL A   1      44.245  37.428  30.571  1.00  0.00     0.198 A 
ATOM     88  C   UNL A   1      44.110  36.828  32.772  1.00  0.00     0.198 A 
ATOM     89  F   UNL A   1      43.243  34.734  33.348  1.00  0.00    -0.203 F 
ATOM     90  F   UNL A   1      44.783  38.215  29.646  1.00  0.00    -0.200 F 
ATOM     91  C   UNL A   1      44.374  37.788  31.835  1.00  0.00     0.200 A 
ATOM     92  F   UNL A   1      44.373  37.071  34.053  1.00  0.00    -0.200 F 
ATOM     93  F   UNL A   1      44.743  39.019  32.179  1.00  0.00    -0.200 F 
ENDBRANCH  59  83
ENDBRANCH  24  27
ENDBRANCH  15  17
ENDBRANCH  10  13
ENDBRANCH   7  10
ENDBRANCH   4   7
ENDBRANCH   1   4
BRANCH   1  94
ATOM     94  C   UNL A   1      33.101  22.035  23.452  1.00  0.00    -0.036 C 
ATOM     95  H   UNL A   1      32.480  21.178  23.618  1.00  0.00     0.028 H 
ATOM     96  H   UNL A   1      33.706  21.875  22.584  1.00  0.00     0.028 H 
BRANCH  94  97
ATOM     97  C   UNL A   1      32.227  23.261  23.243  1.00  0.00     0.018 C 
ATOM     98  H   UNL A   1      32.225  23.855  24.133  1.00  0.00     0.049 H 
ATOM     99  H   UNL A   1      31.227  22.952  23.018  1.00  0.00     0.049 H 
BRANCH  97 100
ATOM    100  N   UNL A   1      32.758  24.055  22.125  1.00  0.00    -0.352 N 
ATOM    101  C   UNL A   1      33.097  25.471  22.324  1.00  0.00     0.253 C 
ATOM    102  H   UNL A   1      32.886  23.637  21.242  1.00  0.00     0.163 HD
ATOM    103  O   UNL A   1      33.556  26.157  21.357  1.00  0.00    -0.269 OA
BRANCH 101 104
ATOM    104  C   UNL A   1      32.899  26.114  23.686  1.00  0.00     0.063 A 
ATOM    105  C   UNL A   1      33.891  25.993  24.646  1.00  0.00    -0.047 A 
ATOM    106  C   UNL A   1      31.778  26.783  23.935  1.00  0.00     0.051 A 
ATOM    107  C   UNL A   1      33.480  26.371  25.946  1.00  0.00    -0.061 A 
ATOM    108  H   UNL A   1      34.842  25.657  24.432  1.00  0.00     0.063 H 
ATOM    109  C   UNL A   1      31.503  27.242  25.201  1.00  0.00    -0.038 A 
ATOM    110  C   UNL A   1      32.413  27.104  26.212  1.00  0.00    -0.060 A 
ATOM    111  H   UNL A   1      34.052  26.051  26.743  1.00  0.00     0.062 H 
ATOM    112  H   UNL A   1      30.597  27.698  25.390  1.00  0.00     0.064 H 
ATOM    113  H   UNL A   1      32.274  27.548  27.132  1.00  0.00     0.062 H 
BRANCH 106 114
ATOM    114  N   UNL A   1      30.824  27.033  22.846  1.00  0.00    -0.355 N 
ATOM    115  H   UNL A   1      30.974  26.637  21.958  1.00  0.00     0.167 HD
BRANCH 114 116
ATOM    116  C   UNL A   1      29.642  27.875  23.083  1.00  0.00     0.040 A 
ATOM    117  C   UNL A   1      28.461  27.275  23.486  1.00  0.00    -0.039 A 
ATOM    118  C   UNL A   1      29.733  29.193  22.947  1.00  0.00    -0.016 A 
ATOM    119  C   UNL A   1      27.337  28.134  23.443  1.00  0.00    -0.059 A 
ATOM    120  H   UNL A   1      28.405  26.290  23.789  1.00  0.00     0.064 H 
ATOM    121  C   UNL A   1      28.615  29.986  23.052  1.00  0.00     0.109 A 
ATOM    122  H   UNL A   1      30.651  29.625  22.760  1.00  0.00     0.066 H 
ATOM    123  C   UNL A   1      27.403  29.452  23.389  1.00  0.00    -0.039 A 
ATOM    124  H   UNL A   1      26.400  27.700  23.454  1.00  0.00     0.062 H 
ATOM    125  H   UNL A   1      26.584  30.045  23.591  1.00  0.00     0.064 H 
BRANCH 121 126
ATOM    126  S   UNL A   1      28.751  31.764  22.741  1.00  0.00     0.310 S 
ATOM    127  F   UNL A   1      27.223  32.014  23.084  1.00  0.00    -0.094 F 
ATOM    128  F   UNL A   1      28.307  31.535  21.247  1.00  0.00    -0.094 F 
ATOM    129  F   UNL A   1      28.883  33.294  22.496  1.00  0.00    -0.094 F 
ATOM    130  F   UNL A   1      29.057  31.991  24.274  1.00  0.00    -0.094 F 
ATOM    131  F   UNL A   1      28.511  30.229  23.032  1.00  0.00    -0.094 F 
ENDBRANCH 121 126
ENDBRANCH 114 116
ENDBRANCH 106 114
ENDBRANCH 101 104
ENDBRANCH  97 100
ENDBRANCH  94  97
ENDBRANCH   1  94
TORSDOF 16
ENDMDL
MODEL 6
REMARK VINA RESULT:     -13.2      1.382      2.306
REMARK SMILES O=C(NCCCCCCNC(=O)c1ccccc1Nc1cccc(S(F)(F)(F)(F)F)c1)c1ccc(-c2c3nc(c(-c4c(F)c(F)c(F)c(F)c4F)c4ccc([nH]4)c(-c4c(F)c(F)c(F)c(F)c4F)c4nc(c(-c5c(F)c(F)c(F)c(F)c5F)c5ccc2[nH]5)C=C4)C=C3)cc1
REMARK SMILES IDX 7 1 6 4 5 7 4 10 3 13 1 14 2 15 32 17 33 18 94 19 34 20
REMARK SMILES IDX 93 22 35 24 36 27 37 28 87 29 38 30 92 31 86 32 88 33 39 34
REMARK SMILES IDX 91 35 85 37 84 39 40 41 72 44 52 45 71 46 53 47 56 48 70 49
REMARK SMILES IDX 89 50 54 51 55 53 69 55 90 56 57 59 41 61 42 62 50 63 43 64
REMARK SMILES IDX 44 65 48 66 51 67 45 68 46 69 49 70 47 71 73 72 74 73 82 74
REMARK SMILES IDX 75 75 76 76 80 77 83 78 77 79 78 80 81 81 79 82 58 83 59 84
REMARK SMILES IDX 67 85 60 86 61 87 65 88 68 89 62 90 63 91 66 92 64 93 8 94
REMARK SMILES IDX 9 97 10 100 11 101 12 103 13 104 14 105 18 106 15 107 17 109
REMARK SMILES IDX 16 110 19 114 20 116 21 117 31 118 22 119 24 121 23 123
REMARK SMILES IDX 25 126 26 127 27 128 28 129 29 130 30 131
REMARK H PARENT 7 2 7 3 6 5 6 6 5 8 5 9 4 11 4 12 3 16 33 21 94 23 34 25 93 26
REMARK H PARENT 92 36 86 38 88 40 91 42 85 43 53 52 56 54 89 57 54 58 90 60
REMARK H PARENT 8 95 8 96 9 98 9 99 10 102 14 108 15 111 17 112 16 113 19 115
REMARK H PARENT 21 120 31 122 22 124 23 125
REMARK Flexibility Score: inf
ROOT
ATOM      1  C   UNL A   1      31.700  29.024  26.408  1.00  0.00    -0.052 C 
ATOM      2  H   UNL A   1      30.815  28.549  26.039  1.00  0.00     0.027 H 
ATOM      3  H   UNL A   1      31.629  29.135  27.469  1.00  0.00     0.027 H 
ENDROOT
BRANCH   1   4
ATOM      4  C   UNL A   1      31.843  30.395  25.764  1.00  0.00    -0.052 C 
ATOM      5  H   UNL A   1      32.848  30.523  25.419  1.00  0.00     0.027 H 
ATOM      6  H   UNL A   1      31.169  30.473  24.937  1.00  0.00     0.027 H 
BRANCH   4   7
ATOM      7  C   UNL A   1      31.517  31.471  26.787  1.00  0.00    -0.036 C 
ATOM      8  H   UNL A   1      30.659  32.022  26.463  1.00  0.00     0.028 H 
ATOM      9  H   UNL A   1      31.312  31.014  27.733  1.00  0.00     0.028 H 
BRANCH   7  10
ATOM     10  C   UNL A   1      32.701  32.414  26.926  1.00  0.00     0.018 C 
ATOM     11  H   UNL A   1      33.387  32.021  27.647  1.00  0.00     0.049 H 
ATOM     12  H   UNL A   1      33.195  32.508  25.981  1.00  0.00     0.049 H 
BRANCH  10  13
ATOM     13  N   UNL A   1      32.228  33.734  27.366  1.00  0.00    -0.352 N 
ATOM     14  O   UNL A   1      32.577  35.628  28.757  1.00  0.00    -0.269 OA
ATOM     15  C   UNL A   1      32.986  34.486  28.376  1.00  0.00     0.251 C 
ATOM     16  H   UNL A   1      31.404  34.114  26.984  1.00  0.00     0.163 HD
BRANCH  15  17
ATOM     17  C   UNL A   1      34.258  33.900  28.965  1.00  0.00     0.039 A 
ATOM     18  C   UNL A   1      34.077  32.763  29.736  1.00  0.00    -0.049 A 
ATOM     19  C   UNL A   1      35.473  34.367  28.700  1.00  0.00    -0.049 A 
ATOM     20  C   UNL A   1      35.240  32.349  30.428  1.00  0.00    -0.053 A 
ATOM     21  H   UNL A   1      33.177  32.263  29.799  1.00  0.00     0.063 H 
ATOM     22  C   UNL A   1      36.579  33.825  29.311  1.00  0.00    -0.053 A 
ATOM     23  H   UNL A   1      35.588  35.143  28.030  1.00  0.00     0.063 H 
ATOM     24  C   UNL A   1      36.467  32.737  30.131  1.00  0.00    -0.014 A 
ATOM     25  H   UNL A   1      35.121  31.698  31.221  1.00  0.00     0.063 H 
ATOM     26  H   UNL A   1      37.507  34.244  29.147  1.00  0.00     0.063 H 
BRANCH  24  27
ATOM     27  C   UNL A   1      37.689  32.013  30.673  1.00  0.00     0.031 A 
ATOM     28  C   UNL A   1      38.346  31.030  29.930  1.00  0.00     0.074 A 
ATOM     29  C   UNL A   1      38.013  32.343  31.977  1.00  0.00     0.049 A 
ATOM     30  N   UNL A   1      39.386  30.285  30.307  1.00  0.00    -0.248 NA
ATOM     31  C   UNL A   1      37.981  30.655  28.556  1.00  0.00    -0.034 C 
ATOM     32  C   UNL A   1      37.361  33.337  32.731  1.00  0.00    -0.036 A 
ATOM     33  N   UNL A   1      38.996  31.791  32.769  1.00  0.00    -0.354 N 
ATOM     34  C   UNL A   1      39.752  29.469  29.316  1.00  0.00     0.074 A 
ATOM     35  C   UNL A   1      38.849  29.691  28.178  1.00  0.00    -0.034 C 
ATOM     36  H   UNL A   1      37.212  31.049  27.992  1.00  0.00     0.065 H 
ATOM     37  C   UNL A   1      37.933  33.377  33.963  1.00  0.00    -0.036 A 
ATOM     38  H   UNL A   1      36.583  33.933  32.405  1.00  0.00     0.065 H 
ATOM     39  C   UNL A   1      38.954  32.409  34.000  1.00  0.00     0.049 A 
ATOM     40  H   UNL A   1      39.621  31.079  32.502  1.00  0.00     0.167 HD
ATOM     41  C   UNL A   1      40.802  28.550  29.316  1.00  0.00     0.037 A 
ATOM     42  H   UNL A   1      38.873  29.205  27.268  1.00  0.00     0.065 H 
ATOM     43  H   UNL A   1      37.666  34.007  34.736  1.00  0.00     0.065 H 
ATOM     44  C   UNL A   1      39.751  32.154  35.105  1.00  0.00     0.037 A 
ATOM     45  C   UNL A   1      41.627  28.327  30.408  1.00  0.00     0.049 A 
ATOM     46  C   UNL A   1      40.765  31.193  35.125  1.00  0.00     0.074 A 
ATOM     47  C   UNL A   1      42.695  27.410  30.421  1.00  0.00    -0.036 A 
ATOM     48  N   UNL A   1      41.568  28.927  31.645  1.00  0.00    -0.354 N 
ATOM     49  N   UNL A   1      41.155  30.406  34.121  1.00  0.00    -0.248 NA
ATOM     50  C   UNL A   1      41.594  30.893  36.299  1.00  0.00    -0.034 C 
ATOM     51  C   UNL A   1      43.268  27.449  31.654  1.00  0.00    -0.036 A 
ATOM     52  H   UNL A   1      42.992  26.812  29.634  1.00  0.00     0.065 H 
ATOM     53  C   UNL A   1      42.566  28.391  32.431  1.00  0.00     0.049 A 
ATOM     54  H   UNL A   1      40.925  29.619  31.922  1.00  0.00     0.167 HD
ATOM     55  C   UNL A   1      42.168  29.631  34.513  1.00  0.00     0.074 A 
ATOM     56  C   UNL A   1      42.460  29.928  35.922  1.00  0.00    -0.034 C 
ATOM     57  H   UNL A   1      41.527  31.333  37.231  1.00  0.00     0.065 H 
ATOM     58  H   UNL A   1      44.076  26.887  31.966  1.00  0.00     0.065 H 
ATOM     59  C   UNL A   1      42.863  28.690  33.750  1.00  0.00     0.037 A 
ATOM     60  H   UNL A   1      43.185  29.486  36.509  1.00  0.00     0.065 H 
BRANCH  41  61
ATOM     61  C   UNL A   1      41.056  27.751  28.048  1.00  0.00     0.064 A 
ATOM     62  C   UNL A   1      41.958  28.149  27.077  1.00  0.00     0.173 A 
ATOM     63  C   UNL A   1      40.466  26.562  27.996  1.00  0.00     0.173 A 
ATOM     64  F   UNL A   1      42.755  29.205  27.215  1.00  0.00    -0.203 F 
ATOM     65  C   UNL A   1      41.955  27.331  25.922  1.00  0.00     0.198 A 
ATOM     66  C   UNL A   1      40.616  25.755  26.893  1.00  0.00     0.198 A 
ATOM     67  F   UNL A   1      39.723  26.149  29.018  1.00  0.00    -0.203 F 
ATOM     68  F   UNL A   1      42.502  27.823  24.814  1.00  0.00    -0.200 F 
ATOM     69  C   UNL A   1      41.446  26.114  25.868  1.00  0.00     0.200 A 
ATOM     70  F   UNL A   1      39.945  24.609  26.824  1.00  0.00    -0.200 F 
ATOM     71  F   UNL A   1      41.727  25.281  24.869  1.00  0.00    -0.200 F 
ENDBRANCH  41  61
BRANCH  44  72
ATOM     72  C   UNL A   1      39.508  32.965  36.367  1.00  0.00     0.064 A 
ATOM     73  C   UNL A   1      40.222  34.127  36.612  1.00  0.00     0.173 A 
ATOM     74  C   UNL A   1      38.713  32.437  37.291  1.00  0.00     0.173 A 
ATOM     75  F   UNL A   1      40.822  34.824  35.652  1.00  0.00    -0.203 F 
ATOM     76  C   UNL A   1      40.256  34.502  37.976  1.00  0.00     0.198 A 
ATOM     77  C   UNL A   1      38.697  32.942  38.570  1.00  0.00     0.198 A 
ATOM     78  F   UNL A   1      37.928  31.412  36.977  1.00  0.00    -0.203 F 
ATOM     79  F   UNL A   1      41.190  35.369  38.356  1.00  0.00    -0.200 F 
ATOM     80  C   UNL A   1      39.425  34.051  38.898  1.00  0.00     0.200 A 
ATOM     81  F   UNL A   1      37.962  32.341  39.501  1.00  0.00    -0.200 F 
ATOM     82  F   UNL A   1      39.302  34.646  40.081  1.00  0.00    -0.200 F 
ENDBRANCH  44  72
BRANCH  59  83
ATOM     83  C   UNL A   1      44.017  27.951  34.408  1.00  0.00     0.064 A 
ATOM     84  C   UNL A   1      45.249  28.574  34.291  1.00  0.00     0.173 A 
ATOM     85  C   UNL A   1      43.874  26.835  35.113  1.00  0.00     0.173 A 
ATOM     86  F   UNL A   1      45.396  29.807  33.819  1.00  0.00    -0.203 F 
ATOM     87  C   UNL A   1      46.337  27.777  34.720  1.00  0.00     0.198 A 
ATOM     88  C   UNL A   1      44.971  26.181  35.619  1.00  0.00     0.198 A 
ATOM     89  F   UNL A   1      42.656  26.345  35.330  1.00  0.00    -0.203 F 
ATOM     90  F   UNL A   1      47.556  28.128  34.323  1.00  0.00    -0.200 F 
ATOM     91  C   UNL A   1      46.226  26.709  35.489  1.00  0.00     0.200 A 
ATOM     92  F   UNL A   1      44.810  25.018  36.244  1.00  0.00    -0.200 F 
ATOM     93  F   UNL A   1      47.277  26.175  36.104  1.00  0.00    -0.200 F 
ENDBRANCH  59  83
ENDBRANCH  24  27
ENDBRANCH  15  17
ENDBRANCH  10  13
ENDBRANCH   7  10
ENDBRANCH   4   7
ENDBRANCH   1   4
BRANCH   1  94
ATOM     94  C   UNL A   1      32.912  28.174  26.066  1.00  0.00    -0.036 C 
ATOM     95  H   UNL A   1      33.720  28.424  26.723  1.00  0.00     0.028 H 
ATOM     96  H   UNL A   1      33.205  28.361  25.053  1.00  0.00     0.028 H 
BRANCH  94  97
ATOM     97  C   UNL A   1      32.563  26.704  26.230  1.00  0.00     0.018 C 
ATOM     98  H   UNL A   1      33.269  26.240  26.887  1.00  0.00     0.049 H 
ATOM     99  H   UNL A   1      32.594  26.221  25.275  1.00  0.00     0.049 H 
BRANCH  97 100
ATOM    100  N   UNL A   1      31.212  26.582  26.797  1.00  0.00    -0.352 N 
ATOM    101  C   UNL A   1      30.319  25.506  26.345  1.00  0.00     0.253 C 
ATOM    102  H   UNL A   1      30.907  27.221  27.481  1.00  0.00     0.163 HD
ATOM    103  O   UNL A   1      29.151  25.401  26.836  1.00  0.00    -0.269 OA
BRANCH 101 104
ATOM    104  C   UNL A   1      30.792  24.519  25.290  1.00  0.00     0.063 A 
ATOM    105  C   UNL A   1      31.580  23.445  25.670  1.00  0.00    -0.047 A 
ATOM    106  C   UNL A   1      30.442  24.703  24.023  1.00  0.00     0.051 A 
ATOM    107  C   UNL A   1      32.194  22.773  24.586  1.00  0.00    -0.061 A 
ATOM    108  H   UNL A   1      31.709  23.161  26.654  1.00  0.00     0.063 H 
ATOM    109  C   UNL A   1      30.978  23.920  23.028  1.00  0.00    -0.038 A 
ATOM    110  C   UNL A   1      31.811  22.877  23.326  1.00  0.00    -0.060 A 
ATOM    111  H   UNL A   1      32.997  22.159  24.795  1.00  0.00     0.062 H 
ATOM    112  H   UNL A   1      30.748  24.121  22.043  1.00  0.00     0.064 H 
ATOM    113  H   UNL A   1      32.124  22.209  22.606  1.00  0.00     0.062 H 
BRANCH 106 114
ATOM    114  N   UNL A   1      29.472  25.752  23.680  1.00  0.00    -0.355 N 
ATOM    115  H   UNL A   1      28.508  25.586  23.786  1.00  0.00     0.167 HD
BRANCH 114 116
ATOM    116  C   UNL A   1      29.942  27.052  23.179  1.00  0.00     0.040 A 
ATOM    117  C   UNL A   1      31.253  27.172  22.750  1.00  0.00    -0.039 A 
ATOM    118  C   UNL A   1      29.099  28.076  23.110  1.00  0.00    -0.016 A 
ATOM    119  C   UNL A   1      31.665  28.508  22.528  1.00  0.00    -0.059 A 
ATOM    120  H   UNL A   1      31.874  26.361  22.605  1.00  0.00     0.064 H 
ATOM    121  C   UNL A   1      29.543  29.327  22.754  1.00  0.00     0.109 A 
ATOM    122  H   UNL A   1      28.100  27.931  23.325  1.00  0.00     0.066 H 
ATOM    123  C   UNL A   1      30.841  29.529  22.375  1.00  0.00    -0.039 A 
ATOM    124  H   UNL A   1      32.678  28.697  22.482  1.00  0.00     0.062 H 
ATOM    125  H   UNL A   1      31.161  30.432  21.990  1.00  0.00     0.064 H 
BRANCH 121 126
ATOM    126  S   UNL A   1      28.395  30.725  22.786  1.00  0.00     0.310 S 
ATOM    127  F   UNL A   1      27.287  29.891  23.555  1.00  0.00    -0.094 F 
ATOM    128  F   UNL A   1      27.746  30.221  21.443  1.00  0.00    -0.094 F 
ATOM    129  F   UNL A   1      27.425  31.940  22.832  1.00  0.00    -0.094 F 
ATOM    130  F   UNL A   1      28.963  31.136  24.202  1.00  0.00    -0.094 F 
ATOM    131  F   UNL A   1      29.309  29.436  22.811  1.00  0.00    -0.094 F 
ENDBRANCH 121 126
ENDBRANCH 114 116
ENDBRANCH 106 114
ENDBRANCH 101 104
ENDBRANCH  97 100
ENDBRANCH  94  97
ENDBRANCH   1  94
TORSDOF 16
ENDMDL
MODEL 7
REMARK VINA RESULT:     -13.2      6.100     11.529
REMARK SMILES O=C(NCCCCCCNC(=O)c1ccccc1Nc1cccc(S(F)(F)(F)(F)F)c1)c1ccc(-c2c3nc(c(-c4c(F)c(F)c(F)c(F)c4F)c4ccc([nH]4)c(-c4c(F)c(F)c(F)c(F)c4F)c4nc(c(-c5c(F)c(F)c(F)c(F)c5F)c5ccc2[nH]5)C=C4)C=C3)cc1
REMARK SMILES IDX 7 1 6 4 5 7 4 10 3 13 1 14 2 15 32 17 33 18 94 19 34 20
REMARK SMILES IDX 93 22 35 24 36 27 37 28 87 29 38 30 92 31 86 32 88 33 39 34
REMARK SMILES IDX 91 35 85 37 84 39 40 41 72 44 52 45 71 46 53 47 56 48 70 49
REMARK SMILES IDX 89 50 54 51 55 53 69 55 90 56 57 59 41 61 42 62 50 63 43 64
REMARK SMILES IDX 44 65 48 66 51 67 45 68 46 69 49 70 47 71 73 72 74 73 82 74
REMARK SMILES IDX 75 75 76 76 80 77 83 78 77 79 78 80 81 81 79 82 58 83 59 84
REMARK SMILES IDX 67 85 60 86 61 87 65 88 68 89 62 90 63 91 66 92 64 93 8 94
REMARK SMILES IDX 9 97 10 100 11 101 12 103 13 104 14 105 18 106 15 107 17 109
REMARK SMILES IDX 16 110 19 114 20 116 21 117 31 118 22 119 24 121 23 123
REMARK SMILES IDX 25 126 26 127 27 128 28 129 29 130 30 131
REMARK H PARENT 7 2 7 3 6 5 6 6 5 8 5 9 4 11 4 12 3 16 33 21 94 23 34 25 93 26
REMARK H PARENT 92 36 86 38 88 40 91 42 85 43 53 52 56 54 89 57 54 58 90 60
REMARK H PARENT 8 95 8 96 9 98 9 99 10 102 14 108 15 111 17 112 16 113 19 115
REMARK H PARENT 21 120 31 122 22 124 23 125
REMARK Flexibility Score: inf
ROOT
ATOM      1  C   UNL A   1      37.908  21.978  25.465  1.00  0.00    -0.052 C 
ATOM      2  H   UNL A   1      38.495  22.631  24.853  1.00  0.00     0.027 H 
ATOM      3  H   UNL A   1      38.513  21.592  26.258  1.00  0.00     0.027 H 
ENDROOT
BRANCH   1   4
ATOM      4  C   UNL A   1      37.384  20.828  24.620  1.00  0.00    -0.052 C 
ATOM      5  H   UNL A   1      36.334  20.710  24.789  1.00  0.00     0.027 H 
ATOM      6  H   UNL A   1      37.557  21.038  23.585  1.00  0.00     0.027 H 
BRANCH   4   7
ATOM      7  C   UNL A   1      38.107  19.547  25.004  1.00  0.00    -0.036 C 
ATOM      8  H   UNL A   1      37.437  18.907  25.540  1.00  0.00     0.028 H 
ATOM      9  H   UNL A   1      38.445  19.049  24.119  1.00  0.00     0.028 H 
BRANCH   7  10
ATOM     10  C   UNL A   1      39.299  19.883  25.884  1.00  0.00     0.018 C 
ATOM     11  H   UNL A   1      39.711  20.824  25.584  1.00  0.00     0.049 H 
ATOM     12  H   UNL A   1      38.983  19.943  26.905  1.00  0.00     0.049 H 
BRANCH  10  13
ATOM     13  N   UNL A   1      40.320  18.835  25.748  1.00  0.00    -0.352 N 
ATOM     14  O   UNL A   1      42.617  18.241  25.890  1.00  0.00    -0.269 OA
ATOM     15  C   UNL A   1      41.733  19.147  26.008  1.00  0.00     0.251 C 
ATOM     16  H   UNL A   1      40.058  17.924  25.482  1.00  0.00     0.163 HD
BRANCH  15  17
ATOM     17  C   UNL A   1      42.137  20.553  26.420  1.00  0.00     0.039 A 
ATOM     18  C   UNL A   1      42.238  21.462  25.379  1.00  0.00    -0.049 A 
ATOM     19  C   UNL A   1      42.298  20.931  27.683  1.00  0.00    -0.049 A 
ATOM     20  C   UNL A   1      42.800  22.705  25.756  1.00  0.00    -0.053 A 
ATOM     21  H   UNL A   1      41.930  21.252  24.416  1.00  0.00     0.063 H 
ATOM     22  C   UNL A   1      42.719  22.204  27.983  1.00  0.00    -0.053 A 
ATOM     23  H   UNL A   1      42.103  20.264  28.444  1.00  0.00     0.063 H 
ATOM     24  C   UNL A   1      42.896  23.138  27.000  1.00  0.00    -0.014 A 
ATOM     25  H   UNL A   1      43.160  23.316  25.006  1.00  0.00     0.063 H 
ATOM     26  H   UNL A   1      42.905  22.460  28.965  1.00  0.00     0.063 H 
BRANCH  24  27
ATOM     27  C   UNL A   1      43.187  24.594  27.321  1.00  0.00     0.031 A 
ATOM     28  C   UNL A   1      42.219  25.426  27.886  1.00  0.00     0.074 A 
ATOM     29  C   UNL A   1      44.437  25.027  26.915  1.00  0.00     0.049 A 
ATOM     30  N   UNL A   1      42.324  26.727  28.162  1.00  0.00    -0.248 NA
ATOM     31  C   UNL A   1      40.878  24.976  28.286  1.00  0.00    -0.034 C 
ATOM     32  C   UNL A   1      45.422  24.193  26.351  1.00  0.00    -0.036 A 
ATOM     33  N   UNL A   1      44.951  26.304  26.976  1.00  0.00    -0.354 N 
ATOM     34  C   UNL A   1      41.196  27.174  28.718  1.00  0.00     0.074 A 
ATOM     35  C   UNL A   1      40.247  26.055  28.800  1.00  0.00    -0.034 C 
ATOM     36  H   UNL A   1      40.493  24.023  28.193  1.00  0.00     0.065 H 
ATOM     37  C   UNL A   1      46.509  24.958  26.065  1.00  0.00    -0.036 A 
ATOM     38  H   UNL A   1      45.334  23.179  26.183  1.00  0.00     0.065 H 
ATOM     39  C   UNL A   1      46.222  26.282  26.447  1.00  0.00     0.049 A 
ATOM     40  H   UNL A   1      44.489  27.095  27.336  1.00  0.00     0.167 HD
ATOM     41  C   UNL A   1      40.922  28.468  29.161  1.00  0.00     0.037 A 
ATOM     42  H   UNL A   1      39.287  26.087  29.176  1.00  0.00     0.065 H 
ATOM     43  H   UNL A   1      47.390  24.625  25.643  1.00  0.00     0.065 H 
ATOM     44  C   UNL A   1      47.097  27.346  26.295  1.00  0.00     0.037 A 
ATOM     45  C   UNL A   1      41.814  29.524  29.048  1.00  0.00     0.049 A 
ATOM     46  C   UNL A   1      46.801  28.655  26.685  1.00  0.00     0.074 A 
ATOM     47  C   UNL A   1      41.555  30.833  29.496  1.00  0.00    -0.036 A 
ATOM     48  N   UNL A   1      43.075  29.506  28.496  1.00  0.00    -0.354 N 
ATOM     49  N   UNL A   1      45.689  29.092  27.276  1.00  0.00    -0.248 NA
ATOM     50  C   UNL A   1      47.707  29.795  26.499  1.00  0.00    -0.034 C 
ATOM     51  C   UNL A   1      42.643  31.598  29.211  1.00  0.00    -0.036 A 
ATOM     52  H   UNL A   1      40.692  31.156  29.960  1.00  0.00     0.065 H 
ATOM     53  C   UNL A   1      43.598  30.778  28.578  1.00  0.00     0.049 A 
ATOM     54  H   UNL A   1      43.526  28.721  28.110  1.00  0.00     0.167 HD
ATOM     55  C   UNL A   1      45.779  30.402  27.513  1.00  0.00     0.074 A 
ATOM     56  C   UNL A   1      47.076  30.875  27.011  1.00  0.00    -0.034 C 
ATOM     57  H   UNL A   1      48.643  29.776  26.064  1.00  0.00     0.065 H 
ATOM     58  H   UNL A   1      42.750  32.603  29.420  1.00  0.00     0.065 H 
ATOM     59  C   UNL A   1      44.833  31.221  28.132  1.00  0.00     0.037 A 
ATOM     60  H   UNL A   1      47.435  31.842  27.042  1.00  0.00     0.065 H 
BRANCH  41  61
ATOM     61  C   UNL A   1      39.570  28.736  29.801  1.00  0.00     0.064 A 
ATOM     62  C   UNL A   1      39.363  28.684  31.169  1.00  0.00     0.173 A 
ATOM     63  C   UNL A   1      38.624  29.172  28.977  1.00  0.00     0.173 A 
ATOM     64  F   UNL A   1      40.347  28.501  32.046  1.00  0.00    -0.203 F 
ATOM     65  C   UNL A   1      38.010  28.843  31.551  1.00  0.00     0.198 A 
ATOM     66  C   UNL A   1      37.359  29.438  29.444  1.00  0.00     0.198 A 
ATOM     67  F   UNL A   1      38.903  29.352  27.690  1.00  0.00    -0.203 F 
ATOM     68  F   UNL A   1      37.662  28.456  32.775  1.00  0.00    -0.200 F 
ATOM     69  C   UNL A   1      37.068  29.349  30.776  1.00  0.00     0.200 A 
ATOM     70  F   UNL A   1      36.404  29.787  28.586  1.00  0.00    -0.200 F 
ATOM     71  F   UNL A   1      35.899  29.752  31.267  1.00  0.00    -0.200 F 
ENDBRANCH  41  61
BRANCH  44  72
ATOM     72  C   UNL A   1      48.455  27.075  25.669  1.00  0.00     0.064 A 
ATOM     73  C   UNL A   1      49.556  26.786  26.460  1.00  0.00     0.173 A 
ATOM     74  C   UNL A   1      48.581  27.285  24.364  1.00  0.00     0.173 A 
ATOM     75  F   UNL A   1      49.453  26.323  27.702  1.00  0.00    -0.203 F 
ATOM     76  C   UNL A   1      50.797  27.027  25.826  1.00  0.00     0.198 A 
ATOM     77  C   UNL A   1      49.827  27.375  23.787  1.00  0.00     0.198 A 
ATOM     78  F   UNL A   1      47.495  27.411  23.609  1.00  0.00    -0.203 F 
ATOM     79  F   UNL A   1      51.876  27.128  26.597  1.00  0.00    -0.200 F 
ATOM     80  C   UNL A   1      50.959  27.160  24.522  1.00  0.00     0.200 A 
ATOM     81  F   UNL A   1      49.929  27.676  22.496  1.00  0.00    -0.200 F 
ATOM     82  F   UNL A   1      52.160  27.087  23.954  1.00  0.00    -0.200 F 
ENDBRANCH  44  72
BRANCH  59  83
ATOM     83  C   UNL A   1      45.180  32.688  28.331  1.00  0.00     0.064 A 
ATOM     84  C   UNL A   1      44.755  33.528  27.315  1.00  0.00     0.173 A 
ATOM     85  C   UNL A   1      45.774  33.166  29.417  1.00  0.00     0.173 A 
ATOM     86  F   UNL A   1      43.942  33.134  26.339  1.00  0.00    -0.203 F 
ATOM     87  C   UNL A   1      45.265  34.845  27.409  1.00  0.00     0.198 A 
ATOM     88  C   UNL A   1      46.122  34.493  29.498  1.00  0.00     0.198 A 
ATOM     89  F   UNL A   1      46.033  32.354  30.438  1.00  0.00    -0.203 F 
ATOM     90  F   UNL A   1      45.216  35.607  26.321  1.00  0.00    -0.200 F 
ATOM     91  C   UNL A   1      45.785  35.370  28.503  1.00  0.00     0.200 A 
ATOM     92  F   UNL A   1      46.796  34.931  30.558  1.00  0.00    -0.200 F 
ATOM     93  F   UNL A   1      45.974  36.680  28.632  1.00  0.00    -0.200 F 
ENDBRANCH  59  83
ENDBRANCH  24  27
ENDBRANCH  15  17
ENDBRANCH  10  13
ENDBRANCH   7  10
ENDBRANCH   4   7
ENDBRANCH   1   4
BRANCH   1  94
ATOM     94  C   UNL A   1      36.737  22.750  26.051  1.00  0.00    -0.036 C 
ATOM     95  H   UNL A   1      36.609  23.668  25.514  1.00  0.00     0.028 H 
ATOM     96  H   UNL A   1      36.931  22.965  27.082  1.00  0.00     0.028 H 
BRANCH  94  97
ATOM     97  C   UNL A   1      35.471  21.917  25.936  1.00  0.00     0.018 C 
ATOM     98  H   UNL A   1      35.726  20.918  25.646  1.00  0.00     0.049 H 
ATOM     99  H   UNL A   1      34.825  22.348  25.200  1.00  0.00     0.049 H 
BRANCH  97 100
ATOM    100  N   UNL A   1      34.783  21.889  27.235  1.00  0.00    -0.352 N 
ATOM    101  C   UNL A   1      33.486  22.562  27.395  1.00  0.00     0.253 C 
ATOM    102  H   UNL A   1      35.191  21.419  27.998  1.00  0.00     0.163 HD
ATOM    103  O   UNL A   1      32.892  22.538  28.518  1.00  0.00    -0.269 OA
BRANCH 101 104
ATOM    104  C   UNL A   1      32.856  23.287  26.217  1.00  0.00     0.063 A 
ATOM    105  C   UNL A   1      33.222  24.596  25.951  1.00  0.00    -0.047 A 
ATOM    106  C   UNL A   1      31.966  22.653  25.463  1.00  0.00     0.051 A 
ATOM    107  C   UNL A   1      32.371  25.253  25.030  1.00  0.00    -0.061 A 
ATOM    108  H   UNL A   1      34.040  25.052  26.385  1.00  0.00     0.063 H 
ATOM    109  C   UNL A   1      31.268  23.326  24.489  1.00  0.00    -0.038 A 
ATOM    110  C   UNL A   1      31.535  24.638  24.212  1.00  0.00    -0.060 A 
ATOM    111  H   UNL A   1      32.405  26.284  24.996  1.00  0.00     0.062 H 
ATOM    112  H   UNL A   1      30.531  22.835  23.960  1.00  0.00     0.064 H 
ATOM    113  H   UNL A   1      31.108  25.122  23.408  1.00  0.00     0.062 H 
BRANCH 106 114
ATOM    114  N   UNL A   1      31.726  21.218  25.670  1.00  0.00    -0.355 N 
ATOM    115  H   UNL A   1      31.249  20.910  26.473  1.00  0.00     0.167 HD
BRANCH 114 116
ATOM    116  C   UNL A   1      32.198  20.242  24.676  1.00  0.00     0.040 A 
ATOM    117  C   UNL A   1      31.918  20.459  23.338  1.00  0.00    -0.039 A 
ATOM    118  C   UNL A   1      32.914  19.195  25.069  1.00  0.00    -0.016 A 
ATOM    119  C   UNL A   1      32.195  19.348  22.506  1.00  0.00    -0.059 A 
ATOM    120  H   UNL A   1      31.539  21.349  22.979  1.00  0.00     0.064 H 
ATOM    121  C   UNL A   1      33.267  18.213  24.174  1.00  0.00     0.109 A 
ATOM    122  H   UNL A   1      33.209  19.118  26.055  1.00  0.00     0.066 H 
ATOM    123  C   UNL A   1      32.970  18.334  22.846  1.00  0.00    -0.039 A 
ATOM    124  H   UNL A   1      31.761  19.328  21.570  1.00  0.00     0.062 H 
ATOM    125  H   UNL A   1      33.331  17.669  22.144  1.00  0.00     0.064 H 
BRANCH 121 126
ATOM    126  S   UNL A   1      34.138  16.740  24.764  1.00  0.00     0.310 S 
ATOM    127  F   UNL A   1      34.381  16.205  23.290  1.00  0.00    -0.094 F 
ATOM    128  F   UNL A   1      32.782  15.939  24.758  1.00  0.00    -0.094 F 
ATOM    129  F   UNL A   1      34.907  15.491  25.279  1.00  0.00    -0.094 F 
ATOM    130  F   UNL A   1      35.507  17.517  24.628  1.00  0.00    -0.094 F 
ATOM    131  F   UNL A   1      33.389  17.981  24.134  1.00  0.00    -0.094 F 
ENDBRANCH 121 126
ENDBRANCH 114 116
ENDBRANCH 106 114
ENDBRANCH 101 104
ENDBRANCH  97 100
ENDBRANCH  94  97
ENDBRANCH   1  94
TORSDOF 16
ENDMDL
MODEL 8
REMARK VINA RESULT:     -13.2      6.285     10.365
REMARK SMILES O=C(NCCCCCCNC(=O)c1ccccc1Nc1cccc(S(F)(F)(F)(F)F)c1)c1ccc(-c2c3nc(c(-c4c(F)c(F)c(F)c(F)c4F)c4ccc([nH]4)c(-c4c(F)c(F)c(F)c(F)c4F)c4nc(c(-c5c(F)c(F)c(F)c(F)c5F)c5ccc2[nH]5)C=C4)C=C3)cc1
REMARK SMILES IDX 7 1 6 4 5 7 4 10 3 13 1 14 2 15 32 17 33 18 94 19 34 20
REMARK SMILES IDX 93 22 35 24 36 27 37 28 87 29 38 30 92 31 86 32 88 33 39 34
REMARK SMILES IDX 91 35 85 37 84 39 40 41 72 44 52 45 71 46 53 47 56 48 70 49
REMARK SMILES IDX 89 50 54 51 55 53 69 55 90 56 57 59 41 61 42 62 50 63 43 64
REMARK SMILES IDX 44 65 48 66 51 67 45 68 46 69 49 70 47 71 73 72 74 73 82 74
REMARK SMILES IDX 75 75 76 76 80 77 83 78 77 79 78 80 81 81 79 82 58 83 59 84
REMARK SMILES IDX 67 85 60 86 61 87 65 88 68 89 62 90 63 91 66 92 64 93 8 94
REMARK SMILES IDX 9 97 10 100 11 101 12 103 13 104 14 105 18 106 15 107 17 109
REMARK SMILES IDX 16 110 19 114 20 116 21 117 31 118 22 119 24 121 23 123
REMARK SMILES IDX 25 126 26 127 27 128 28 129 29 130 30 131
REMARK H PARENT 7 2 7 3 6 5 6 6 5 8 5 9 4 11 4 12 3 16 33 21 94 23 34 25 93 26
REMARK H PARENT 92 36 86 38 88 40 91 42 85 43 53 52 56 54 89 57 54 58 90 60
REMARK H PARENT 8 95 8 96 9 98 9 99 10 102 14 108 15 111 17 112 16 113 19 115
REMARK H PARENT 21 120 31 122 22 124 23 125
REMARK Flexibility Score: inf
ROOT
ATOM      1  C   UNL A   1      37.953  21.923  25.510  1.00  0.00    -0.052 C 
ATOM      2  H   UNL A   1      38.535  22.621  24.946  1.00  0.00     0.027 H 
ATOM      3  H   UNL A   1      38.519  21.586  26.353  1.00  0.00     0.027 H 
ENDROOT
BRANCH   1   4
ATOM      4  C   UNL A   1      37.597  20.734  24.631  1.00  0.00    -0.052 C 
ATOM      5  H   UNL A   1      36.559  20.503  24.746  1.00  0.00     0.027 H 
ATOM      6  H   UNL A   1      37.798  20.974  23.608  1.00  0.00     0.027 H 
BRANCH   4   7
ATOM      7  C   UNL A   1      38.432  19.532  25.043  1.00  0.00    -0.036 C 
ATOM      8  H   UNL A   1      37.809  18.817  25.538  1.00  0.00     0.028 H 
ATOM      9  H   UNL A   1      38.867  19.085  24.173  1.00  0.00     0.028 H 
BRANCH   7  10
ATOM     10  C   UNL A   1      39.535  19.981  25.987  1.00  0.00     0.018 C 
ATOM     11  H   UNL A   1      39.996  20.867  25.602  1.00  0.00     0.049 H 
ATOM     12  H   UNL A   1      39.118  20.187  26.951  1.00  0.00     0.049 H 
BRANCH  10  13
ATOM     13  N   UNL A   1      40.543  18.917  26.106  1.00  0.00    -0.352 N 
ATOM     14  O   UNL A   1      42.824  18.343  26.436  1.00  0.00    -0.269 OA
ATOM     15  C   UNL A   1      41.954  19.263  26.333  1.00  0.00     0.251 C 
ATOM     16  H   UNL A   1      40.272  17.973  26.034  1.00  0.00     0.163 HD
BRANCH  15  17
ATOM     17  C   UNL A   1      42.370  20.720  26.446  1.00  0.00     0.039 A 
ATOM     18  C   UNL A   1      42.609  21.163  27.737  1.00  0.00    -0.049 A 
ATOM     19  C   UNL A   1      42.586  21.505  25.396  1.00  0.00    -0.049 A 
ATOM     20  C   UNL A   1      42.805  22.561  27.835  1.00  0.00    -0.053 A 
ATOM     21  H   UNL A   1      42.642  20.531  28.552  1.00  0.00     0.063 H 
ATOM     22  C   UNL A   1      42.907  22.830  25.569  1.00  0.00    -0.053 A 
ATOM     23  H   UNL A   1      42.514  21.116  24.444  1.00  0.00     0.063 H 
ATOM     24  C   UNL A   1      43.101  23.350  26.819  1.00  0.00    -0.014 A 
ATOM     25  H   UNL A   1      42.709  22.995  28.767  1.00  0.00     0.063 H 
ATOM     26  H   UNL A   1      43.004  23.441  24.744  1.00  0.00     0.063 H 
BRANCH  24  27
ATOM     27  C   UNL A   1      43.628  24.760  27.027  1.00  0.00     0.031 A 
ATOM     28  C   UNL A   1      44.965  25.084  26.788  1.00  0.00     0.074 A 
ATOM     29  C   UNL A   1      42.702  25.641  27.558  1.00  0.00     0.049 A 
ATOM     30  N   UNL A   1      45.565  26.259  26.983  1.00  0.00    -0.248 NA
ATOM     31  C   UNL A   1      45.958  24.140  26.256  1.00  0.00    -0.034 C 
ATOM     32  C   UNL A   1      41.350  25.325  27.794  1.00  0.00    -0.036 A 
ATOM     33  N   UNL A   1      42.903  26.948  27.946  1.00  0.00    -0.354 N 
ATOM     34  C   UNL A   1      46.847  26.188  26.620  1.00  0.00     0.074 A 
ATOM     35  C   UNL A   1      47.120  24.823  26.152  1.00  0.00    -0.034 C 
ATOM     36  H   UNL A   1      45.800  23.150  26.011  1.00  0.00     0.065 H 
ATOM     37  C   UNL A   1      40.748  26.421  28.328  1.00  0.00    -0.036 A 
ATOM     38  H   UNL A   1      40.895  24.420  27.597  1.00  0.00     0.065 H 
ATOM     39  C   UNL A   1      41.713  27.440  28.433  1.00  0.00     0.049 A 
ATOM     40  H   UNL A   1      43.751  27.443  27.886  1.00  0.00     0.167 HD
ATOM     41  C   UNL A   1      47.798  27.209  26.657  1.00  0.00     0.037 A 
ATOM     42  H   UNL A   1      48.023  24.456  25.812  1.00  0.00     0.065 H 
ATOM     43  H   UNL A   1      39.756  26.492  28.607  1.00  0.00     0.065 H 
ATOM     44  C   UNL A   1      41.464  28.703  28.947  1.00  0.00     0.037 A 
ATOM     45  C   UNL A   1      47.537  28.485  27.131  1.00  0.00     0.049 A 
ATOM     46  C   UNL A   1      42.430  29.707  29.039  1.00  0.00     0.074 A 
ATOM     47  C   UNL A   1      48.483  29.527  27.168  1.00  0.00    -0.036 A 
ATOM     48  N   UNL A   1      46.354  28.969  27.641  1.00  0.00    -0.354 N 
ATOM     49  N   UNL A   1      43.701  29.648  28.638  1.00  0.00    -0.248 NA
ATOM     50  C   UNL A   1      42.186  31.037  29.611  1.00  0.00    -0.034 C 
ATOM     51  C   UNL A   1      47.881  30.624  27.702  1.00  0.00    -0.036 A 
ATOM     52  H   UNL A   1      49.462  29.470  26.847  1.00  0.00     0.065 H 
ATOM     53  C   UNL A   1      46.549  30.283  28.008  1.00  0.00     0.049 A 
ATOM     54  H   UNL A   1      45.513  28.465  27.728  1.00  0.00     0.167 HD
ATOM     55  C   UNL A   1      44.312  30.811  28.874  1.00  0.00     0.074 A 
ATOM     56  C   UNL A   1      43.348  31.719  29.509  1.00  0.00    -0.034 C 
ATOM     57  H   UNL A   1      41.300  31.384  30.011  1.00  0.00     0.065 H 
ATOM     58  H   UNL A   1      48.322  31.544  27.858  1.00  0.00     0.065 H 
ATOM     59  C   UNL A   1      45.633  31.152  28.580  1.00  0.00     0.037 A 
ATOM     60  H   UNL A   1      43.523  32.688  29.817  1.00  0.00     0.065 H 
BRANCH  41  61
ATOM     61  C   UNL A   1      49.198  26.903  26.151  1.00  0.00     0.064 A 
ATOM     62  C   UNL A   1      50.166  26.299  26.936  1.00  0.00     0.173 A 
ATOM     63  C   UNL A   1      49.396  27.114  24.854  1.00  0.00     0.173 A 
ATOM     64  F   UNL A   1      49.925  25.840  28.160  1.00  0.00    -0.203 F 
ATOM     65  C   UNL A   1      51.436  26.215  26.317  1.00  0.00     0.198 A 
ATOM     66  C   UNL A   1      50.626  26.882  24.287  1.00  0.00     0.198 A 
ATOM     67  F   UNL A   1      48.395  27.556  24.100  1.00  0.00    -0.203 F 
ATOM     68  F   UNL A   1      52.491  25.993  27.096  1.00  0.00    -0.200 F 
ATOM     69  C   UNL A   1      51.646  26.342  25.019  1.00  0.00     0.200 A 
ATOM     70  F   UNL A   1      50.825  27.186  23.008  1.00  0.00    -0.200 F 
ATOM     71  F   UNL A   1      52.790  25.965  24.455  1.00  0.00    -0.200 F 
ENDBRANCH  41  61
BRANCH  44  72
ATOM     72  C   UNL A   1      40.059  29.013  29.438  1.00  0.00     0.064 A 
ATOM     73  C   UNL A   1      39.708  28.804  30.762  1.00  0.00     0.173 A 
ATOM     74  C   UNL A   1      39.148  29.331  28.525  1.00  0.00     0.173 A 
ATOM     75  F   UNL A   1      40.599  28.737  31.745  1.00  0.00    -0.203 F 
ATOM     76  C   UNL A   1      38.315  28.670  30.971  1.00  0.00     0.198 A 
ATOM     77  C   UNL A   1      37.808  29.310  28.837  1.00  0.00     0.198 A 
ATOM     78  F   UNL A   1      39.533  29.671  27.299  1.00  0.00    -0.203 F 
ATOM     79  F   UNL A   1      37.912  28.119  32.113  1.00  0.00    -0.200 F 
ATOM     80  C   UNL A   1      37.387  29.052  30.112  1.00  0.00     0.200 A 
ATOM     81  F   UNL A   1      36.911  29.543  27.884  1.00  0.00    -0.200 F 
ATOM     82  F   UNL A   1      36.113  29.181  30.469  1.00  0.00    -0.200 F 
ENDBRANCH  44  72
BRANCH  59  83
ATOM     83  C   UNL A   1      46.095  32.563  28.907  1.00  0.00     0.064 A 
ATOM     84  C   UNL A   1      45.888  33.490  27.899  1.00  0.00     0.173 A 
ATOM     85  C   UNL A   1      46.590  32.924  30.084  1.00  0.00     0.173 A 
ATOM     86  F   UNL A   1      45.171  33.231  26.810  1.00  0.00    -0.203 F 
ATOM     87  C   UNL A   1      46.509  34.740  28.133  1.00  0.00     0.198 A 
ATOM     88  C   UNL A   1      47.055  34.202  30.286  1.00  0.00     0.198 A 
ATOM     89  F   UNL A   1      46.636  32.042  31.078  1.00  0.00    -0.203 F 
ATOM     90  F   UNL A   1      46.674  35.553  27.095  1.00  0.00    -0.200 F 
ATOM     91  C   UNL A   1      46.935  35.155  29.312  1.00  0.00     0.200 A 
ATOM     92  F   UNL A   1      47.628  34.516  31.444  1.00  0.00    -0.200 F 
ATOM     93  F   UNL A   1      47.234  36.430  29.541  1.00  0.00    -0.200 F 
ENDBRANCH  59  83
ENDBRANCH  24  27
ENDBRANCH  15  17
ENDBRANCH  10  13
ENDBRANCH   7  10
ENDBRANCH   4   7
ENDBRANCH   1   4
BRANCH   1  94
ATOM     94  C   UNL A   1      36.678  22.596  25.991  1.00  0.00    -0.036 C 
ATOM     95  H   UNL A   1      36.454  23.430  25.358  1.00  0.00     0.028 H 
ATOM     96  H   UNL A   1      36.813  22.939  26.996  1.00  0.00     0.028 H 
BRANCH  94  97
ATOM     97  C   UNL A   1      35.530  21.602  25.943  1.00  0.00     0.018 C 
ATOM     98  H   UNL A   1      35.914  20.620  25.758  1.00  0.00     0.049 H 
ATOM     99  H   UNL A   1      34.855  21.874  25.158  1.00  0.00     0.049 H 
BRANCH  97 100
ATOM    100  N   UNL A   1      34.817  21.615  27.229  1.00  0.00    -0.352 N 
ATOM    101  C   UNL A   1      33.556  22.359  27.363  1.00  0.00     0.253 C 
ATOM    102  H   UNL A   1      35.184  21.125  28.000  1.00  0.00     0.163 HD
ATOM    103  O   UNL A   1      32.940  22.370  28.475  1.00  0.00    -0.269 OA
BRANCH 101 104
ATOM    104  C   UNL A   1      32.990  23.114  26.172  1.00  0.00     0.063 A 
ATOM    105  C   UNL A   1      33.418  24.408  25.922  1.00  0.00    -0.047 A 
ATOM    106  C   UNL A   1      32.094  22.522  25.391  1.00  0.00     0.051 A 
ATOM    107  C   UNL A   1      32.621  25.104  24.983  1.00  0.00    -0.061 A 
ATOM    108  H   UNL A   1      34.243  24.826  26.380  1.00  0.00     0.063 H 
ATOM    109  C   UNL A   1      31.451  23.229  24.403  1.00  0.00    -0.038 A 
ATOM    110  C   UNL A   1      31.782  24.529  24.139  1.00  0.00    -0.060 A 
ATOM    111  H   UNL A   1      32.700  26.133  24.955  1.00  0.00     0.062 H 
ATOM    112  H   UNL A   1      30.708  22.772  23.852  1.00  0.00     0.064 H 
ATOM    113  H   UNL A   1      31.397  25.034  23.327  1.00  0.00     0.062 H 
BRANCH 106 114
ATOM    114  N   UNL A   1      31.787  21.098  25.585  1.00  0.00    -0.355 N 
ATOM    115  H   UNL A   1      31.251  20.811  26.358  1.00  0.00     0.167 HD
BRANCH 114 116
ATOM    116  C   UNL A   1      32.279  20.102  24.622  1.00  0.00     0.040 A 
ATOM    117  C   UNL A   1      32.038  20.297  23.273  1.00  0.00    -0.039 A 
ATOM    118  C   UNL A   1      32.978  19.058  25.053  1.00  0.00    -0.016 A 
ATOM    119  C   UNL A   1      32.331  19.169  22.468  1.00  0.00    -0.059 A 
ATOM    120  H   UNL A   1      31.676  21.183  22.888  1.00  0.00     0.064 H 
ATOM    121  C   UNL A   1      33.349  18.058  24.186  1.00  0.00     0.109 A 
ATOM    122  H   UNL A   1      33.244  18.996  26.048  1.00  0.00     0.066 H 
ATOM    123  C   UNL A   1      33.089  18.156  22.847  1.00  0.00    -0.039 A 
ATOM    124  H   UNL A   1      31.923  19.136  21.521  1.00  0.00     0.062 H 
ATOM    125  H   UNL A   1      33.466  17.477  22.168  1.00  0.00     0.064 H 
BRANCH 121 126
ATOM    126  S   UNL A   1      34.193  16.590  24.825  1.00  0.00     0.310 S 
ATOM    127  F   UNL A   1      34.475  16.029  23.369  1.00  0.00    -0.094 F 
ATOM    128  F   UNL A   1      32.833  15.796  24.793  1.00  0.00    -0.094 F 
ATOM    129  F   UNL A   1      34.939  15.345  25.383  1.00  0.00    -0.094 F 
ATOM    130  F   UNL A   1      35.570  17.357  24.717  1.00  0.00    -0.094 F 
ATOM    131  F   UNL A   1      33.471  17.825  24.153  1.00  0.00    -0.094 F 
ENDBRANCH 121 126
ENDBRANCH 114 116
ENDBRANCH 106 114
ENDBRANCH 101 104
ENDBRANCH  97 100
ENDBRANCH  94  97
ENDBRANCH   1  94
TORSDOF 16
ENDMDL
MODEL 9
REMARK VINA RESULT:     -13.1      5.975     11.293
REMARK SMILES O=C(NCCCCCCNC(=O)c1ccccc1Nc1cccc(S(F)(F)(F)(F)F)c1)c1ccc(-c2c3nc(c(-c4c(F)c(F)c(F)c(F)c4F)c4ccc([nH]4)c(-c4c(F)c(F)c(F)c(F)c4F)c4nc(c(-c5c(F)c(F)c(F)c(F)c5F)c5ccc2[nH]5)C=C4)C=C3)cc1
REMARK SMILES IDX 7 1 6 4 5 7 4 10 3 13 1 14 2 15 32 17 33 18 94 19 34 20
REMARK SMILES IDX 93 22 35 24 36 27 37 28 87 29 38 30 92 31 86 32 88 33 39 34
REMARK SMILES IDX 91 35 85 37 84 39 40 41 72 44 52 45 71 46 53 47 56 48 70 49
REMARK SMILES IDX 89 50 54 51 55 53 69 55 90 56 57 59 41 61 42 62 50 63 43 64
REMARK SMILES IDX 44 65 48 66 51 67 45 68 46 69 49 70 47 71 73 72 74 73 82 74
REMARK SMILES IDX 75 75 76 76 80 77 83 78 77 79 78 80 81 81 79 82 58 83 59 84
REMARK SMILES IDX 67 85 60 86 61 87 65 88 68 89 62 90 63 91 66 92 64 93 8 94
REMARK SMILES IDX 9 97 10 100 11 101 12 103 13 104 14 105 18 106 15 107 17 109
REMARK SMILES IDX 16 110 19 114 20 116 21 117 31 118 22 119 24 121 23 123
REMARK SMILES IDX 25 126 26 127 27 128 28 129 29 130 30 131
REMARK H PARENT 7 2 7 3 6 5 6 6 5 8 5 9 4 11 4 12 3 16 33 21 94 23 34 25 93 26
REMARK H PARENT 92 36 86 38 88 40 91 42 85 43 53 52 56 54 89 57 54 58 90 60
REMARK H PARENT 8 95 8 96 9 98 9 99 10 102 14 108 15 111 17 112 16 113 19 115
REMARK H PARENT 21 120 31 122 22 124 23 125
REMARK Flexibility Score: inf
ROOT
ATOM      1  C   UNL A   1      37.539  21.792  24.980  1.00  0.00    -0.052 C 
ATOM      2  H   UNL A   1      38.527  21.868  24.576  1.00  0.00     0.027 H 
ATOM      3  H   UNL A   1      37.562  22.019  26.025  1.00  0.00     0.027 H 
ENDROOT
BRANCH   1   4
ATOM      4  C   UNL A   1      37.018  20.377  24.780  1.00  0.00    -0.052 C 
ATOM      5  H   UNL A   1      36.232  20.184  25.480  1.00  0.00     0.027 H 
ATOM      6  H   UNL A   1      36.643  20.273  23.784  1.00  0.00     0.027 H 
BRANCH   4   7
ATOM      7  C   UNL A   1      38.149  19.386  25.002  1.00  0.00    -0.036 C 
ATOM      8  H   UNL A   1      37.792  18.563  25.585  1.00  0.00     0.028 H 
ATOM      9  H   UNL A   1      38.500  19.028  24.056  1.00  0.00     0.028 H 
BRANCH   7  10
ATOM     10  C   UNL A   1      39.287  20.072  25.739  1.00  0.00     0.018 C 
ATOM     11  H   UNL A   1      39.635  20.905  25.163  1.00  0.00     0.049 H 
ATOM     12  H   UNL A   1      38.939  20.418  26.690  1.00  0.00     0.049 H 
BRANCH  10  13
ATOM     13  N   UNL A   1      40.388  19.119  25.937  1.00  0.00    -0.352 N 
ATOM     14  O   UNL A   1      42.651  18.772  26.572  1.00  0.00    -0.269 OA
ATOM     15  C   UNL A   1      41.699  19.596  26.401  1.00  0.00     0.251 C 
ATOM     16  H   UNL A   1      40.248  18.161  25.759  1.00  0.00     0.163 HD
BRANCH  15  17
ATOM     17  C   UNL A   1      41.915  21.075  26.676  1.00  0.00     0.039 A 
ATOM     18  C   UNL A   1      42.275  21.382  27.979  1.00  0.00    -0.049 A 
ATOM     19  C   UNL A   1      41.861  22.013  25.737  1.00  0.00    -0.049 A 
ATOM     20  C   UNL A   1      42.281  22.769  28.260  1.00  0.00    -0.053 A 
ATOM     21  H   UNL A   1      42.517  20.665  28.680  1.00  0.00     0.063 H 
ATOM     22  C   UNL A   1      42.011  23.339  26.064  1.00  0.00    -0.053 A 
ATOM     23  H   UNL A   1      41.706  21.742  24.754  1.00  0.00     0.063 H 
ATOM     24  C   UNL A   1      42.309  23.719  27.343  1.00  0.00    -0.014 A 
ATOM     25  H   UNL A   1      42.262  23.058  29.251  1.00  0.00     0.063 H 
ATOM     26  H   UNL A   1      41.897  24.058  25.334  1.00  0.00     0.063 H 
BRANCH  24  27
ATOM     27  C   UNL A   1      42.654  25.157  27.692  1.00  0.00     0.031 A 
ATOM     28  C   UNL A   1      41.712  26.020  28.255  1.00  0.00     0.074 A 
ATOM     29  C   UNL A   1      43.927  25.545  27.312  1.00  0.00     0.049 A 
ATOM     30  N   UNL A   1      41.865  27.310  28.554  1.00  0.00    -0.248 NA
ATOM     31  C   UNL A   1      40.347  25.618  28.628  1.00  0.00    -0.034 C 
ATOM     32  C   UNL A   1      44.886  24.680  26.750  1.00  0.00    -0.036 A 
ATOM     33  N   UNL A   1      44.492  26.799  27.402  1.00  0.00    -0.354 N 
ATOM     34  C   UNL A   1      40.747  27.795  29.099  1.00  0.00     0.074 A 
ATOM     35  C   UNL A   1      39.753  26.715  29.149  1.00  0.00    -0.034 C 
ATOM     36  H   UNL A   1      39.926  24.684  28.513  1.00  0.00     0.065 H 
ATOM     37  C   UNL A   1      46.008  25.404  26.494  1.00  0.00    -0.036 A 
ATOM     38  H   UNL A   1      44.760  23.673  26.565  1.00  0.00     0.065 H 
ATOM     39  C   UNL A   1      45.770  26.733  26.892  1.00  0.00     0.049 A 
ATOM     40  H   UNL A   1      44.057  27.603  27.767  1.00  0.00     0.167 HD
ATOM     41  C   UNL A   1      40.519  29.092  29.558  1.00  0.00     0.037 A 
ATOM     42  H   UNL A   1      38.789  26.780  29.510  1.00  0.00     0.065 H 
ATOM     43  H   UNL A   1      46.882  25.041  26.080  1.00  0.00     0.065 H 
ATOM     44  C   UNL A   1      46.689  27.762  26.771  1.00  0.00     0.037 A 
ATOM     45  C   UNL A   1      41.455  30.112  29.476  1.00  0.00     0.049 A 
ATOM     46  C   UNL A   1      46.440  29.076  27.177  1.00  0.00     0.074 A 
ATOM     47  C   UNL A   1      41.243  31.423  29.941  1.00  0.00    -0.036 A 
ATOM     48  N   UNL A   1      42.723  30.051  28.944  1.00  0.00    -0.354 N 
ATOM     49  N   UNL A   1      45.337  29.549  27.758  1.00  0.00    -0.248 NA
ATOM     50  C   UNL A   1      47.395  30.181  27.024  1.00  0.00    -0.034 C 
ATOM     51  C   UNL A   1      42.366  32.148  29.685  1.00  0.00    -0.036 A 
ATOM     52  H   UNL A   1      40.386  31.775  30.397  1.00  0.00     0.065 H 
ATOM     53  C   UNL A   1      43.296  31.299  29.054  1.00  0.00     0.049 A 
ATOM     54  H   UNL A   1      43.148  29.254  28.552  1.00  0.00     0.167 HD
ATOM     55  C   UNL A   1      45.477  30.851  28.017  1.00  0.00     0.074 A 
ATOM     56  C   UNL A   1      46.800  31.277  27.542  1.00  0.00    -0.034 C 
ATOM     57  H   UNL A   1      48.336  30.130  26.603  1.00  0.00     0.065 H 
ATOM     58  H   UNL A   1      42.510  33.144  29.912  1.00  0.00     0.065 H 
ATOM     59  C   UNL A   1      44.555  31.698  28.635  1.00  0.00     0.037 A 
ATOM     60  H   UNL A   1      47.197  32.229  27.595  1.00  0.00     0.065 H 
BRANCH  41  61
ATOM     61  C   UNL A   1      39.169  29.405  30.182  1.00  0.00     0.064 A 
ATOM     62  C   UNL A   1      38.935  29.329  31.545  1.00  0.00     0.173 A 
ATOM     63  C   UNL A   1      38.259  29.904  29.353  1.00  0.00     0.173 A 
ATOM     64  F   UNL A   1      39.893  29.080  32.433  1.00  0.00    -0.203 F 
ATOM     65  C   UNL A   1      37.583  29.540  31.907  1.00  0.00     0.198 A 
ATOM     66  C   UNL A   1      36.999  30.216  29.804  1.00  0.00     0.198 A 
ATOM     67  F   UNL A   1      38.570  30.102  28.076  1.00  0.00    -0.203 F 
ATOM     68  F   UNL A   1      37.197  29.139  33.114  1.00  0.00    -0.200 F 
ATOM     69  C   UNL A   1      36.679  30.107  31.129  1.00  0.00     0.200 A 
ATOM     70  F   UNL A   1      36.077  30.628  28.939  1.00  0.00    -0.200 F 
ATOM     71  F   UNL A   1      35.521  30.550  31.609  1.00  0.00    -0.200 F 
ENDBRANCH  41  61
BRANCH  44  72
ATOM     72  C   UNL A   1      48.045  27.445  26.162  1.00  0.00     0.064 A 
ATOM     73  C   UNL A   1      48.218  27.425  24.787  1.00  0.00     0.173 A 
ATOM     74  C   UNL A   1      49.003  27.031  26.983  1.00  0.00     0.173 A 
ATOM     75  F   UNL A   1      47.404  28.055  23.946  1.00  0.00    -0.203 F 
ATOM     76  C   UNL A   1      49.339  26.674  24.362  1.00  0.00     0.198 A 
ATOM     77  C   UNL A   1      50.135  26.427  26.488  1.00  0.00     0.198 A 
ATOM     78  F   UNL A   1      48.867  27.202  28.294  1.00  0.00    -0.203 F 
ATOM     79  F   UNL A   1      49.383  26.298  23.086  1.00  0.00    -0.200 F 
ATOM     80  C   UNL A   1      50.344  26.319  25.142  1.00  0.00     0.200 A 
ATOM     81  F   UNL A   1      51.039  25.940  27.334  1.00  0.00    -0.200 F 
ATOM     82  F   UNL A   1      51.497  25.882  24.644  1.00  0.00    -0.200 F 
ENDBRANCH  44  72
BRANCH  59  83
ATOM     83  C   UNL A   1      44.958  33.146  28.861  1.00  0.00     0.064 A 
ATOM     84  C   UNL A   1      44.643  34.007  27.823  1.00  0.00     0.173 A 
ATOM     85  C   UNL A   1      45.500  33.595  29.988  1.00  0.00     0.173 A 
ATOM     86  F   UNL A   1      43.879  33.654  26.794  1.00  0.00    -0.203 F 
ATOM     87  C   UNL A   1      45.208  35.298  27.956  1.00  0.00     0.198 A 
ATOM     88  C   UNL A   1      45.906  34.903  30.097  1.00  0.00     0.198 A 
ATOM     89  F   UNL A   1      45.651  32.770  31.020  1.00  0.00    -0.203 F 
ATOM     90  F   UNL A   1      45.269  36.062  26.871  1.00  0.00    -0.200 F 
ATOM     91  C   UNL A   1      45.679  35.796  29.085  1.00  0.00     0.200 A 
ATOM     92  F   UNL A   1      46.528  35.307  31.201  1.00  0.00    -0.200 F 
ATOM     93  F   UNL A   1      45.921  37.095  29.232  1.00  0.00    -0.200 F 
ENDBRANCH  59  83
ENDBRANCH  24  27
ENDBRANCH  15  17
ENDBRANCH  10  13
ENDBRANCH   7  10
ENDBRANCH   4   7
ENDBRANCH   1   4
BRANCH   1  94
ATOM     94  C   UNL A   1      36.623  22.774  24.267  1.00  0.00    -0.036 C 
ATOM     95  H   UNL A   1      35.820  22.240  23.802  1.00  0.00     0.028 H 
ATOM     96  H   UNL A   1      37.179  23.304  23.522  1.00  0.00     0.028 H 
BRANCH  94  97
ATOM     97  C   UNL A   1      36.057  23.762  25.275  1.00  0.00     0.018 C 
ATOM     98  H   UNL A   1      35.162  24.198  24.883  1.00  0.00     0.049 H 
ATOM     99  H   UNL A   1      36.776  24.531  25.464  1.00  0.00     0.049 H 
BRANCH  97 100
ATOM    100  N   UNL A   1      35.750  23.059  26.529  1.00  0.00    -0.352 N 
ATOM    101  C   UNL A   1      34.358  22.945  26.987  1.00  0.00     0.253 C 
ATOM    102  H   UNL A   1      36.477  22.664  27.062  1.00  0.00     0.163 HD
ATOM    103  O   UNL A   1      34.093  22.336  28.071  1.00  0.00    -0.269 OA
BRANCH 101 104
ATOM    104  C   UNL A   1      33.235  23.554  26.163  1.00  0.00     0.063 A 
ATOM    105  C   UNL A   1      33.328  24.876  25.761  1.00  0.00    -0.047 A 
ATOM    106  C   UNL A   1      32.184  22.809  25.842  1.00  0.00     0.051 A 
ATOM    107  C   UNL A   1      32.116  25.411  25.263  1.00  0.00    -0.061 A 
ATOM    108  H   UNL A   1      34.202  25.422  25.820  1.00  0.00     0.063 H 
ATOM    109  C   UNL A   1      31.087  23.370  25.234  1.00  0.00    -0.038 A 
ATOM    110  C   UNL A   1      31.087  24.686  24.862  1.00  0.00    -0.060 A 
ATOM    111  H   UNL A   1      32.030  26.437  25.210  1.00  0.00     0.062 H 
ATOM    112  H   UNL A   1      30.253  22.791  25.055  1.00  0.00     0.064 H 
ATOM    113  H   UNL A   1      30.324  25.091  24.298  1.00  0.00     0.062 H 
BRANCH 106 114
ATOM    114  N   UNL A   1      32.194  21.369  26.141  1.00  0.00    -0.355 N 
ATOM    115  H   UNL A   1      31.986  21.053  27.049  1.00  0.00     0.167 HD
BRANCH 114 116
ATOM    116  C   UNL A   1      32.512  20.401  25.081  1.00  0.00     0.040 A 
ATOM    117  C   UNL A   1      32.202  20.716  23.769  1.00  0.00    -0.039 A 
ATOM    118  C   UNL A   1      33.123  19.264  25.391  1.00  0.00    -0.016 A 
ATOM    119  C   UNL A   1      32.319  19.625  22.874  1.00  0.00    -0.059 A 
ATOM    120  H   UNL A   1      31.911  21.660  23.471  1.00  0.00     0.064 H 
ATOM    121  C   UNL A   1      33.327  18.296  24.435  1.00  0.00     0.109 A 
ATOM    122  H   UNL A   1      33.448  19.103  26.357  1.00  0.00     0.066 H 
ATOM    123  C   UNL A   1      32.990  18.517  23.129  1.00  0.00    -0.039 A 
ATOM    124  H   UNL A   1      31.848  19.702  21.960  1.00  0.00     0.062 H 
ATOM    125  H   UNL A   1      33.246  17.853  22.381  1.00  0.00     0.064 H 
BRANCH 121 126
ATOM    126  S   UNL A   1      34.053  16.709  24.913  1.00  0.00     0.310 S 
ATOM    127  F   UNL A   1      34.112  16.201  23.412  1.00  0.00    -0.094 F 
ATOM    128  F   UNL A   1      32.612  16.078  24.998  1.00  0.00    -0.094 F 
ATOM    129  F   UNL A   1      34.700  15.358  25.331  1.00  0.00    -0.094 F 
ATOM    130  F   UNL A   1      35.492  17.318  24.687  1.00  0.00    -0.094 F 
ATOM    131  F   UNL A   1      33.417  18.053  24.379  1.00  0.00    -0.094 F 
ENDBRANCH 121 126
ENDBRANCH 114 116
ENDBRANCH 106 114
ENDBRANCH 101 104
ENDBRANCH  97 100
ENDBRANCH  94  97
ENDBRANCH   1  94
TORSDOF 16
ENDMDL
MODEL 10
REMARK VINA RESULT:     -13.1      4.275      5.869
REMARK SMILES O=C(NCCCCCCNC(=O)c1ccccc1Nc1cccc(S(F)(F)(F)(F)F)c1)c1ccc(-c2c3nc(c(-c4c(F)c(F)c(F)c(F)c4F)c4ccc([nH]4)c(-c4c(F)c(F)c(F)c(F)c4F)c4nc(c(-c5c(F)c(F)c(F)c(F)c5F)c5ccc2[nH]5)C=C4)C=C3)cc1
REMARK SMILES IDX 7 1 6 4 5 7 4 10 3 13 1 14 2 15 32 17 33 18 94 19 34 20
REMARK SMILES IDX 93 22 35 24 36 27 37 28 87 29 38 30 92 31 86 32 88 33 39 34
REMARK SMILES IDX 91 35 85 37 84 39 40 41 72 44 52 45 71 46 53 47 56 48 70 49
REMARK SMILES IDX 89 50 54 51 55 53 69 55 90 56 57 59 41 61 42 62 50 63 43 64
REMARK SMILES IDX 44 65 48 66 51 67 45 68 46 69 49 70 47 71 73 72 74 73 82 74
REMARK SMILES IDX 75 75 76 76 80 77 83 78 77 79 78 80 81 81 79 82 58 83 59 84
REMARK SMILES IDX 67 85 60 86 61 87 65 88 68 89 62 90 63 91 66 92 64 93 8 94
REMARK SMILES IDX 9 97 10 100 11 101 12 103 13 104 14 105 18 106 15 107 17 109
REMARK SMILES IDX 16 110 19 114 20 116 21 117 31 118 22 119 24 121 23 123
REMARK SMILES IDX 25 126 26 127 27 128 28 129 29 130 30 131
REMARK H PARENT 7 2 7 3 6 5 6 6 5 8 5 9 4 11 4 12 3 16 33 21 94 23 34 25 93 26
REMARK H PARENT 92 36 86 38 88 40 91 42 85 43 53 52 56 54 89 57 54 58 90 60
REMARK H PARENT 8 95 8 96 9 98 9 99 10 102 14 108 15 111 17 112 16 113 19 115
REMARK H PARENT 21 120 31 122 22 124 23 125
REMARK Flexibility Score: inf
ROOT
ATOM      1  C   UNL A   1      30.322  26.570  24.713  1.00  0.00    -0.052 C 
ATOM      2  H   UNL A   1      29.352  26.994  24.869  1.00  0.00     0.027 H 
ATOM      3  H   UNL A   1      30.628  26.046  25.594  1.00  0.00     0.027 H 
ENDROOT
BRANCH   1   4
ATOM      4  C   UNL A   1      31.317  27.680  24.412  1.00  0.00    -0.052 C 
ATOM      5  H   UNL A   1      32.072  27.312  23.749  1.00  0.00     0.027 H 
ATOM      6  H   UNL A   1      30.807  28.501  23.953  1.00  0.00     0.027 H 
BRANCH   4   7
ATOM      7  C   UNL A   1      31.963  28.146  25.707  1.00  0.00    -0.036 C 
ATOM      8  H   UNL A   1      31.203  28.465  26.390  1.00  0.00     0.028 H 
ATOM      9  H   UNL A   1      32.516  27.340  26.140  1.00  0.00     0.028 H 
BRANCH   7  10
ATOM     10  C   UNL A   1      32.900  29.306  25.416  1.00  0.00     0.018 C 
ATOM     11  H   UNL A   1      33.815  29.170  25.955  1.00  0.00     0.049 H 
ATOM     12  H   UNL A   1      33.108  29.343  24.367  1.00  0.00     0.049 H 
BRANCH  10  13
ATOM     13  N   UNL A   1      32.267  30.565  25.834  1.00  0.00    -0.352 N 
ATOM     14  O   UNL A   1      32.336  32.472  27.251  1.00  0.00    -0.269 OA
ATOM     15  C   UNL A   1      32.883  31.383  26.889  1.00  0.00     0.251 C 
ATOM     16  H   UNL A   1      31.431  30.861  25.407  1.00  0.00     0.163 HD
BRANCH  15  17
ATOM     17  C   UNL A   1      34.175  30.927  27.547  1.00  0.00     0.039 A 
ATOM     18  C   UNL A   1      35.118  31.924  27.741  1.00  0.00    -0.049 A 
ATOM     19  C   UNL A   1      34.375  29.693  27.995  1.00  0.00    -0.049 A 
ATOM     20  C   UNL A   1      36.377  31.445  28.173  1.00  0.00    -0.053 A 
ATOM     21  H   UNL A   1      34.919  32.925  27.586  1.00  0.00     0.063 H 
ATOM     22  C   UNL A   1      35.588  29.331  28.529  1.00  0.00    -0.053 A 
ATOM     23  H   UNL A   1      33.612  29.000  27.942  1.00  0.00     0.063 H 
ATOM     24  C   UNL A   1      36.586  30.251  28.697  1.00  0.00    -0.014 A 
ATOM     25  H   UNL A   1      37.190  32.073  28.071  1.00  0.00     0.063 H 
ATOM     26  H   UNL A   1      35.749  28.351  28.809  1.00  0.00     0.063 H 
BRANCH  24  27
ATOM     27  C   UNL A   1      37.865  29.918  29.446  1.00  0.00     0.031 A 
ATOM     28  C   UNL A   1      38.807  29.027  28.925  1.00  0.00     0.074 A 
ATOM     29  C   UNL A   1      37.954  30.489  30.703  1.00  0.00     0.049 A 
ATOM     30  N   UNL A   1      39.934  28.607  29.500  1.00  0.00    -0.248 NA
ATOM     31  C   UNL A   1      38.697  28.392  27.604  1.00  0.00    -0.034 C 
ATOM     32  C   UNL A   1      37.014  31.394  31.232  1.00  0.00    -0.036 A 
ATOM     33  N   UNL A   1      38.936  30.299  31.651  1.00  0.00    -0.354 N 
ATOM     34  C   UNL A   1      40.585  27.774  28.686  1.00  0.00     0.074 A 
ATOM     35  C   UNL A   1      39.795  27.619  27.457  1.00  0.00    -0.034 C 
ATOM     36  H   UNL A   1      37.931  28.513  26.923  1.00  0.00     0.065 H 
ATOM     37  C   UNL A   1      37.415  31.736  32.485  1.00  0.00    -0.036 A 
ATOM     38  H   UNL A   1      36.167  31.739  30.753  1.00  0.00     0.065 H 
ATOM     39  C   UNL A   1      38.614  31.051  32.760  1.00  0.00     0.049 A 
ATOM     40  H   UNL A   1      39.729  29.725  31.553  1.00  0.00     0.167 HD
ATOM     41  C   UNL A   1      41.806  27.139  28.918  1.00  0.00     0.037 A 
ATOM     42  H   UNL A   1      40.032  27.033  26.641  1.00  0.00     0.065 H 
ATOM     43  H   UNL A   1      36.926  32.384  33.123  1.00  0.00     0.065 H 
ATOM     44  C   UNL A   1      39.313  31.145  33.953  1.00  0.00     0.037 A 
ATOM     45  C   UNL A   1      42.526  27.268  30.096  1.00  0.00     0.049 A 
ATOM     46  C   UNL A   1      40.506  30.464  34.209  1.00  0.00     0.074 A 
ATOM     47  C   UNL A   1      43.762  26.641  30.343  1.00  0.00    -0.036 A 
ATOM     48  N   UNL A   1      42.192  28.000  31.213  1.00  0.00    -0.354 N 
ATOM     49  N   UNL A   1      41.175  29.663  33.379  1.00  0.00    -0.248 NA
ATOM     50  C   UNL A   1      41.237  30.531  35.480  1.00  0.00    -0.034 C 
ATOM     51  C   UNL A   1      44.165  26.982  31.597  1.00  0.00    -0.036 A 
ATOM     52  H   UNL A   1      44.274  26.029  29.688  1.00  0.00     0.065 H 
ATOM     53  C   UNL A   1      43.185  27.828  32.153  1.00  0.00     0.049 A 
ATOM     54  H   UNL A   1      41.384  28.551  31.322  1.00  0.00     0.167 HD
ATOM     55  C   UNL A   1      42.282  29.209  33.971  1.00  0.00     0.074 A 
ATOM     56  C   UNL A   1      42.334  29.756  35.334  1.00  0.00    -0.034 C 
ATOM     57  H   UNL A   1      40.966  31.065  36.321  1.00  0.00     0.065 H 
ATOM     58  H   UNL A   1      45.035  26.675  32.060  1.00  0.00     0.065 H 
ATOM     59  C   UNL A   1      43.252  28.366  33.428  1.00  0.00     0.037 A 
ATOM     60  H   UNL A   1      43.065  29.582  36.041  1.00  0.00     0.065 H 
BRANCH  41  61
ATOM     61  C   UNL A   1      42.377  26.258  27.820  1.00  0.00     0.064 A 
ATOM     62  C   UNL A   1      42.026  24.927  27.666  1.00  0.00     0.173 A 
ATOM     63  C   UNL A   1      43.124  26.883  26.917  1.00  0.00     0.173 A 
ATOM     64  F   UNL A   1      41.086  24.335  28.396  1.00  0.00    -0.203 F 
ATOM     65  C   UNL A   1      42.761  24.254  26.661  1.00  0.00     0.198 A 
ATOM     66  C   UNL A   1      43.701  26.185  25.882  1.00  0.00     0.198 A 
ATOM     67  F   UNL A   1      43.317  28.194  27.016  1.00  0.00    -0.203 F 
ATOM     68  F   UNL A   1      42.761  22.924  26.681  1.00  0.00    -0.200 F 
ATOM     69  C   UNL A   1      43.446  24.854  25.705  1.00  0.00     0.200 A 
ATOM     70  F   UNL A   1      44.518  26.815  25.043  1.00  0.00    -0.200 F 
ATOM     71  F   UNL A   1      43.866  24.198  24.626  1.00  0.00    -0.200 F 
ENDBRANCH  41  61
BRANCH  44  72
ATOM     72  C   UNL A   1      38.750  32.040  35.045  1.00  0.00     0.064 A 
ATOM     73  C   UNL A   1      39.002  33.402  35.046  1.00  0.00     0.173 A 
ATOM     74  C   UNL A   1      38.154  31.449  36.074  1.00  0.00     0.173 A 
ATOM     75  F   UNL A   1      39.358  34.073  33.955  1.00  0.00    -0.203 F 
ATOM     76  C   UNL A   1      38.847  34.013  36.312  1.00  0.00     0.198 A 
ATOM     77  C   UNL A   1      37.910  32.145  37.235  1.00  0.00     0.198 A 
ATOM     78  F   UNL A   1      37.791  30.173  35.983  1.00  0.00    -0.203 F 
ATOM     79  F   UNL A   1      39.402  35.208  36.495  1.00  0.00    -0.200 F 
ATOM     80  C   UNL A   1      38.190  33.480  37.326  1.00  0.00     0.200 A 
ATOM     81  F   UNL A   1      37.395  31.509  38.283  1.00  0.00    -0.200 F 
ATOM     82  F   UNL A   1      37.819  34.203  38.379  1.00  0.00    -0.200 F 
ENDBRANCH  44  72
BRANCH  59  83
ATOM     83  C   UNL A   1      44.457  28.017  34.288  1.00  0.00     0.064 A 
ATOM     84  C   UNL A   1      44.312  26.872  35.054  1.00  0.00     0.173 A 
ATOM     85  C   UNL A   1      45.599  28.693  34.268  1.00  0.00     0.173 A 
ATOM     86  F   UNL A   1      43.292  26.031  34.916  1.00  0.00    -0.203 F 
ATOM     87  C   UNL A   1      45.348  26.680  35.999  1.00  0.00     0.198 A 
ATOM     88  C   UNL A   1      46.622  28.364  35.125  1.00  0.00     0.198 A 
ATOM     89  F   UNL A   1      45.755  29.697  33.410  1.00  0.00    -0.203 F 
ATOM     90  F   UNL A   1      45.123  25.837  37.001  1.00  0.00    -0.200 F 
ATOM     91  C   UNL A   1      46.524  27.280  35.953  1.00  0.00     0.200 A 
ATOM     92  F   UNL A   1      47.722  29.110  35.149  1.00  0.00    -0.200 F 
ATOM     93  F   UNL A   1      47.557  26.854  36.673  1.00  0.00    -0.200 F 
ENDBRANCH  59  83
ENDBRANCH  24  27
ENDBRANCH  15  17
ENDBRANCH  10  13
ENDBRANCH   7  10
ENDBRANCH   4   7
ENDBRANCH   1   4
BRANCH   1  94
ATOM     94  C   UNL A   1      30.271  25.604  23.541  1.00  0.00    -0.036 C 
ATOM     95  H   UNL A   1      30.867  25.985  22.738  1.00  0.00     0.028 H 
ATOM     96  H   UNL A   1      29.258  25.494  23.213  1.00  0.00     0.028 H 
BRANCH  94  97
ATOM     97  C   UNL A   1      30.813  24.251  23.975  1.00  0.00     0.018 C 
ATOM     98  H   UNL A   1      31.883  24.280  23.980  1.00  0.00     0.049 H 
ATOM     99  H   UNL A   1      30.480  23.498  23.292  1.00  0.00     0.049 H 
BRANCH  97 100
ATOM    100  N   UNL A   1      30.324  23.938  25.326  1.00  0.00    -0.352 N 
ATOM    101  C   UNL A   1      31.280  23.691  26.414  1.00  0.00     0.253 C 
ATOM    102  H   UNL A   1      29.357  23.896  25.501  1.00  0.00     0.163 HD
ATOM    103  O   UNL A   1      30.857  23.422  27.582  1.00  0.00    -0.269 OA
BRANCH 101 104
ATOM    104  C   UNL A   1      32.774  23.759  26.143  1.00  0.00     0.063 A 
ATOM    105  C   UNL A   1      33.396  24.994  26.069  1.00  0.00    -0.047 A 
ATOM    106  C   UNL A   1      33.459  22.632  25.983  1.00  0.00     0.051 A 
ATOM    107  C   UNL A   1      34.704  24.946  25.530  1.00  0.00    -0.061 A 
ATOM    108  H   UNL A   1      32.946  25.870  26.377  1.00  0.00     0.063 H 
ATOM    109  C   UNL A   1      34.774  22.663  25.585  1.00  0.00    -0.038 A 
ATOM    110  C   UNL A   1      35.435  23.850  25.434  1.00  0.00    -0.060 A 
ATOM    111  H   UNL A   1      35.114  25.829  25.186  1.00  0.00     0.062 H 
ATOM    112  H   UNL A   1      35.270  21.778  25.398  1.00  0.00     0.064 H 
ATOM    113  H   UNL A   1      36.450  23.888  25.256  1.00  0.00     0.062 H 
BRANCH 106 114
ATOM    114  N   UNL A   1      32.804  21.340  26.233  1.00  0.00    -0.355 N 
ATOM    115  H   UNL A   1      32.370  21.168  27.099  1.00  0.00     0.167 HD
BRANCH 114 116
ATOM    116  C   UNL A   1      32.794  20.306  25.188  1.00  0.00     0.040 A 
ATOM    117  C   UNL A   1      32.357  20.640  23.918  1.00  0.00    -0.039 A 
ATOM    118  C   UNL A   1      33.239  19.086  25.465  1.00  0.00    -0.016 A 
ATOM    119  C   UNL A   1      32.154  19.526  23.069  1.00  0.00    -0.059 A 
ATOM    120  H   UNL A   1      32.192  21.613  23.617  1.00  0.00     0.064 H 
ATOM    121  C   UNL A   1      33.133  18.076  24.538  1.00  0.00     0.109 A 
ATOM    122  H   UNL A   1      33.667  18.894  26.383  1.00  0.00     0.066 H 
ATOM    123  C   UNL A   1      32.654  18.322  23.282  1.00  0.00    -0.039 A 
ATOM    124  H   UNL A   1      31.576  19.663  22.225  1.00  0.00     0.062 H 
ATOM    125  H   UNL A   1      32.681  17.606  22.539  1.00  0.00     0.064 H 
BRANCH 121 126
ATOM    126  S   UNL A   1      33.636  16.396  24.988  1.00  0.00     0.310 S 
ATOM    127  F   UNL A   1      33.285  15.828  23.550  1.00  0.00    -0.094 F 
ATOM    128  F   UNL A   1      32.154  16.066  25.405  1.00  0.00    -0.094 F 
ATOM    129  F   UNL A   1      34.095  14.962  25.376  1.00  0.00    -0.094 F 
ATOM    130  F   UNL A   1      35.084  16.700  24.434  1.00  0.00    -0.094 F 
ATOM    131  F   UNL A   1      33.162  17.818  24.485  1.00  0.00    -0.094 F 
ENDBRANCH 121 126
ENDBRANCH 114 116
ENDBRANCH 106 114
ENDBRANCH 101 104
ENDBRANCH  97 100
ENDBRANCH  94  97
ENDBRANCH   1  94
TORSDOF 16
ENDMDL
