MODEL 1
REMARK VINA RESULT:     -11.0      0.000      0.000
REMARK SMILES O=C(/C=C/c1ccc(O)c(O)c1)NCCCCCCNC(=O)c1ccc(-c2c3nc(c(-c4c(F)c(F)c(F)c(F)c4F)c4ccc([nH]4)c(-c4c(F)c(F)c(F)c(F)c4F)c4nc(c(-c5c(F)c(F)c(F)c(F)c5F)c5ccc2[nH]5)C=C4)C=C3)cc1
REMARK SMILES IDX 16 1 15 4 14 7 13 10 1 11 2 12 3 14 4 15 5 18 6 19 12 20
REMARK SMILES IDX 7 21 10 23 8 25 11 27 9 29 17 31 18 34 19 37 20 40 21 41
REMARK SMILES IDX 22 43 23 44 24 45 85 46 25 47 84 49 26 51 27 54 28 55 78 56
REMARK SMILES IDX 29 57 83 58 77 59 79 60 30 61 82 62 76 64 75 66 31 68 63 71
REMARK SMILES IDX 43 72 62 73 44 74 47 75 61 76 80 77 45 78 46 80 60 82 81 83
REMARK SMILES IDX 48 86 32 88 33 89 41 90 34 91 35 92 39 93 42 94 36 95 37 96
REMARK SMILES IDX 40 97 38 98 64 99 65 100 73 101 66 102 67 103 71 104 74 105
REMARK SMILES IDX 68 106 69 107 72 108 70 109 49 110 50 111 58 112 51 113
REMARK SMILES IDX 52 114 56 115 59 116 53 117 54 118 57 119 55 120
REMARK H PARENT 16 2 16 3 15 5 15 6 14 8 14 9 13 13 3 16 4 17 6 22 12 24 7 26
REMARK H PARENT 11 28 9 30 17 32 17 33 18 35 18 36 19 38 19 39 20 42 24 48
REMARK H PARENT 85 50 25 52 84 53 83 63 77 65 79 67 82 69 76 70 44 79 47 81
REMARK H PARENT 80 84 45 85 81 87
REMARK Flexibility Score: inf
ROOT
ATOM      1  C   UNL A   1      42.098  21.168  27.439  1.00  0.00    -0.052 C 
ATOM      2  H   UNL A   1      41.775  21.677  28.324  1.00  0.00     0.027 H 
ATOM      3  H   UNL A   1      43.147  21.256  27.250  1.00  0.00     0.027 H 
ENDROOT
BRANCH   1   4
ATOM      4  C   UNL A   1      41.396  21.820  26.239  1.00  0.00    -0.036 C 
ATOM      5  H   UNL A   1      42.090  22.487  25.769  1.00  0.00     0.028 H 
ATOM      6  H   UNL A   1      41.084  21.020  25.600  1.00  0.00     0.028 H 
BRANCH   4   7
ATOM      7  C   UNL A   1      40.136  22.613  26.587  1.00  0.00     0.018 C 
ATOM      8  H   UNL A   1      40.102  22.765  27.646  1.00  0.00     0.049 H 
ATOM      9  H   UNL A   1      40.173  23.548  26.069  1.00  0.00     0.049 H 
BRANCH   7  10
ATOM     10  N   UNL A   1      38.937  21.912  26.175  1.00  0.00    -0.353 N 
ATOM     11  O   UNL A   1      37.746  23.778  25.577  1.00  0.00    -0.270 OA
ATOM     12  C   UNL A   1      37.811  22.568  25.758  1.00  0.00     0.243 C 
ATOM     13  H   UNL A   1      38.932  20.927  26.197  1.00  0.00     0.163 HD
BRANCH  12  14
ATOM     14  C   UNL A   1      36.609  21.732  25.509  1.00  0.00     0.003 C 
ATOM     15  C   UNL A   1      36.598  20.473  25.041  1.00  0.00    -0.049 C 
ATOM     16  H   UNL A   1      35.693  22.161  25.714  1.00  0.00     0.068 H 
ATOM     17  H   UNL A   1      37.487  20.051  24.730  1.00  0.00     0.063 H 
BRANCH  15  18
ATOM     18  C   UNL A   1      35.366  19.676  24.956  1.00  0.00    -0.022 A 
ATOM     19  C   UNL A   1      35.378  18.310  24.624  1.00  0.00    -0.051 A 
ATOM     20  C   UNL A   1      34.145  20.302  25.230  1.00  0.00    -0.009 A 
ATOM     21  C   UNL A   1      34.183  17.587  24.529  1.00  0.00    -0.016 A 
ATOM     22  H   UNL A   1      36.277  17.835  24.451  1.00  0.00     0.063 H 
ATOM     23  C   UNL A   1      32.965  19.579  25.131  1.00  0.00     0.157 A 
ATOM     24  H   UNL A   1      34.122  21.297  25.505  1.00  0.00     0.067 H 
ATOM     25  C   UNL A   1      32.979  18.233  24.776  1.00  0.00     0.157 A 
ATOM     26  H   UNL A   1      34.197  16.586  24.278  1.00  0.00     0.066 H 
BRANCH  23  27
ATOM     27  O   UNL A   1      31.777  20.208  25.376  1.00  0.00    -0.504 OA
ATOM     28  H   UNL A   1      31.760  20.997  25.880  1.00  0.00     0.293 HD
ENDBRANCH  23  27
BRANCH  25  29
ATOM     29  O   UNL A   1      31.777  17.589  24.682  1.00  0.00    -0.504 OA
ATOM     30  H   UNL A   1      31.294  17.614  23.879  1.00  0.00     0.293 HD
ENDBRANCH  25  29
ENDBRANCH  15  18
ENDBRANCH  12  14
ENDBRANCH   7  10
ENDBRANCH   4   7
ENDBRANCH   1   4
BRANCH   1  31
ATOM     31  C   UNL A   1      41.825  19.672  27.628  1.00  0.00    -0.052 C 
ATOM     32  H   UNL A   1      40.832  19.471  27.284  1.00  0.00     0.027 H 
ATOM     33  H   UNL A   1      41.966  19.475  28.670  1.00  0.00     0.027 H 
BRANCH  31  34
ATOM     34  C   UNL A   1      42.781  18.738  26.886  1.00  0.00    -0.036 C 
ATOM     35  H   UNL A   1      42.529  17.731  27.146  1.00  0.00     0.028 H 
ATOM     36  H   UNL A   1      43.769  19.018  27.187  1.00  0.00     0.028 H 
BRANCH  34  37
ATOM     37  C   UNL A   1      42.747  18.858  25.367  1.00  0.00     0.018 C 
ATOM     38  H   UNL A   1      42.486  19.863  25.109  1.00  0.00     0.049 H 
ATOM     39  H   UNL A   1      42.025  18.157  25.002  1.00  0.00     0.049 H 
BRANCH  37  40
ATOM     40  N   UNL A   1      44.026  18.535  24.750  1.00  0.00    -0.352 N 
ATOM     41  C   UNL A   1      45.062  19.373  24.415  1.00  0.00     0.251 C 
ATOM     42  H   UNL A   1      44.167  17.584  24.543  1.00  0.00     0.163 HD
ATOM     43  O   UNL A   1      46.009  18.958  23.754  1.00  0.00    -0.269 OA
BRANCH  41  44
ATOM     44  C   UNL A   1      45.022  20.791  24.833  1.00  0.00     0.039 A 
ATOM     45  C   UNL A   1      45.434  21.131  26.124  1.00  0.00    -0.049 A 
ATOM     46  C   UNL A   1      44.592  21.782  23.948  1.00  0.00    -0.049 A 
ATOM     47  C   UNL A   1      45.484  22.475  26.504  1.00  0.00    -0.053 A 
ATOM     48  H   UNL A   1      45.701  20.393  26.795  1.00  0.00     0.063 H 
ATOM     49  C   UNL A   1      44.711  23.123  24.302  1.00  0.00    -0.053 A 
ATOM     50  H   UNL A   1      44.187  21.522  23.035  1.00  0.00     0.063 H 
ATOM     51  C   UNL A   1      45.160  23.484  25.584  1.00  0.00    -0.014 A 
ATOM     52  H   UNL A   1      45.761  22.727  27.466  1.00  0.00     0.063 H 
ATOM     53  H   UNL A   1      44.467  23.857  23.620  1.00  0.00     0.063 H 
BRANCH  51  54
ATOM     54  C   UNL A   1      45.277  24.925  25.930  1.00  0.00     0.031 A 
ATOM     55  C   UNL A   1      46.610  25.615  25.823  1.00  0.00     0.074 A 
ATOM     56  C   UNL A   1      44.210  25.588  26.421  1.00  0.00     0.049 A 
ATOM     57  N   UNL A   1      46.952  26.822  26.199  1.00  0.00    -0.248 NA
ATOM     58  C   UNL A   1      47.714  24.834  25.243  1.00  0.00    -0.034 C 
ATOM     59  C   UNL A   1      42.873  25.023  26.606  1.00  0.00    -0.036 A 
ATOM     60  N   UNL A   1      44.089  26.878  26.877  1.00  0.00    -0.354 N 
ATOM     61  C   UNL A   1      48.309  26.932  25.928  1.00  0.00     0.074 A 
ATOM     62  C   UNL A   1      48.740  25.661  25.390  1.00  0.00    -0.034 C 
ATOM     63  H   UNL A   1      47.696  23.889  24.828  1.00  0.00     0.065 H 
ATOM     64  C   UNL A   1      42.065  25.961  27.125  1.00  0.00    -0.036 A 
ATOM     65  H   UNL A   1      42.594  24.057  26.373  1.00  0.00     0.065 H 
ATOM     66  C   UNL A   1      42.835  27.179  27.355  1.00  0.00     0.049 A 
ATOM     67  H   UNL A   1      44.830  27.526  26.863  1.00  0.00     0.167 HD
ATOM     68  C   UNL A   1      49.118  28.005  26.098  1.00  0.00     0.037 A 
ATOM     69  H   UNL A   1      49.718  25.428  25.153  1.00  0.00     0.065 H 
ATOM     70  H   UNL A   1      41.060  25.841  27.329  1.00  0.00     0.065 H 
ATOM     71  C   UNL A   1      42.368  28.305  27.932  1.00  0.00     0.037 A 
ATOM     72  C   UNL A   1      48.676  29.282  26.590  1.00  0.00     0.049 A 
ATOM     73  C   UNL A   1      43.299  29.477  28.115  1.00  0.00     0.074 A 
ATOM     74  C   UNL A   1      49.403  30.452  26.720  1.00  0.00    -0.036 A 
ATOM     75  N   UNL A   1      47.391  29.557  27.035  1.00  0.00    -0.354 N 
ATOM     76  N   UNL A   1      44.560  29.594  27.782  1.00  0.00    -0.248 NA
ATOM     77  C   UNL A   1      42.736  30.677  28.753  1.00  0.00    -0.034 C 
ATOM     78  C   UNL A   1      48.575  31.420  27.295  1.00  0.00    -0.036 A 
ATOM     79  H   UNL A   1      50.387  30.587  26.441  1.00  0.00     0.065 H 
ATOM     80  C   UNL A   1      47.314  30.871  27.466  1.00  0.00     0.049 A 
ATOM     81  H   UNL A   1      46.646  28.914  27.043  1.00  0.00     0.167 HD
ATOM     82  C   UNL A   1      44.927  30.889  28.127  1.00  0.00     0.074 A 
ATOM     83  C   UNL A   1      43.754  31.522  28.688  1.00  0.00    -0.034 C 
ATOM     84  H   UNL A   1      41.794  30.823  29.147  1.00  0.00     0.065 H 
ATOM     85  H   UNL A   1      48.855  32.380  27.550  1.00  0.00     0.065 H 
ATOM     86  C   UNL A   1      46.130  31.499  27.990  1.00  0.00     0.037 A 
ATOM     87  H   UNL A   1      43.716  32.505  28.998  1.00  0.00     0.065 H 
BRANCH  68  88
ATOM     88  C   UNL A   1      50.570  27.858  25.749  1.00  0.00     0.064 A 
ATOM     89  C   UNL A   1      51.031  28.006  24.433  1.00  0.00     0.173 A 
ATOM     90  C   UNL A   1      51.522  27.653  26.759  1.00  0.00     0.173 A 
ATOM     91  F   UNL A   1      50.161  28.194  23.429  1.00  0.00    -0.203 F 
ATOM     92  C   UNL A   1      52.390  27.941  24.140  1.00  0.00     0.198 A 
ATOM     93  C   UNL A   1      52.882  27.619  26.467  1.00  0.00     0.198 A 
ATOM     94  F   UNL A   1      51.133  27.513  28.036  1.00  0.00    -0.203 F 
ATOM     95  F   UNL A   1      52.806  28.054  22.871  1.00  0.00    -0.200 F 
ATOM     96  C   UNL A   1      53.315  27.759  25.157  1.00  0.00     0.200 A 
ATOM     97  F   UNL A   1      53.774  27.460  27.454  1.00  0.00    -0.200 F 
ATOM     98  F   UNL A   1      54.625  27.720  24.876  1.00  0.00    -0.200 F 
ENDBRANCH  68  88
BRANCH  71  99
ATOM     99  C   UNL A   1      40.954  28.391  28.385  1.00  0.00     0.064 A 
ATOM    100  C   UNL A   1      39.961  28.925  27.549  1.00  0.00     0.173 A 
ATOM    101  C   UNL A   1      40.572  27.998  29.677  1.00  0.00     0.173 A 
ATOM    102  F   UNL A   1      40.279  29.337  26.313  1.00  0.00    -0.203 F 
ATOM    103  C   UNL A   1      38.654  29.100  28.000  1.00  0.00     0.198 A 
ATOM    104  C   UNL A   1      39.257  28.141  30.115  1.00  0.00     0.198 A 
ATOM    105  F   UNL A   1      41.479  27.477  30.516  1.00  0.00    -0.203 F 
ATOM    106  F   UNL A   1      37.745  29.679  27.204  1.00  0.00    -0.200 F 
ATOM    107  C   UNL A   1      38.302  28.706  29.282  1.00  0.00     0.200 A 
ATOM    108  F   UNL A   1      38.918  27.745  31.349  1.00  0.00    -0.200 F 
ATOM    109  F   UNL A   1      37.049  28.884  29.719  1.00  0.00    -0.200 F 
ENDBRANCH  71  99
BRANCH  86 110
ATOM    110  C   UNL A   1      46.228  32.942  28.389  1.00  0.00     0.064 A 
ATOM    111  C   UNL A   1      46.611  33.330  29.680  1.00  0.00     0.173 A 
ATOM    112  C   UNL A   1      45.993  33.952  27.442  1.00  0.00     0.173 A 
ATOM    113  F   UNL A   1      46.833  32.404  30.626  1.00  0.00    -0.203 F 
ATOM    114  C   UNL A   1      46.734  34.676  30.015  1.00  0.00     0.198 A 
ATOM    115  C   UNL A   1      46.149  35.294  27.771  1.00  0.00     0.198 A 
ATOM    116  F   UNL A   1      45.631  33.633  26.189  1.00  0.00    -0.203 F 
ATOM    117  F   UNL A   1      47.058  35.025  31.268  1.00  0.00    -0.200 F 
ATOM    118  C   UNL A   1      46.513  35.655  29.058  1.00  0.00     0.200 A 
ATOM    119  F   UNL A   1      45.952  36.239  26.840  1.00  0.00    -0.200 F 
ATOM    120  F   UNL A   1      46.647  36.950  29.379  1.00  0.00    -0.200 F 
ENDBRANCH  86 110
ENDBRANCH  51  54
ENDBRANCH  41  44
ENDBRANCH  37  40
ENDBRANCH  34  37
ENDBRANCH  31  34
ENDBRANCH   1  31
TORSDOF 16
ENDMDL
MODEL 2
REMARK VINA RESULT:     -10.9      7.953     13.414
REMARK SMILES O=C(/C=C/c1ccc(O)c(O)c1)NCCCCCCNC(=O)c1ccc(-c2c3nc(c(-c4c(F)c(F)c(F)c(F)c4F)c4ccc([nH]4)c(-c4c(F)c(F)c(F)c(F)c4F)c4nc(c(-c5c(F)c(F)c(F)c(F)c5F)c5ccc2[nH]5)C=C4)C=C3)cc1
REMARK SMILES IDX 16 1 15 4 14 7 13 10 1 11 2 12 3 14 4 15 5 18 6 19 12 20
REMARK SMILES IDX 7 21 10 23 8 25 11 27 9 29 17 31 18 34 19 37 20 40 21 41
REMARK SMILES IDX 22 43 23 44 24 45 85 46 25 47 84 49 26 51 27 54 28 55 78 56
REMARK SMILES IDX 29 57 83 58 77 59 79 60 30 61 82 62 76 64 75 66 31 68 63 71
REMARK SMILES IDX 43 72 62 73 44 74 47 75 61 76 80 77 45 78 46 80 60 82 81 83
REMARK SMILES IDX 48 86 32 88 33 89 41 90 34 91 35 92 39 93 42 94 36 95 37 96
REMARK SMILES IDX 40 97 38 98 64 99 65 100 73 101 66 102 67 103 71 104 74 105
REMARK SMILES IDX 68 106 69 107 72 108 70 109 49 110 50 111 58 112 51 113
REMARK SMILES IDX 52 114 56 115 59 116 53 117 54 118 57 119 55 120
REMARK H PARENT 16 2 16 3 15 5 15 6 14 8 14 9 13 13 3 16 4 17 6 22 12 24 7 26
REMARK H PARENT 11 28 9 30 17 32 17 33 18 35 18 36 19 38 19 39 20 42 24 48
REMARK H PARENT 85 50 25 52 84 53 83 63 77 65 79 67 82 69 76 70 44 79 47 81
REMARK H PARENT 80 84 45 85 81 87
REMARK Flexibility Score: inf
ROOT
ATOM      1  C   UNL A   1      34.483  32.278  28.710  1.00  0.00    -0.052 C 
ATOM      2  H   UNL A   1      34.497  31.908  29.715  1.00  0.00     0.027 H 
ATOM      3  H   UNL A   1      33.576  32.064  28.186  1.00  0.00     0.027 H 
ENDROOT
BRANCH   1   4
ATOM      4  C   UNL A   1      35.599  31.568  27.930  1.00  0.00    -0.036 C 
ATOM      5  H   UNL A   1      35.805  32.139  27.048  1.00  0.00     0.028 H 
ATOM      6  H   UNL A   1      36.436  31.503  28.593  1.00  0.00     0.028 H 
BRANCH   4   7
ATOM      7  C   UNL A   1      35.271  30.137  27.504  1.00  0.00     0.018 C 
ATOM      8  H   UNL A   1      36.103  29.734  26.966  1.00  0.00     0.049 H 
ATOM      9  H   UNL A   1      35.073  29.561  28.384  1.00  0.00     0.049 H 
BRANCH   7  10
ATOM     10  N   UNL A   1      34.097  30.091  26.658  1.00  0.00    -0.353 N 
ATOM     11  O   UNL A   1      33.174  28.218  27.607  1.00  0.00    -0.270 OA
ATOM     12  C   UNL A   1      33.170  29.089  26.743  1.00  0.00     0.243 C 
ATOM     13  H   UNL A   1      33.961  30.807  25.995  1.00  0.00     0.163 HD
BRANCH  12  14
ATOM     14  C   UNL A   1      32.097  29.086  25.716  1.00  0.00     0.003 C 
ATOM     15  C   UNL A   1      31.366  30.142  25.325  1.00  0.00    -0.049 C 
ATOM     16  H   UNL A   1      31.893  28.183  25.258  1.00  0.00     0.068 H 
ATOM     17  H   UNL A   1      31.473  31.035  25.832  1.00  0.00     0.063 H 
BRANCH  15  18
ATOM     18  C   UNL A   1      30.420  30.073  24.203  1.00  0.00    -0.022 A 
ATOM     19  C   UNL A   1      30.373  28.976  23.326  1.00  0.00    -0.051 A 
ATOM     20  C   UNL A   1      29.530  31.137  24.014  1.00  0.00    -0.009 A 
ATOM     21  C   UNL A   1      29.476  28.956  22.252  1.00  0.00    -0.016 A 
ATOM     22  H   UNL A   1      31.006  28.175  23.477  1.00  0.00     0.063 H 
ATOM     23  C   UNL A   1      28.645  31.110  22.946  1.00  0.00     0.157 A 
ATOM     24  H   UNL A   1      29.530  31.937  24.668  1.00  0.00     0.067 H 
ATOM     25  C   UNL A   1      28.620  30.032  22.065  1.00  0.00     0.157 A 
ATOM     26  H   UNL A   1      29.451  28.150  21.607  1.00  0.00     0.066 H 
BRANCH  23  27
ATOM     27  O   UNL A   1      27.798  32.165  22.758  1.00  0.00    -0.504 OA
ATOM     28  H   UNL A   1      27.548  32.702  23.484  1.00  0.00     0.293 HD
ENDBRANCH  23  27
BRANCH  25  29
ATOM     29  O   UNL A   1      27.733  30.083  21.025  1.00  0.00    -0.504 OA
ATOM     30  H   UNL A   1      27.864  29.540  20.272  1.00  0.00     0.293 HD
ENDBRANCH  25  29
ENDBRANCH  15  18
ENDBRANCH  12  14
ENDBRANCH   7  10
ENDBRANCH   4   7
ENDBRANCH   1   4
BRANCH   1  31
ATOM     31  C   UNL A   1      34.588  33.805  28.767  1.00  0.00    -0.052 C 
ATOM     32  H   UNL A   1      34.979  34.145  27.832  1.00  0.00     0.027 H 
ATOM     33  H   UNL A   1      35.221  34.027  29.601  1.00  0.00     0.027 H 
BRANCH  31  34
ATOM     34  C   UNL A   1      33.273  34.539  29.027  1.00  0.00    -0.036 C 
ATOM     35  H   UNL A   1      32.725  33.990  29.765  1.00  0.00     0.028 H 
ATOM     36  H   UNL A   1      32.770  34.598  28.084  1.00  0.00     0.028 H 
BRANCH  34  37
ATOM     37  C   UNL A   1      33.425  35.974  29.520  1.00  0.00     0.018 C 
ATOM     38  H   UNL A   1      33.244  36.639  28.702  1.00  0.00     0.049 H 
ATOM     39  H   UNL A   1      34.419  36.081  29.903  1.00  0.00     0.049 H 
BRANCH  37  40
ATOM     40  N   UNL A   1      32.500  36.297  30.598  1.00  0.00    -0.352 N 
ATOM     41  C   UNL A   1      32.525  35.894  31.911  1.00  0.00     0.251 C 
ATOM     42  H   UNL A   1      31.753  36.886  30.350  1.00  0.00     0.163 HD
ATOM     43  O   UNL A   1      31.576  36.131  32.652  1.00  0.00    -0.269 OA
BRANCH  41  44
ATOM     44  C   UNL A   1      33.692  35.147  32.426  1.00  0.00     0.039 A 
ATOM     45  C   UNL A   1      33.516  33.833  32.869  1.00  0.00    -0.049 A 
ATOM     46  C   UNL A   1      34.958  35.736  32.457  1.00  0.00    -0.049 A 
ATOM     47  C   UNL A   1      34.623  33.085  33.276  1.00  0.00    -0.053 A 
ATOM     48  H   UNL A   1      32.572  33.417  32.896  1.00  0.00     0.063 H 
ATOM     49  C   UNL A   1      36.069  34.967  32.794  1.00  0.00    -0.053 A 
ATOM     50  H   UNL A   1      35.070  36.736  32.232  1.00  0.00     0.063 H 
ATOM     51  C   UNL A   1      35.914  33.632  33.205  1.00  0.00    -0.014 A 
ATOM     52  H   UNL A   1      34.492  32.124  33.630  1.00  0.00     0.063 H 
ATOM     53  H   UNL A   1      37.013  35.380  32.741  1.00  0.00     0.063 H 
BRANCH  51  54
ATOM     54  C   UNL A   1      37.121  32.839  33.556  1.00  0.00     0.031 A 
ATOM     55  C   UNL A   1      37.867  33.135  34.828  1.00  0.00     0.074 A 
ATOM     56  C   UNL A   1      37.594  31.916  32.695  1.00  0.00     0.049 A 
ATOM     57  N   UNL A   1      39.009  32.653  35.252  1.00  0.00    -0.248 NA
ATOM     58  C   UNL A   1      37.266  34.129  35.732  1.00  0.00    -0.034 C 
ATOM     59  C   UNL A   1      36.981  31.560  31.413  1.00  0.00    -0.036 A 
ATOM     60  N   UNL A   1      38.714  31.123  32.756  1.00  0.00    -0.354 N 
ATOM     61  C   UNL A   1      39.272  33.303  36.450  1.00  0.00     0.074 A 
ATOM     62  C   UNL A   1      38.194  34.240  36.672  1.00  0.00    -0.034 C 
ATOM     63  H   UNL A   1      36.358  34.613  35.656  1.00  0.00     0.065 H 
ATOM     64  C   UNL A   1      37.726  30.615  30.816  1.00  0.00    -0.036 A 
ATOM     65  H   UNL A   1      36.115  31.970  31.030  1.00  0.00     0.065 H 
ATOM     66  C   UNL A   1      38.892  30.331  31.646  1.00  0.00     0.049 A 
ATOM     67  H   UNL A   1      39.332  31.122  33.523  1.00  0.00     0.167 HD
ATOM     68  C   UNL A   1      40.314  33.120  37.297  1.00  0.00     0.037 A 
ATOM     69  H   UNL A   1      38.153  34.908  37.459  1.00  0.00     0.065 H 
ATOM     70  H   UNL A   1      37.508  30.163  29.914  1.00  0.00     0.065 H 
ATOM     71  C   UNL A   1      39.894  29.488  31.327  1.00  0.00     0.037 A 
ATOM     72  C   UNL A   1      41.360  32.153  37.096  1.00  0.00     0.049 A 
ATOM     73  C   UNL A   1      41.042  29.314  32.288  1.00  0.00     0.074 A 
ATOM     74  C   UNL A   1      42.413  31.838  37.938  1.00  0.00    -0.036 A 
ATOM     75  N   UNL A   1      41.489  31.348  35.975  1.00  0.00    -0.354 N 
ATOM     76  N   UNL A   1      41.239  29.877  33.454  1.00  0.00    -0.248 NA
ATOM     77  C   UNL A   1      42.109  28.384  31.887  1.00  0.00    -0.034 C 
ATOM     78  C   UNL A   1      43.209  30.882  37.302  1.00  0.00    -0.036 A 
ATOM     79  H   UNL A   1      42.580  32.239  38.873  1.00  0.00     0.065 H 
ATOM     80  C   UNL A   1      42.619  30.556  36.091  1.00  0.00     0.049 A 
ATOM     81  H   UNL A   1      40.869  31.341  35.210  1.00  0.00     0.167 HD
ATOM     82  C   UNL A   1      42.422  29.337  33.944  1.00  0.00     0.074 A 
ATOM     83  C   UNL A   1      42.896  28.397  32.952  1.00  0.00    -0.034 C 
ATOM     84  H   UNL A   1      42.215  27.858  31.006  1.00  0.00     0.065 H 
ATOM     85  H   UNL A   1      44.088  30.486  37.671  1.00  0.00     0.065 H 
ATOM     86  C   UNL A   1      43.059  29.598  35.111  1.00  0.00     0.037 A 
ATOM     87  H   UNL A   1      43.738  27.812  33.061  1.00  0.00     0.065 H 
BRANCH  68  88
ATOM     88  C   UNL A   1      40.383  33.975  38.528  1.00  0.00     0.064 A 
ATOM     89  C   UNL A   1      39.777  33.587  39.731  1.00  0.00     0.173 A 
ATOM     90  C   UNL A   1      41.140  35.157  38.525  1.00  0.00     0.173 A 
ATOM     91  F   UNL A   1      39.035  32.471  39.785  1.00  0.00    -0.203 F 
ATOM     92  C   UNL A   1      39.916  34.357  40.883  1.00  0.00     0.198 A 
ATOM     93  C   UNL A   1      41.302  35.908  39.685  1.00  0.00     0.198 A 
ATOM     94  F   UNL A   1      41.746  35.568  37.400  1.00  0.00    -0.203 F 
ATOM     95  F   UNL A   1      39.303  33.984  42.015  1.00  0.00    -0.200 F 
ATOM     96  C   UNL A   1      40.687  35.510  40.861  1.00  0.00     0.200 A 
ATOM     97  F   UNL A   1      42.061  37.012  39.666  1.00  0.00    -0.200 F 
ATOM     98  F   UNL A   1      40.838  36.238  41.977  1.00  0.00    -0.200 F 
ENDBRANCH  68  88
BRANCH  71  99
ATOM     99  C   UNL A   1      39.870  28.736  30.043  1.00  0.00     0.064 A 
ATOM    100  C   UNL A   1      39.328  27.443  29.975  1.00  0.00     0.173 A 
ATOM    101  C   UNL A   1      40.435  29.265  28.873  1.00  0.00     0.173 A 
ATOM    102  F   UNL A   1      38.795  26.883  31.071  1.00  0.00    -0.203 F 
ATOM    103  C   UNL A   1      39.390  26.695  28.801  1.00  0.00     0.198 A 
ATOM    104  C   UNL A   1      40.465  28.529  27.690  1.00  0.00     0.198 A 
ATOM    105  F   UNL A   1      40.964  30.497  28.880  1.00  0.00    -0.203 F 
ATOM    106  F   UNL A   1      38.928  25.437  28.786  1.00  0.00    -0.200 F 
ATOM    107  C   UNL A   1      39.956  27.239  27.658  1.00  0.00     0.200 A 
ATOM    108  F   UNL A   1      41.000  29.064  26.585  1.00  0.00    -0.200 F 
ATOM    109  F   UNL A   1      40.025  26.517  26.533  1.00  0.00    -0.200 F 
ENDBRANCH  71  99
BRANCH  86 110
ATOM    110  C   UNL A   1      44.300  28.812  35.419  1.00  0.00     0.064 A 
ATOM    111  C   UNL A   1      45.575  29.269  35.060  1.00  0.00     0.173 A 
ATOM    112  C   UNL A   1      44.211  27.610  36.139  1.00  0.00     0.173 A 
ATOM    113  F   UNL A   1      45.713  30.404  34.358  1.00  0.00    -0.203 F 
ATOM    114  C   UNL A   1      46.715  28.541  35.391  1.00  0.00     0.198 A 
ATOM    115  C   UNL A   1      45.353  26.902  36.497  1.00  0.00     0.198 A 
ATOM    116  F   UNL A   1      43.013  27.132  36.513  1.00  0.00    -0.203 F 
ATOM    117  F   UNL A   1      47.921  28.973  35.000  1.00  0.00    -0.200 F 
ATOM    118  C   UNL A   1      46.603  27.364  36.118  1.00  0.00     0.200 A 
ATOM    119  F   UNL A   1      45.245  25.774  37.214  1.00  0.00    -0.200 F 
ATOM    120  F   UNL A   1      47.703  26.673  36.449  1.00  0.00    -0.200 F 
ENDBRANCH  86 110
ENDBRANCH  51  54
ENDBRANCH  41  44
ENDBRANCH  37  40
ENDBRANCH  34  37
ENDBRANCH  31  34
ENDBRANCH   1  31
TORSDOF 16
ENDMDL
MODEL 3
REMARK VINA RESULT:     -10.9      7.311     12.942
REMARK SMILES O=C(/C=C/c1ccc(O)c(O)c1)NCCCCCCNC(=O)c1ccc(-c2c3nc(c(-c4c(F)c(F)c(F)c(F)c4F)c4ccc([nH]4)c(-c4c(F)c(F)c(F)c(F)c4F)c4nc(c(-c5c(F)c(F)c(F)c(F)c5F)c5ccc2[nH]5)C=C4)C=C3)cc1
REMARK SMILES IDX 16 1 15 4 14 7 13 10 1 11 2 12 3 14 4 15 5 18 6 19 12 20
REMARK SMILES IDX 7 21 10 23 8 25 11 27 9 29 17 31 18 34 19 37 20 40 21 41
REMARK SMILES IDX 22 43 23 44 24 45 85 46 25 47 84 49 26 51 27 54 28 55 78 56
REMARK SMILES IDX 29 57 83 58 77 59 79 60 30 61 82 62 76 64 75 66 31 68 63 71
REMARK SMILES IDX 43 72 62 73 44 74 47 75 61 76 80 77 45 78 46 80 60 82 81 83
REMARK SMILES IDX 48 86 32 88 33 89 41 90 34 91 35 92 39 93 42 94 36 95 37 96
REMARK SMILES IDX 40 97 38 98 64 99 65 100 73 101 66 102 67 103 71 104 74 105
REMARK SMILES IDX 68 106 69 107 72 108 70 109 49 110 50 111 58 112 51 113
REMARK SMILES IDX 52 114 56 115 59 116 53 117 54 118 57 119 55 120
REMARK H PARENT 16 2 16 3 15 5 15 6 14 8 14 9 13 13 3 16 4 17 6 22 12 24 7 26
REMARK H PARENT 11 28 9 30 17 32 17 33 18 35 18 36 19 38 19 39 20 42 24 48
REMARK H PARENT 85 50 25 52 84 53 83 63 77 65 79 67 82 69 76 70 44 79 47 81
REMARK H PARENT 80 84 45 85 81 87
REMARK Flexibility Score: inf
ROOT
ATOM      1  C   UNL A   1      34.421  32.494  29.183  1.00  0.00    -0.052 C 
ATOM      2  H   UNL A   1      35.105  32.190  29.949  1.00  0.00     0.027 H 
ATOM      3  H   UNL A   1      33.393  32.386  29.456  1.00  0.00     0.027 H 
ENDROOT
BRANCH   1   4
ATOM      4  C   UNL A   1      34.634  31.579  27.969  1.00  0.00    -0.036 C 
ATOM      5  H   UNL A   1      35.129  32.145  27.207  1.00  0.00     0.028 H 
ATOM      6  H   UNL A   1      35.211  30.747  28.315  1.00  0.00     0.028 H 
BRANCH   4   7
ATOM      7  C   UNL A   1      33.351  30.998  27.374  1.00  0.00     0.018 C 
ATOM      8  H   UNL A   1      32.513  31.361  27.931  1.00  0.00     0.049 H 
ATOM      9  H   UNL A   1      33.287  31.302  26.350  1.00  0.00     0.049 H 
BRANCH   7  10
ATOM     10  N   UNL A   1      33.353  29.550  27.418  1.00  0.00    -0.353 N 
ATOM     11  O   UNL A   1      33.352  29.228  25.147  1.00  0.00    -0.270 OA
ATOM     12  C   UNL A   1      33.291  28.782  26.287  1.00  0.00     0.243 C 
ATOM     13  H   UNL A   1      33.400  29.102  28.293  1.00  0.00     0.163 HD
BRANCH  12  14
ATOM     14  C   UNL A   1      33.150  27.316  26.486  1.00  0.00     0.003 C 
ATOM     15  C   UNL A   1      33.653  26.354  25.696  1.00  0.00    -0.049 C 
ATOM     16  H   UNL A   1      32.613  27.008  27.311  1.00  0.00     0.068 H 
ATOM     17  H   UNL A   1      34.108  26.626  24.810  1.00  0.00     0.063 H 
BRANCH  15  18
ATOM     18  C   UNL A   1      33.581  24.929  26.047  1.00  0.00    -0.022 A 
ATOM     19  C   UNL A   1      34.660  24.051  25.847  1.00  0.00    -0.051 A 
ATOM     20  C   UNL A   1      32.397  24.441  26.612  1.00  0.00    -0.009 A 
ATOM     21  C   UNL A   1      34.546  22.693  26.170  1.00  0.00    -0.016 A 
ATOM     22  H   UNL A   1      35.545  24.411  25.459  1.00  0.00     0.063 H 
ATOM     23  C   UNL A   1      32.292  23.094  26.927  1.00  0.00     0.157 A 
ATOM     24  H   UNL A   1      31.606  25.079  26.794  1.00  0.00     0.067 H 
ATOM     25  C   UNL A   1      33.354  22.222  26.703  1.00  0.00     0.157 A 
ATOM     26  H   UNL A   1      35.339  22.051  26.014  1.00  0.00     0.066 H 
BRANCH  23  27
ATOM     27  O   UNL A   1      31.123  22.623  27.454  1.00  0.00    -0.504 OA
ATOM     28  H   UNL A   1      30.549  23.203  27.915  1.00  0.00     0.293 HD
ENDBRANCH  23  27
BRANCH  25  29
ATOM     29  O   UNL A   1      33.173  20.905  27.022  1.00  0.00    -0.504 OA
ATOM     30  H   UNL A   1      32.909  20.295  26.361  1.00  0.00     0.293 HD
ENDBRANCH  25  29
ENDBRANCH  15  18
ENDBRANCH  12  14
ENDBRANCH   7  10
ENDBRANCH   4   7
ENDBRANCH   1   4
BRANCH   1  31
ATOM     31  C   UNL A   1      34.636  33.989  28.925  1.00  0.00    -0.052 C 
ATOM     32  H   UNL A   1      35.101  34.096  27.968  1.00  0.00     0.027 H 
ATOM     33  H   UNL A   1      35.237  34.346  29.736  1.00  0.00     0.027 H 
BRANCH  31  34
ATOM     34  C   UNL A   1      33.366  34.840  28.933  1.00  0.00    -0.036 C 
ATOM     35  H   UNL A   1      32.601  34.290  29.439  1.00  0.00     0.028 H 
ATOM     36  H   UNL A   1      33.134  35.044  27.909  1.00  0.00     0.028 H 
BRANCH  34  37
ATOM     37  C   UNL A   1      33.507  36.196  29.617  1.00  0.00     0.018 C 
ATOM     38  H   UNL A   1      33.388  36.964  28.883  1.00  0.00     0.049 H 
ATOM     39  H   UNL A   1      34.475  36.231  30.072  1.00  0.00     0.049 H 
BRANCH  37  40
ATOM     40  N   UNL A   1      32.519  36.398  30.668  1.00  0.00    -0.352 N 
ATOM     41  C   UNL A   1      32.496  35.890  31.945  1.00  0.00     0.251 C 
ATOM     42  H   UNL A   1      31.762  36.979  30.430  1.00  0.00     0.163 HD
ATOM     43  O   UNL A   1      31.503  36.033  32.653  1.00  0.00    -0.269 OA
BRANCH  41  44
ATOM     44  C   UNL A   1      33.664  35.145  32.457  1.00  0.00     0.039 A 
ATOM     45  C   UNL A   1      33.488  33.837  32.919  1.00  0.00    -0.049 A 
ATOM     46  C   UNL A   1      34.934  35.729  32.470  1.00  0.00    -0.049 A 
ATOM     47  C   UNL A   1      34.596  33.090  33.325  1.00  0.00    -0.053 A 
ATOM     48  H   UNL A   1      32.542  33.425  32.960  1.00  0.00     0.063 H 
ATOM     49  C   UNL A   1      36.045  34.960  32.805  1.00  0.00    -0.053 A 
ATOM     50  H   UNL A   1      35.047  36.726  32.231  1.00  0.00     0.063 H 
ATOM     51  C   UNL A   1      35.888  33.632  33.234  1.00  0.00    -0.014 A 
ATOM     52  H   UNL A   1      34.465  32.135  33.693  1.00  0.00     0.063 H 
ATOM     53  H   UNL A   1      36.989  35.369  32.738  1.00  0.00     0.063 H 
BRANCH  51  54
ATOM     54  C   UNL A   1      37.095  32.838  33.584  1.00  0.00     0.031 A 
ATOM     55  C   UNL A   1      37.847  33.137  34.853  1.00  0.00     0.074 A 
ATOM     56  C   UNL A   1      37.564  31.912  32.724  1.00  0.00     0.049 A 
ATOM     57  N   UNL A   1      38.989  32.655  35.274  1.00  0.00    -0.248 NA
ATOM     58  C   UNL A   1      37.250  34.134  35.756  1.00  0.00    -0.034 C 
ATOM     59  C   UNL A   1      36.948  31.553  31.445  1.00  0.00    -0.036 A 
ATOM     60  N   UNL A   1      38.684  31.118  32.784  1.00  0.00    -0.354 N 
ATOM     61  C   UNL A   1      39.257  33.308  36.470  1.00  0.00     0.074 A 
ATOM     62  C   UNL A   1      38.180  34.247  36.693  1.00  0.00    -0.034 C 
ATOM     63  H   UNL A   1      36.341  34.619  35.681  1.00  0.00     0.065 H 
ATOM     64  C   UNL A   1      37.689  30.606  30.848  1.00  0.00    -0.036 A 
ATOM     65  H   UNL A   1      36.081  31.963  31.064  1.00  0.00     0.065 H 
ATOM     66  C   UNL A   1      38.857  30.323  31.675  1.00  0.00     0.049 A 
ATOM     67  H   UNL A   1      39.305  31.119  33.548  1.00  0.00     0.167 HD
ATOM     68  C   UNL A   1      40.301  33.126  37.313  1.00  0.00     0.037 A 
ATOM     69  H   UNL A   1      38.143  34.917  37.477  1.00  0.00     0.065 H 
ATOM     70  H   UNL A   1      37.468  30.151  29.949  1.00  0.00     0.065 H 
ATOM     71  C   UNL A   1      39.857  29.477  31.356  1.00  0.00     0.037 A 
ATOM     72  C   UNL A   1      41.346  32.158  37.112  1.00  0.00     0.049 A 
ATOM     73  C   UNL A   1      41.009  29.306  32.314  1.00  0.00     0.074 A 
ATOM     74  C   UNL A   1      42.400  31.844  37.951  1.00  0.00    -0.036 A 
ATOM     75  N   UNL A   1      41.469  31.349  35.993  1.00  0.00    -0.354 N 
ATOM     76  N   UNL A   1      41.210  29.871  33.478  1.00  0.00    -0.248 NA
ATOM     77  C   UNL A   1      42.073  28.373  31.911  1.00  0.00    -0.034 C 
ATOM     78  C   UNL A   1      43.193  30.885  37.315  1.00  0.00    -0.036 A 
ATOM     79  H   UNL A   1      42.571  32.247  38.885  1.00  0.00     0.065 H 
ATOM     80  C   UNL A   1      42.600  30.556  36.108  1.00  0.00     0.049 A 
ATOM     81  H   UNL A   1      40.847  31.340  35.230  1.00  0.00     0.167 HD
ATOM     82  C   UNL A   1      42.394  29.332  33.965  1.00  0.00     0.074 A 
ATOM     83  C   UNL A   1      42.864  28.388  32.974  1.00  0.00    -0.034 C 
ATOM     84  H   UNL A   1      42.177  27.845  31.032  1.00  0.00     0.065 H 
ATOM     85  H   UNL A   1      44.073  30.489  37.683  1.00  0.00     0.065 H 
ATOM     86  C   UNL A   1      43.035  29.595  35.129  1.00  0.00     0.037 A 
ATOM     87  H   UNL A   1      43.706  27.802  33.082  1.00  0.00     0.065 H 
BRANCH  68  88
ATOM     88  C   UNL A   1      40.375  33.984  38.542  1.00  0.00     0.064 A 
ATOM     89  C   UNL A   1      41.071  35.202  38.552  1.00  0.00     0.173 A 
ATOM     90  C   UNL A   1      39.667  33.624  39.699  1.00  0.00     0.173 A 
ATOM     91  F   UNL A   1      41.771  35.587  37.475  1.00  0.00    -0.203 F 
ATOM     92  C   UNL A   1      41.066  36.020  39.678  1.00  0.00     0.198 A 
ATOM     93  C   UNL A   1      39.639  34.458  40.813  1.00  0.00     0.198 A 
ATOM     94  F   UNL A   1      38.979  32.472  39.739  1.00  0.00    -0.203 F 
ATOM     95  F   UNL A   1      41.762  37.165  39.675  1.00  0.00    -0.200 F 
ATOM     96  C   UNL A   1      40.341  35.653  40.802  1.00  0.00     0.200 A 
ATOM     97  F   UNL A   1      38.925  34.110  41.891  1.00  0.00    -0.200 F 
ATOM     98  F   UNL A   1      40.318  36.454  41.877  1.00  0.00    -0.200 F 
ENDBRANCH  68  88
BRANCH  71  99
ATOM     99  C   UNL A   1      39.829  28.722  30.074  1.00  0.00     0.064 A 
ATOM    100  C   UNL A   1      39.277  27.433  30.010  1.00  0.00     0.173 A 
ATOM    101  C   UNL A   1      40.398  29.244  28.903  1.00  0.00     0.173 A 
ATOM    102  F   UNL A   1      38.741  26.880  31.107  1.00  0.00    -0.203 F 
ATOM    103  C   UNL A   1      39.335  26.681  28.838  1.00  0.00     0.198 A 
ATOM    104  C   UNL A   1      40.423  28.504  27.722  1.00  0.00     0.198 A 
ATOM    105  F   UNL A   1      40.935  30.472  28.906  1.00  0.00    -0.203 F 
ATOM    106  F   UNL A   1      38.864  25.426  28.826  1.00  0.00    -0.200 F 
ATOM    107  C   UNL A   1      39.905  27.217  27.694  1.00  0.00     0.200 A 
ATOM    108  F   UNL A   1      40.962  29.032  26.615  1.00  0.00    -0.200 F 
ATOM    109  F   UNL A   1      39.969  26.491  26.571  1.00  0.00    -0.200 F 
ENDBRANCH  71  99
BRANCH  86 110
ATOM    110  C   UNL A   1      44.276  28.809  35.435  1.00  0.00     0.064 A 
ATOM    111  C   UNL A   1      45.550  29.261  35.066  1.00  0.00     0.173 A 
ATOM    112  C   UNL A   1      44.189  27.611  36.164  1.00  0.00     0.173 A 
ATOM    113  F   UNL A   1      45.687  30.391  34.356  1.00  0.00    -0.203 F 
ATOM    114  C   UNL A   1      46.690  28.533  35.396  1.00  0.00     0.198 A 
ATOM    115  C   UNL A   1      45.332  26.904  36.520  1.00  0.00     0.198 A 
ATOM    116  F   UNL A   1      42.992  27.139  36.548  1.00  0.00    -0.203 F 
ATOM    117  F   UNL A   1      47.895  28.960  34.995  1.00  0.00    -0.200 F 
ATOM    118  C   UNL A   1      46.581  27.361  36.131  1.00  0.00     0.200 A 
ATOM    119  F   UNL A   1      45.225  25.781  37.245  1.00  0.00    -0.200 F 
ATOM    120  F   UNL A   1      47.681  26.670  36.461  1.00  0.00    -0.200 F 
ENDBRANCH  86 110
ENDBRANCH  51  54
ENDBRANCH  41  44
ENDBRANCH  37  40
ENDBRANCH  34  37
ENDBRANCH  31  34
ENDBRANCH   1  31
TORSDOF 16
ENDMDL
MODEL 4
REMARK VINA RESULT:     -10.9      5.957      8.099
REMARK SMILES O=C(/C=C/c1ccc(O)c(O)c1)NCCCCCCNC(=O)c1ccc(-c2c3nc(c(-c4c(F)c(F)c(F)c(F)c4F)c4ccc([nH]4)c(-c4c(F)c(F)c(F)c(F)c4F)c4nc(c(-c5c(F)c(F)c(F)c(F)c5F)c5ccc2[nH]5)C=C4)C=C3)cc1
REMARK SMILES IDX 16 1 15 4 14 7 13 10 1 11 2 12 3 14 4 15 5 18 6 19 12 20
REMARK SMILES IDX 7 21 10 23 8 25 11 27 9 29 17 31 18 34 19 37 20 40 21 41
REMARK SMILES IDX 22 43 23 44 24 45 85 46 25 47 84 49 26 51 27 54 28 55 78 56
REMARK SMILES IDX 29 57 83 58 77 59 79 60 30 61 82 62 76 64 75 66 31 68 63 71
REMARK SMILES IDX 43 72 62 73 44 74 47 75 61 76 80 77 45 78 46 80 60 82 81 83
REMARK SMILES IDX 48 86 32 88 33 89 41 90 34 91 35 92 39 93 42 94 36 95 37 96
REMARK SMILES IDX 40 97 38 98 64 99 65 100 73 101 66 102 67 103 71 104 74 105
REMARK SMILES IDX 68 106 69 107 72 108 70 109 49 110 50 111 58 112 51 113
REMARK SMILES IDX 52 114 56 115 59 116 53 117 54 118 57 119 55 120
REMARK H PARENT 16 2 16 3 15 5 15 6 14 8 14 9 13 13 3 16 4 17 6 22 12 24 7 26
REMARK H PARENT 11 28 9 30 17 32 17 33 18 35 18 36 19 38 19 39 20 42 24 48
REMARK H PARENT 85 50 25 52 84 53 83 63 77 65 79 67 82 69 76 70 44 79 47 81
REMARK H PARENT 80 84 45 85 81 87
REMARK Flexibility Score: inf
ROOT
ATOM      1  C   UNL A   1      34.470  25.176  24.877  1.00  0.00    -0.052 C 
ATOM      2  H   UNL A   1      35.481  25.434  24.635  1.00  0.00     0.027 H 
ATOM      3  H   UNL A   1      33.837  25.069  24.022  1.00  0.00     0.027 H 
ENDROOT
BRANCH   1   4
ATOM      4  C   UNL A   1      33.875  26.326  25.702  1.00  0.00    -0.036 C 
ATOM      5  H   UNL A   1      34.209  26.218  26.714  1.00  0.00     0.028 H 
ATOM      6  H   UNL A   1      34.209  27.232  25.244  1.00  0.00     0.028 H 
BRANCH   4   7
ATOM      7  C   UNL A   1      32.346  26.382  25.710  1.00  0.00     0.018 C 
ATOM      8  H   UNL A   1      31.961  25.442  25.375  1.00  0.00     0.049 H 
ATOM      9  H   UNL A   1      32.022  26.592  26.707  1.00  0.00     0.049 H 
BRANCH   7  10
ATOM     10  N   UNL A   1      31.850  27.430  24.841  1.00  0.00    -0.353 N 
ATOM     11  O   UNL A   1      31.736  29.060  26.450  1.00  0.00    -0.270 OA
ATOM     12  C   UNL A   1      31.527  28.675  25.305  1.00  0.00     0.243 C 
ATOM     13  H   UNL A   1      31.740  27.238  23.881  1.00  0.00     0.163 HD
BRANCH  12  14
ATOM     14  C   UNL A   1      30.890  29.602  24.334  1.00  0.00     0.003 C 
ATOM     15  C   UNL A   1      29.745  29.390  23.665  1.00  0.00    -0.049 C 
ATOM     16  H   UNL A   1      31.375  30.496  24.156  1.00  0.00     0.068 H 
ATOM     17  H   UNL A   1      29.289  28.467  23.741  1.00  0.00     0.063 H 
BRANCH  15  18
ATOM     18  C   UNL A   1      29.119  30.423  22.828  1.00  0.00    -0.022 A 
ATOM     19  C   UNL A   1      28.582  30.139  21.561  1.00  0.00    -0.051 A 
ATOM     20  C   UNL A   1      29.047  31.730  23.324  1.00  0.00    -0.009 A 
ATOM     21  C   UNL A   1      28.015  31.155  20.781  1.00  0.00    -0.016 A 
ATOM     22  H   UNL A   1      28.605  29.173  21.202  1.00  0.00     0.063 H 
ATOM     23  C   UNL A   1      28.486  32.730  22.544  1.00  0.00     0.157 A 
ATOM     24  H   UNL A   1      29.409  31.949  24.266  1.00  0.00     0.067 H 
ATOM     25  C   UNL A   1      27.979  32.450  21.278  1.00  0.00     0.157 A 
ATOM     26  H   UNL A   1      27.629  30.942  19.848  1.00  0.00     0.066 H 
BRANCH  23  27
ATOM     27  O   UNL A   1      28.444  34.007  23.028  1.00  0.00    -0.504 OA
ATOM     28  H   UNL A   1      27.695  34.545  22.868  1.00  0.00     0.293 HD
ENDBRANCH  23  27
BRANCH  25  29
ATOM     29  O   UNL A   1      27.456  33.489  20.559  1.00  0.00    -0.504 OA
ATOM     30  H   UNL A   1      26.615  33.838  20.784  1.00  0.00     0.293 HD
ENDBRANCH  25  29
ENDBRANCH  15  18
ENDBRANCH  12  14
ENDBRANCH   7  10
ENDBRANCH   4   7
ENDBRANCH   1   4
BRANCH   1  31
ATOM     31  C   UNL A   1      34.483  23.809  25.568  1.00  0.00    -0.052 C 
ATOM     32  H   UNL A   1      34.224  23.068  24.841  1.00  0.00     0.027 H 
ATOM     33  H   UNL A   1      33.785  23.879  26.376  1.00  0.00     0.027 H 
BRANCH  31  34
ATOM     34  C   UNL A   1      35.819  23.409  26.195  1.00  0.00    -0.036 C 
ATOM     35  H   UNL A   1      35.796  22.355  26.383  1.00  0.00     0.028 H 
ATOM     36  H   UNL A   1      35.921  23.995  27.084  1.00  0.00     0.028 H 
BRANCH  34  37
ATOM     37  C   UNL A   1      37.045  23.711  25.341  1.00  0.00     0.018 C 
ATOM     38  H   UNL A   1      37.368  24.710  25.546  1.00  0.00     0.049 H 
ATOM     39  H   UNL A   1      36.763  23.591  24.315  1.00  0.00     0.049 H 
BRANCH  37  40
ATOM     40  N   UNL A   1      38.150  22.800  25.604  1.00  0.00    -0.352 N 
ATOM     41  C   UNL A   1      39.356  23.053  26.211  1.00  0.00     0.251 C 
ATOM     42  H   UNL A   1      38.014  21.873  25.304  1.00  0.00     0.163 HD
ATOM     43  O   UNL A   1      40.243  22.205  26.210  1.00  0.00    -0.269 OA
BRANCH  41  44
ATOM     44  C   UNL A   1      39.595  24.366  26.845  1.00  0.00     0.039 A 
ATOM     45  C   UNL A   1      39.168  24.574  28.160  1.00  0.00    -0.049 A 
ATOM     46  C   UNL A   1      40.250  25.386  26.150  1.00  0.00    -0.049 A 
ATOM     47  C   UNL A   1      39.464  25.779  28.802  1.00  0.00    -0.053 A 
ATOM     48  H   UNL A   1      38.637  23.840  28.655  1.00  0.00     0.063 H 
ATOM     49  C   UNL A   1      40.607  26.556  26.813  1.00  0.00    -0.053 A 
ATOM     50  H   UNL A   1      40.469  25.271  25.148  1.00  0.00     0.063 H 
ATOM     51  C   UNL A   1      40.219  26.765  28.147  1.00  0.00    -0.014 A 
ATOM     52  H   UNL A   1      39.125  25.946  29.763  1.00  0.00     0.063 H 
ATOM     53  H   UNL A   1      41.159  27.276  26.322  1.00  0.00     0.063 H 
BRANCH  51  54
ATOM     54  C   UNL A   1      40.617  28.025  28.827  1.00  0.00     0.031 A 
ATOM     55  C   UNL A   1      42.013  28.175  29.370  1.00  0.00     0.074 A 
ATOM     56  C   UNL A   1      39.704  28.996  29.034  1.00  0.00     0.049 A 
ATOM     57  N   UNL A   1      42.519  29.133  30.105  1.00  0.00    -0.248 NA
ATOM     58  C   UNL A   1      42.959  27.089  29.070  1.00  0.00    -0.034 C 
ATOM     59  C   UNL A   1      38.311  28.958  28.589  1.00  0.00    -0.036 A 
ATOM     60  N   UNL A   1      39.807  30.197  29.693  1.00  0.00    -0.354 N 
ATOM     61  C   UNL A   1      43.825  28.751  30.377  1.00  0.00     0.074 A 
ATOM     62  C   UNL A   1      44.028  27.459  29.760  1.00  0.00    -0.034 C 
ATOM     63  H   UNL A   1      42.827  26.255  28.475  1.00  0.00     0.065 H 
ATOM     64  C   UNL A   1      37.691  30.084  28.977  1.00  0.00    -0.036 A 
ATOM     65  H   UNL A   1      37.873  28.187  28.060  1.00  0.00     0.065 H 
ATOM     66  C   UNL A   1      38.628  30.904  29.739  1.00  0.00     0.049 A 
ATOM     67  H   UNL A   1      40.645  30.521  30.095  1.00  0.00     0.167 HD
ATOM     68  C   UNL A   1      44.775  29.427  31.066  1.00  0.00     0.037 A 
ATOM     69  H   UNL A   1      44.891  26.898  29.848  1.00  0.00     0.065 H 
ATOM     70  H   UNL A   1      36.711  30.331  28.770  1.00  0.00     0.065 H 
ATOM     71  C   UNL A   1      38.334  32.072  30.344  1.00  0.00     0.037 A 
ATOM     72  C   UNL A   1      44.585  30.733  31.638  1.00  0.00     0.049 A 
ATOM     73  C   UNL A   1      39.413  32.794  31.111  1.00  0.00     0.074 A 
ATOM     74  C   UNL A   1      45.512  31.533  32.283  1.00  0.00    -0.036 A 
ATOM     75  N   UNL A   1      43.386  31.430  31.637  1.00  0.00    -0.354 N 
ATOM     76  N   UNL A   1      40.666  32.459  31.294  1.00  0.00    -0.248 NA
ATOM     77  C   UNL A   1      39.034  34.062  31.754  1.00  0.00    -0.034 C 
ATOM     78  C   UNL A   1      44.861  32.690  32.721  1.00  0.00    -0.036 A 
ATOM     79  H   UNL A   1      46.510  31.314  32.418  1.00  0.00     0.065 H 
ATOM     80  C   UNL A   1      43.544  32.639  32.295  1.00  0.00     0.049 A 
ATOM     81  H   UNL A   1      42.548  31.113  31.229  1.00  0.00     0.167 HD
ATOM     82  C   UNL A   1      41.233  33.491  32.030  1.00  0.00     0.074 A 
ATOM     83  C   UNL A   1      40.191  34.468  32.255  1.00  0.00    -0.034 C 
ATOM     84  H   UNL A   1      38.109  34.516  31.802  1.00  0.00     0.065 H 
ATOM     85  H   UNL A   1      45.289  33.453  33.269  1.00  0.00     0.065 H 
ATOM     86  C   UNL A   1      42.505  33.618  32.480  1.00  0.00     0.037 A 
ATOM     87  H   UNL A   1      40.331  35.367  32.743  1.00  0.00     0.065 H 
BRANCH  68  88
ATOM     88  C   UNL A   1      46.117  28.779  31.243  1.00  0.00     0.064 A 
ATOM     89  C   UNL A   1      46.401  27.957  32.343  1.00  0.00     0.173 A 
ATOM     90  C   UNL A   1      47.102  28.914  30.253  1.00  0.00     0.173 A 
ATOM     91  F   UNL A   1      45.497  27.803  33.322  1.00  0.00    -0.203 F 
ATOM     92  C   UNL A   1      47.626  27.305  32.451  1.00  0.00     0.198 A 
ATOM     93  C   UNL A   1      48.314  28.236  30.349  1.00  0.00     0.198 A 
ATOM     94  F   UNL A   1      46.878  29.684  29.177  1.00  0.00    -0.203 F 
ATOM     95  F   UNL A   1      47.887  26.548  33.526  1.00  0.00    -0.200 F 
ATOM     96  C   UNL A   1      48.576  27.435  31.450  1.00  0.00     0.200 A 
ATOM     97  F   UNL A   1      49.224  28.351  29.372  1.00  0.00    -0.200 F 
ATOM     98  F   UNL A   1      49.746  26.788  31.545  1.00  0.00    -0.200 F 
ENDBRANCH  68  88
BRANCH  71  99
ATOM     99  C   UNL A   1      36.963  32.643  30.261  1.00  0.00     0.064 A 
ATOM    100  C   UNL A   1      36.572  33.420  29.159  1.00  0.00     0.173 A 
ATOM    101  C   UNL A   1      36.034  32.474  31.299  1.00  0.00     0.173 A 
ATOM    102  F   UNL A   1      37.430  33.629  28.151  1.00  0.00    -0.203 F 
ATOM    103  C   UNL A   1      35.324  34.039  29.119  1.00  0.00     0.198 A 
ATOM    104  C   UNL A   1      34.773  33.065  31.241  1.00  0.00     0.198 A 
ATOM    105  F   UNL A   1      36.353  31.739  32.373  1.00  0.00    -0.203 F 
ATOM    106  F   UNL A   1      35.006  34.833  28.087  1.00  0.00    -0.200 F 
ATOM    107  C   UNL A   1      34.424  33.860  30.158  1.00  0.00     0.200 A 
ATOM    108  F   UNL A   1      33.901  32.878  32.240  1.00  0.00    -0.200 F 
ATOM    109  F   UNL A   1      33.229  34.462  30.124  1.00  0.00    -0.200 F 
ENDBRANCH  71  99
BRANCH  86 110
ATOM    110  C   UNL A   1      42.867  34.883  33.202  1.00  0.00     0.064 A 
ATOM    111  C   UNL A   1      42.782  34.991  34.597  1.00  0.00     0.173 A 
ATOM    112  C   UNL A   1      43.364  35.984  32.486  1.00  0.00     0.173 A 
ATOM    113  F   UNL A   1      42.300  33.973  35.325  1.00  0.00    -0.203 F 
ATOM    114  C   UNL A   1      43.160  36.163  35.247  1.00  0.00     0.198 A 
ATOM    115  C   UNL A   1      43.772  37.141  33.142  1.00  0.00     0.198 A 
ATOM    116  F   UNL A   1      43.472  35.929  31.149  1.00  0.00    -0.203 F 
ATOM    117  F   UNL A   1      43.029  36.261  36.577  1.00  0.00    -0.200 F 
ATOM    118  C   UNL A   1      43.664  37.232  34.520  1.00  0.00     0.200 A 
ATOM    119  F   UNL A   1      44.275  38.167  32.439  1.00  0.00    -0.200 F 
ATOM    120  F   UNL A   1      44.043  38.353  35.150  1.00  0.00    -0.200 F 
ENDBRANCH  86 110
ENDBRANCH  51  54
ENDBRANCH  41  44
ENDBRANCH  37  40
ENDBRANCH  34  37
ENDBRANCH  31  34
ENDBRANCH   1  31
TORSDOF 16
ENDMDL
MODEL 5
REMARK VINA RESULT:     -10.8      7.096     11.146
REMARK SMILES O=C(/C=C/c1ccc(O)c(O)c1)NCCCCCCNC(=O)c1ccc(-c2c3nc(c(-c4c(F)c(F)c(F)c(F)c4F)c4ccc([nH]4)c(-c4c(F)c(F)c(F)c(F)c4F)c4nc(c(-c5c(F)c(F)c(F)c(F)c5F)c5ccc2[nH]5)C=C4)C=C3)cc1
REMARK SMILES IDX 16 1 15 4 14 7 13 10 1 11 2 12 3 14 4 15 5 18 6 19 12 20
REMARK SMILES IDX 7 21 10 23 8 25 11 27 9 29 17 31 18 34 19 37 20 40 21 41
REMARK SMILES IDX 22 43 23 44 24 45 85 46 25 47 84 49 26 51 27 54 28 55 78 56
REMARK SMILES IDX 29 57 83 58 77 59 79 60 30 61 82 62 76 64 75 66 31 68 63 71
REMARK SMILES IDX 43 72 62 73 44 74 47 75 61 76 80 77 45 78 46 80 60 82 81 83
REMARK SMILES IDX 48 86 32 88 33 89 41 90 34 91 35 92 39 93 42 94 36 95 37 96
REMARK SMILES IDX 40 97 38 98 64 99 65 100 73 101 66 102 67 103 71 104 74 105
REMARK SMILES IDX 68 106 69 107 72 108 70 109 49 110 50 111 58 112 51 113
REMARK SMILES IDX 52 114 56 115 59 116 53 117 54 118 57 119 55 120
REMARK H PARENT 16 2 16 3 15 5 15 6 14 8 14 9 13 13 3 16 4 17 6 22 12 24 7 26
REMARK H PARENT 11 28 9 30 17 32 17 33 18 35 18 36 19 38 19 39 20 42 24 48
REMARK H PARENT 85 50 25 52 84 53 83 63 77 65 79 67 82 69 76 70 44 79 47 81
REMARK H PARENT 80 84 45 85 81 87
REMARK Flexibility Score: inf
ROOT
ATOM      1  C   UNL A   1      33.626  27.756  24.970  1.00  0.00    -0.052 C 
ATOM      2  H   UNL A   1      32.794  27.960  24.327  1.00  0.00     0.027 H 
ATOM      3  H   UNL A   1      34.543  27.587  24.447  1.00  0.00     0.027 H 
ENDROOT
BRANCH   1   4
ATOM      4  C   UNL A   1      33.327  26.456  25.730  1.00  0.00    -0.036 C 
ATOM      5  H   UNL A   1      33.884  25.665  25.271  1.00  0.00     0.028 H 
ATOM      6  H   UNL A   1      33.606  26.630  26.748  1.00  0.00     0.028 H 
BRANCH   4   7
ATOM      7  C   UNL A   1      31.852  26.052  25.750  1.00  0.00     0.018 C 
ATOM      8  H   UNL A   1      31.735  25.139  25.205  1.00  0.00     0.049 H 
ATOM      9  H   UNL A   1      31.551  25.928  26.768  1.00  0.00     0.049 H 
BRANCH   7  10
ATOM     10  N   UNL A   1      31.015  27.069  25.149  1.00  0.00    -0.353 N 
ATOM     11  O   UNL A   1      30.036  25.702  23.589  1.00  0.00    -0.270 OA
ATOM     12  C   UNL A   1      30.215  26.816  24.068  1.00  0.00     0.243 C 
ATOM     13  H   UNL A   1      31.023  27.977  25.531  1.00  0.00     0.163 HD
BRANCH  12  14
ATOM     14  C   UNL A   1      29.526  27.985  23.463  1.00  0.00     0.003 C 
ATOM     15  C   UNL A   1      29.949  29.259  23.488  1.00  0.00    -0.049 C 
ATOM     16  H   UNL A   1      28.634  27.800  22.977  1.00  0.00     0.068 H 
ATOM     17  H   UNL A   1      30.781  29.495  24.051  1.00  0.00     0.063 H 
BRANCH  15  18
ATOM     18  C   UNL A   1      29.270  30.329  22.743  1.00  0.00    -0.022 A 
ATOM     19  C   UNL A   1      28.642  30.100  21.507  1.00  0.00    -0.051 A 
ATOM     20  C   UNL A   1      29.243  31.614  23.297  1.00  0.00    -0.009 A 
ATOM     21  C   UNL A   1      28.027  31.149  20.812  1.00  0.00    -0.016 A 
ATOM     22  H   UNL A   1      28.633  29.149  21.107  1.00  0.00     0.063 H 
ATOM     23  C   UNL A   1      28.633  32.648  22.601  1.00  0.00     0.157 A 
ATOM     24  H   UNL A   1      29.673  31.791  24.219  1.00  0.00     0.067 H 
ATOM     25  C   UNL A   1      28.034  32.422  21.365  1.00  0.00     0.157 A 
ATOM     26  H   UNL A   1      27.573  30.977  19.901  1.00  0.00     0.066 H 
BRANCH  23  27
ATOM     27  O   UNL A   1      28.634  33.903  23.140  1.00  0.00    -0.504 OA
ATOM     28  H   UNL A   1      27.940  34.500  22.941  1.00  0.00     0.293 HD
ENDBRANCH  23  27
BRANCH  25  29
ATOM     29  O   UNL A   1      27.468  33.492  20.729  1.00  0.00    -0.504 OA
ATOM     30  H   UNL A   1      27.847  33.822  19.938  1.00  0.00     0.293 HD
ENDBRANCH  25  29
ENDBRANCH  15  18
ENDBRANCH  12  14
ENDBRANCH   7  10
ENDBRANCH   4   7
ENDBRANCH   1   4
BRANCH   1  31
ATOM     31  C   UNL A   1      33.860  28.991  25.845  1.00  0.00    -0.052 C 
ATOM     32  H   UNL A   1      34.799  29.421  25.567  1.00  0.00     0.027 H 
ATOM     33  H   UNL A   1      33.831  28.646  26.858  1.00  0.00     0.027 H 
BRANCH  31  34
ATOM     34  C   UNL A   1      32.790  30.078  25.737  1.00  0.00    -0.036 C 
ATOM     35  H   UNL A   1      31.924  29.648  25.279  1.00  0.00     0.028 H 
ATOM     36  H   UNL A   1      33.223  30.870  25.163  1.00  0.00     0.028 H 
BRANCH  34  37
ATOM     37  C   UNL A   1      32.366  30.695  27.065  1.00  0.00     0.018 C 
ATOM     38  H   UNL A   1      33.020  30.339  27.833  1.00  0.00     0.049 H 
ATOM     39  H   UNL A   1      31.351  30.409  27.247  1.00  0.00     0.049 H 
BRANCH  37  40
ATOM     40  N   UNL A   1      32.417  32.151  27.049  1.00  0.00    -0.352 N 
ATOM     41  C   UNL A   1      33.348  32.992  27.608  1.00  0.00     0.251 C 
ATOM     42  H   UNL A   1      31.680  32.594  26.571  1.00  0.00     0.163 HD
ATOM     43  O   UNL A   1      33.154  34.204  27.637  1.00  0.00    -0.269 OA
BRANCH  41  44
ATOM     44  C   UNL A   1      34.579  32.429  28.203  1.00  0.00     0.039 A 
ATOM     45  C   UNL A   1      35.759  33.176  28.156  1.00  0.00    -0.049 A 
ATOM     46  C   UNL A   1      34.564  31.175  28.818  1.00  0.00    -0.049 A 
ATOM     47  C   UNL A   1      36.908  32.696  28.790  1.00  0.00    -0.053 A 
ATOM     48  H   UNL A   1      35.783  34.078  27.655  1.00  0.00     0.063 H 
ATOM     49  C   UNL A   1      35.688  30.732  29.511  1.00  0.00    -0.053 A 
ATOM     50  H   UNL A   1      33.724  30.579  28.760  1.00  0.00     0.063 H 
ATOM     51  C   UNL A   1      36.871  31.489  29.505  1.00  0.00    -0.014 A 
ATOM     52  H   UNL A   1      37.788  33.232  28.732  1.00  0.00     0.063 H 
ATOM     53  H   UNL A   1      35.651  29.842  30.030  1.00  0.00     0.063 H 
BRANCH  51  54
ATOM     54  C   UNL A   1      38.053  30.988  30.256  1.00  0.00     0.031 A 
ATOM     55  C   UNL A   1      38.980  29.993  29.614  1.00  0.00     0.074 A 
ATOM     56  C   UNL A   1      38.242  31.359  31.538  1.00  0.00     0.049 A 
ATOM     57  N   UNL A   1      39.985  29.337  30.138  1.00  0.00    -0.248 NA
ATOM     58  C   UNL A   1      38.728  29.668  28.201  1.00  0.00    -0.034 C 
ATOM     59  C   UNL A   1      37.396  32.290  32.285  1.00  0.00    -0.036 A 
ATOM     60  N   UNL A   1      39.198  30.979  32.449  1.00  0.00    -0.354 N 
ATOM     61  C   UNL A   1      40.462  28.507  29.132  1.00  0.00     0.074 A 
ATOM     62  C   UNL A   1      39.618  28.712  27.976  1.00  0.00    -0.034 C 
ATOM     63  H   UNL A   1      38.038  30.079  27.552  1.00  0.00     0.065 H 
ATOM     64  C   UNL A   1      37.873  32.416  33.534  1.00  0.00    -0.036 A 
ATOM     65  H   UNL A   1      36.563  32.772  31.912  1.00  0.00     0.065 H 
ATOM     66  C   UNL A   1      39.031  31.542  33.692  1.00  0.00     0.049 A 
ATOM     67  H   UNL A   1      39.934  30.361  32.232  1.00  0.00     0.167 HD
ATOM     68  C   UNL A   1      41.520  27.662  29.167  1.00  0.00     0.037 A 
ATOM     69  H   UNL A   1      39.697  28.182  27.093  1.00  0.00     0.065 H 
ATOM     70  H   UNL A   1      37.484  33.033  34.264  1.00  0.00     0.065 H 
ATOM     71  C   UNL A   1      39.722  31.356  34.835  1.00  0.00     0.037 A 
ATOM     72  C   UNL A   1      42.386  27.496  30.303  1.00  0.00     0.049 A 
ATOM     73  C   UNL A   1      40.889  30.402  34.841  1.00  0.00     0.074 A 
ATOM     74  C   UNL A   1      43.531  26.725  30.406  1.00  0.00    -0.036 A 
ATOM     75  N   UNL A   1      42.202  28.107  31.534  1.00  0.00    -0.354 N 
ATOM     76  N   UNL A   1      41.377  29.683  33.861  1.00  0.00    -0.248 NA
ATOM     77  C   UNL A   1      41.604  30.236  36.116  1.00  0.00    -0.034 C 
ATOM     78  C   UNL A   1      44.009  26.827  31.715  1.00  0.00    -0.036 A 
ATOM     79  H   UNL A   1      43.958  26.172  29.648  1.00  0.00     0.065 H 
ATOM     80  C   UNL A   1      43.198  27.708  32.411  1.00  0.00     0.049 A 
ATOM     81  H   UNL A   1      41.472  28.731  31.752  1.00  0.00     0.167 HD
ATOM     82  C   UNL A   1      42.477  29.018  34.386  1.00  0.00     0.074 A 
ATOM     83  C   UNL A   1      42.591  29.423  35.769  1.00  0.00    -0.034 C 
ATOM     84  H   UNL A   1      41.392  30.645  37.038  1.00  0.00     0.065 H 
ATOM     85  H   UNL A   1      44.828  26.328  32.099  1.00  0.00     0.065 H 
ATOM     86  C   UNL A   1      43.319  28.148  33.776  1.00  0.00     0.037 A 
ATOM     87  H   UNL A   1      43.345  29.119  36.405  1.00  0.00     0.065 H 
BRANCH  68  88
ATOM     88  C   UNL A   1      41.816  26.849  27.941  1.00  0.00     0.064 A 
ATOM     89  C   UNL A   1      42.732  27.280  26.972  1.00  0.00     0.173 A 
ATOM     90  C   UNL A   1      41.238  25.580  27.780  1.00  0.00     0.173 A 
ATOM     91  F   UNL A   1      43.305  28.489  27.074  1.00  0.00    -0.203 F 
ATOM     92  C   UNL A   1      43.049  26.477  25.880  1.00  0.00     0.198 A 
ATOM     93  C   UNL A   1      41.580  24.767  26.703  1.00  0.00     0.198 A 
ATOM     94  F   UNL A   1      40.360  25.117  28.683  1.00  0.00    -0.203 F 
ATOM     95  F   UNL A   1      43.905  26.922  24.949  1.00  0.00    -0.200 F 
ATOM     96  C   UNL A   1      42.482  25.218  25.753  1.00  0.00     0.200 A 
ATOM     97  F   UNL A   1      41.043  23.545  26.591  1.00  0.00    -0.200 F 
ATOM     98  F   UNL A   1      42.807  24.437  24.712  1.00  0.00    -0.200 F 
ENDBRANCH  68  88
BRANCH  71  99
ATOM     99  C   UNL A   1      39.339  32.081  36.076  1.00  0.00     0.064 A 
ATOM    100  C   UNL A   1      38.334  31.585  36.920  1.00  0.00     0.173 A 
ATOM    101  C   UNL A   1      39.927  33.309  36.419  1.00  0.00     0.173 A 
ATOM    102  F   UNL A   1      37.726  30.427  36.626  1.00  0.00    -0.203 F 
ATOM    103  C   UNL A   1      37.902  32.307  38.031  1.00  0.00     0.198 A 
ATOM    104  C   UNL A   1      39.518  34.013  37.550  1.00  0.00     0.198 A 
ATOM    105  F   UNL A   1      40.895  33.828  35.651  1.00  0.00    -0.203 F 
ATOM    106  F   UNL A   1      36.891  31.842  38.778  1.00  0.00    -0.200 F 
ATOM    107  C   UNL A   1      38.496  33.519  38.347  1.00  0.00     0.200 A 
ATOM    108  F   UNL A   1      40.105  35.177  37.860  1.00  0.00    -0.200 F 
ATOM    109  F   UNL A   1      38.075  34.217  39.409  1.00  0.00    -0.200 F 
ENDBRANCH  71  99
BRANCH  86 110
ATOM    110  C   UNL A   1      44.478  27.625  34.572  1.00  0.00     0.064 A 
ATOM    111  C   UNL A   1      44.403  26.423  35.289  1.00  0.00     0.173 A 
ATOM    112  C   UNL A   1      45.703  28.312  34.567  1.00  0.00     0.173 A 
ATOM    113  F   UNL A   1      43.252  25.736  35.337  1.00  0.00    -0.203 F 
ATOM    114  C   UNL A   1      45.505  25.938  35.988  1.00  0.00     0.198 A 
ATOM    115  C   UNL A   1      46.811  27.808  35.239  1.00  0.00     0.198 A 
ATOM    116  F   UNL A   1      45.829  29.465  33.890  1.00  0.00    -0.203 F 
ATOM    117  F   UNL A   1      45.399  24.809  36.702  1.00  0.00    -0.200 F 
ATOM    118  C   UNL A   1      46.710  26.626  35.954  1.00  0.00     0.200 A 
ATOM    119  F   UNL A   1      47.979  28.465  35.191  1.00  0.00    -0.200 F 
ATOM    120  F   UNL A   1      47.774  26.149  36.615  1.00  0.00    -0.200 F 
ENDBRANCH  86 110
ENDBRANCH  51  54
ENDBRANCH  41  44
ENDBRANCH  37  40
ENDBRANCH  34  37
ENDBRANCH  31  34
ENDBRANCH   1  31
TORSDOF 16
ENDMDL
MODEL 6
REMARK VINA RESULT:     -10.8      7.488     13.060
REMARK SMILES O=C(/C=C/c1ccc(O)c(O)c1)NCCCCCCNC(=O)c1ccc(-c2c3nc(c(-c4c(F)c(F)c(F)c(F)c4F)c4ccc([nH]4)c(-c4c(F)c(F)c(F)c(F)c4F)c4nc(c(-c5c(F)c(F)c(F)c(F)c5F)c5ccc2[nH]5)C=C4)C=C3)cc1
REMARK SMILES IDX 16 1 15 4 14 7 13 10 1 11 2 12 3 14 4 15 5 18 6 19 12 20
REMARK SMILES IDX 7 21 10 23 8 25 11 27 9 29 17 31 18 34 19 37 20 40 21 41
REMARK SMILES IDX 22 43 23 44 24 45 85 46 25 47 84 49 26 51 27 54 28 55 78 56
REMARK SMILES IDX 29 57 83 58 77 59 79 60 30 61 82 62 76 64 75 66 31 68 63 71
REMARK SMILES IDX 43 72 62 73 44 74 47 75 61 76 80 77 45 78 46 80 60 82 81 83
REMARK SMILES IDX 48 86 32 88 33 89 41 90 34 91 35 92 39 93 42 94 36 95 37 96
REMARK SMILES IDX 40 97 38 98 64 99 65 100 73 101 66 102 67 103 71 104 74 105
REMARK SMILES IDX 68 106 69 107 72 108 70 109 49 110 50 111 58 112 51 113
REMARK SMILES IDX 52 114 56 115 59 116 53 117 54 118 57 119 55 120
REMARK H PARENT 16 2 16 3 15 5 15 6 14 8 14 9 13 13 3 16 4 17 6 22 12 24 7 26
REMARK H PARENT 11 28 9 30 17 32 17 33 18 35 18 36 19 38 19 39 20 42 24 48
REMARK H PARENT 85 50 25 52 84 53 83 63 77 65 79 67 82 69 76 70 44 79 47 81
REMARK H PARENT 80 84 45 85 81 87
REMARK Flexibility Score: inf
ROOT
ATOM      1  C   UNL A   1      35.383  33.057  28.503  1.00  0.00    -0.052 C 
ATOM      2  H   UNL A   1      36.408  33.367  28.470  1.00  0.00     0.027 H 
ATOM      3  H   UNL A   1      35.033  32.834  29.489  1.00  0.00     0.027 H 
ENDROOT
BRANCH   1   4
ATOM      4  C   UNL A   1      35.259  31.751  27.706  1.00  0.00    -0.036 C 
ATOM      5  H   UNL A   1      35.599  31.935  26.708  1.00  0.00     0.028 H 
ATOM      6  H   UNL A   1      35.849  31.023  28.223  1.00  0.00     0.028 H 
BRANCH   4   7
ATOM      7  C   UNL A   1      33.842  31.182  27.627  1.00  0.00     0.018 C 
ATOM      8  H   UNL A   1      33.583  30.758  28.575  1.00  0.00     0.049 H 
ATOM      9  H   UNL A   1      33.173  31.977  27.372  1.00  0.00     0.049 H 
BRANCH   7  10
ATOM     10  N   UNL A   1      33.737  30.156  26.610  1.00  0.00    -0.353 N 
ATOM     11  O   UNL A   1      31.660  30.764  25.851  1.00  0.00    -0.270 OA
ATOM     12  C   UNL A   1      32.616  29.997  25.842  1.00  0.00     0.243 C 
ATOM     13  H   UNL A   1      34.500  29.551  26.466  1.00  0.00     0.163 HD
BRANCH  12  14
ATOM     14  C   UNL A   1      32.588  28.814  24.944  1.00  0.00     0.003 C 
ATOM     15  C   UNL A   1      33.654  28.181  24.428  1.00  0.00    -0.049 C 
ATOM     16  H   UNL A   1      31.658  28.443  24.691  1.00  0.00     0.068 H 
ATOM     17  H   UNL A   1      34.592  28.586  24.577  1.00  0.00     0.063 H 
BRANCH  15  18
ATOM     18  C   UNL A   1      33.533  26.934  23.659  1.00  0.00    -0.022 A 
ATOM     19  C   UNL A   1      33.681  25.669  24.254  1.00  0.00    -0.051 A 
ATOM     20  C   UNL A   1      33.249  27.018  22.292  1.00  0.00    -0.009 A 
ATOM     21  C   UNL A   1      33.585  24.503  23.486  1.00  0.00    -0.016 A 
ATOM     22  H   UNL A   1      33.861  25.600  25.267  1.00  0.00     0.063 H 
ATOM     23  C   UNL A   1      33.157  25.857  21.537  1.00  0.00     0.157 A 
ATOM     24  H   UNL A   1      33.107  27.939  21.846  1.00  0.00     0.067 H 
ATOM     25  C   UNL A   1      33.330  24.607  22.125  1.00  0.00     0.157 A 
ATOM     26  H   UNL A   1      33.701  23.576  23.926  1.00  0.00     0.066 H 
BRANCH  23  27
ATOM     27  O   UNL A   1      32.904  25.953  20.198  1.00  0.00    -0.504 OA
ATOM     28  H   UNL A   1      32.577  26.754  19.839  1.00  0.00     0.293 HD
ENDBRANCH  23  27
BRANCH  25  29
ATOM     29  O   UNL A   1      33.242  23.508  21.317  1.00  0.00    -0.504 OA
ATOM     30  H   UNL A   1      33.971  22.923  21.240  1.00  0.00     0.293 HD
ENDBRANCH  25  29
ENDBRANCH  15  18
ENDBRANCH  12  14
ENDBRANCH   7  10
ENDBRANCH   4   7
ENDBRANCH   1   4
BRANCH   1  31
ATOM     31  C   UNL A   1      34.522  34.219  28.000  1.00  0.00    -0.052 C 
ATOM     32  H   UNL A   1      34.092  33.932  27.064  1.00  0.00     0.027 H 
ATOM     33  H   UNL A   1      35.176  35.063  27.930  1.00  0.00     0.027 H 
BRANCH  31  34
ATOM     34  C   UNL A   1      33.386  34.640  28.933  1.00  0.00    -0.036 C 
ATOM     35  H   UNL A   1      33.376  33.970  29.767  1.00  0.00     0.028 H 
ATOM     36  H   UNL A   1      32.489  34.604  28.351  1.00  0.00     0.028 H 
BRANCH  34  37
ATOM     37  C   UNL A   1      33.491  36.063  29.470  1.00  0.00     0.018 C 
ATOM     38  H   UNL A   1      33.317  36.747  28.666  1.00  0.00     0.049 H 
ATOM     39  H   UNL A   1      34.470  36.182  29.885  1.00  0.00     0.049 H 
BRANCH  37  40
ATOM     40  N   UNL A   1      32.528  36.335  30.529  1.00  0.00    -0.352 N 
ATOM     41  C   UNL A   1      32.518  35.884  31.827  1.00  0.00     0.251 C 
ATOM     42  H   UNL A   1      31.780  36.922  30.279  1.00  0.00     0.163 HD
ATOM     43  O   UNL A   1      31.543  36.081  32.546  1.00  0.00    -0.269 OA
BRANCH  41  44
ATOM     44  C   UNL A   1      33.679  35.135  32.351  1.00  0.00     0.039 A 
ATOM     45  C   UNL A   1      33.489  33.836  32.832  1.00  0.00    -0.049 A 
ATOM     46  C   UNL A   1      34.954  35.706  32.355  1.00  0.00    -0.049 A 
ATOM     47  C   UNL A   1      34.590  33.084  33.249  1.00  0.00    -0.053 A 
ATOM     48  H   UNL A   1      32.540  33.434  32.879  1.00  0.00     0.063 H 
ATOM     49  C   UNL A   1      36.057  34.931  32.702  1.00  0.00    -0.053 A 
ATOM     50  H   UNL A   1      35.078  36.699  32.101  1.00  0.00     0.063 H 
ATOM     51  C   UNL A   1      35.887  33.611  33.151  1.00  0.00    -0.014 A 
ATOM     52  H   UNL A   1      34.449  32.136  33.631  1.00  0.00     0.063 H 
ATOM     53  H   UNL A   1      37.006  35.330  32.629  1.00  0.00     0.063 H 
BRANCH  51  54
ATOM     54  C   UNL A   1      37.086  32.810  33.513  1.00  0.00     0.031 A 
ATOM     55  C   UNL A   1      37.822  33.100  34.793  1.00  0.00     0.074 A 
ATOM     56  C   UNL A   1      37.563  31.887  32.654  1.00  0.00     0.049 A 
ATOM     57  N   UNL A   1      38.956  32.611  35.227  1.00  0.00    -0.248 NA
ATOM     58  C   UNL A   1      37.217  34.095  35.693  1.00  0.00    -0.034 C 
ATOM     59  C   UNL A   1      36.962  31.537  31.366  1.00  0.00    -0.036 A 
ATOM     60  N   UNL A   1      38.678  31.088  32.725  1.00  0.00    -0.354 N 
ATOM     61  C   UNL A   1      39.211  33.256  36.429  1.00  0.00     0.074 A 
ATOM     62  C   UNL A   1      38.136  34.199  36.642  1.00  0.00    -0.034 C 
ATOM     63  H   UNL A   1      36.312  34.584  35.608  1.00  0.00     0.065 H 
ATOM     64  C   UNL A   1      37.707  30.589  30.773  1.00  0.00    -0.036 A 
ATOM     65  H   UNL A   1      36.102  31.952  30.975  1.00  0.00     0.065 H 
ATOM     66  C   UNL A   1      38.863  30.297  31.615  1.00  0.00     0.049 A 
ATOM     67  H   UNL A   1      39.289  31.082  33.498  1.00  0.00     0.167 HD
ATOM     68  C   UNL A   1      40.243  33.066  37.286  1.00  0.00     0.037 A 
ATOM     69  H   UNL A   1      38.091  34.866  37.430  1.00  0.00     0.065 H 
ATOM     70  H   UNL A   1      37.496  30.140  29.869  1.00  0.00     0.065 H 
ATOM     71  C   UNL A   1      39.864  29.449  31.304  1.00  0.00     0.037 A 
ATOM     72  C   UNL A   1      41.286  32.094  37.094  1.00  0.00     0.049 A 
ATOM     73  C   UNL A   1      41.002  29.268  32.277  1.00  0.00     0.074 A 
ATOM     74  C   UNL A   1      42.329  31.772  37.945  1.00  0.00    -0.036 A 
ATOM     75  N   UNL A   1      41.422  31.291  35.972  1.00  0.00    -0.354 N 
ATOM     76  N   UNL A   1      41.190  29.827  33.446  1.00  0.00    -0.248 NA
ATOM     77  C   UNL A   1      42.067  28.332  31.884  1.00  0.00    -0.034 C 
ATOM     78  C   UNL A   1      43.126  30.813  37.315  1.00  0.00    -0.036 A 
ATOM     79  H   UNL A   1      42.489  32.170  38.883  1.00  0.00     0.065 H 
ATOM     80  C   UNL A   1      42.547  30.493  36.098  1.00  0.00     0.049 A 
ATOM     81  H   UNL A   1      40.810  31.289  35.201  1.00  0.00     0.167 HD
ATOM     82  C   UNL A   1      42.365  29.280  33.946  1.00  0.00     0.074 A 
ATOM     83  C   UNL A   1      42.843  28.339  32.957  1.00  0.00    -0.034 C 
ATOM     84  H   UNL A   1      42.180  27.808  31.003  1.00  0.00     0.065 H 
ATOM     85  H   UNL A   1      43.999  30.411  37.692  1.00  0.00     0.065 H 
ATOM     86  C   UNL A   1      42.992  29.535  35.120  1.00  0.00     0.037 A 
ATOM     87  H   UNL A   1      43.682  27.749  33.073  1.00  0.00     0.065 H 
BRANCH  68  88
ATOM     88  C   UNL A   1      40.305  33.918  38.519  1.00  0.00     0.064 A 
ATOM     89  C   UNL A   1      40.998  35.137  38.542  1.00  0.00     0.173 A 
ATOM     90  C   UNL A   1      39.587  33.550  39.668  1.00  0.00     0.173 A 
ATOM     91  F   UNL A   1      41.707  35.530  37.473  1.00  0.00    -0.203 F 
ATOM     92  C   UNL A   1      40.981  35.949  39.672  1.00  0.00     0.198 A 
ATOM     93  C   UNL A   1      39.547  34.378  40.786  1.00  0.00     0.198 A 
ATOM     94  F   UNL A   1      38.901  32.396  39.696  1.00  0.00    -0.203 F 
ATOM     95  F   UNL A   1      41.675  37.095  39.682  1.00  0.00    -0.200 F 
ATOM     96  C   UNL A   1      40.247  35.575  40.788  1.00  0.00     0.200 A 
ATOM     97  F   UNL A   1      38.824  34.023  41.856  1.00  0.00    -0.200 F 
ATOM     98  F   UNL A   1      40.213  36.369  41.867  1.00  0.00    -0.200 F 
ENDBRANCH  68  88
BRANCH  71  99
ATOM     99  C   UNL A   1      39.849  28.700  30.019  1.00  0.00     0.064 A 
ATOM    100  C   UNL A   1      39.301  27.411  29.942  1.00  0.00     0.173 A 
ATOM    101  C   UNL A   1      40.429  29.229  28.855  1.00  0.00     0.173 A 
ATOM    102  F   UNL A   1      38.754  26.851  31.031  1.00  0.00    -0.203 F 
ATOM    103  C   UNL A   1      39.371  26.665  28.767  1.00  0.00     0.198 A 
ATOM    104  C   UNL A   1      40.467  28.496  27.671  1.00  0.00     0.198 A 
ATOM    105  F   UNL A   1      40.964  30.458  28.871  1.00  0.00    -0.203 F 
ATOM    106  F   UNL A   1      38.903  25.409  28.745  1.00  0.00    -0.200 F 
ATOM    107  C   UNL A   1      39.952  27.208  27.631  1.00  0.00     0.200 A 
ATOM    108  F   UNL A   1      41.016  29.030  26.572  1.00  0.00    -0.200 F 
ATOM    109  F   UNL A   1      40.028  26.488  26.505  1.00  0.00    -0.200 F 
ENDBRANCH  71  99
BRANCH  86 110
ATOM    110  C   UNL A   1      44.225  28.741  35.439  1.00  0.00     0.064 A 
ATOM    111  C   UNL A   1      44.164  27.515  36.115  1.00  0.00     0.173 A 
ATOM    112  C   UNL A   1      45.483  29.191  35.005  1.00  0.00     0.173 A 
ATOM    113  F   UNL A   1      42.988  27.049  36.563  1.00  0.00    -0.203 F 
ATOM    114  C   UNL A   1      45.318  26.778  36.365  1.00  0.00     0.198 A 
ATOM    115  C   UNL A   1      46.630  28.436  35.227  1.00  0.00     0.198 A 
ATOM    116  F   UNL A   1      45.595  30.356  34.347  1.00  0.00    -0.203 F 
ATOM    117  F   UNL A   1      45.242  25.630  37.051  1.00  0.00    -0.200 F 
ATOM    118  C   UNL A   1      46.548  27.234  35.912  1.00  0.00     0.200 A 
ATOM    119  F   UNL A   1      47.815  28.870  34.774  1.00  0.00    -0.200 F 
ATOM    120  F   UNL A   1      47.656  26.515  36.139  1.00  0.00    -0.200 F 
ENDBRANCH  86 110
ENDBRANCH  51  54
ENDBRANCH  41  44
ENDBRANCH  37  40
ENDBRANCH  34  37
ENDBRANCH  31  34
ENDBRANCH   1  31
TORSDOF 16
ENDMDL
MODEL 7
REMARK VINA RESULT:     -10.8      1.861      7.976
REMARK SMILES O=C(/C=C/c1ccc(O)c(O)c1)NCCCCCCNC(=O)c1ccc(-c2c3nc(c(-c4c(F)c(F)c(F)c(F)c4F)c4ccc([nH]4)c(-c4c(F)c(F)c(F)c(F)c4F)c4nc(c(-c5c(F)c(F)c(F)c(F)c5F)c5ccc2[nH]5)C=C4)C=C3)cc1
REMARK SMILES IDX 16 1 15 4 14 7 13 10 1 11 2 12 3 14 4 15 5 18 6 19 12 20
REMARK SMILES IDX 7 21 10 23 8 25 11 27 9 29 17 31 18 34 19 37 20 40 21 41
REMARK SMILES IDX 22 43 23 44 24 45 85 46 25 47 84 49 26 51 27 54 28 55 78 56
REMARK SMILES IDX 29 57 83 58 77 59 79 60 30 61 82 62 76 64 75 66 31 68 63 71
REMARK SMILES IDX 43 72 62 73 44 74 47 75 61 76 80 77 45 78 46 80 60 82 81 83
REMARK SMILES IDX 48 86 32 88 33 89 41 90 34 91 35 92 39 93 42 94 36 95 37 96
REMARK SMILES IDX 40 97 38 98 64 99 65 100 73 101 66 102 67 103 71 104 74 105
REMARK SMILES IDX 68 106 69 107 72 108 70 109 49 110 50 111 58 112 51 113
REMARK SMILES IDX 52 114 56 115 59 116 53 117 54 118 57 119 55 120
REMARK H PARENT 16 2 16 3 15 5 15 6 14 8 14 9 13 13 3 16 4 17 6 22 12 24 7 26
REMARK H PARENT 11 28 9 30 17 32 17 33 18 35 18 36 19 38 19 39 20 42 24 48
REMARK H PARENT 85 50 25 52 84 53 83 63 77 65 79 67 82 69 76 70 44 79 47 81
REMARK H PARENT 80 84 45 85 81 87
REMARK Flexibility Score: inf
ROOT
ATOM      1  C   UNL A   1      36.782  22.625  25.485  1.00  0.00    -0.052 C 
ATOM      2  H   UNL A   1      36.055  22.052  26.022  1.00  0.00     0.027 H 
ATOM      3  H   UNL A   1      37.593  22.969  26.091  1.00  0.00     0.027 H 
ENDROOT
BRANCH   1   4
ATOM      4  C   UNL A   1      36.088  23.888  24.953  1.00  0.00    -0.036 C 
ATOM      5  H   UNL A   1      35.920  24.549  25.778  1.00  0.00     0.028 H 
ATOM      6  H   UNL A   1      36.739  24.300  24.210  1.00  0.00     0.028 H 
BRANCH   4   7
ATOM      7  C   UNL A   1      34.747  23.637  24.262  1.00  0.00     0.018 C 
ATOM      8  H   UNL A   1      33.991  24.218  24.748  1.00  0.00     0.049 H 
ATOM      9  H   UNL A   1      34.840  23.918  23.234  1.00  0.00     0.049 H 
BRANCH   7  10
ATOM     10  N   UNL A   1      34.374  22.239  24.319  1.00  0.00    -0.353 N 
ATOM     11  O   UNL A   1      32.256  22.575  25.133  1.00  0.00    -0.270 OA
ATOM     12  C   UNL A   1      33.169  21.821  24.813  1.00  0.00     0.243 C 
ATOM     13  H   UNL A   1      35.012  21.564  23.991  1.00  0.00     0.163 HD
BRANCH  12  14
ATOM     14  C   UNL A   1      32.979  20.354  24.950  1.00  0.00     0.003 C 
ATOM     15  C   UNL A   1      33.768  19.398  24.436  1.00  0.00    -0.049 C 
ATOM     16  H   UNL A   1      32.159  20.039  25.493  1.00  0.00     0.068 H 
ATOM     17  H   UNL A   1      34.537  19.674  23.805  1.00  0.00     0.063 H 
BRANCH  15  18
ATOM     18  C   UNL A   1      33.579  17.972  24.741  1.00  0.00    -0.022 A 
ATOM     19  C   UNL A   1      32.311  17.418  24.982  1.00  0.00    -0.051 A 
ATOM     20  C   UNL A   1      34.706  17.143  24.777  1.00  0.00    -0.009 A 
ATOM     21  C   UNL A   1      32.171  16.060  25.294  1.00  0.00    -0.016 A 
ATOM     22  H   UNL A   1      31.473  18.018  24.928  1.00  0.00     0.063 H 
ATOM     23  C   UNL A   1      34.559  15.799  25.088  1.00  0.00     0.157 A 
ATOM     24  H   UNL A   1      35.642  17.528  24.571  1.00  0.00     0.067 H 
ATOM     25  C   UNL A   1      33.303  15.259  25.352  1.00  0.00     0.157 A 
ATOM     26  H   UNL A   1      31.237  15.660  25.477  1.00  0.00     0.066 H 
BRANCH  23  27
ATOM     27  O   UNL A   1      35.669  15.004  25.145  1.00  0.00    -0.504 OA
ATOM     28  H   UNL A   1      35.796  14.330  24.507  1.00  0.00     0.293 HD
ENDBRANCH  23  27
BRANCH  25  29
ATOM     29  O   UNL A   1      33.237  13.931  25.669  1.00  0.00    -0.504 OA
ATOM     30  H   UNL A   1      33.997  13.390  25.580  1.00  0.00     0.293 HD
ENDBRANCH  25  29
ENDBRANCH  15  18
ENDBRANCH  12  14
ENDBRANCH   7  10
ENDBRANCH   4   7
ENDBRANCH   1   4
BRANCH   1  31
ATOM     31  C   UNL A   1      37.404  21.718  24.419  1.00  0.00    -0.052 C 
ATOM     32  H   UNL A   1      38.221  22.245  23.972  1.00  0.00     0.027 H 
ATOM     33  H   UNL A   1      36.617  21.486  23.732  1.00  0.00     0.027 H 
BRANCH  31  34
ATOM     34  C   UNL A   1      37.929  20.376  24.931  1.00  0.00    -0.036 C 
ATOM     35  H   UNL A   1      38.354  19.848  24.104  1.00  0.00     0.028 H 
ATOM     36  H   UNL A   1      37.093  19.874  25.370  1.00  0.00     0.028 H 
BRANCH  34  37
ATOM     37  C   UNL A   1      38.988  20.477  26.023  1.00  0.00     0.018 C 
ATOM     38  H   UNL A   1      38.503  20.437  26.976  1.00  0.00     0.049 H 
ATOM     39  H   UNL A   1      39.511  21.401  25.885  1.00  0.00     0.049 H 
BRANCH  37  40
ATOM     40  N   UNL A   1      39.969  19.402  25.954  1.00  0.00    -0.352 N 
ATOM     41  C   UNL A   1      41.339  19.472  26.036  1.00  0.00     0.251 C 
ATOM     42  H   UNL A   1      39.598  18.499  25.829  1.00  0.00     0.163 HD
ATOM     43  O   UNL A   1      42.027  18.485  25.797  1.00  0.00    -0.269 OA
BRANCH  41  44
ATOM     44  C   UNL A   1      41.986  20.753  26.387  1.00  0.00     0.039 A 
ATOM     45  C   UNL A   1      42.300  21.658  25.369  1.00  0.00    -0.049 A 
ATOM     46  C   UNL A   1      42.271  21.067  27.719  1.00  0.00    -0.049 A 
ATOM     47  C   UNL A   1      42.832  22.909  25.693  1.00  0.00    -0.053 A 
ATOM     48  H   UNL A   1      42.139  21.404  24.382  1.00  0.00     0.063 H 
ATOM     49  C   UNL A   1      42.732  22.339  28.045  1.00  0.00    -0.053 A 
ATOM     50  H   UNL A   1      42.139  20.359  28.457  1.00  0.00     0.063 H 
ATOM     51  C   UNL A   1      43.016  23.274  27.036  1.00  0.00    -0.014 A 
ATOM     52  H   UNL A   1      43.091  23.568  24.942  1.00  0.00     0.063 H 
ATOM     53  H   UNL A   1      42.868  22.597  29.035  1.00  0.00     0.063 H 
BRANCH  51  54
ATOM     54  C   UNL A   1      43.507  24.624  27.419  1.00  0.00     0.031 A 
ATOM     55  C   UNL A   1      42.544  25.645  27.962  1.00  0.00     0.074 A 
ATOM     56  C   UNL A   1      44.794  24.961  27.197  1.00  0.00     0.049 A 
ATOM     57  N   UNL A   1      42.741  26.911  28.230  1.00  0.00    -0.248 NA
ATOM     58  C   UNL A   1      41.167  25.189  28.210  1.00  0.00    -0.034 C 
ATOM     59  C   UNL A   1      45.818  24.074  26.643  1.00  0.00    -0.036 A 
ATOM     60  N   UNL A   1      45.455  26.149  27.390  1.00  0.00    -0.354 N 
ATOM     61  C   UNL A   1      41.512  27.404  28.649  1.00  0.00     0.074 A 
ATOM     62  C   UNL A   1      40.566  26.315  28.566  1.00  0.00    -0.034 C 
ATOM     63  H   UNL A   1      40.771  24.239  28.129  1.00  0.00     0.065 H 
ATOM     64  C   UNL A   1      46.979  24.744  26.550  1.00  0.00    -0.036 A 
ATOM     65  H   UNL A   1      45.672  23.091  26.368  1.00  0.00     0.065 H 
ATOM     66  C   UNL A   1      46.772  26.119  26.993  1.00  0.00     0.049 A 
ATOM     67  H   UNL A   1      45.028  26.948  27.777  1.00  0.00     0.167 HD
ATOM     68  C   UNL A   1      41.207  28.652  29.079  1.00  0.00     0.037 A 
ATOM     69  H   UNL A   1      39.555  26.403  28.758  1.00  0.00     0.065 H 
ATOM     70  H   UNL A   1      47.873  24.350  26.220  1.00  0.00     0.065 H 
ATOM     71  C   UNL A   1      47.699  27.097  26.970  1.00  0.00     0.037 A 
ATOM     72  C   UNL A   1      42.162  29.721  29.204  1.00  0.00     0.049 A 
ATOM     73  C   UNL A   1      47.323  28.477  27.447  1.00  0.00     0.074 A 
ATOM     74  C   UNL A   1      41.965  30.995  29.707  1.00  0.00    -0.036 A 
ATOM     75  N   UNL A   1      43.492  29.643  28.821  1.00  0.00    -0.354 N 
ATOM     76  N   UNL A   1      46.178  28.910  27.914  1.00  0.00    -0.248 NA
ATOM     77  C   UNL A   1      48.374  29.506  27.396  1.00  0.00    -0.034 C 
ATOM     78  C   UNL A   1      43.161  31.706  29.578  1.00  0.00    -0.036 A 
ATOM     79  H   UNL A   1      41.087  31.358  30.109  1.00  0.00     0.065 H 
ATOM     80  C   UNL A   1      44.120  30.856  29.051  1.00  0.00     0.049 A 
ATOM     81  H   UNL A   1      43.925  28.844  28.441  1.00  0.00     0.167 HD
ATOM     82  C   UNL A   1      46.383  30.241  28.253  1.00  0.00     0.074 A 
ATOM     83  C   UNL A   1      47.763  30.545  27.946  1.00  0.00    -0.034 C 
ATOM     84  H   UNL A   1      49.335  29.436  27.029  1.00  0.00     0.065 H 
ATOM     85  H   UNL A   1      43.305  32.696  29.831  1.00  0.00     0.065 H 
ATOM     86  C   UNL A   1      45.505  31.133  28.773  1.00  0.00     0.037 A 
ATOM     87  H   UNL A   1      48.214  31.454  28.131  1.00  0.00     0.065 H 
BRANCH  68  88
ATOM     88  C   UNL A   1      39.784  28.943  29.455  1.00  0.00     0.064 A 
ATOM     89  C   UNL A   1      38.845  29.381  28.511  1.00  0.00     0.173 A 
ATOM     90  C   UNL A   1      39.335  28.695  30.762  1.00  0.00     0.173 A 
ATOM     91  F   UNL A   1      39.225  29.641  27.251  1.00  0.00    -0.203 F 
ATOM     92  C   UNL A   1      37.512  29.573  28.863  1.00  0.00     0.198 A 
ATOM     93  C   UNL A   1      37.995  28.859  31.103  1.00  0.00     0.198 A 
ATOM     94  F   UNL A   1      40.192  28.267  31.702  1.00  0.00    -0.203 F 
ATOM     95  F   UNL A   1      36.638  30.022  27.951  1.00  0.00    -0.200 F 
ATOM     96  C   UNL A   1      37.086  29.301  30.154  1.00  0.00     0.200 A 
ATOM     97  F   UNL A   1      37.583  28.580  32.347  1.00  0.00    -0.200 F 
ATOM     98  F   UNL A   1      35.798  29.464  30.486  1.00  0.00    -0.200 F 
ENDBRANCH  68  88
BRANCH  71  99
ATOM     99  C   UNL A   1      49.076  26.823  26.479  1.00  0.00     0.064 A 
ATOM    100  C   UNL A   1      49.411  27.013  25.129  1.00  0.00     0.173 A 
ATOM    101  C   UNL A   1      50.070  26.313  27.329  1.00  0.00     0.173 A 
ATOM    102  F   UNL A   1      48.491  27.477  24.271  1.00  0.00    -0.203 F 
ATOM    103  C   UNL A   1      50.670  26.665  24.642  1.00  0.00     0.198 A 
ATOM    104  C   UNL A   1      51.339  25.999  26.847  1.00  0.00     0.198 A 
ATOM    105  F   UNL A   1      49.806  26.116  28.628  1.00  0.00    -0.203 F 
ATOM    106  F   UNL A   1      50.937  26.791  23.335  1.00  0.00    -0.200 F 
ATOM    107  C   UNL A   1      51.634  26.161  25.501  1.00  0.00     0.200 A 
ATOM    108  F   UNL A   1      52.272  25.526  27.683  1.00  0.00    -0.200 F 
ATOM    109  F   UNL A   1      52.840  25.817  25.031  1.00  0.00    -0.200 F 
ENDBRANCH  71  99
BRANCH  86 110
ATOM    110  C   UNL A   1      46.018  32.503  29.109  1.00  0.00     0.064 A 
ATOM    111  C   UNL A   1      45.944  33.566  28.199  1.00  0.00     0.173 A 
ATOM    112  C   UNL A   1      46.539  32.765  30.386  1.00  0.00     0.173 A 
ATOM    113  F   UNL A   1      45.469  33.364  26.961  1.00  0.00    -0.203 F 
ATOM    114  C   UNL A   1      46.391  34.838  28.548  1.00  0.00     0.198 A 
ATOM    115  C   UNL A   1      46.954  34.044  30.742  1.00  0.00     0.198 A 
ATOM    116  F   UNL A   1      46.625  31.783  31.297  1.00  0.00    -0.203 F 
ATOM    117  F   UNL A   1      46.352  35.830  27.648  1.00  0.00    -0.200 F 
ATOM    118  C   UNL A   1      46.886  35.077  29.822  1.00  0.00     0.200 A 
ATOM    119  F   UNL A   1      47.415  34.278  31.980  1.00  0.00    -0.200 F 
ATOM    120  F   UNL A   1      47.301  36.306  30.160  1.00  0.00    -0.200 F 
ENDBRANCH  86 110
ENDBRANCH  51  54
ENDBRANCH  41  44
ENDBRANCH  37  40
ENDBRANCH  34  37
ENDBRANCH  31  34
ENDBRANCH   1  31
TORSDOF 16
ENDMDL
MODEL 8
REMARK VINA RESULT:     -10.8      7.042     12.231
REMARK SMILES O=C(/C=C/c1ccc(O)c(O)c1)NCCCCCCNC(=O)c1ccc(-c2c3nc(c(-c4c(F)c(F)c(F)c(F)c4F)c4ccc([nH]4)c(-c4c(F)c(F)c(F)c(F)c4F)c4nc(c(-c5c(F)c(F)c(F)c(F)c5F)c5ccc2[nH]5)C=C4)C=C3)cc1
REMARK SMILES IDX 16 1 15 4 14 7 13 10 1 11 2 12 3 14 4 15 5 18 6 19 12 20
REMARK SMILES IDX 7 21 10 23 8 25 11 27 9 29 17 31 18 34 19 37 20 40 21 41
REMARK SMILES IDX 22 43 23 44 24 45 85 46 25 47 84 49 26 51 27 54 28 55 78 56
REMARK SMILES IDX 29 57 83 58 77 59 79 60 30 61 82 62 76 64 75 66 31 68 63 71
REMARK SMILES IDX 43 72 62 73 44 74 47 75 61 76 80 77 45 78 46 80 60 82 81 83
REMARK SMILES IDX 48 86 32 88 33 89 41 90 34 91 35 92 39 93 42 94 36 95 37 96
REMARK SMILES IDX 40 97 38 98 64 99 65 100 73 101 66 102 67 103 71 104 74 105
REMARK SMILES IDX 68 106 69 107 72 108 70 109 49 110 50 111 58 112 51 113
REMARK SMILES IDX 52 114 56 115 59 116 53 117 54 118 57 119 55 120
REMARK H PARENT 16 2 16 3 15 5 15 6 14 8 14 9 13 13 3 16 4 17 6 22 12 24 7 26
REMARK H PARENT 11 28 9 30 17 32 17 33 18 35 18 36 19 38 19 39 20 42 24 48
REMARK H PARENT 85 50 25 52 84 53 83 63 77 65 79 67 82 69 76 70 44 79 47 81
REMARK H PARENT 80 84 45 85 81 87
REMARK Flexibility Score: inf
ROOT
ATOM      1  C   UNL A   1      33.594  27.803  25.050  1.00  0.00    -0.052 C 
ATOM      2  H   UNL A   1      32.773  28.012  24.396  1.00  0.00     0.027 H 
ATOM      3  H   UNL A   1      34.518  27.633  24.540  1.00  0.00     0.027 H 
ENDROOT
BRANCH   1   4
ATOM      4  C   UNL A   1      33.281  26.502  25.802  1.00  0.00    -0.036 C 
ATOM      5  H   UNL A   1      33.864  25.716  25.366  1.00  0.00     0.028 H 
ATOM      6  H   UNL A   1      33.518  26.681  26.829  1.00  0.00     0.028 H 
BRANCH   4   7
ATOM      7  C   UNL A   1      31.811  26.080  25.764  1.00  0.00     0.018 C 
ATOM      8  H   UNL A   1      31.727  25.156  25.232  1.00  0.00     0.049 H 
ATOM      9  H   UNL A   1      31.466  25.972  26.770  1.00  0.00     0.049 H 
BRANCH   7  10
ATOM     10  N   UNL A   1      30.990  27.077  25.107  1.00  0.00    -0.353 N 
ATOM     11  O   UNL A   1      30.070  25.662  23.554  1.00  0.00    -0.270 OA
ATOM     12  C   UNL A   1      30.228  26.790  24.008  1.00  0.00     0.243 C 
ATOM     13  H   UNL A   1      30.981  27.994  25.465  1.00  0.00     0.163 HD
BRANCH  12  14
ATOM     14  C   UNL A   1      29.554  27.938  23.348  1.00  0.00     0.003 C 
ATOM     15  C   UNL A   1      29.747  29.238  23.622  1.00  0.00    -0.049 C 
ATOM     16  H   UNL A   1      28.870  27.715  22.608  1.00  0.00     0.068 H 
ATOM     17  H   UNL A   1      30.346  29.494  24.423  1.00  0.00     0.063 H 
BRANCH  15  18
ATOM     18  C   UNL A   1      29.138  30.310  22.822  1.00  0.00    -0.022 A 
ATOM     19  C   UNL A   1      28.577  30.075  21.555  1.00  0.00    -0.051 A 
ATOM     20  C   UNL A   1      29.109  31.605  23.354  1.00  0.00    -0.009 A 
ATOM     21  C   UNL A   1      28.027  31.126  20.811  1.00  0.00    -0.016 A 
ATOM     22  H   UNL A   1      28.569  29.118  21.171  1.00  0.00     0.063 H 
ATOM     23  C   UNL A   1      28.564  32.641  22.608  1.00  0.00     0.157 A 
ATOM     24  H   UNL A   1      29.489  31.788  24.296  1.00  0.00     0.067 H 
ATOM     25  C   UNL A   1      28.033  32.408  21.343  1.00  0.00     0.157 A 
ATOM     26  H   UNL A   1      27.622  30.949  19.878  1.00  0.00     0.066 H 
BRANCH  23  27
ATOM     27  O   UNL A   1      28.564  33.904  23.127  1.00  0.00    -0.504 OA
ATOM     28  H   UNL A   1      27.916  34.153  23.756  1.00  0.00     0.293 HD
ENDBRANCH  23  27
BRANCH  25  29
ATOM     29  O   UNL A   1      27.528  33.479  20.659  1.00  0.00    -0.504 OA
ATOM     30  H   UNL A   1      27.363  34.286  21.108  1.00  0.00     0.293 HD
ENDBRANCH  25  29
ENDBRANCH  15  18
ENDBRANCH  12  14
ENDBRANCH   7  10
ENDBRANCH   4   7
ENDBRANCH   1   4
BRANCH   1  31
ATOM     31  C   UNL A   1      33.820  29.035  25.934  1.00  0.00    -0.052 C 
ATOM     32  H   UNL A   1      34.779  29.442  25.695  1.00  0.00     0.027 H 
ATOM     33  H   UNL A   1      33.739  28.692  26.944  1.00  0.00     0.027 H 
BRANCH  31  34
ATOM     34  C   UNL A   1      32.781  30.146  25.778  1.00  0.00    -0.036 C 
ATOM     35  H   UNL A   1      31.912  29.727  25.317  1.00  0.00     0.028 H 
ATOM     36  H   UNL A   1      33.245  30.911  25.191  1.00  0.00     0.028 H 
BRANCH  34  37
ATOM     37  C   UNL A   1      32.352  30.810  27.082  1.00  0.00     0.018 C 
ATOM     38  H   UNL A   1      32.916  30.383  27.885  1.00  0.00     0.049 H 
ATOM     39  H   UNL A   1      31.303  30.640  27.203  1.00  0.00     0.049 H 
BRANCH  37  40
ATOM     40  N   UNL A   1      32.568  32.250  27.075  1.00  0.00    -0.352 N 
ATOM     41  C   UNL A   1      33.598  32.975  27.625  1.00  0.00     0.251 C 
ATOM     42  H   UNL A   1      31.879  32.778  26.612  1.00  0.00     0.163 HD
ATOM     43  O   UNL A   1      33.543  34.201  27.666  1.00  0.00    -0.269 OA
BRANCH  41  44
ATOM     44  C   UNL A   1      34.765  32.271  28.196  1.00  0.00     0.039 A 
ATOM     45  C   UNL A   1      36.002  32.921  28.227  1.00  0.00    -0.049 A 
ATOM     46  C   UNL A   1      34.636  30.979  28.711  1.00  0.00    -0.049 A 
ATOM     47  C   UNL A   1      37.094  32.303  28.842  1.00  0.00    -0.053 A 
ATOM     48  H   UNL A   1      36.109  33.854  27.799  1.00  0.00     0.063 H 
ATOM     49  C   UNL A   1      35.704  30.395  29.387  1.00  0.00    -0.053 A 
ATOM     50  H   UNL A   1      33.753  30.459  28.592  1.00  0.00     0.063 H 
ATOM     51  C   UNL A   1      36.944  31.052  29.461  1.00  0.00    -0.014 A 
ATOM     52  H   UNL A   1      38.015  32.768  28.842  1.00  0.00     0.063 H 
ATOM     53  H   UNL A   1      35.585  29.474  29.835  1.00  0.00     0.063 H 
BRANCH  51  54
ATOM     54  C   UNL A   1      38.064  30.401  30.191  1.00  0.00     0.031 A 
ATOM     55  C   UNL A   1      38.350  30.784  31.618  1.00  0.00     0.074 A 
ATOM     56  C   UNL A   1      38.874  29.536  29.548  1.00  0.00     0.049 A 
ATOM     57  N   UNL A   1      39.353  30.435  32.385  1.00  0.00    -0.248 NA
ATOM     58  C   UNL A   1      37.398  31.704  32.260  1.00  0.00    -0.034 C 
ATOM     59  C   UNL A   1      38.725  29.110  28.155  1.00  0.00    -0.036 A 
ATOM     60  N   UNL A   1      40.001  28.876  29.975  1.00  0.00    -0.354 N 
ATOM     61  C   UNL A   1      39.166  31.113  33.582  1.00  0.00     0.074 A 
ATOM     62  C   UNL A   1      37.977  31.922  33.432  1.00  0.00    -0.034 C 
ATOM     63  H   UNL A   1      36.510  32.082  31.893  1.00  0.00     0.065 H 
ATOM     64  C   UNL A   1      39.713  28.255  27.847  1.00  0.00    -0.036 A 
ATOM     65  H   UNL A   1      37.979  29.418  27.513  1.00  0.00     0.065 H 
ATOM     66  C   UNL A   1      40.593  28.107  29.001  1.00  0.00     0.049 A 
ATOM     67  H   UNL A   1      40.351  28.947  30.893  1.00  0.00     0.167 HD
ATOM     68  C   UNL A   1      39.912  31.052  34.711  1.00  0.00     0.037 A 
ATOM     69  H   UNL A   1      37.626  32.583  34.144  1.00  0.00     0.065 H 
ATOM     70  H   UNL A   1      39.832  27.779  26.939  1.00  0.00     0.065 H 
ATOM     71  C   UNL A   1      41.730  27.383  29.033  1.00  0.00     0.037 A 
ATOM     72  C   UNL A   1      41.068  30.210  34.873  1.00  0.00     0.049 A 
ATOM     73  C   UNL A   1      42.541  27.343  30.303  1.00  0.00     0.074 A 
ATOM     74  C   UNL A   1      41.840  30.018  36.005  1.00  0.00    -0.036 A 
ATOM     75  N   UNL A   1      41.618  29.422  33.873  1.00  0.00    -0.354 N 
ATOM     76  N   UNL A   1      42.311  27.927  31.452  1.00  0.00    -0.248 NA
ATOM     77  C   UNL A   1      43.773  26.539  30.278  1.00  0.00    -0.034 C 
ATOM     78  C   UNL A   1      42.890  29.158  35.676  1.00  0.00    -0.036 A 
ATOM     79  H   UNL A   1      41.669  30.438  36.931  1.00  0.00     0.065 H 
ATOM     80  C   UNL A   1      42.738  28.764  34.356  1.00  0.00     0.049 A 
ATOM     81  H   UNL A   1      41.266  29.343  32.957  1.00  0.00     0.167 HD
ATOM     82  C   UNL A   1      43.338  27.527  32.297  1.00  0.00     0.074 A 
ATOM     83  C   UNL A   1      44.191  26.644  31.531  1.00  0.00    -0.034 C 
ATOM     84  H   UNL A   1      44.200  26.028  29.491  1.00  0.00     0.065 H 
ATOM     85  H   UNL A   1      43.652  28.865  36.309  1.00  0.00     0.065 H 
ATOM     86  C   UNL A   1      43.556  27.861  33.592  1.00  0.00     0.037 A 
ATOM     87  H   UNL A   1      45.017  26.159  31.911  1.00  0.00     0.065 H 
BRANCH  68  88
ATOM     88  C   UNL A   1      39.509  31.912  35.872  1.00  0.00     0.064 A 
ATOM     89  C   UNL A   1      40.075  33.176  36.086  1.00  0.00     0.173 A 
ATOM     90  C   UNL A   1      38.480  31.498  36.733  1.00  0.00     0.173 A 
ATOM     91  F   UNL A   1      41.069  33.614  35.298  1.00  0.00    -0.203 F 
ATOM     92  C   UNL A   1      39.635  33.990  37.126  1.00  0.00     0.198 A 
ATOM     93  C   UNL A   1      38.022  32.327  37.753  1.00  0.00     0.198 A 
ATOM     94  F   UNL A   1      37.901  30.299  36.567  1.00  0.00    -0.203 F 
ATOM     95  F   UNL A   1      40.211  35.183  37.331  1.00  0.00    -0.200 F 
ATOM     96  C   UNL A   1      38.602  33.570  37.951  1.00  0.00     0.200 A 
ATOM     97  F   UNL A   1      37.013  31.926  38.538  1.00  0.00    -0.200 F 
ATOM     98  F   UNL A   1      38.164  34.366  38.937  1.00  0.00    -0.200 F 
ENDBRANCH  68  88
BRANCH  71  99
ATOM     99  C   UNL A   1      42.180  26.630  27.831  1.00  0.00     0.064 A 
ATOM    100  C   UNL A   1      41.722  25.327  27.583  1.00  0.00     0.173 A 
ATOM    101  C   UNL A   1      43.117  27.171  26.936  1.00  0.00     0.173 A 
ATOM    102  F   UNL A   1      40.844  24.757  28.419  1.00  0.00    -0.203 F 
ATOM    103  C   UNL A   1      42.214  24.581  26.514  1.00  0.00     0.198 A 
ATOM    104  C   UNL A   1      43.581  26.435  25.848  1.00  0.00     0.198 A 
ATOM    105  F   UNL A   1      43.585  28.413  27.123  1.00  0.00    -0.203 F 
ATOM    106  F   UNL A   1      41.812  23.314  26.344  1.00  0.00    -0.200 F 
ATOM    107  C   UNL A   1      43.142  25.135  25.645  1.00  0.00     0.200 A 
ATOM    108  F   UNL A   1      44.466  26.980  25.002  1.00  0.00    -0.200 F 
ATOM    109  F   UNL A   1      43.621  24.414  24.624  1.00  0.00    -0.200 F 
ENDBRANCH  71  99
BRANCH  86 110
ATOM    110  C   UNL A   1      44.721  27.221  34.290  1.00  0.00     0.064 A 
ATOM    111  C   UNL A   1      45.978  27.838  34.352  1.00  0.00     0.173 A 
ATOM    112  C   UNL A   1      44.555  25.998  34.959  1.00  0.00     0.173 A 
ATOM    113  F   UNL A   1      46.192  29.000  33.717  1.00  0.00    -0.203 F 
ATOM    114  C   UNL A   1      47.033  27.244  35.039  1.00  0.00     0.198 A 
ATOM    115  C   UNL A   1      45.602  25.423  35.673  1.00  0.00     0.198 A 
ATOM    116  F   UNL A   1      43.369  25.370  34.937  1.00  0.00    -0.203 F 
ATOM    117  F   UNL A   1      48.238  27.829  35.048  1.00  0.00    -0.200 F 
ATOM    118  C   UNL A   1      46.841  26.043  35.707  1.00  0.00     0.200 A 
ATOM    119  F   UNL A   1      45.409  24.272  36.332  1.00  0.00    -0.200 F 
ATOM    120  F   UNL A   1      47.853  25.480  36.382  1.00  0.00    -0.200 F 
ENDBRANCH  86 110
ENDBRANCH  51  54
ENDBRANCH  41  44
ENDBRANCH  37  40
ENDBRANCH  34  37
ENDBRANCH  31  34
ENDBRANCH   1  31
TORSDOF 16
ENDMDL
MODEL 9
REMARK VINA RESULT:     -10.8      4.273      9.333
REMARK SMILES O=C(/C=C/c1ccc(O)c(O)c1)NCCCCCCNC(=O)c1ccc(-c2c3nc(c(-c4c(F)c(F)c(F)c(F)c4F)c4ccc([nH]4)c(-c4c(F)c(F)c(F)c(F)c4F)c4nc(c(-c5c(F)c(F)c(F)c(F)c5F)c5ccc2[nH]5)C=C4)C=C3)cc1
REMARK SMILES IDX 16 1 15 4 14 7 13 10 1 11 2 12 3 14 4 15 5 18 6 19 12 20
REMARK SMILES IDX 7 21 10 23 8 25 11 27 9 29 17 31 18 34 19 37 20 40 21 41
REMARK SMILES IDX 22 43 23 44 24 45 85 46 25 47 84 49 26 51 27 54 28 55 78 56
REMARK SMILES IDX 29 57 83 58 77 59 79 60 30 61 82 62 76 64 75 66 31 68 63 71
REMARK SMILES IDX 43 72 62 73 44 74 47 75 61 76 80 77 45 78 46 80 60 82 81 83
REMARK SMILES IDX 48 86 32 88 33 89 41 90 34 91 35 92 39 93 42 94 36 95 37 96
REMARK SMILES IDX 40 97 38 98 64 99 65 100 73 101 66 102 67 103 71 104 74 105
REMARK SMILES IDX 68 106 69 107 72 108 70 109 49 110 50 111 58 112 51 113
REMARK SMILES IDX 52 114 56 115 59 116 53 117 54 118 57 119 55 120
REMARK H PARENT 16 2 16 3 15 5 15 6 14 8 14 9 13 13 3 16 4 17 6 22 12 24 7 26
REMARK H PARENT 11 28 9 30 17 32 17 33 18 35 18 36 19 38 19 39 20 42 24 48
REMARK H PARENT 85 50 25 52 84 53 83 63 77 65 79 67 82 69 76 70 44 79 47 81
REMARK H PARENT 80 84 45 85 81 87
REMARK Flexibility Score: inf
ROOT
ATOM      1  C   UNL A   1      31.571  27.132  24.917  1.00  0.00    -0.052 C 
ATOM      2  H   UNL A   1      31.779  27.645  24.000  1.00  0.00     0.027 H 
ATOM      3  H   UNL A   1      32.348  26.463  25.221  1.00  0.00     0.027 H 
ENDROOT
BRANCH   1   4
ATOM      4  C   UNL A   1      30.325  26.262  24.699  1.00  0.00    -0.036 C 
ATOM      5  H   UNL A   1      29.468  26.903  24.687  1.00  0.00     0.028 H 
ATOM      6  H   UNL A   1      30.475  25.744  23.775  1.00  0.00     0.028 H 
BRANCH   4   7
ATOM      7  C   UNL A   1      30.100  25.188  25.764  1.00  0.00     0.018 C 
ATOM      8  H   UNL A   1      30.708  25.410  26.616  1.00  0.00     0.049 H 
ATOM      9  H   UNL A   1      29.064  25.186  26.027  1.00  0.00     0.049 H 
BRANCH   7  10
ATOM     10  N   UNL A   1      30.446  23.871  25.271  1.00  0.00    -0.353 N 
ATOM     11  O   UNL A   1      31.270  23.066  27.254  1.00  0.00    -0.270 OA
ATOM     12  C   UNL A   1      31.064  22.934  26.052  1.00  0.00     0.243 C 
ATOM     13  H   UNL A   1      30.229  23.641  24.338  1.00  0.00     0.163 HD
BRANCH  12  14
ATOM     14  C   UNL A   1      31.495  21.683  25.377  1.00  0.00     0.003 C 
ATOM     15  C   UNL A   1      32.747  21.366  25.011  1.00  0.00    -0.049 C 
ATOM     16  H   UNL A   1      30.759  20.990  25.167  1.00  0.00     0.068 H 
ATOM     17  H   UNL A   1      33.489  22.077  25.113  1.00  0.00     0.063 H 
BRANCH  15  18
ATOM     18  C   UNL A   1      33.100  20.045  24.472  1.00  0.00    -0.022 A 
ATOM     19  C   UNL A   1      34.236  19.338  24.902  1.00  0.00    -0.051 A 
ATOM     20  C   UNL A   1      32.263  19.473  23.506  1.00  0.00    -0.009 A 
ATOM     21  C   UNL A   1      34.555  18.092  24.348  1.00  0.00    -0.016 A 
ATOM     22  H   UNL A   1      34.840  19.741  25.635  1.00  0.00     0.063 H 
ATOM     23  C   UNL A   1      32.588  18.240  22.961  1.00  0.00     0.157 A 
ATOM     24  H   UNL A   1      31.408  19.966  23.202  1.00  0.00     0.067 H 
ATOM     25  C   UNL A   1      33.728  17.554  23.371  1.00  0.00     0.157 A 
ATOM     26  H   UNL A   1      35.394  17.580  24.663  1.00  0.00     0.066 H 
BRANCH  23  27
ATOM     27  O   UNL A   1      31.778  17.703  22.001  1.00  0.00    -0.504 OA
ATOM     28  H   UNL A   1      30.986  18.141  21.757  1.00  0.00     0.293 HD
ENDBRANCH  23  27
BRANCH  25  29
ATOM     29  O   UNL A   1      33.994  16.352  22.778  1.00  0.00    -0.504 OA
ATOM     30  H   UNL A   1      33.746  15.554  23.204  1.00  0.00     0.293 HD
ENDBRANCH  25  29
ENDBRANCH  15  18
ENDBRANCH  12  14
ENDBRANCH   7  10
ENDBRANCH   4   7
ENDBRANCH   1   4
BRANCH   1  31
ATOM     31  C   UNL A   1      31.455  28.179  26.029  1.00  0.00    -0.052 C 
ATOM     32  H   UNL A   1      30.436  28.208  26.351  1.00  0.00     0.027 H 
ATOM     33  H   UNL A   1      31.796  29.100  25.604  1.00  0.00     0.027 H 
BRANCH  31  34
ATOM     34  C   UNL A   1      32.333  27.927  27.255  1.00  0.00    -0.036 C 
ATOM     35  H   UNL A   1      32.468  26.871  27.355  1.00  0.00     0.028 H 
ATOM     36  H   UNL A   1      31.824  28.370  28.085  1.00  0.00     0.028 H 
BRANCH  34  37
ATOM     37  C   UNL A   1      33.711  28.578  27.202  1.00  0.00     0.018 C 
ATOM     38  H   UNL A   1      34.095  28.487  26.207  1.00  0.00     0.049 H 
ATOM     39  H   UNL A   1      34.334  28.077  27.913  1.00  0.00     0.049 H 
BRANCH  37  40
ATOM     40  N   UNL A   1      33.679  29.989  27.562  1.00  0.00    -0.352 N 
ATOM     41  C   UNL A   1      34.636  30.743  28.197  1.00  0.00     0.251 C 
ATOM     42  H   UNL A   1      32.856  30.469  27.316  1.00  0.00     0.163 HD
ATOM     43  O   UNL A   1      34.382  31.885  28.568  1.00  0.00    -0.269 OA
BRANCH  41  44
ATOM     44  C   UNL A   1      35.970  30.164  28.459  1.00  0.00     0.039 A 
ATOM     45  C   UNL A   1      36.929  30.177  27.442  1.00  0.00    -0.049 A 
ATOM     46  C   UNL A   1      36.278  29.620  29.709  1.00  0.00    -0.049 A 
ATOM     47  C   UNL A   1      38.220  29.713  27.702  1.00  0.00    -0.053 A 
ATOM     48  H   UNL A   1      36.684  30.530  26.503  1.00  0.00     0.063 H 
ATOM     49  C   UNL A   1      37.584  29.226  29.987  1.00  0.00    -0.053 A 
ATOM     50  H   UNL A   1      35.541  29.513  30.423  1.00  0.00     0.063 H 
ATOM     51  C   UNL A   1      38.570  29.269  28.987  1.00  0.00    -0.014 A 
ATOM     52  H   UNL A   1      38.922  29.696  26.945  1.00  0.00     0.063 H 
ATOM     53  H   UNL A   1      37.829  28.898  30.934  1.00  0.00     0.063 H 
BRANCH  51  54
ATOM     54  C   UNL A   1      39.954  28.842  29.317  1.00  0.00     0.031 A 
ATOM     55  C   UNL A   1      40.864  29.771  30.074  1.00  0.00     0.074 A 
ATOM     56  C   UNL A   1      40.420  27.661  28.864  1.00  0.00     0.049 A 
ATOM     57  N   UNL A   1      42.139  29.645  30.346  1.00  0.00    -0.248 NA
ATOM     58  C   UNL A   1      40.270  31.024  30.566  1.00  0.00    -0.034 C 
ATOM     59  C   UNL A   1      39.649  26.686  28.090  1.00  0.00    -0.036 A 
ATOM     60  N   UNL A   1      41.664  27.088  28.970  1.00  0.00    -0.354 N 
ATOM     61  C   UNL A   1      42.501  30.808  31.011  1.00  0.00     0.074 A 
ATOM     62  C   UNL A   1      41.324  31.646  31.073  1.00  0.00    -0.034 C 
ATOM     63  H   UNL A   1      39.287  31.337  30.528  1.00  0.00     0.065 H 
ATOM     64  C   UNL A   1      40.432  25.634  27.800  1.00  0.00    -0.036 A 
ATOM     65  H   UNL A   1      38.661  26.790  27.812  1.00  0.00     0.065 H 
ATOM     66  C   UNL A   1      41.772  25.878  28.325  1.00  0.00     0.049 A 
ATOM     67  H   UNL A   1      42.410  27.504  29.460  1.00  0.00     0.167 HD
ATOM     68  C   UNL A   1      43.704  31.138  31.538  1.00  0.00     0.037 A 
ATOM     69  H   UNL A   1      41.309  32.604  31.459  1.00  0.00     0.065 H 
ATOM     70  H   UNL A   1      40.134  24.789  27.288  1.00  0.00     0.065 H 
ATOM     71  C   UNL A   1      42.837  25.069  28.159  1.00  0.00     0.037 A 
ATOM     72  C   UNL A   1      44.860  30.282  31.516  1.00  0.00     0.049 A 
ATOM     73  C   UNL A   1      44.165  25.471  28.751  1.00  0.00     0.074 A 
ATOM     74  C   UNL A   1      46.099  30.495  32.095  1.00  0.00    -0.036 A 
ATOM     75  N   UNL A   1      44.921  29.051  30.881  1.00  0.00    -0.354 N 
ATOM     76  N   UNL A   1      44.473  26.537  29.445  1.00  0.00    -0.248 NA
ATOM     77  C   UNL A   1      45.293  24.552  28.536  1.00  0.00    -0.034 C 
ATOM     78  C   UNL A   1      46.926  29.419  31.763  1.00  0.00    -0.036 A 
ATOM     79  H   UNL A   1      46.366  31.307  32.672  1.00  0.00     0.065 H 
ATOM     80  C   UNL A   1      46.185  28.506  31.030  1.00  0.00     0.049 A 
ATOM     81  H   UNL A   1      44.176  28.628  30.395  1.00  0.00     0.167 HD
ATOM     82  C   UNL A   1      45.812  26.396  29.788  1.00  0.00     0.074 A 
ATOM     83  C   UNL A   1      46.256  25.138  29.231  1.00  0.00    -0.034 C 
ATOM     84  H   UNL A   1      45.325  23.679  27.987  1.00  0.00     0.065 H 
ATOM     85  H   UNL A   1      47.922  29.321  32.020  1.00  0.00     0.065 H 
ATOM     86  C   UNL A   1      46.603  27.235  30.500  1.00  0.00     0.037 A 
ATOM     87  H   UNL A   1      47.202  24.746  29.359  1.00  0.00     0.065 H 
BRANCH  68  88
ATOM     88  C   UNL A   1      43.846  32.481  32.193  1.00  0.00     0.064 A 
ATOM     89  C   UNL A   1      44.213  33.622  31.466  1.00  0.00     0.173 A 
ATOM     90  C   UNL A   1      43.524  32.642  33.550  1.00  0.00     0.173 A 
ATOM     91  F   UNL A   1      44.540  33.520  30.168  1.00  0.00    -0.203 F 
ATOM     92  C   UNL A   1      44.266  34.872  32.075  1.00  0.00     0.198 A 
ATOM     93  C   UNL A   1      43.548  33.898  34.148  1.00  0.00     0.198 A 
ATOM     94  F   UNL A   1      43.159  31.583  34.288  1.00  0.00    -0.203 F 
ATOM     95  F   UNL A   1      44.649  35.945  31.368  1.00  0.00    -0.200 F 
ATOM     96  C   UNL A   1      43.923  35.011  33.412  1.00  0.00     0.200 A 
ATOM     97  F   UNL A   1      43.201  34.032  35.435  1.00  0.00    -0.200 F 
ATOM     98  F   UNL A   1      43.952  36.220  33.991  1.00  0.00    -0.200 F 
ENDBRANCH  68  88
BRANCH  71  99
ATOM     99  C   UNL A   1      42.709  23.795  27.401  1.00  0.00     0.064 A 
ATOM    100  C   UNL A   1      42.255  22.625  28.030  1.00  0.00     0.173 A 
ATOM    101  C   UNL A   1      43.088  23.702  26.053  1.00  0.00     0.173 A 
ATOM    102  F   UNL A   1      41.902  22.656  29.323  1.00  0.00    -0.203 F 
ATOM    103  C   UNL A   1      42.225  21.407  27.354  1.00  0.00     0.198 A 
ATOM    104  C   UNL A   1      43.024  22.490  25.368  1.00  0.00     0.198 A 
ATOM    105  F   UNL A   1      43.525  24.789  25.402  1.00  0.00    -0.203 F 
ATOM    106  F   UNL A   1      41.855  20.293  28.001  1.00  0.00    -0.200 F 
ATOM    107  C   UNL A   1      42.607  21.340  26.023  1.00  0.00     0.200 A 
ATOM    108  F   UNL A   1      43.380  22.433  24.078  1.00  0.00    -0.200 F 
ATOM    109  F   UNL A   1      42.588  20.168  25.376  1.00  0.00    -0.200 F 
ENDBRANCH  71  99
BRANCH  86 110
ATOM    110  C   UNL A   1      48.010  26.796  30.781  1.00  0.00     0.064 A 
ATOM    111  C   UNL A   1      48.324  25.956  31.859  1.00  0.00     0.173 A 
ATOM    112  C   UNL A   1      49.052  27.176  29.919  1.00  0.00     0.173 A 
ATOM    113  F   UNL A   1      47.367  25.576  32.719  1.00  0.00    -0.203 F 
ATOM    114  C   UNL A   1      49.631  25.530  32.076  1.00  0.00     0.198 A 
ATOM    115  C   UNL A   1      50.351  26.722  30.120  1.00  0.00     0.198 A 
ATOM    116  F   UNL A   1      48.803  27.974  28.868  1.00  0.00    -0.203 F 
ATOM    117  F   UNL A   1      49.917  24.764  33.137  1.00  0.00    -0.200 F 
ATOM    118  C   UNL A   1      50.641  25.905  31.201  1.00  0.00     0.200 A 
ATOM    119  F   UNL A   1      51.322  27.071  29.264  1.00  0.00    -0.200 F 
ATOM    120  F   UNL A   1      51.896  25.481  31.403  1.00  0.00    -0.200 F 
ENDBRANCH  86 110
ENDBRANCH  51  54
ENDBRANCH  41  44
ENDBRANCH  37  40
ENDBRANCH  34  37
ENDBRANCH  31  34
ENDBRANCH   1  31
TORSDOF 16
ENDMDL
MODEL 10
REMARK VINA RESULT:     -10.8      5.594      9.641
REMARK SMILES O=C(/C=C/c1ccc(O)c(O)c1)NCCCCCCNC(=O)c1ccc(-c2c3nc(c(-c4c(F)c(F)c(F)c(F)c4F)c4ccc([nH]4)c(-c4c(F)c(F)c(F)c(F)c4F)c4nc(c(-c5c(F)c(F)c(F)c(F)c5F)c5ccc2[nH]5)C=C4)C=C3)cc1
REMARK SMILES IDX 16 1 15 4 14 7 13 10 1 11 2 12 3 14 4 15 5 18 6 19 12 20
REMARK SMILES IDX 7 21 10 23 8 25 11 27 9 29 17 31 18 34 19 37 20 40 21 41
REMARK SMILES IDX 22 43 23 44 24 45 85 46 25 47 84 49 26 51 27 54 28 55 78 56
REMARK SMILES IDX 29 57 83 58 77 59 79 60 30 61 82 62 76 64 75 66 31 68 63 71
REMARK SMILES IDX 43 72 62 73 44 74 47 75 61 76 80 77 45 78 46 80 60 82 81 83
REMARK SMILES IDX 48 86 32 88 33 89 41 90 34 91 35 92 39 93 42 94 36 95 37 96
REMARK SMILES IDX 40 97 38 98 64 99 65 100 73 101 66 102 67 103 71 104 74 105
REMARK SMILES IDX 68 106 69 107 72 108 70 109 49 110 50 111 58 112 51 113
REMARK SMILES IDX 52 114 56 115 59 116 53 117 54 118 57 119 55 120
REMARK H PARENT 16 2 16 3 15 5 15 6 14 8 14 9 13 13 3 16 4 17 6 22 12 24 7 26
REMARK H PARENT 11 28 9 30 17 32 17 33 18 35 18 36 19 38 19 39 20 42 24 48
REMARK H PARENT 85 50 25 52 84 53 83 63 77 65 79 67 82 69 76 70 44 79 47 81
REMARK H PARENT 80 84 45 85 81 87
REMARK Flexibility Score: inf
ROOT
ATOM      1  C   UNL A   1      30.156  27.447  23.754  1.00  0.00    -0.052 C 
ATOM      2  H   UNL A   1      29.372  28.096  23.422  1.00  0.00     0.027 H 
ATOM      3  H   UNL A   1      30.815  27.133  22.973  1.00  0.00     0.027 H 
ENDROOT
BRANCH   1   4
ATOM      4  C   UNL A   1      29.509  26.166  24.301  1.00  0.00    -0.036 C 
ATOM      5  H   UNL A   1      28.554  26.424  24.711  1.00  0.00     0.028 H 
ATOM      6  H   UNL A   1      29.443  25.486  23.478  1.00  0.00     0.028 H 
BRANCH   4   7
ATOM      7  C   UNL A   1      30.317  25.455  25.387  1.00  0.00     0.018 C 
ATOM      8  H   UNL A   1      31.243  25.972  25.527  1.00  0.00     0.049 H 
ATOM      9  H   UNL A   1      29.741  25.454  26.288  1.00  0.00     0.049 H 
BRANCH   7  10
ATOM     10  N   UNL A   1      30.596  24.080  25.025  1.00  0.00    -0.353 N 
ATOM     11  O   UNL A   1      31.190  23.382  27.127  1.00  0.00    -0.270 OA
ATOM     12  C   UNL A   1      31.073  23.168  25.926  1.00  0.00     0.243 C 
ATOM     13  H   UNL A   1      30.439  23.792  24.097  1.00  0.00     0.163 HD
BRANCH  12  14
ATOM     14  C   UNL A   1      31.456  21.838  25.386  1.00  0.00     0.003 C 
ATOM     15  C   UNL A   1      32.500  21.576  24.583  1.00  0.00    -0.049 C 
ATOM     16  H   UNL A   1      30.862  21.037  25.653  1.00  0.00     0.068 H 
ATOM     17  H   UNL A   1      33.054  22.366  24.214  1.00  0.00     0.063 H 
BRANCH  15  18
ATOM     18  C   UNL A   1      32.883  20.207  24.210  1.00  0.00    -0.022 A 
ATOM     19  C   UNL A   1      33.966  19.541  24.809  1.00  0.00    -0.051 A 
ATOM     20  C   UNL A   1      32.130  19.546  23.233  1.00  0.00    -0.009 A 
ATOM     21  C   UNL A   1      34.318  18.246  24.411  1.00  0.00    -0.016 A 
ATOM     22  H   UNL A   1      34.506  20.012  25.551  1.00  0.00     0.063 H 
ATOM     23  C   UNL A   1      32.486  18.263  22.843  1.00  0.00     0.157 A 
ATOM     24  H   UNL A   1      31.312  20.010  22.805  1.00  0.00     0.067 H 
ATOM     25  C   UNL A   1      33.576  17.617  23.421  1.00  0.00     0.157 A 
ATOM     26  H   UNL A   1      35.118  17.764  24.850  1.00  0.00     0.066 H 
BRANCH  23  27
ATOM     27  O   UNL A   1      31.759  17.638  21.870  1.00  0.00    -0.504 OA
ATOM     28  H   UNL A   1      31.550  16.729  21.953  1.00  0.00     0.293 HD
ENDBRANCH  23  27
BRANCH  25  29
ATOM     29  O   UNL A   1      33.879  16.361  22.974  1.00  0.00    -0.504 OA
ATOM     30  H   UNL A   1      34.393  16.251  22.198  1.00  0.00     0.293 HD
ENDBRANCH  25  29
ENDBRANCH  15  18
ENDBRANCH  12  14
ENDBRANCH   7  10
ENDBRANCH   4   7
ENDBRANCH   1   4
BRANCH   1  31
ATOM     31  C   UNL A   1      31.021  28.224  24.752  1.00  0.00    -0.052 C 
ATOM     32  H   UNL A   1      31.103  27.639  25.644  1.00  0.00     0.027 H 
ATOM     33  H   UNL A   1      30.531  29.164  24.899  1.00  0.00     0.027 H 
BRANCH  31  34
ATOM     34  C   UNL A   1      32.434  28.554  24.269  1.00  0.00    -0.036 C 
ATOM     35  H   UNL A   1      32.353  29.207  23.426  1.00  0.00     0.028 H 
ATOM     36  H   UNL A   1      32.898  27.619  24.037  1.00  0.00     0.028 H 
BRANCH  34  37
ATOM     37  C   UNL A   1      33.325  29.228  25.307  1.00  0.00     0.018 C 
ATOM     38  H   UNL A   1      34.250  29.496  24.841  1.00  0.00     0.049 H 
ATOM     39  H   UNL A   1      33.473  28.534  26.108  1.00  0.00     0.049 H 
BRANCH  37  40
ATOM     40  N   UNL A   1      32.721  30.427  25.869  1.00  0.00    -0.352 N 
ATOM     41  C   UNL A   1      33.139  31.190  26.933  1.00  0.00     0.251 C 
ATOM     42  H   UNL A   1      31.898  30.734  25.426  1.00  0.00     0.163 HD
ATOM     43  O   UNL A   1      32.422  32.082  27.378  1.00  0.00    -0.269 OA
BRANCH  41  44
ATOM     44  C   UNL A   1      34.447  30.915  27.563  1.00  0.00     0.039 A 
ATOM     45  C   UNL A   1      35.369  31.957  27.699  1.00  0.00    -0.049 A 
ATOM     46  C   UNL A   1      34.759  29.635  28.029  1.00  0.00    -0.049 A 
ATOM     47  C   UNL A   1      36.574  31.733  28.369  1.00  0.00    -0.053 A 
ATOM     48  H   UNL A   1      35.160  32.889  27.307  1.00  0.00     0.063 H 
ATOM     49  C   UNL A   1      35.927  29.432  28.759  1.00  0.00    -0.053 A 
ATOM     50  H   UNL A   1      34.126  28.844  27.833  1.00  0.00     0.063 H 
ATOM     51  C   UNL A   1      36.846  30.479  28.939  1.00  0.00    -0.014 A 
ATOM     52  H   UNL A   1      37.268  32.493  28.447  1.00  0.00     0.063 H 
ATOM     53  H   UNL A   1      36.119  28.505  29.170  1.00  0.00     0.063 H 
BRANCH  51  54
ATOM     54  C   UNL A   1      38.083  30.228  29.724  1.00  0.00     0.031 A 
ATOM     55  C   UNL A   1      39.148  29.319  29.174  1.00  0.00     0.074 A 
ATOM     56  C   UNL A   1      38.209  30.745  30.963  1.00  0.00     0.049 A 
ATOM     57  N   UNL A   1      40.234  28.868  29.752  1.00  0.00    -0.248 NA
ATOM     58  C   UNL A   1      38.953  28.826  27.801  1.00  0.00    -0.034 C 
ATOM     59  C   UNL A   1      37.233  31.613  31.624  1.00  0.00    -0.036 A 
ATOM     60  N   UNL A   1      39.204  30.597  31.899  1.00  0.00    -0.354 N 
ATOM     61  C   UNL A   1      40.830  28.022  28.827  1.00  0.00     0.074 A 
ATOM     62  C   UNL A   1      39.972  27.991  27.664  1.00  0.00    -0.034 C 
ATOM     63  H   UNL A   1      38.215  29.069  27.121  1.00  0.00     0.065 H 
ATOM     64  C   UNL A   1      37.679  31.927  32.851  1.00  0.00    -0.036 A 
ATOM     65  H   UNL A   1      36.342  31.932  31.212  1.00  0.00     0.065 H 
ATOM     66  C   UNL A   1      38.950  31.248  33.083  1.00  0.00     0.049 A 
ATOM     67  H   UNL A   1      40.022  30.073  31.737  1.00  0.00     0.167 HD
ATOM     68  C   UNL A   1      41.999  27.346  28.935  1.00  0.00     0.037 A 
ATOM     69  H   UNL A   1      40.132  27.395  26.836  1.00  0.00     0.065 H 
ATOM     70  H   UNL A   1      37.202  32.549  33.521  1.00  0.00     0.065 H 
ATOM     71  C   UNL A   1      39.654  31.275  34.233  1.00  0.00     0.037 A 
ATOM     72  C   UNL A   1      42.873  27.417  30.075  1.00  0.00     0.049 A 
ATOM     73  C   UNL A   1      40.946  30.503  34.322  1.00  0.00     0.074 A 
ATOM     74  C   UNL A   1      44.116  26.833  30.243  1.00  0.00    -0.036 A 
ATOM     75  N   UNL A   1      42.596  28.112  31.242  1.00  0.00    -0.354 N 
ATOM     76  N   UNL A   1      41.538  29.770  33.412  1.00  0.00    -0.248 NA
ATOM     77  C   UNL A   1      41.670  30.566  35.601  1.00  0.00    -0.034 C 
ATOM     78  C   UNL A   1      44.567  27.128  31.532  1.00  0.00    -0.036 A 
ATOM     79  H   UNL A   1      44.623  26.276  29.538  1.00  0.00     0.065 H 
ATOM     80  C   UNL A   1      43.633  27.947  32.146  1.00  0.00     0.049 A 
ATOM     81  H   UNL A   1      41.782  28.642  31.405  1.00  0.00     0.167 HD
ATOM     82  C   UNL A   1      42.720  29.325  33.990  1.00  0.00     0.074 A 
ATOM     83  C   UNL A   1      42.766  29.875  35.327  1.00  0.00    -0.034 C 
ATOM     84  H   UNL A   1      41.395  31.029  36.481  1.00  0.00     0.065 H 
ATOM     85  H   UNL A   1      45.446  26.792  31.956  1.00  0.00     0.065 H 
ATOM     86  C   UNL A   1      43.681  28.530  33.461  1.00  0.00     0.037 A 
ATOM     87  H   UNL A   1      43.551  29.745  35.983  1.00  0.00     0.065 H 
BRANCH  68  88
ATOM     88  C   UNL A   1      42.416  26.468  27.792  1.00  0.00     0.064 A 
ATOM     89  C   UNL A   1      43.293  26.920  26.795  1.00  0.00     0.173 A 
ATOM     90  C   UNL A   1      41.999  25.129  27.741  1.00  0.00     0.173 A 
ATOM     91  F   UNL A   1      43.713  28.194  26.793  1.00  0.00    -0.203 F 
ATOM     92  C   UNL A   1      43.727  26.068  25.784  1.00  0.00     0.198 A 
ATOM     93  C   UNL A   1      42.459  24.271  26.747  1.00  0.00     0.198 A 
ATOM     94  F   UNL A   1      41.166  24.645  28.675  1.00  0.00    -0.203 F 
ATOM     95  F   UNL A   1      44.542  26.529  24.825  1.00  0.00    -0.200 F 
ATOM     96  C   UNL A   1      43.320  24.742  25.767  1.00  0.00     0.200 A 
ATOM     97  F   UNL A   1      42.077  22.987  26.742  1.00  0.00    -0.200 F 
ATOM     98  F   UNL A   1      43.758  23.917  24.806  1.00  0.00    -0.200 F 
ENDBRANCH  68  88
BRANCH  71  99
ATOM     99  C   UNL A   1      39.163  32.054  35.402  1.00  0.00     0.064 A 
ATOM    100  C   UNL A   1      39.552  33.390  35.591  1.00  0.00     0.173 A 
ATOM    101  C   UNL A   1      38.346  31.471  36.382  1.00  0.00     0.173 A 
ATOM    102  F   UNL A   1      40.350  33.987  34.695  1.00  0.00    -0.203 F 
ATOM    103  C   UNL A   1      39.177  34.096  36.732  1.00  0.00     0.198 A 
ATOM    104  C   UNL A   1      37.943  32.190  37.505  1.00  0.00     0.198 A 
ATOM    105  F   UNL A   1      37.942  30.200  36.249  1.00  0.00    -0.203 F 
ATOM    106  F   UNL A   1      39.621  35.346  36.920  1.00  0.00    -0.200 F 
ATOM    107  C   UNL A   1      38.371  33.497  37.688  1.00  0.00     0.200 A 
ATOM    108  F   UNL A   1      37.152  31.612  38.419  1.00  0.00    -0.200 F 
ATOM    109  F   UNL A   1      38.019  34.171  38.789  1.00  0.00    -0.200 F 
ENDBRANCH  71  99
BRANCH  86 110
ATOM    110  C   UNL A   1      44.899  28.259  34.295  1.00  0.00     0.064 A 
ATOM    111  C   UNL A   1      46.000  29.127  34.304  1.00  0.00     0.173 A 
ATOM    112  C   UNL A   1      44.937  27.141  35.143  1.00  0.00     0.173 A 
ATOM    113  F   UNL A   1      46.019  30.201  33.501  1.00  0.00    -0.203 F 
ATOM    114  C   UNL A   1      47.102  28.875  35.116  1.00  0.00     0.198 A 
ATOM    115  C   UNL A   1      46.025  26.909  35.977  1.00  0.00     0.198 A 
ATOM    116  F   UNL A   1      43.905  26.282  35.177  1.00  0.00    -0.203 F 
ATOM    117  F   UNL A   1      48.162  29.693  35.077  1.00  0.00    -0.200 F 
ATOM    118  C   UNL A   1      47.109  27.772  35.958  1.00  0.00     0.200 A 
ATOM    119  F   UNL A   1      46.023  25.853  36.803  1.00  0.00    -0.200 F 
ATOM    120  F   UNL A   1      48.165  27.540  36.751  1.00  0.00    -0.200 F 
ENDBRANCH  86 110
ENDBRANCH  51  54
ENDBRANCH  41  44
ENDBRANCH  37  40
ENDBRANCH  34  37
ENDBRANCH  31  34
ENDBRANCH   1  31
TORSDOF 16
ENDMDL
