MODEL 1
REMARK VINA RESULT:     -12.7      0.000      0.000
REMARK SMILES O=C(CNc1nc(-c2ccccc2)c(-c2ccccc2)s1)NCCCCCCNC(=O)c1ccc(-c2c3nc(c(-c4c(F)c(F)c(F)c(F)c4F)c4ccc([nH]4)c(-c4c(F)c(F)c(F)c(F)c4F)c4nc(c(-c5c(F)c(F)c(F)c(F)c5F)c5ccc2[nH]5)C=C4)C=C3)cc1
REMARK SMILES IDX 25 1 24 4 23 7 22 10 1 11 2 12 3 14 4 17 5 19 6 20 21 21
REMARK SMILES IDX 7 22 14 23 8 24 9 25 13 26 10 27 12 29 11 31 15 35 16 36
REMARK SMILES IDX 20 37 17 38 19 40 18 42 26 46 27 49 28 52 29 55 30 56 31 58
REMARK SMILES IDX 32 59 33 60 94 61 34 62 93 64 35 66 36 69 37 70 87 71 38 72
REMARK SMILES IDX 92 73 86 74 88 75 39 76 91 77 85 79 84 81 40 83 72 86 52 87
REMARK SMILES IDX 71 88 53 89 56 90 70 91 89 92 54 93 55 95 69 97 90 98 57 101
REMARK SMILES IDX 41 103 42 104 50 105 43 106 44 107 48 108 51 109 45 110
REMARK SMILES IDX 46 111 49 112 47 113 73 114 74 115 82 116 75 117 76 118
REMARK SMILES IDX 80 119 83 120 77 121 78 122 81 123 79 124 58 125 59 126
REMARK SMILES IDX 67 127 60 128 61 129 65 130 68 131 62 132 63 133 66 134
REMARK SMILES IDX 64 135
REMARK H PARENT 25 2 25 3 24 5 24 6 23 8 23 9 22 13 3 15 3 16 4 18 9 28 13 30
REMARK H PARENT 10 32 12 33 11 34 16 39 20 41 17 43 19 44 18 45 26 47 26 48
REMARK H PARENT 27 50 27 51 28 53 28 54 29 57 33 63 94 65 34 67 93 68 92 78
REMARK H PARENT 86 80 88 82 91 84 85 85 53 94 56 96 89 99 54 100 90 102
REMARK Flexibility Score: inf
ROOT
ATOM      1  C   UNL A   1      33.169  30.029  27.103  1.00  0.00    -0.052 C 
ATOM      2  H   UNL A   1      33.805  30.888  27.151  1.00  0.00     0.027 H 
ATOM      3  H   UNL A   1      33.147  29.458  28.008  1.00  0.00     0.027 H 
ENDROOT
BRANCH   1   4
ATOM      4  C   UNL A   1      33.727  29.087  26.026  1.00  0.00    -0.036 C 
ATOM      5  H   UNL A   1      34.781  29.253  25.951  1.00  0.00     0.028 H 
ATOM      6  H   UNL A   1      33.476  28.094  26.335  1.00  0.00     0.028 H 
BRANCH   4   7
ATOM      7  C   UNL A   1      33.117  29.273  24.637  1.00  0.00     0.017 C 
ATOM      8  H   UNL A   1      32.600  30.209  24.608  1.00  0.00     0.049 H 
ATOM      9  H   UNL A   1      33.910  29.251  23.918  1.00  0.00     0.049 H 
BRANCH   7  10
ATOM     10  N   UNL A   1      32.187  28.214  24.314  1.00  0.00    -0.355 N 
ATOM     11  O   UNL A   1      30.370  29.541  23.822  1.00  0.00    -0.273 OA
ATOM     12  C   UNL A   1      30.877  28.429  23.925  1.00  0.00     0.239 C 
ATOM     13  H   UNL A   1      32.505  27.284  24.375  1.00  0.00     0.163 HD
BRANCH  12  14
ATOM     14  C   UNL A   1      30.101  27.124  23.673  1.00  0.00     0.096 C 
ATOM     15  H   UNL A   1      29.142  27.352  23.258  1.00  0.00     0.059 H 
ATOM     16  H   UNL A   1      29.971  26.599  24.596  1.00  0.00     0.059 H 
BRANCH  14  17
ATOM     17  N   UNL A   1      30.851  26.294  22.738  1.00  0.00    -0.352 N 
ATOM     18  H   UNL A   1      30.810  26.503  21.777  1.00  0.00     0.163 HD
BRANCH  17  19
ATOM     19  C   UNL A   1      31.595  25.254  23.148  1.00  0.00     0.184 A 
ATOM     20  N   UNL A   1      32.888  25.272  23.370  1.00  0.00    -0.220 NA
ATOM     21  S   UNL A   1      30.834  23.730  23.380  1.00  0.00    -0.096 S 
ATOM     22  C   UNL A   1      33.325  24.007  23.733  1.00  0.00     0.091 A 
ATOM     23  C   UNL A   1      32.352  23.018  23.735  1.00  0.00     0.064 A 
BRANCH  22  24
ATOM     24  C   UNL A   1      34.708  23.763  24.115  1.00  0.00     0.002 A 
ATOM     25  C   UNL A   1      35.568  23.029  23.290  1.00  0.00    -0.053 A 
ATOM     26  C   UNL A   1      35.159  24.195  25.369  1.00  0.00    -0.053 A 
ATOM     27  C   UNL A   1      36.851  22.696  23.730  1.00  0.00    -0.062 A 
ATOM     28  H   UNL A   1      35.254  22.733  22.354  1.00  0.00     0.063 H 
ATOM     29  C   UNL A   1      36.441  23.857  25.809  1.00  0.00    -0.062 A 
ATOM     30  H   UNL A   1      34.543  24.765  25.969  1.00  0.00     0.063 H 
ATOM     31  C   UNL A   1      37.283  23.101  24.994  1.00  0.00    -0.062 A 
ATOM     32  H   UNL A   1      37.481  22.150  23.121  1.00  0.00     0.062 H 
ATOM     33  H   UNL A   1      36.765  24.166  26.738  1.00  0.00     0.062 H 
ATOM     34  H   UNL A   1      38.224  22.841  25.325  1.00  0.00     0.062 H 
ENDBRANCH  22  24
BRANCH  23  35
ATOM     35  C   UNL A   1      32.436  21.587  24.018  1.00  0.00    -0.006 A 
ATOM     36  C   UNL A   1      32.211  20.648  23.001  1.00  0.00    -0.053 A 
ATOM     37  C   UNL A   1      32.797  21.133  25.293  1.00  0.00    -0.053 A 
ATOM     38  C   UNL A   1      32.347  19.282  23.255  1.00  0.00    -0.062 A 
ATOM     39  H   UNL A   1      31.941  20.970  22.058  1.00  0.00     0.063 H 
ATOM     40  C   UNL A   1      32.935  19.766  25.546  1.00  0.00    -0.062 A 
ATOM     41  H   UNL A   1      32.963  21.813  26.052  1.00  0.00     0.063 H 
ATOM     42  C   UNL A   1      32.711  18.843  24.526  1.00  0.00    -0.062 A 
ATOM     43  H   UNL A   1      32.179  18.598  22.500  1.00  0.00     0.062 H 
ATOM     44  H   UNL A   1      33.203  19.439  26.487  1.00  0.00     0.062 H 
ATOM     45  H   UNL A   1      32.814  17.833  24.712  1.00  0.00     0.062 H 
ENDBRANCH  23  35
ENDBRANCH  17  19
ENDBRANCH  14  17
ENDBRANCH  12  14
ENDBRANCH   7  10
ENDBRANCH   4   7
ENDBRANCH   1   4
BRANCH   1  46
ATOM     46  C   UNL A   1      31.734  30.515  26.880  1.00  0.00    -0.052 C 
ATOM     47  H   UNL A   1      31.123  30.108  27.657  1.00  0.00     0.027 H 
ATOM     48  H   UNL A   1      31.459  30.183  25.900  1.00  0.00     0.027 H 
BRANCH  46  49
ATOM     49  C   UNL A   1      31.549  32.034  26.878  1.00  0.00    -0.036 C 
ATOM     50  H   UNL A   1      30.761  32.272  27.563  1.00  0.00     0.028 H 
ATOM     51  H   UNL A   1      31.330  32.306  25.867  1.00  0.00     0.028 H 
BRANCH  49  52
ATOM     52  C   UNL A   1      32.782  32.838  27.277  1.00  0.00     0.018 C 
ATOM     53  H   UNL A   1      33.466  32.850  26.454  1.00  0.00     0.049 H 
ATOM     54  H   UNL A   1      33.211  32.369  28.139  1.00  0.00     0.049 H 
BRANCH  52  55
ATOM     55  N   UNL A   1      32.463  34.212  27.637  1.00  0.00    -0.352 N 
ATOM     56  C   UNL A   1      33.005  35.013  28.613  1.00  0.00     0.251 C 
ATOM     57  H   UNL A   1      31.751  34.630  27.101  1.00  0.00     0.163 HD
ATOM     58  O   UNL A   1      32.489  36.097  28.879  1.00  0.00    -0.269 OA
BRANCH  56  59
ATOM     59  C   UNL A   1      34.192  34.563  29.370  1.00  0.00     0.039 A 
ATOM     60  C   UNL A   1      34.015  34.047  30.657  1.00  0.00    -0.049 A 
ATOM     61  C   UNL A   1      35.473  34.640  28.817  1.00  0.00    -0.049 A 
ATOM     62  C   UNL A   1      35.110  33.529  31.353  1.00  0.00    -0.053 A 
ATOM     63  H   UNL A   1      33.079  34.049  31.092  1.00  0.00     0.063 H 
ATOM     64  C   UNL A   1      36.550  34.058  29.481  1.00  0.00    -0.053 A 
ATOM     65  H   UNL A   1      35.619  35.126  27.919  1.00  0.00     0.063 H 
ATOM     66  C   UNL A   1      36.378  33.486  30.751  1.00  0.00    -0.014 A 
ATOM     67  H   UNL A   1      34.987  33.178  32.316  1.00  0.00     0.063 H 
ATOM     68  H   UNL A   1      37.482  34.048  29.036  1.00  0.00     0.063 H 
BRANCH  66  69
ATOM     69  C   UNL A   1      37.521  32.804  31.412  1.00  0.00     0.031 A 
ATOM     70  C   UNL A   1      38.165  31.603  30.783  1.00  0.00     0.074 A 
ATOM     71  C   UNL A   1      37.926  33.223  32.627  1.00  0.00     0.049 A 
ATOM     72  N   UNL A   1      39.115  30.831  31.249  1.00  0.00    -0.248 NA
ATOM     73  C   UNL A   1      37.655  31.198  29.465  1.00  0.00    -0.034 C 
ATOM     74  C   UNL A   1      37.345  34.343  33.368  1.00  0.00    -0.036 A 
ATOM     75  N   UNL A   1      38.904  32.744  33.463  1.00  0.00    -0.354 N 
ATOM     76  C   UNL A   1      39.313  29.851  30.286  1.00  0.00     0.074 A 
ATOM     77  C   UNL A   1      38.343  30.089  29.239  1.00  0.00    -0.034 C 
ATOM     78  H   UNL A   1      36.947  31.657  28.871  1.00  0.00     0.065 H 
ATOM     79  C   UNL A   1      37.983  34.471  34.542  1.00  0.00    -0.036 A 
ATOM     80  H   UNL A   1      36.569  34.940  33.041  1.00  0.00     0.065 H 
ATOM     81  C   UNL A   1      38.985  33.417  34.657  1.00  0.00     0.049 A 
ATOM     82  H   UNL A   1      39.491  31.989  33.228  1.00  0.00     0.167 HD
ATOM     83  C   UNL A   1      40.236  28.858  30.267  1.00  0.00     0.037 A 
ATOM     84  H   UNL A   1      38.205  29.473  28.421  1.00  0.00     0.065 H 
ATOM     85  H   UNL A   1      37.794  35.200  35.249  1.00  0.00     0.065 H 
ATOM     86  C   UNL A   1      39.762  33.199  35.735  1.00  0.00     0.037 A 
ATOM     87  C   UNL A   1      41.198  28.625  31.315  1.00  0.00     0.049 A 
ATOM     88  C   UNL A   1      40.758  32.071  35.707  1.00  0.00     0.074 A 
ATOM     89  C   UNL A   1      42.208  27.682  31.365  1.00  0.00    -0.036 A 
ATOM     90  N   UNL A   1      41.257  29.337  32.506  1.00  0.00    -0.354 N 
ATOM     91  N   UNL A   1      40.991  31.198  34.757  1.00  0.00    -0.248 NA
ATOM     92  C   UNL A   1      41.602  31.902  36.897  1.00  0.00    -0.034 C 
ATOM     93  C   UNL A   1      42.838  27.779  32.611  1.00  0.00    -0.036 A 
ATOM     94  H   UNL A   1      42.454  27.019  30.613  1.00  0.00     0.065 H 
ATOM     95  C   UNL A   1      42.264  28.827  33.313  1.00  0.00     0.049 A 
ATOM     96  H   UNL A   1      40.671  30.091  32.744  1.00  0.00     0.167 HD
ATOM     97  C   UNL A   1      42.016  30.388  35.225  1.00  0.00     0.074 A 
ATOM     98  C   UNL A   1      42.376  30.888  36.537  1.00  0.00    -0.034 C 
ATOM     99  H   UNL A   1      41.594  32.433  37.782  1.00  0.00     0.065 H 
ATOM    100  H   UNL A   1      43.602  27.173  32.949  1.00  0.00     0.065 H 
ATOM    101  C   UNL A   1      42.606  29.326  34.622  1.00  0.00     0.037 A 
ATOM    102  H   UNL A   1      43.139  30.503  37.116  1.00  0.00     0.065 H 
BRANCH  83 103
ATOM    103  C   UNL A   1      40.239  27.943  29.075  1.00  0.00     0.064 A 
ATOM    104  C   UNL A   1      39.511  26.742  29.064  1.00  0.00     0.173 A 
ATOM    105  C   UNL A   1      40.966  28.275  27.921  1.00  0.00     0.173 A 
ATOM    106  F   UNL A   1      38.804  26.372  30.142  1.00  0.00    -0.203 F 
ATOM    107  C   UNL A   1      39.547  25.889  27.964  1.00  0.00     0.198 A 
ATOM    108  C   UNL A   1      40.970  27.437  26.809  1.00  0.00     0.198 A 
ATOM    109  F   UNL A   1      41.671  29.415  27.869  1.00  0.00    -0.203 F 
ATOM    110  F   UNL A   1      38.899  24.717  28.005  1.00  0.00    -0.200 F 
ATOM    111  C   UNL A   1      40.273  26.239  26.836  1.00  0.00     0.200 A 
ATOM    112  F   UNL A   1      41.659  27.785  25.712  1.00  0.00    -0.200 F 
ATOM    113  F   UNL A   1      40.308  25.418  25.778  1.00  0.00    -0.200 F 
ENDBRANCH  83 103
BRANCH  86 114
ATOM    114  C   UNL A   1      39.621  34.072  36.929  1.00  0.00     0.064 A 
ATOM    115  C   UNL A   1      38.838  33.681  38.024  1.00  0.00     0.173 A 
ATOM    116  C   UNL A   1      40.286  35.305  37.010  1.00  0.00     0.173 A 
ATOM    117  F   UNL A   1      38.168  32.520  37.986  1.00  0.00    -0.203 F 
ATOM    118  C   UNL A   1      38.716  34.496  39.148  1.00  0.00     0.198 A 
ATOM    119  C   UNL A   1      40.187  36.103  38.147  1.00  0.00     0.198 A 
ATOM    120  F   UNL A   1      41.052  35.723  35.991  1.00  0.00    -0.203 F 
ATOM    121  F   UNL A   1      37.931  34.114  40.165  1.00  0.00    -0.200 F 
ATOM    122  C   UNL A   1      39.398  35.701  39.212  1.00  0.00     0.200 A 
ATOM    123  F   UNL A   1      40.863  37.259  38.211  1.00  0.00    -0.200 F 
ATOM    124  F   UNL A   1      39.290  36.477  40.299  1.00  0.00    -0.200 F 
ENDBRANCH  86 114
BRANCH 101 125
ATOM    125  C   UNL A   1      43.713  28.637  35.368  1.00  0.00     0.064 A 
ATOM    126  C   UNL A   1      43.454  27.617  36.296  1.00  0.00     0.173 A 
ATOM    127  C   UNL A   1      45.054  28.969  35.119  1.00  0.00     0.173 A 
ATOM    128  F   UNL A   1      42.190  27.271  36.583  1.00  0.00    -0.203 F 
ATOM    129  C   UNL A   1      44.493  26.973  36.963  1.00  0.00     0.198 A 
ATOM    130  C   UNL A   1      46.092  28.301  35.763  1.00  0.00     0.198 A 
ATOM    131  F   UNL A   1      45.359  29.934  34.237  1.00  0.00    -0.203 F 
ATOM    132  F   UNL A   1      44.218  26.036  37.881  1.00  0.00    -0.200 F 
ATOM    133  C   UNL A   1      45.811  27.309  36.690  1.00  0.00     0.200 A 
ATOM    134  F   UNL A   1      47.364  28.617  35.485  1.00  0.00    -0.200 F 
ATOM    135  F   UNL A   1      46.809  26.680  37.324  1.00  0.00    -0.200 F 
ENDBRANCH 101 125
ENDBRANCH  66  69
ENDBRANCH  56  59
ENDBRANCH  52  55
ENDBRANCH  49  52
ENDBRANCH  46  49
ENDBRANCH   1  46
TORSDOF 17
ENDMDL
MODEL 2
REMARK VINA RESULT:     -12.6      0.648      1.769
REMARK SMILES O=C(CNc1nc(-c2ccccc2)c(-c2ccccc2)s1)NCCCCCCNC(=O)c1ccc(-c2c3nc(c(-c4c(F)c(F)c(F)c(F)c4F)c4ccc([nH]4)c(-c4c(F)c(F)c(F)c(F)c4F)c4nc(c(-c5c(F)c(F)c(F)c(F)c5F)c5ccc2[nH]5)C=C4)C=C3)cc1
REMARK SMILES IDX 25 1 24 4 23 7 22 10 1 11 2 12 3 14 4 17 5 19 6 20 21 21
REMARK SMILES IDX 7 22 14 23 8 24 9 25 13 26 10 27 12 29 11 31 15 35 16 36
REMARK SMILES IDX 20 37 17 38 19 40 18 42 26 46 27 49 28 52 29 55 30 56 31 58
REMARK SMILES IDX 32 59 33 60 94 61 34 62 93 64 35 66 36 69 37 70 87 71 38 72
REMARK SMILES IDX 92 73 86 74 88 75 39 76 91 77 85 79 84 81 40 83 72 86 52 87
REMARK SMILES IDX 71 88 53 89 56 90 70 91 89 92 54 93 55 95 69 97 90 98 57 101
REMARK SMILES IDX 41 103 42 104 50 105 43 106 44 107 48 108 51 109 45 110
REMARK SMILES IDX 46 111 49 112 47 113 73 114 74 115 82 116 75 117 76 118
REMARK SMILES IDX 80 119 83 120 77 121 78 122 81 123 79 124 58 125 59 126
REMARK SMILES IDX 67 127 60 128 61 129 65 130 68 131 62 132 63 133 66 134
REMARK SMILES IDX 64 135
REMARK H PARENT 25 2 25 3 24 5 24 6 23 8 23 9 22 13 3 15 3 16 4 18 9 28 13 30
REMARK H PARENT 10 32 12 33 11 34 16 39 20 41 17 43 19 44 18 45 26 47 26 48
REMARK H PARENT 27 50 27 51 28 53 28 54 29 57 33 63 94 65 34 67 93 68 92 78
REMARK H PARENT 86 80 88 82 91 84 85 85 53 94 56 96 89 99 54 100 90 102
REMARK Flexibility Score: inf
ROOT
ATOM      1  C   UNL A   1      32.978  29.913  27.114  1.00  0.00    -0.052 C 
ATOM      2  H   UNL A   1      33.878  30.424  26.846  1.00  0.00     0.027 H 
ATOM      3  H   UNL A   1      32.744  29.969  28.156  1.00  0.00     0.027 H 
ENDROOT
BRANCH   1   4
ATOM      4  C   UNL A   1      33.173  28.421  26.807  1.00  0.00    -0.036 C 
ATOM      5  H   UNL A   1      33.527  28.331  25.801  1.00  0.00     0.028 H 
ATOM      6  H   UNL A   1      33.868  28.053  27.533  1.00  0.00     0.028 H 
BRANCH   4   7
ATOM      7  C   UNL A   1      31.912  27.569  26.946  1.00  0.00     0.017 C 
ATOM      8  H   UNL A   1      32.185  26.603  27.315  1.00  0.00     0.049 H 
ATOM      9  H   UNL A   1      31.247  28.065  27.622  1.00  0.00     0.049 H 
BRANCH   7  10
ATOM     10  N   UNL A   1      31.230  27.412  25.680  1.00  0.00    -0.355 N 
ATOM     11  O   UNL A   1      29.792  25.729  26.315  1.00  0.00    -0.273 OA
ATOM     12  C   UNL A   1      30.213  26.500  25.460  1.00  0.00     0.239 C 
ATOM     13  H   UNL A   1      31.506  27.987  24.930  1.00  0.00     0.163 HD
BRANCH  12  14
ATOM     14  C   UNL A   1      29.687  26.523  24.014  1.00  0.00     0.096 C 
ATOM     15  H   UNL A   1      29.398  27.520  23.754  1.00  0.00     0.059 H 
ATOM     16  H   UNL A   1      28.837  25.877  23.930  1.00  0.00     0.059 H 
BRANCH  14  17
ATOM     17  N   UNL A   1      30.738  26.069  23.113  1.00  0.00    -0.352 N 
ATOM     18  H   UNL A   1      30.867  26.538  22.257  1.00  0.00     0.163 HD
BRANCH  17  19
ATOM     19  C   UNL A   1      31.537  25.033  23.415  1.00  0.00     0.184 A 
ATOM     20  N   UNL A   1      32.827  25.096  23.641  1.00  0.00    -0.220 NA
ATOM     21  S   UNL A   1      30.857  23.455  23.485  1.00  0.00    -0.096 S 
ATOM     22  C   UNL A   1      33.331  23.825  23.872  1.00  0.00     0.091 A 
ATOM     23  C   UNL A   1      32.412  22.792  23.768  1.00  0.00     0.064 A 
BRANCH  22  24
ATOM     24  C   UNL A   1      34.726  23.616  24.231  1.00  0.00     0.002 A 
ATOM     25  C   UNL A   1      35.615  22.992  23.348  1.00  0.00    -0.053 A 
ATOM     26  C   UNL A   1      35.164  23.965  25.516  1.00  0.00    -0.053 A 
ATOM     27  C   UNL A   1      36.915  22.684  23.758  1.00  0.00    -0.062 A 
ATOM     28  H   UNL A   1      35.310  22.758  22.391  1.00  0.00     0.063 H 
ATOM     29  C   UNL A   1      36.462  23.653  25.924  1.00  0.00    -0.062 A 
ATOM     30  H   UNL A   1      34.525  24.455  26.161  1.00  0.00     0.063 H 
ATOM     31  C   UNL A   1      37.334  23.005  25.049  1.00  0.00    -0.062 A 
ATOM     32  H   UNL A   1      37.566  22.220  23.105  1.00  0.00     0.062 H 
ATOM     33  H   UNL A   1      36.777  23.900  26.875  1.00  0.00     0.062 H 
ATOM     34  H   UNL A   1      38.288  22.764  25.357  1.00  0.00     0.062 H 
ENDBRANCH  22  24
BRANCH  23  35
ATOM     35  C   UNL A   1      32.572  21.344  23.902  1.00  0.00    -0.006 A 
ATOM     36  C   UNL A   1      33.015  20.788  25.111  1.00  0.00    -0.053 A 
ATOM     37  C   UNL A   1      32.230  20.490  22.846  1.00  0.00    -0.053 A 
ATOM     38  C   UNL A   1      33.112  19.404  25.260  1.00  0.00    -0.062 A 
ATOM     39  H   UNL A   1      33.273  21.408  25.895  1.00  0.00     0.063 H 
ATOM     40  C   UNL A   1      32.326  19.105  22.997  1.00  0.00    -0.062 A 
ATOM     41  H   UNL A   1      31.904  20.886  21.950  1.00  0.00     0.063 H 
ATOM     42  C   UNL A   1      32.765  18.564  24.204  1.00  0.00    -0.062 A 
ATOM     43  H   UNL A   1      33.440  19.003  26.153  1.00  0.00     0.062 H 
ATOM     44  H   UNL A   1      32.071  18.481  22.215  1.00  0.00     0.062 H 
ATOM     45  H   UNL A   1      32.835  17.540  24.315  1.00  0.00     0.062 H 
ENDBRANCH  23  35
ENDBRANCH  17  19
ENDBRANCH  14  17
ENDBRANCH  12  14
ENDBRANCH   7  10
ENDBRANCH   4   7
ENDBRANCH   1   4
BRANCH   1  46
ATOM     46  C   UNL A   1      31.814  30.592  26.385  1.00  0.00    -0.052 C 
ATOM     47  H   UNL A   1      30.928  30.026  26.580  1.00  0.00     0.027 H 
ATOM     48  H   UNL A   1      32.088  30.617  25.350  1.00  0.00     0.027 H 
BRANCH  46  49
ATOM     49  C   UNL A   1      31.547  32.043  26.786  1.00  0.00    -0.036 C 
ATOM     50  H   UNL A   1      30.795  32.044  27.548  1.00  0.00     0.028 H 
ATOM     51  H   UNL A   1      31.246  32.549  25.892  1.00  0.00     0.028 H 
BRANCH  49  52
ATOM     52  C   UNL A   1      32.758  32.803  27.317  1.00  0.00     0.018 C 
ATOM     53  H   UNL A   1      33.523  32.795  26.568  1.00  0.00     0.049 H 
ATOM     54  H   UNL A   1      33.080  32.316  28.214  1.00  0.00     0.049 H 
BRANCH  52  55
ATOM     55  N   UNL A   1      32.450  34.186  27.653  1.00  0.00    -0.352 N 
ATOM     56  C   UNL A   1      33.000  35.001  28.612  1.00  0.00     0.251 C 
ATOM     57  H   UNL A   1      31.740  34.600  27.111  1.00  0.00     0.163 HD
ATOM     58  O   UNL A   1      32.493  36.092  28.860  1.00  0.00    -0.269 OA
BRANCH  56  59
ATOM     59  C   UNL A   1      34.187  34.556  29.374  1.00  0.00     0.039 A 
ATOM     60  C   UNL A   1      34.005  34.020  30.652  1.00  0.00    -0.049 A 
ATOM     61  C   UNL A   1      35.471  34.657  28.834  1.00  0.00    -0.049 A 
ATOM     62  C   UNL A   1      35.101  33.507  31.351  1.00  0.00    -0.053 A 
ATOM     63  H   UNL A   1      33.065  34.002  31.079  1.00  0.00     0.063 H 
ATOM     64  C   UNL A   1      36.550  34.081  29.500  1.00  0.00    -0.053 A 
ATOM     65  H   UNL A   1      35.619  35.158  27.944  1.00  0.00     0.063 H 
ATOM     66  C   UNL A   1      36.374  33.488  30.760  1.00  0.00    -0.014 A 
ATOM     67  H   UNL A   1      34.973  33.141  32.308  1.00  0.00     0.063 H 
ATOM     68  H   UNL A   1      37.486  34.089  29.063  1.00  0.00     0.063 H 
BRANCH  66  69
ATOM     69  C   UNL A   1      37.520  32.813  31.422  1.00  0.00     0.031 A 
ATOM     70  C   UNL A   1      38.174  31.618  30.792  1.00  0.00     0.074 A 
ATOM     71  C   UNL A   1      37.919  33.231  32.640  1.00  0.00     0.049 A 
ATOM     72  N   UNL A   1      39.128  30.852  31.258  1.00  0.00    -0.248 NA
ATOM     73  C   UNL A   1      37.670  31.213  29.471  1.00  0.00    -0.034 C 
ATOM     74  C   UNL A   1      37.328  34.345  33.382  1.00  0.00    -0.036 A 
ATOM     75  N   UNL A   1      38.898  32.757  33.476  1.00  0.00    -0.354 N 
ATOM     76  C   UNL A   1      39.336  29.876  30.293  1.00  0.00     0.074 A 
ATOM     77  C   UNL A   1      38.367  30.109  29.244  1.00  0.00    -0.034 C 
ATOM     78  H   UNL A   1      36.960  31.669  28.876  1.00  0.00     0.065 H 
ATOM     79  C   UNL A   1      37.962  34.475  34.558  1.00  0.00    -0.036 A 
ATOM     80  H   UNL A   1      36.549  34.937  33.054  1.00  0.00     0.065 H 
ATOM     81  C   UNL A   1      38.971  33.427  34.673  1.00  0.00     0.049 A 
ATOM     82  H   UNL A   1      39.491  32.006  33.241  1.00  0.00     0.167 HD
ATOM     83  C   UNL A   1      40.265  28.889  30.274  1.00  0.00     0.037 A 
ATOM     84  H   UNL A   1      38.235  29.495  28.424  1.00  0.00     0.065 H 
ATOM     85  H   UNL A   1      37.767  35.200  35.267  1.00  0.00     0.065 H 
ATOM     86  C   UNL A   1      39.748  33.211  35.752  1.00  0.00     0.037 A 
ATOM     87  C   UNL A   1      41.226  28.660  31.323  1.00  0.00     0.049 A 
ATOM     88  C   UNL A   1      40.751  32.090  35.723  1.00  0.00     0.074 A 
ATOM     89  C   UNL A   1      42.243  27.723  31.374  1.00  0.00    -0.036 A 
ATOM     90  N   UNL A   1      41.278  29.369  32.516  1.00  0.00    -0.354 N 
ATOM     91  N   UNL A   1      40.992  31.222  34.772  1.00  0.00    -0.248 NA
ATOM     92  C   UNL A   1      41.593  31.924  36.915  1.00  0.00    -0.034 C 
ATOM     93  C   UNL A   1      42.869  27.822  32.621  1.00  0.00    -0.036 A 
ATOM     94  H   UNL A   1      42.496  27.064  30.620  1.00  0.00     0.065 H 
ATOM     95  C   UNL A   1      42.285  28.863  33.325  1.00  0.00     0.049 A 
ATOM     96  H   UNL A   1      40.686  30.118  32.754  1.00  0.00     0.167 HD
ATOM     97  C   UNL A   1      42.022  30.418  35.240  1.00  0.00     0.074 A 
ATOM     98  C   UNL A   1      42.375  30.916  36.554  1.00  0.00    -0.034 C 
ATOM     99  H   UNL A   1      41.579  32.453  37.801  1.00  0.00     0.065 H 
ATOM    100  H   UNL A   1      43.636  27.220  32.959  1.00  0.00     0.065 H 
ATOM    101  C   UNL A   1      42.621  29.361  34.636  1.00  0.00     0.037 A 
ATOM    102  H   UNL A   1      43.139  30.535  37.135  1.00  0.00     0.065 H 
BRANCH  83 103
ATOM    103  C   UNL A   1      40.278  27.977  29.079  1.00  0.00     0.064 A 
ATOM    104  C   UNL A   1      41.019  28.282  27.925  1.00  0.00     0.173 A 
ATOM    105  C   UNL A   1      39.552  26.776  29.089  1.00  0.00     0.173 A 
ATOM    106  F   UNL A   1      41.725  29.420  27.858  1.00  0.00    -0.203 F 
ATOM    107  C   UNL A   1      40.996  27.443  26.814  1.00  0.00     0.198 A 
ATOM    108  C   UNL A   1      39.561  25.922  27.990  1.00  0.00     0.198 A 
ATOM    109  F   UNL A   1      38.835  26.427  30.168  1.00  0.00    -0.203 F 
ATOM    110  F   UNL A   1      41.658  27.789  25.701  1.00  0.00    -0.200 F 
ATOM    111  C   UNL A   1      40.272  26.262  26.849  1.00  0.00     0.200 A 
ATOM    112  F   UNL A   1      38.874  24.771  28.031  1.00  0.00    -0.200 F 
ATOM    113  F   UNL A   1      40.251  25.455  25.779  1.00  0.00    -0.200 F 
ENDBRANCH  83 103
BRANCH  86 114
ATOM    114  C   UNL A   1      39.597  34.080  36.948  1.00  0.00     0.064 A 
ATOM    115  C   UNL A   1      38.797  33.690  38.031  1.00  0.00     0.173 A 
ATOM    116  C   UNL A   1      40.270  35.307  37.043  1.00  0.00     0.173 A 
ATOM    117  F   UNL A   1      38.118  32.535  37.979  1.00  0.00    -0.203 F 
ATOM    118  C   UNL A   1      38.666  34.501  39.157  1.00  0.00     0.198 A 
ATOM    119  C   UNL A   1      40.163  36.102  38.183  1.00  0.00     0.198 A 
ATOM    120  F   UNL A   1      41.054  35.724  36.037  1.00  0.00    -0.203 F 
ATOM    121  F   UNL A   1      37.864  34.121  40.162  1.00  0.00    -0.200 F 
ATOM    122  C   UNL A   1      39.356  35.701  39.236  1.00  0.00     0.200 A 
ATOM    123  F   UNL A   1      40.847  37.251  38.262  1.00  0.00    -0.200 F 
ATOM    124  F   UNL A   1      39.240  36.473  40.325  1.00  0.00    -0.200 F 
ENDBRANCH  86 114
BRANCH 101 125
ATOM    125  C   UNL A   1      43.731  28.678  35.383  1.00  0.00     0.064 A 
ATOM    126  C   UNL A   1      45.074  29.041  35.201  1.00  0.00     0.173 A 
ATOM    127  C   UNL A   1      43.445  27.678  36.326  1.00  0.00     0.173 A 
ATOM    128  F   UNL A   1      45.404  29.980  34.301  1.00  0.00    -0.203 F 
ATOM    129  C   UNL A   1      46.090  28.413  35.918  1.00  0.00     0.198 A 
ATOM    130  C   UNL A   1      44.460  27.076  37.064  1.00  0.00     0.198 A 
ATOM    131  F   UNL A   1      42.177  27.295  36.542  1.00  0.00    -0.203 F 
ATOM    132  F   UNL A   1      47.369  28.743  35.692  1.00  0.00    -0.200 F 
ATOM    133  C   UNL A   1      45.781  27.437  36.854  1.00  0.00     0.200 A 
ATOM    134  F   UNL A   1      44.158  26.144  37.979  1.00  0.00    -0.200 F 
ATOM    135  F   UNL A   1      46.759  26.843  37.551  1.00  0.00    -0.200 F 
ENDBRANCH 101 125
ENDBRANCH  66  69
ENDBRANCH  56  59
ENDBRANCH  52  55
ENDBRANCH  49  52
ENDBRANCH  46  49
ENDBRANCH   1  46
TORSDOF 17
ENDMDL
MODEL 3
REMARK VINA RESULT:     -12.6      0.811      2.795
REMARK SMILES O=C(CNc1nc(-c2ccccc2)c(-c2ccccc2)s1)NCCCCCCNC(=O)c1ccc(-c2c3nc(c(-c4c(F)c(F)c(F)c(F)c4F)c4ccc([nH]4)c(-c4c(F)c(F)c(F)c(F)c4F)c4nc(c(-c5c(F)c(F)c(F)c(F)c5F)c5ccc2[nH]5)C=C4)C=C3)cc1
REMARK SMILES IDX 25 1 24 4 23 7 22 10 1 11 2 12 3 14 4 17 5 19 6 20 21 21
REMARK SMILES IDX 7 22 14 23 8 24 9 25 13 26 10 27 12 29 11 31 15 35 16 36
REMARK SMILES IDX 20 37 17 38 19 40 18 42 26 46 27 49 28 52 29 55 30 56 31 58
REMARK SMILES IDX 32 59 33 60 94 61 34 62 93 64 35 66 36 69 37 70 87 71 38 72
REMARK SMILES IDX 92 73 86 74 88 75 39 76 91 77 85 79 84 81 40 83 72 86 52 87
REMARK SMILES IDX 71 88 53 89 56 90 70 91 89 92 54 93 55 95 69 97 90 98 57 101
REMARK SMILES IDX 41 103 42 104 50 105 43 106 44 107 48 108 51 109 45 110
REMARK SMILES IDX 46 111 49 112 47 113 73 114 74 115 82 116 75 117 76 118
REMARK SMILES IDX 80 119 83 120 77 121 78 122 81 123 79 124 58 125 59 126
REMARK SMILES IDX 67 127 60 128 61 129 65 130 68 131 62 132 63 133 66 134
REMARK SMILES IDX 64 135
REMARK H PARENT 25 2 25 3 24 5 24 6 23 8 23 9 22 13 3 15 3 16 4 18 9 28 13 30
REMARK H PARENT 10 32 12 33 11 34 16 39 20 41 17 43 19 44 18 45 26 47 26 48
REMARK H PARENT 27 50 27 51 28 53 28 54 29 57 33 63 94 65 34 67 93 68 92 78
REMARK H PARENT 86 80 88 82 91 84 85 85 53 94 56 96 89 99 54 100 90 102
REMARK Flexibility Score: inf
ROOT
ATOM      1  C   UNL A   1      32.897  29.851  27.034  1.00  0.00    -0.052 C 
ATOM      2  H   UNL A   1      33.850  30.256  26.765  1.00  0.00     0.027 H 
ATOM      3  H   UNL A   1      32.651  29.976  28.068  1.00  0.00     0.027 H 
ENDROOT
BRANCH   1   4
ATOM      4  C   UNL A   1      32.943  28.335  26.792  1.00  0.00    -0.036 C 
ATOM      5  H   UNL A   1      33.241  28.168  25.778  1.00  0.00     0.028 H 
ATOM      6  H   UNL A   1      33.633  27.938  27.506  1.00  0.00     0.028 H 
BRANCH   4   7
ATOM      7  C   UNL A   1      31.618  27.611  27.024  1.00  0.00     0.017 C 
ATOM      8  H   UNL A   1      31.812  26.681  27.514  1.00  0.00     0.049 H 
ATOM      9  H   UNL A   1      30.994  28.239  27.626  1.00  0.00     0.049 H 
BRANCH   7  10
ATOM     10  N   UNL A   1      30.926  27.350  25.781  1.00  0.00    -0.355 N 
ATOM     11  O   UNL A   1      29.895  25.389  26.411  1.00  0.00    -0.273 OA
ATOM     12  C   UNL A   1      30.109  26.253  25.568  1.00  0.00     0.239 C 
ATOM     13  H   UNL A   1      31.043  27.989  25.042  1.00  0.00     0.163 HD
BRANCH  12  14
ATOM     14  C   UNL A   1      29.524  26.205  24.145  1.00  0.00     0.096 C 
ATOM     15  H   UNL A   1      29.120  27.163  23.892  1.00  0.00     0.059 H 
ATOM     16  H   UNL A   1      28.747  25.471  24.101  1.00  0.00     0.059 H 
BRANCH  14  17
ATOM     17  N   UNL A   1      30.581  25.858  23.203  1.00  0.00    -0.352 N 
ATOM     18  H   UNL A   1      30.630  26.338  22.345  1.00  0.00     0.163 HD
BRANCH  17  19
ATOM     19  C   UNL A   1      31.488  24.904  23.470  1.00  0.00     0.184 A 
ATOM     20  N   UNL A   1      31.238  23.627  23.632  1.00  0.00    -0.220 NA
ATOM     21  S   UNL A   1      33.135  25.359  23.664  1.00  0.00    -0.096 S 
ATOM     22  C   UNL A   1      32.408  22.951  23.944  1.00  0.00     0.091 A 
ATOM     23  C   UNL A   1      33.540  23.743  24.065  1.00  0.00     0.064 A 
BRANCH  22  24
ATOM     24  C   UNL A   1      32.430  21.503  24.095  1.00  0.00     0.002 A 
ATOM     25  C   UNL A   1      32.703  20.909  25.333  1.00  0.00    -0.053 A 
ATOM     26  C   UNL A   1      32.262  20.693  22.965  1.00  0.00    -0.053 A 
ATOM     27  C   UNL A   1      32.847  19.523  25.432  1.00  0.00    -0.062 A 
ATOM     28  H   UNL A   1      32.799  21.497  26.175  1.00  0.00     0.063 H 
ATOM     29  C   UNL A   1      32.410  19.308  23.066  1.00  0.00    -0.062 A 
ATOM     30  H   UNL A   1      32.028  21.120  22.055  1.00  0.00     0.063 H 
ATOM     31  C   UNL A   1      32.711  18.725  24.296  1.00  0.00    -0.062 A 
ATOM     32  H   UNL A   1      33.053  19.090  26.345  1.00  0.00     0.062 H 
ATOM     33  H   UNL A   1      32.298  18.715  22.229  1.00  0.00     0.062 H 
ATOM     34  H   UNL A   1      32.832  17.703  24.367  1.00  0.00     0.062 H 
ENDBRANCH  22  24
BRANCH  23  35
ATOM     35  C   UNL A   1      34.919  23.404  24.413  1.00  0.00    -0.006 A 
ATOM     36  C   UNL A   1      35.506  23.927  25.575  1.00  0.00    -0.053 A 
ATOM     37  C   UNL A   1      35.654  22.509  23.625  1.00  0.00    -0.053 A 
ATOM     38  C   UNL A   1      36.801  23.559  25.941  1.00  0.00    -0.062 A 
ATOM     39  H   UNL A   1      34.975  24.590  26.162  1.00  0.00     0.063 H 
ATOM     40  C   UNL A   1      36.950  22.141  23.994  1.00  0.00    -0.062 A 
ATOM     41  H   UNL A   1      35.235  22.119  22.766  1.00  0.00     0.063 H 
ATOM     42  C   UNL A   1      37.521  22.665  25.151  1.00  0.00    -0.062 A 
ATOM     43  H   UNL A   1      37.226  23.950  26.798  1.00  0.00     0.062 H 
ATOM     44  H   UNL A   1      37.484  21.480  23.409  1.00  0.00     0.062 H 
ATOM     45  H   UNL A   1      38.478  22.392  25.424  1.00  0.00     0.062 H 
ENDBRANCH  23  35
ENDBRANCH  17  19
ENDBRANCH  14  17
ENDBRANCH  12  14
ENDBRANCH   7  10
ENDBRANCH   4   7
ENDBRANCH   1   4
BRANCH   1  46
ATOM     46  C   UNL A   1      31.822  30.614  26.252  1.00  0.00    -0.052 C 
ATOM     47  H   UNL A   1      30.912  30.055  26.312  1.00  0.00     0.027 H 
ATOM     48  H   UNL A   1      32.199  30.715  25.255  1.00  0.00     0.027 H 
BRANCH  46  49
ATOM     49  C   UNL A   1      31.539  32.035  26.742  1.00  0.00    -0.036 C 
ATOM     50  H   UNL A   1      30.765  31.983  27.481  1.00  0.00     0.028 H 
ATOM     51  H   UNL A   1      31.263  32.599  25.876  1.00  0.00     0.028 H 
BRANCH  49  52
ATOM     52  C   UNL A   1      32.732  32.758  27.359  1.00  0.00     0.018 C 
ATOM     53  H   UNL A   1      33.548  32.726  26.667  1.00  0.00     0.049 H 
ATOM     54  H   UNL A   1      32.974  32.262  28.276  1.00  0.00     0.049 H 
BRANCH  52  55
ATOM     55  N   UNL A   1      32.443  34.150  27.673  1.00  0.00    -0.352 N 
ATOM     56  C   UNL A   1      33.009  34.974  28.615  1.00  0.00     0.251 C 
ATOM     57  H   UNL A   1      31.735  34.563  27.129  1.00  0.00     0.163 HD
ATOM     58  O   UNL A   1      32.517  36.076  28.848  1.00  0.00    -0.269 OA
BRANCH  56  59
ATOM     59  C   UNL A   1      34.195  34.527  29.378  1.00  0.00     0.039 A 
ATOM     60  C   UNL A   1      34.013  33.992  30.656  1.00  0.00    -0.049 A 
ATOM     61  C   UNL A   1      35.480  34.626  28.837  1.00  0.00    -0.049 A 
ATOM     62  C   UNL A   1      35.107  33.477  31.355  1.00  0.00    -0.053 A 
ATOM     63  H   UNL A   1      33.073  33.976  31.082  1.00  0.00     0.063 H 
ATOM     64  C   UNL A   1      36.558  34.048  29.504  1.00  0.00    -0.053 A 
ATOM     65  H   UNL A   1      35.629  35.126  27.947  1.00  0.00     0.063 H 
ATOM     66  C   UNL A   1      36.381  33.456  30.764  1.00  0.00    -0.014 A 
ATOM     67  H   UNL A   1      34.980  33.112  32.312  1.00  0.00     0.063 H 
ATOM     68  H   UNL A   1      37.494  34.054  29.067  1.00  0.00     0.063 H 
BRANCH  66  69
ATOM     69  C   UNL A   1      37.526  32.779  31.426  1.00  0.00     0.031 A 
ATOM     70  C   UNL A   1      38.177  31.582  30.796  1.00  0.00     0.074 A 
ATOM     71  C   UNL A   1      37.926  33.198  32.643  1.00  0.00     0.049 A 
ATOM     72  N   UNL A   1      39.130  30.815  31.263  1.00  0.00    -0.248 NA
ATOM     73  C   UNL A   1      37.672  31.177  29.476  1.00  0.00    -0.034 C 
ATOM     74  C   UNL A   1      37.338  34.314  33.385  1.00  0.00    -0.036 A 
ATOM     75  N   UNL A   1      38.904  32.722  33.480  1.00  0.00    -0.354 N 
ATOM     76  C   UNL A   1      39.335  29.838  30.299  1.00  0.00     0.074 A 
ATOM     77  C   UNL A   1      38.366  30.072  29.250  1.00  0.00    -0.034 C 
ATOM     78  H   UNL A   1      36.963  31.634  28.881  1.00  0.00     0.065 H 
ATOM     79  C   UNL A   1      37.972  34.443  34.560  1.00  0.00    -0.036 A 
ATOM     80  H   UNL A   1      36.560  34.907  33.057  1.00  0.00     0.065 H 
ATOM     81  C   UNL A   1      38.979  33.393  34.676  1.00  0.00     0.049 A 
ATOM     82  H   UNL A   1      39.496  31.970  33.245  1.00  0.00     0.167 HD
ATOM     83  C   UNL A   1      40.263  28.849  30.280  1.00  0.00     0.037 A 
ATOM     84  H   UNL A   1      38.233  29.458  28.430  1.00  0.00     0.065 H 
ATOM     85  H   UNL A   1      37.779  35.169  35.269  1.00  0.00     0.065 H 
ATOM     86  C   UNL A   1      39.756  33.176  35.754  1.00  0.00     0.037 A 
ATOM     87  C   UNL A   1      41.223  28.619  31.329  1.00  0.00     0.049 A 
ATOM     88  C   UNL A   1      40.757  32.053  35.727  1.00  0.00     0.074 A 
ATOM     89  C   UNL A   1      42.238  27.680  31.380  1.00  0.00    -0.036 A 
ATOM     90  N   UNL A   1      41.277  29.328  32.521  1.00  0.00    -0.354 N 
ATOM     91  N   UNL A   1      40.996  31.184  34.775  1.00  0.00    -0.248 NA
ATOM     92  C   UNL A   1      41.599  31.886  36.918  1.00  0.00    -0.034 C 
ATOM     93  C   UNL A   1      42.865  27.778  32.627  1.00  0.00    -0.036 A 
ATOM     94  H   UNL A   1      42.489  27.020  30.627  1.00  0.00     0.065 H 
ATOM     95  C   UNL A   1      42.284  28.821  33.330  1.00  0.00     0.049 A 
ATOM     96  H   UNL A   1      40.687  30.079  32.759  1.00  0.00     0.167 HD
ATOM     97  C   UNL A   1      42.025  30.378  35.244  1.00  0.00     0.074 A 
ATOM     98  C   UNL A   1      42.379  30.877  36.558  1.00  0.00    -0.034 C 
ATOM     99  H   UNL A   1      41.586  32.416  37.804  1.00  0.00     0.065 H 
ATOM    100  H   UNL A   1      43.631  27.175  32.966  1.00  0.00     0.065 H 
ATOM    101  C   UNL A   1      42.621  29.319  34.641  1.00  0.00     0.037 A 
ATOM    102  H   UNL A   1      43.142  30.494  37.138  1.00  0.00     0.065 H 
BRANCH  83 103
ATOM    103  C   UNL A   1      40.273  27.936  29.085  1.00  0.00     0.064 A 
ATOM    104  C   UNL A   1      40.994  28.250  27.922  1.00  0.00     0.173 A 
ATOM    105  C   UNL A   1      39.565  26.725  29.106  1.00  0.00     0.173 A 
ATOM    106  F   UNL A   1      41.683  29.398  27.845  1.00  0.00    -0.203 F 
ATOM    107  C   UNL A   1      40.970  27.410  26.812  1.00  0.00     0.198 A 
ATOM    108  C   UNL A   1      39.573  25.869  28.008  1.00  0.00     0.198 A 
ATOM    109  F   UNL A   1      38.867  26.366  30.195  1.00  0.00    -0.203 F 
ATOM    110  F   UNL A   1      41.612  27.764  25.691  1.00  0.00    -0.200 F 
ATOM    111  C   UNL A   1      40.263  26.218  26.857  1.00  0.00     0.200 A 
ATOM    112  F   UNL A   1      38.902  24.708  28.059  1.00  0.00    -0.200 F 
ATOM    113  F   UNL A   1      40.240  25.410  25.789  1.00  0.00    -0.200 F 
ENDBRANCH  83 103
BRANCH  86 114
ATOM    114  C   UNL A   1      39.608  34.046  36.950  1.00  0.00     0.064 A 
ATOM    115  C   UNL A   1      40.226  35.302  37.014  1.00  0.00     0.173 A 
ATOM    116  C   UNL A   1      38.825  33.648  38.045  1.00  0.00     0.173 A 
ATOM    117  F   UNL A   1      41.000  35.718  36.001  1.00  0.00    -0.203 F 
ATOM    118  C   UNL A   1      40.077  36.121  38.132  1.00  0.00     0.198 A 
ATOM    119  C   UNL A   1      38.652  34.482  39.148  1.00  0.00     0.198 A 
ATOM    120  F   UNL A   1      38.207  32.458  38.032  1.00  0.00    -0.203 F 
ATOM    121  F   UNL A   1      40.711  37.302  38.182  1.00  0.00    -0.200 F 
ATOM    122  C   UNL A   1      39.283  35.715  39.193  1.00  0.00     0.200 A 
ATOM    123  F   UNL A   1      37.869  34.092  40.162  1.00  0.00    -0.200 F 
ATOM    124  F   UNL A   1      39.130  36.509  40.261  1.00  0.00    -0.200 F 
ENDBRANCH  86 114
BRANCH 101 125
ATOM    125  C   UNL A   1      43.730  28.635  35.388  1.00  0.00     0.064 A 
ATOM    126  C   UNL A   1      45.071  29.017  35.229  1.00  0.00     0.173 A 
ATOM    127  C   UNL A   1      43.444  27.614  36.308  1.00  0.00     0.173 A 
ATOM    128  F   UNL A   1      45.400  29.975  34.351  1.00  0.00    -0.203 F 
ATOM    129  C   UNL A   1      46.085  28.386  35.946  1.00  0.00     0.198 A 
ATOM    130  C   UNL A   1      44.457  27.009  37.047  1.00  0.00     0.198 A 
ATOM    131  F   UNL A   1      42.179  27.213  36.502  1.00  0.00    -0.203 F 
ATOM    132  F   UNL A   1      47.363  28.735  35.742  1.00  0.00    -0.200 F 
ATOM    133  C   UNL A   1      45.777  27.389  36.860  1.00  0.00     0.200 A 
ATOM    134  F   UNL A   1      44.155  26.057  37.941  1.00  0.00    -0.200 F 
ATOM    135  F   UNL A   1      46.753  26.792  37.557  1.00  0.00    -0.200 F 
ENDBRANCH 101 125
ENDBRANCH  66  69
ENDBRANCH  56  59
ENDBRANCH  52  55
ENDBRANCH  49  52
ENDBRANCH  46  49
ENDBRANCH   1  46
TORSDOF 17
ENDMDL
MODEL 4
REMARK VINA RESULT:     -12.4      5.729     11.234
REMARK SMILES O=C(CNc1nc(-c2ccccc2)c(-c2ccccc2)s1)NCCCCCCNC(=O)c1ccc(-c2c3nc(c(-c4c(F)c(F)c(F)c(F)c4F)c4ccc([nH]4)c(-c4c(F)c(F)c(F)c(F)c4F)c4nc(c(-c5c(F)c(F)c(F)c(F)c5F)c5ccc2[nH]5)C=C4)C=C3)cc1
REMARK SMILES IDX 25 1 24 4 23 7 22 10 1 11 2 12 3 14 4 17 5 19 6 20 21 21
REMARK SMILES IDX 7 22 14 23 8 24 9 25 13 26 10 27 12 29 11 31 15 35 16 36
REMARK SMILES IDX 20 37 17 38 19 40 18 42 26 46 27 49 28 52 29 55 30 56 31 58
REMARK SMILES IDX 32 59 33 60 94 61 34 62 93 64 35 66 36 69 37 70 87 71 38 72
REMARK SMILES IDX 92 73 86 74 88 75 39 76 91 77 85 79 84 81 40 83 72 86 52 87
REMARK SMILES IDX 71 88 53 89 56 90 70 91 89 92 54 93 55 95 69 97 90 98 57 101
REMARK SMILES IDX 41 103 42 104 50 105 43 106 44 107 48 108 51 109 45 110
REMARK SMILES IDX 46 111 49 112 47 113 73 114 74 115 82 116 75 117 76 118
REMARK SMILES IDX 80 119 83 120 77 121 78 122 81 123 79 124 58 125 59 126
REMARK SMILES IDX 67 127 60 128 61 129 65 130 68 131 62 132 63 133 66 134
REMARK SMILES IDX 64 135
REMARK H PARENT 25 2 25 3 24 5 24 6 23 8 23 9 22 13 3 15 3 16 4 18 9 28 13 30
REMARK H PARENT 10 32 12 33 11 34 16 39 20 41 17 43 19 44 18 45 26 47 26 48
REMARK H PARENT 27 50 27 51 28 53 28 54 29 57 33 63 94 65 34 67 93 68 92 78
REMARK H PARENT 86 80 88 82 91 84 85 85 53 94 56 96 89 99 54 100 90 102
REMARK Flexibility Score: inf
ROOT
ATOM      1  C   UNL A   1      37.587  22.438  25.348  1.00  0.00    -0.052 C 
ATOM      2  H   UNL A   1      38.349  22.212  26.065  1.00  0.00     0.027 H 
ATOM      3  H   UNL A   1      37.874  23.181  24.633  1.00  0.00     0.027 H 
ENDROOT
BRANCH   1   4
ATOM      4  C   UNL A   1      36.386  23.025  26.104  1.00  0.00    -0.036 C 
ATOM      5  H   UNL A   1      36.682  23.194  27.119  1.00  0.00     0.028 H 
ATOM      6  H   UNL A   1      36.115  23.922  25.588  1.00  0.00     0.028 H 
BRANCH   4   7
ATOM      7  C   UNL A   1      35.142  22.139  26.113  1.00  0.00     0.017 C 
ATOM      8  H   UNL A   1      35.439  21.122  25.973  1.00  0.00     0.049 H 
ATOM      9  H   UNL A   1      34.646  22.268  27.054  1.00  0.00     0.049 H 
BRANCH   7  10
ATOM     10  N   UNL A   1      34.216  22.505  25.064  1.00  0.00    -0.355 N 
ATOM     11  O   UNL A   1      33.710  20.376  24.346  1.00  0.00    -0.273 OA
ATOM     12  C   UNL A   1      33.564  21.591  24.257  1.00  0.00     0.239 C 
ATOM     13  H   UNL A   1      34.040  23.462  24.915  1.00  0.00     0.163 HD
BRANCH  12  14
ATOM     14  C   UNL A   1      32.660  22.255  23.203  1.00  0.00     0.096 C 
ATOM     15  H   UNL A   1      31.692  22.433  23.622  1.00  0.00     0.059 H 
ATOM     16  H   UNL A   1      32.565  21.610  22.354  1.00  0.00     0.059 H 
BRANCH  14  17
ATOM     17  N   UNL A   1      33.253  23.521  22.791  1.00  0.00    -0.352 N 
ATOM     18  H   UNL A   1      34.060  23.508  22.227  1.00  0.00     0.163 HD
BRANCH  17  19
ATOM     19  C   UNL A   1      32.731  24.704  23.157  1.00  0.00     0.184 A 
ATOM     20  N   UNL A   1      33.010  25.361  24.257  1.00  0.00    -0.220 NA
ATOM     21  S   UNL A   1      31.559  25.443  22.139  1.00  0.00    -0.096 S 
ATOM     22  C   UNL A   1      32.248  26.517  24.325  1.00  0.00     0.091 A 
ATOM     23  C   UNL A   1      31.351  26.702  23.283  1.00  0.00     0.064 A 
BRANCH  22  24
ATOM     24  C   UNL A   1      32.419  27.476  25.407  1.00  0.00     0.002 A 
ATOM     25  C   UNL A   1      31.529  27.513  26.487  1.00  0.00    -0.053 A 
ATOM     26  C   UNL A   1      33.437  28.434  25.321  1.00  0.00    -0.053 A 
ATOM     27  C   UNL A   1      31.632  28.521  27.450  1.00  0.00    -0.062 A 
ATOM     28  H   UNL A   1      30.794  26.794  26.574  1.00  0.00     0.063 H 
ATOM     29  C   UNL A   1      33.536  29.442  26.282  1.00  0.00    -0.062 A 
ATOM     30  H   UNL A   1      34.117  28.393  24.546  1.00  0.00     0.063 H 
ATOM     31  C   UNL A   1      32.629  29.490  27.340  1.00  0.00    -0.062 A 
ATOM     32  H   UNL A   1      30.972  28.548  28.242  1.00  0.00     0.062 H 
ATOM     33  H   UNL A   1      34.280  30.154  26.208  1.00  0.00     0.062 H 
ATOM     34  H   UNL A   1      32.695  30.243  28.042  1.00  0.00     0.062 H 
ENDBRANCH  22  24
BRANCH  23  35
ATOM     35  C   UNL A   1      30.372  27.758  23.032  1.00  0.00    -0.006 A 
ATOM     36  C   UNL A   1      30.759  28.949  22.401  1.00  0.00    -0.053 A 
ATOM     37  C   UNL A   1      29.024  27.573  23.365  1.00  0.00    -0.053 A 
ATOM     38  C   UNL A   1      29.815  29.934  22.107  1.00  0.00    -0.062 A 
ATOM     39  H   UNL A   1      31.750  29.098  22.153  1.00  0.00     0.063 H 
ATOM     40  C   UNL A   1      28.080  28.559  23.069  1.00  0.00    -0.062 A 
ATOM     41  H   UNL A   1      28.726  26.702  23.831  1.00  0.00     0.063 H 
ATOM     42  C   UNL A   1      28.476  29.737  22.439  1.00  0.00    -0.062 A 
ATOM     43  H   UNL A   1      30.109  30.809  21.643  1.00  0.00     0.062 H 
ATOM     44  H   UNL A   1      27.088  28.415  23.315  1.00  0.00     0.062 H 
ATOM     45  H   UNL A   1      27.778  30.465  22.220  1.00  0.00     0.062 H 
ENDBRANCH  23  35
ENDBRANCH  17  19
ENDBRANCH  14  17
ENDBRANCH  12  14
ENDBRANCH   7  10
ENDBRANCH   4   7
ENDBRANCH   1   4
BRANCH   1  46
ATOM     46  C   UNL A   1      37.305  21.167  24.542  1.00  0.00    -0.052 C 
ATOM     47  H   UNL A   1      37.539  21.367  23.517  1.00  0.00     0.027 H 
ATOM     48  H   UNL A   1      36.273  20.935  24.709  1.00  0.00     0.027 H 
BRANCH  46  49
ATOM     49  C   UNL A   1      38.091  19.928  24.973  1.00  0.00    -0.036 C 
ATOM     50  H   UNL A   1      38.495  19.469  24.095  1.00  0.00     0.028 H 
ATOM     51  H   UNL A   1      37.399  19.304  25.499  1.00  0.00     0.028 H 
BRANCH  49  52
ATOM     52  C   UNL A   1      39.242  20.194  25.939  1.00  0.00     0.018 C 
ATOM     53  H   UNL A   1      38.843  20.297  26.927  1.00  0.00     0.049 H 
ATOM     54  H   UNL A   1      39.735  21.088  25.618  1.00  0.00     0.049 H 
BRANCH  52  55
ATOM     55  N   UNL A   1      40.229  19.123  25.944  1.00  0.00    -0.352 N 
ATOM     56  C   UNL A   1      41.594  19.188  26.078  1.00  0.00     0.251 C 
ATOM     57  H   UNL A   1      39.862  18.216  25.834  1.00  0.00     0.163 HD
ATOM     58  O   UNL A   1      42.281  18.186  25.889  1.00  0.00    -0.269 OA
BRANCH  56  59
ATOM     59  C   UNL A   1      42.248  20.470  26.418  1.00  0.00     0.039 A 
ATOM     60  C   UNL A   1      42.805  21.236  25.391  1.00  0.00    -0.049 A 
ATOM     61  C   UNL A   1      42.308  20.921  27.739  1.00  0.00    -0.049 A 
ATOM     62  C   UNL A   1      43.344  22.493  25.677  1.00  0.00    -0.053 A 
ATOM     63  H   UNL A   1      42.819  20.875  24.424  1.00  0.00     0.063 H 
ATOM     64  C   UNL A   1      42.779  22.203  28.012  1.00  0.00    -0.053 A 
ATOM     65  H   UNL A   1      42.003  20.306  28.510  1.00  0.00     0.063 H 
ATOM     66  C   UNL A   1      43.290  23.007  26.982  1.00  0.00    -0.014 A 
ATOM     67  H   UNL A   1      43.785  23.045  24.925  1.00  0.00     0.063 H 
ATOM     68  H   UNL A   1      42.751  22.564  28.979  1.00  0.00     0.063 H 
BRANCH  66  69
ATOM     69  C   UNL A   1      43.719  24.399  27.279  1.00  0.00     0.031 A 
ATOM     70  C   UNL A   1      42.729  25.420  27.759  1.00  0.00     0.074 A 
ATOM     71  C   UNL A   1      44.993  24.763  27.035  1.00  0.00     0.049 A 
ATOM     72  N   UNL A   1      42.901  26.698  27.989  1.00  0.00    -0.248 NA
ATOM     73  C   UNL A   1      41.354  24.948  27.984  1.00  0.00    -0.034 C 
ATOM     74  C   UNL A   1      46.037  23.878  26.516  1.00  0.00    -0.036 A 
ATOM     75  N   UNL A   1      45.622  25.976  27.169  1.00  0.00    -0.354 N 
ATOM     76  C   UNL A   1      41.660  27.181  28.383  1.00  0.00     0.074 A 
ATOM     77  C   UNL A   1      40.732  26.074  28.300  1.00  0.00    -0.034 C 
ATOM     78  H   UNL A   1      40.974  23.991  27.916  1.00  0.00     0.065 H 
ATOM     79  C   UNL A   1      47.177  24.574  26.385  1.00  0.00    -0.036 A 
ATOM     80  H   UNL A   1      45.916  22.879  26.287  1.00  0.00     0.065 H 
ATOM     81  C   UNL A   1      46.935  25.962  26.766  1.00  0.00     0.049 A 
ATOM     82  H   UNL A   1      45.174  26.780  27.520  1.00  0.00     0.167 HD
ATOM     83  C   UNL A   1      41.331  28.429  28.797  1.00  0.00     0.037 A 
ATOM     84  H   UNL A   1      39.715  26.151  28.465  1.00  0.00     0.065 H 
ATOM     85  H   UNL A   1      48.080  24.188  26.066  1.00  0.00     0.065 H 
ATOM     86  C   UNL A   1      47.839  26.957  26.690  1.00  0.00     0.037 A 
ATOM     87  C   UNL A   1      42.260  29.529  28.875  1.00  0.00     0.049 A 
ATOM     88  C   UNL A   1      47.445  28.343  27.125  1.00  0.00     0.074 A 
ATOM     89  C   UNL A   1      42.039  30.815  29.333  1.00  0.00    -0.036 A 
ATOM     90  N   UNL A   1      43.587  29.473  28.469  1.00  0.00    -0.354 N 
ATOM     91  N   UNL A   1      46.289  28.771  27.570  1.00  0.00    -0.248 NA
ATOM     92  C   UNL A   1      48.482  29.381  27.051  1.00  0.00    -0.034 C 
ATOM     93  C   UNL A   1      43.211  31.556  29.146  1.00  0.00    -0.036 A 
ATOM     94  H   UNL A   1      41.159  31.169  29.742  1.00  0.00     0.065 H 
ATOM     95  C   UNL A   1      44.185  30.714  28.632  1.00  0.00     0.049 A 
ATOM     96  H   UNL A   1      44.037  28.671  28.117  1.00  0.00     0.167 HD
ATOM     97  C   UNL A   1      46.462  30.121  27.846  1.00  0.00     0.074 A 
ATOM     98  C   UNL A   1      47.842  30.435  27.538  1.00  0.00    -0.034 C 
ATOM     99  H   UNL A   1      49.453  29.307  26.711  1.00  0.00     0.065 H 
ATOM    100  H   UNL A   1      43.330  32.559  29.356  1.00  0.00     0.065 H 
ATOM    101  C   UNL A   1      45.558  31.018  28.311  1.00  0.00     0.037 A 
ATOM    102  H   UNL A   1      48.273  31.363  27.679  1.00  0.00     0.065 H 
BRANCH  83 103
ATOM    103  C   UNL A   1      39.900  28.671  29.189  1.00  0.00     0.064 A 
ATOM    104  C   UNL A   1      38.947  29.124  28.263  1.00  0.00     0.173 A 
ATOM    105  C   UNL A   1      39.470  28.433  30.503  1.00  0.00     0.173 A 
ATOM    106  F   UNL A   1      39.305  29.373  26.994  1.00  0.00    -0.203 F 
ATOM    107  C   UNL A   1      37.632  29.372  28.647  1.00  0.00     0.198 A 
ATOM    108  C   UNL A   1      38.145  28.648  30.876  1.00  0.00     0.198 A 
ATOM    109  F   UNL A   1      40.333  27.989  31.430  1.00  0.00    -0.203 F 
ATOM    110  F   UNL A   1      36.759  29.868  27.760  1.00  0.00    -0.200 F 
ATOM    111  C   UNL A   1      37.231  29.130  29.951  1.00  0.00     0.200 A 
ATOM    112  F   UNL A   1      37.755  28.397  32.134  1.00  0.00    -0.200 F 
ATOM    113  F   UNL A   1      35.966  29.369  30.321  1.00  0.00    -0.200 F 
ENDBRANCH  83 103
BRANCH  86 114
ATOM    114  C   UNL A   1      49.204  26.670  26.178  1.00  0.00     0.064 A 
ATOM    115  C   UNL A   1      49.552  26.945  24.848  1.00  0.00     0.173 A 
ATOM    116  C   UNL A   1      50.196  26.136  27.015  1.00  0.00     0.173 A 
ATOM    117  F   UNL A   1      48.633  27.437  24.005  1.00  0.00    -0.203 F 
ATOM    118  C   UNL A   1      50.836  26.685  24.372  1.00  0.00     0.198 A 
ATOM    119  C   UNL A   1      51.487  25.906  26.545  1.00  0.00     0.198 A 
ATOM    120  F   UNL A   1      49.916  25.860  28.297  1.00  0.00    -0.203 F 
ATOM    121  F   UNL A   1      51.130  26.922  23.086  1.00  0.00    -0.200 F 
ATOM    122  C   UNL A   1      51.804  26.175  25.223  1.00  0.00     0.200 A 
ATOM    123  F   UNL A   1      52.424  25.431  27.377  1.00  0.00    -0.200 F 
ATOM    124  F   UNL A   1      53.042  25.939  24.768  1.00  0.00    -0.200 F 
ENDBRANCH  86 114
BRANCH 101 125
ATOM    125  C   UNL A   1      46.034  32.426  28.531  1.00  0.00     0.064 A 
ATOM    126  C   UNL A   1      46.609  32.829  29.746  1.00  0.00     0.173 A 
ATOM    127  C   UNL A   1      45.956  33.373  27.498  1.00  0.00     0.173 A 
ATOM    128  F   UNL A   1      46.693  31.967  30.771  1.00  0.00    -0.203 F 
ATOM    129  C   UNL A   1      47.065  34.132  29.926  1.00  0.00     0.198 A 
ATOM    130  C   UNL A   1      46.444  34.666  27.670  1.00  0.00     0.198 A 
ATOM    131  F   UNL A   1      45.420  33.040  26.314  1.00  0.00    -0.203 F 
ATOM    132  F   UNL A   1      47.566  34.506  31.111  1.00  0.00    -0.200 F 
ATOM    133  C   UNL A   1      46.991  35.047  28.886  1.00  0.00     0.200 A 
ATOM    134  F   UNL A   1      46.385  35.543  26.659  1.00  0.00    -0.200 F 
ATOM    135  F   UNL A   1      47.442  36.296  29.057  1.00  0.00    -0.200 F 
ENDBRANCH 101 125
ENDBRANCH  66  69
ENDBRANCH  56  59
ENDBRANCH  52  55
ENDBRANCH  49  52
ENDBRANCH  46  49
ENDBRANCH   1  46
TORSDOF 17
ENDMDL
MODEL 5
REMARK VINA RESULT:     -12.4      5.721     11.292
REMARK SMILES O=C(CNc1nc(-c2ccccc2)c(-c2ccccc2)s1)NCCCCCCNC(=O)c1ccc(-c2c3nc(c(-c4c(F)c(F)c(F)c(F)c4F)c4ccc([nH]4)c(-c4c(F)c(F)c(F)c(F)c4F)c4nc(c(-c5c(F)c(F)c(F)c(F)c5F)c5ccc2[nH]5)C=C4)C=C3)cc1
REMARK SMILES IDX 25 1 24 4 23 7 22 10 1 11 2 12 3 14 4 17 5 19 6 20 21 21
REMARK SMILES IDX 7 22 14 23 8 24 9 25 13 26 10 27 12 29 11 31 15 35 16 36
REMARK SMILES IDX 20 37 17 38 19 40 18 42 26 46 27 49 28 52 29 55 30 56 31 58
REMARK SMILES IDX 32 59 33 60 94 61 34 62 93 64 35 66 36 69 37 70 87 71 38 72
REMARK SMILES IDX 92 73 86 74 88 75 39 76 91 77 85 79 84 81 40 83 72 86 52 87
REMARK SMILES IDX 71 88 53 89 56 90 70 91 89 92 54 93 55 95 69 97 90 98 57 101
REMARK SMILES IDX 41 103 42 104 50 105 43 106 44 107 48 108 51 109 45 110
REMARK SMILES IDX 46 111 49 112 47 113 73 114 74 115 82 116 75 117 76 118
REMARK SMILES IDX 80 119 83 120 77 121 78 122 81 123 79 124 58 125 59 126
REMARK SMILES IDX 67 127 60 128 61 129 65 130 68 131 62 132 63 133 66 134
REMARK SMILES IDX 64 135
REMARK H PARENT 25 2 25 3 24 5 24 6 23 8 23 9 22 13 3 15 3 16 4 18 9 28 13 30
REMARK H PARENT 10 32 12 33 11 34 16 39 20 41 17 43 19 44 18 45 26 47 26 48
REMARK H PARENT 27 50 27 51 28 53 28 54 29 57 33 63 94 65 34 67 93 68 92 78
REMARK H PARENT 86 80 88 82 91 84 85 85 53 94 56 96 89 99 54 100 90 102
REMARK Flexibility Score: inf
ROOT
ATOM      1  C   UNL A   1      36.912  22.013  25.708  1.00  0.00    -0.052 C 
ATOM      2  H   UNL A   1      37.500  21.752  26.562  1.00  0.00     0.027 H 
ATOM      3  H   UNL A   1      37.132  22.983  25.312  1.00  0.00     0.027 H 
ENDROOT
BRANCH   1   4
ATOM      4  C   UNL A   1      35.440  22.062  26.143  1.00  0.00    -0.036 C 
ATOM      5  H   UNL A   1      35.366  21.623  27.116  1.00  0.00     0.028 H 
ATOM      6  H   UNL A   1      35.154  23.092  26.121  1.00  0.00     0.028 H 
BRANCH   4   7
ATOM      7  C   UNL A   1      34.474  21.326  25.215  1.00  0.00     0.017 C 
ATOM      8  H   UNL A   1      34.963  20.459  24.823  1.00  0.00     0.049 H 
ATOM      9  H   UNL A   1      33.608  21.053  25.783  1.00  0.00     0.049 H 
BRANCH   7  10
ATOM     10  N   UNL A   1      34.046  22.161  24.116  1.00  0.00    -0.355 N 
ATOM     11  O   UNL A   1      32.185  20.945  23.514  1.00  0.00    -0.273 OA
ATOM     12  C   UNL A   1      32.925  21.908  23.345  1.00  0.00     0.239 C 
ATOM     13  H   UNL A   1      34.585  22.957  23.901  1.00  0.00     0.163 HD
BRANCH  12  14
ATOM     14  C   UNL A   1      32.721  22.940  22.222  1.00  0.00     0.096 C 
ATOM     15  H   UNL A   1      31.678  23.160  22.123  1.00  0.00     0.059 H 
ATOM     16  H   UNL A   1      33.087  22.543  21.298  1.00  0.00     0.059 H 
BRANCH  14  17
ATOM     17  N   UNL A   1      33.447  24.160  22.553  1.00  0.00    -0.352 N 
ATOM     18  H   UNL A   1      34.430  24.153  22.516  1.00  0.00     0.163 HD
BRANCH  17  19
ATOM     19  C   UNL A   1      32.815  25.292  22.904  1.00  0.00     0.184 A 
ATOM     20  N   UNL A   1      33.013  25.973  24.007  1.00  0.00    -0.220 NA
ATOM     21  S   UNL A   1      31.600  25.921  21.862  1.00  0.00    -0.096 S 
ATOM     22  C   UNL A   1      32.149  27.057  24.057  1.00  0.00     0.091 A 
ATOM     23  C   UNL A   1      31.259  27.159  22.998  1.00  0.00     0.064 A 
BRANCH  22  24
ATOM     24  C   UNL A   1      32.213  28.029  25.138  1.00  0.00     0.002 A 
ATOM     25  C   UNL A   1      32.941  29.218  24.999  1.00  0.00    -0.053 A 
ATOM     26  C   UNL A   1      31.612  27.730  26.367  1.00  0.00    -0.053 A 
ATOM     27  C   UNL A   1      33.098  30.078  26.089  1.00  0.00    -0.062 A 
ATOM     28  H   UNL A   1      33.362  29.460  24.089  1.00  0.00     0.063 H 
ATOM     29  C   UNL A   1      31.774  28.590  27.456  1.00  0.00    -0.062 A 
ATOM     30  H   UNL A   1      31.046  26.873  26.468  1.00  0.00     0.063 H 
ATOM     31  C   UNL A   1      32.523  29.758  27.319  1.00  0.00    -0.062 A 
ATOM     32  H   UNL A   1      33.639  30.950  25.984  1.00  0.00     0.062 H 
ATOM     33  H   UNL A   1      31.340  28.360  28.363  1.00  0.00     0.062 H 
ATOM     34  H   UNL A   1      32.653  30.385  28.127  1.00  0.00     0.062 H 
ENDBRANCH  22  24
BRANCH  23  35
ATOM     35  C   UNL A   1      30.193  28.122  22.725  1.00  0.00    -0.006 A 
ATOM     36  C   UNL A   1      28.878  27.860  23.136  1.00  0.00    -0.053 A 
ATOM     37  C   UNL A   1      30.480  29.343  22.102  1.00  0.00    -0.053 A 
ATOM     38  C   UNL A   1      27.871  28.803  22.929  1.00  0.00    -0.062 A 
ATOM     39  H   UNL A   1      28.654  26.962  23.594  1.00  0.00     0.063 H 
ATOM     40  C   UNL A   1      29.471  30.287  21.896  1.00  0.00    -0.062 A 
ATOM     41  H   UNL A   1      31.443  29.547  21.792  1.00  0.00     0.063 H 
ATOM     42  C   UNL A   1      28.168  30.016  22.311  1.00  0.00    -0.062 A 
ATOM     43  H   UNL A   1      26.905  28.602  23.234  1.00  0.00     0.062 H 
ATOM     44  H   UNL A   1      29.690  31.185  21.438  1.00  0.00     0.062 H 
ATOM     45  H   UNL A   1      27.423  30.714  22.160  1.00  0.00     0.062 H 
ENDBRANCH  23  35
ENDBRANCH  17  19
ENDBRANCH  14  17
ENDBRANCH  12  14
ENDBRANCH   7  10
ENDBRANCH   4   7
ENDBRANCH   1   4
BRANCH   1  46
ATOM     46  C   UNL A   1      37.239  21.019  24.589  1.00  0.00    -0.052 C 
ATOM     47  H   UNL A   1      37.750  21.552  23.814  1.00  0.00     0.027 H 
ATOM     48  H   UNL A   1      36.301  20.606  24.278  1.00  0.00     0.027 H 
BRANCH  46  49
ATOM     49  C   UNL A   1      38.109  19.831  25.000  1.00  0.00    -0.036 C 
ATOM     50  H   UNL A   1      38.483  19.370  24.109  1.00  0.00     0.028 H 
ATOM     51  H   UNL A   1      37.480  19.187  25.579  1.00  0.00     0.028 H 
BRANCH  49  52
ATOM     52  C   UNL A   1      39.299  20.176  25.890  1.00  0.00     0.018 C 
ATOM     53  H   UNL A   1      38.944  20.349  26.885  1.00  0.00     0.049 H 
ATOM     54  H   UNL A   1      39.769  21.046  25.481  1.00  0.00     0.049 H 
BRANCH  52  55
ATOM     55  N   UNL A   1      40.295  19.115  25.930  1.00  0.00    -0.352 N 
ATOM     56  C   UNL A   1      41.658  19.195  26.083  1.00  0.00     0.251 C 
ATOM     57  H   UNL A   1      39.939  18.202  25.831  1.00  0.00     0.163 HD
ATOM     58  O   UNL A   1      42.357  18.196  25.923  1.00  0.00    -0.269 OA
BRANCH  56  59
ATOM     59  C   UNL A   1      42.295  20.489  26.410  1.00  0.00     0.039 A 
ATOM     60  C   UNL A   1      42.850  21.247  25.375  1.00  0.00    -0.049 A 
ATOM     61  C   UNL A   1      42.341  20.959  27.724  1.00  0.00    -0.049 A 
ATOM     62  C   UNL A   1      43.372  22.514  25.647  1.00  0.00    -0.053 A 
ATOM     63  H   UNL A   1      42.874  20.873  24.413  1.00  0.00     0.063 H 
ATOM     64  C   UNL A   1      42.795  22.250  27.983  1.00  0.00    -0.053 A 
ATOM     65  H   UNL A   1      42.039  20.351  28.502  1.00  0.00     0.063 H 
ATOM     66  C   UNL A   1      43.304  23.046  26.945  1.00  0.00    -0.014 A 
ATOM     67  H   UNL A   1      43.812  23.061  24.890  1.00  0.00     0.063 H 
ATOM     68  H   UNL A   1      42.757  22.624  28.944  1.00  0.00     0.063 H 
BRANCH  66  69
ATOM     69  C   UNL A   1      43.714  24.447  27.225  1.00  0.00     0.031 A 
ATOM     70  C   UNL A   1      42.713  25.457  27.703  1.00  0.00     0.074 A 
ATOM     71  C   UNL A   1      44.981  24.827  26.967  1.00  0.00     0.049 A 
ATOM     72  N   UNL A   1      42.868  26.739  27.921  1.00  0.00    -0.248 NA
ATOM     73  C   UNL A   1      41.348  24.968  27.945  1.00  0.00    -0.034 C 
ATOM     74  C   UNL A   1      46.033  23.953  26.447  1.00  0.00    -0.036 A 
ATOM     75  N   UNL A   1      45.593  26.050  27.084  1.00  0.00    -0.354 N 
ATOM     76  C   UNL A   1      41.624  27.208  28.320  1.00  0.00     0.074 A 
ATOM     77  C   UNL A   1      40.711  26.087  28.255  1.00  0.00    -0.034 C 
ATOM     78  H   UNL A   1      40.982  24.004  27.888  1.00  0.00     0.065 H 
ATOM     79  C   UNL A   1      47.162  24.664  26.300  1.00  0.00    -0.036 A 
ATOM     80  H   UNL A   1      45.925  22.950  26.229  1.00  0.00     0.065 H 
ATOM     81  C   UNL A   1      46.903  26.051  26.670  1.00  0.00     0.049 A 
ATOM     82  H   UNL A   1      45.137  26.850  27.432  1.00  0.00     0.167 HD
ATOM     83  C   UNL A   1      41.280  28.456  28.725  1.00  0.00     0.037 A 
ATOM     84  H   UNL A   1      39.695  26.151  28.428  1.00  0.00     0.065 H 
ATOM     85  H   UNL A   1      48.068  24.288  25.977  1.00  0.00     0.065 H 
ATOM     86  C   UNL A   1      47.791  27.059  26.578  1.00  0.00     0.037 A 
ATOM     87  C   UNL A   1      42.193  29.569  28.785  1.00  0.00     0.049 A 
ATOM     88  C   UNL A   1      47.380  28.443  27.002  1.00  0.00     0.074 A 
ATOM     89  C   UNL A   1      41.957  30.856  29.233  1.00  0.00    -0.036 A 
ATOM     90  N   UNL A   1      43.517  29.529  28.369  1.00  0.00    -0.354 N 
ATOM     91  N   UNL A   1      46.222  28.858  27.453  1.00  0.00    -0.248 NA
ATOM     92  C   UNL A   1      48.401  29.495  26.910  1.00  0.00    -0.034 C 
ATOM     93  C   UNL A   1      43.117  31.612  29.029  1.00  0.00    -0.036 A 
ATOM     94  H   UNL A   1      41.076  31.201  29.646  1.00  0.00     0.065 H 
ATOM     95  C   UNL A   1      44.098  30.780  28.514  1.00  0.00     0.049 A 
ATOM     96  H   UNL A   1      43.976  28.731  28.020  1.00  0.00     0.167 HD
ATOM     97  C   UNL A   1      46.377  30.213  27.715  1.00  0.00     0.074 A 
ATOM     98  C   UNL A   1      47.750  30.545  27.392  1.00  0.00    -0.034 C 
ATOM     99  H   UNL A   1      49.371  29.433  26.563  1.00  0.00     0.065 H 
ATOM    100  H   UNL A   1      43.223  32.619  29.229  1.00  0.00     0.065 H 
ATOM    101  C   UNL A   1      45.464  31.101  28.180  1.00  0.00     0.037 A 
ATOM    102  H   UNL A   1      48.168  31.480  27.521  1.00  0.00     0.065 H 
BRANCH  83 103
ATOM    103  C   UNL A   1      39.849  28.680  29.127  1.00  0.00     0.064 A 
ATOM    104  C   UNL A   1      38.880  29.101  28.202  1.00  0.00     0.173 A 
ATOM    105  C   UNL A   1      39.435  28.457  30.449  1.00  0.00     0.173 A 
ATOM    106  F   UNL A   1      39.221  29.336  26.926  1.00  0.00    -0.203 F 
ATOM    107  C   UNL A   1      37.564  29.335  28.595  1.00  0.00     0.198 A 
ATOM    108  C   UNL A   1      38.111  28.656  30.831  1.00  0.00     0.198 A 
ATOM    109  F   UNL A   1      40.314  28.042  31.374  1.00  0.00    -0.203 F 
ATOM    110  F   UNL A   1      36.675  29.801  27.709  1.00  0.00    -0.200 F 
ATOM    111  C   UNL A   1      37.180  29.107  29.907  1.00  0.00     0.200 A 
ATOM    112  F   UNL A   1      37.736  28.419  32.096  1.00  0.00    -0.200 F 
ATOM    113  F   UNL A   1      35.914  29.331  30.285  1.00  0.00    -0.200 F 
ENDBRANCH  83 103
BRANCH  86 114
ATOM    114  C   UNL A   1      49.156  26.787  26.057  1.00  0.00     0.064 A 
ATOM    115  C   UNL A   1      50.168  26.300  26.895  1.00  0.00     0.173 A 
ATOM    116  C   UNL A   1      49.470  26.987  24.704  1.00  0.00     0.173 A 
ATOM    117  F   UNL A   1      49.922  26.112  28.200  1.00  0.00    -0.203 F 
ATOM    118  C   UNL A   1      51.445  26.035  26.403  1.00  0.00     0.198 A 
ATOM    119  C   UNL A   1      50.737  26.692  24.207  1.00  0.00     0.198 A 
ATOM    120  F   UNL A   1      48.535  27.446  23.858  1.00  0.00    -0.203 F 
ATOM    121  F   UNL A   1      52.404  25.606  27.234  1.00  0.00    -0.200 F 
ATOM    122  C   UNL A   1      51.725  26.222  25.058  1.00  0.00     0.200 A 
ATOM    123  F   UNL A   1      50.998  26.856  22.903  1.00  0.00    -0.200 F 
ATOM    124  F   UNL A   1      52.950  25.954  24.583  1.00  0.00    -0.200 F 
ENDBRANCH  86 114
BRANCH 101 125
ATOM    125  C   UNL A   1      45.921  32.518  28.382  1.00  0.00     0.064 A 
ATOM    126  C   UNL A   1      45.784  33.488  27.377  1.00  0.00     0.173 A 
ATOM    127  C   UNL A   1      46.462  32.923  29.613  1.00  0.00     0.173 A 
ATOM    128  F   UNL A   1      45.288  33.150  26.177  1.00  0.00    -0.203 F 
ATOM    129  C   UNL A   1      46.193  34.802  27.588  1.00  0.00     0.198 A 
ATOM    130  C   UNL A   1      46.838  34.245  29.832  1.00  0.00     0.198 A 
ATOM    131  F   UNL A   1      46.610  32.038  30.610  1.00  0.00    -0.203 F 
ATOM    132  F   UNL A   1      46.097  35.698  26.597  1.00  0.00    -0.200 F 
ATOM    133  C   UNL A   1      46.711  35.182  28.817  1.00  0.00     0.200 A 
ATOM    134  F   UNL A   1      47.325  34.613  31.025  1.00  0.00    -0.200 F 
ATOM    135  F   UNL A   1      47.093  36.450  29.022  1.00  0.00    -0.200 F 
ENDBRANCH 101 125
ENDBRANCH  66  69
ENDBRANCH  56  59
ENDBRANCH  52  55
ENDBRANCH  49  52
ENDBRANCH  46  49
ENDBRANCH   1  46
TORSDOF 17
ENDMDL
MODEL 6
REMARK VINA RESULT:     -12.2      5.831     11.337
REMARK SMILES O=C(CNc1nc(-c2ccccc2)c(-c2ccccc2)s1)NCCCCCCNC(=O)c1ccc(-c2c3nc(c(-c4c(F)c(F)c(F)c(F)c4F)c4ccc([nH]4)c(-c4c(F)c(F)c(F)c(F)c4F)c4nc(c(-c5c(F)c(F)c(F)c(F)c5F)c5ccc2[nH]5)C=C4)C=C3)cc1
REMARK SMILES IDX 25 1 24 4 23 7 22 10 1 11 2 12 3 14 4 17 5 19 6 20 21 21
REMARK SMILES IDX 7 22 14 23 8 24 9 25 13 26 10 27 12 29 11 31 15 35 16 36
REMARK SMILES IDX 20 37 17 38 19 40 18 42 26 46 27 49 28 52 29 55 30 56 31 58
REMARK SMILES IDX 32 59 33 60 94 61 34 62 93 64 35 66 36 69 37 70 87 71 38 72
REMARK SMILES IDX 92 73 86 74 88 75 39 76 91 77 85 79 84 81 40 83 72 86 52 87
REMARK SMILES IDX 71 88 53 89 56 90 70 91 89 92 54 93 55 95 69 97 90 98 57 101
REMARK SMILES IDX 41 103 42 104 50 105 43 106 44 107 48 108 51 109 45 110
REMARK SMILES IDX 46 111 49 112 47 113 73 114 74 115 82 116 75 117 76 118
REMARK SMILES IDX 80 119 83 120 77 121 78 122 81 123 79 124 58 125 59 126
REMARK SMILES IDX 67 127 60 128 61 129 65 130 68 131 62 132 63 133 66 134
REMARK SMILES IDX 64 135
REMARK H PARENT 25 2 25 3 24 5 24 6 23 8 23 9 22 13 3 15 3 16 4 18 9 28 13 30
REMARK H PARENT 10 32 12 33 11 34 16 39 20 41 17 43 19 44 18 45 26 47 26 48
REMARK H PARENT 27 50 27 51 28 53 28 54 29 57 33 63 94 65 34 67 93 68 92 78
REMARK H PARENT 86 80 88 82 91 84 85 85 53 94 56 96 89 99 54 100 90 102
REMARK Flexibility Score: inf
ROOT
ATOM      1  C   UNL A   1      35.746  20.999  24.959  1.00  0.00    -0.052 C 
ATOM      2  H   UNL A   1      35.519  21.447  25.903  1.00  0.00     0.027 H 
ATOM      3  H   UNL A   1      35.235  21.449  24.133  1.00  0.00     0.027 H 
ENDROOT
BRANCH   1   4
ATOM      4  C   UNL A   1      35.270  19.539  25.001  1.00  0.00    -0.036 C 
ATOM      5  H   UNL A   1      35.711  19.021  24.175  1.00  0.00     0.028 H 
ATOM      6  H   UNL A   1      35.572  19.152  25.951  1.00  0.00     0.028 H 
BRANCH   4   7
ATOM      7  C   UNL A   1      33.755  19.358  24.922  1.00  0.00     0.017 C 
ATOM      8  H   UNL A   1      33.538  18.518  24.297  1.00  0.00     0.049 H 
ATOM      9  H   UNL A   1      33.385  19.203  25.915  1.00  0.00     0.049 H 
BRANCH   7  10
ATOM     10  N   UNL A   1      33.103  20.528  24.377  1.00  0.00    -0.355 N 
ATOM     11  O   UNL A   1      32.153  19.520  22.537  1.00  0.00    -0.273 OA
ATOM     12  C   UNL A   1      32.344  20.520  23.221  1.00  0.00     0.239 C 
ATOM     13  H   UNL A   1      33.206  21.382  24.857  1.00  0.00     0.163 HD
BRANCH  12  14
ATOM     14  C   UNL A   1      31.792  21.909  22.853  1.00  0.00     0.096 C 
ATOM     15  H   UNL A   1      31.057  21.810  22.082  1.00  0.00     0.059 H 
ATOM     16  H   UNL A   1      32.590  22.531  22.502  1.00  0.00     0.059 H 
BRANCH  14  17
ATOM     17  N   UNL A   1      31.184  22.512  24.032  1.00  0.00    -0.352 N 
ATOM     18  H   UNL A   1      30.751  21.928  24.696  1.00  0.00     0.163 HD
BRANCH  17  19
ATOM     19  C   UNL A   1      31.198  23.839  24.241  1.00  0.00     0.184 A 
ATOM     20  N   UNL A   1      30.614  24.743  23.491  1.00  0.00    -0.220 NA
ATOM     21  S   UNL A   1      32.081  24.457  25.581  1.00  0.00    -0.096 S 
ATOM     22  C   UNL A   1      30.883  26.012  23.982  1.00  0.00     0.091 A 
ATOM     23  C   UNL A   1      31.719  26.059  25.087  1.00  0.00     0.064 A 
BRANCH  22  24
ATOM     24  C   UNL A   1      30.287  27.198  23.385  1.00  0.00     0.002 A 
ATOM     25  C   UNL A   1      31.080  28.175  22.772  1.00  0.00    -0.053 A 
ATOM     26  C   UNL A   1      28.907  27.406  23.503  1.00  0.00    -0.053 A 
ATOM     27  C   UNL A   1      30.506  29.366  22.319  1.00  0.00    -0.062 A 
ATOM     28  H   UNL A   1      32.093  28.017  22.655  1.00  0.00     0.063 H 
ATOM     29  C   UNL A   1      28.336  28.598  23.052  1.00  0.00    -0.062 A 
ATOM     30  H   UNL A   1      28.310  26.676  23.922  1.00  0.00     0.063 H 
ATOM     31  C   UNL A   1      29.136  29.580  22.469  1.00  0.00    -0.062 A 
ATOM     32  H   UNL A   1      31.095  30.086  21.873  1.00  0.00     0.062 H 
ATOM     33  H   UNL A   1      27.321  28.754  23.152  1.00  0.00     0.062 H 
ATOM     34  H   UNL A   1      28.715  30.465  22.148  1.00  0.00     0.062 H 
ENDBRANCH  22  24
BRANCH  23  35
ATOM     35  C   UNL A   1      32.250  27.190  25.846  1.00  0.00    -0.006 A 
ATOM     36  C   UNL A   1      33.606  27.535  25.749  1.00  0.00    -0.053 A 
ATOM     37  C   UNL A   1      31.402  27.980  26.633  1.00  0.00    -0.053 A 
ATOM     38  C   UNL A   1      34.102  28.650  26.426  1.00  0.00    -0.062 A 
ATOM     39  H   UNL A   1      34.241  26.959  25.175  1.00  0.00     0.063 H 
ATOM     40  C   UNL A   1      31.900  29.096  27.309  1.00  0.00    -0.062 A 
ATOM     41  H   UNL A   1      30.403  27.736  26.715  1.00  0.00     0.063 H 
ATOM     42  C   UNL A   1      33.249  29.430  27.204  1.00  0.00    -0.062 A 
ATOM     43  H   UNL A   1      35.103  28.897  26.351  1.00  0.00     0.062 H 
ATOM     44  H   UNL A   1      31.270  29.674  27.886  1.00  0.00     0.062 H 
ATOM     45  H   UNL A   1      33.616  30.256  27.702  1.00  0.00     0.062 H 
ENDBRANCH  23  35
ENDBRANCH  17  19
ENDBRANCH  14  17
ENDBRANCH  12  14
ENDBRANCH   7  10
ENDBRANCH   4   7
ENDBRANCH   1   4
BRANCH   1  46
ATOM     46  C   UNL A   1      37.240  21.201  24.687  1.00  0.00    -0.052 C 
ATOM     47  H   UNL A   1      37.575  22.025  25.282  1.00  0.00     0.027 H 
ATOM     48  H   UNL A   1      37.328  21.369  23.634  1.00  0.00     0.027 H 
BRANCH  46  49
ATOM     49  C   UNL A   1      38.132  19.998  24.999  1.00  0.00    -0.036 C 
ATOM     50  H   UNL A   1      38.562  19.657  24.080  1.00  0.00     0.028 H 
ATOM     51  H   UNL A   1      37.501  19.273  25.468  1.00  0.00     0.028 H 
BRANCH  49  52
ATOM     52  C   UNL A   1      39.268  20.271  25.980  1.00  0.00     0.018 C 
ATOM     53  H   UNL A   1      38.855  20.376  26.962  1.00  0.00     0.049 H 
ATOM     54  H   UNL A   1      39.763  21.165  25.663  1.00  0.00     0.049 H 
BRANCH  52  55
ATOM     55  N   UNL A   1      40.258  19.203  26.003  1.00  0.00    -0.352 N 
ATOM     56  C   UNL A   1      41.624  19.274  26.125  1.00  0.00     0.251 C 
ATOM     57  H   UNL A   1      39.893  18.293  25.916  1.00  0.00     0.163 HD
ATOM     58  O   UNL A   1      42.312  18.270  25.955  1.00  0.00    -0.269 OA
BRANCH  56  59
ATOM     59  C   UNL A   1      42.277  20.565  26.432  1.00  0.00     0.039 A 
ATOM     60  C   UNL A   1      42.773  21.336  25.377  1.00  0.00    -0.049 A 
ATOM     61  C   UNL A   1      42.395  21.019  27.747  1.00  0.00    -0.049 A 
ATOM     62  C   UNL A   1      43.309  22.601  25.635  1.00  0.00    -0.053 A 
ATOM     63  H   UNL A   1      42.744  20.974  24.411  1.00  0.00     0.063 H 
ATOM     64  C   UNL A   1      42.863  22.308  27.995  1.00  0.00    -0.053 A 
ATOM     65  H   UNL A   1      42.138  20.401  28.533  1.00  0.00     0.063 H 
ATOM     66  C   UNL A   1      43.312  23.117  26.941  1.00  0.00    -0.014 A 
ATOM     67  H   UNL A   1      43.705  23.157  24.861  1.00  0.00     0.063 H 
ATOM     68  H   UNL A   1      42.877  22.671  28.962  1.00  0.00     0.063 H 
BRANCH  66  69
ATOM     69  C   UNL A   1      43.737  24.515  27.214  1.00  0.00     0.031 A 
ATOM     70  C   UNL A   1      42.741  25.543  27.664  1.00  0.00     0.074 A 
ATOM     71  C   UNL A   1      45.013  24.875  26.975  1.00  0.00     0.049 A 
ATOM     72  N   UNL A   1      42.909  26.826  27.871  1.00  0.00    -0.248 NA
ATOM     73  C   UNL A   1      41.365  25.075  27.886  1.00  0.00    -0.034 C 
ATOM     74  C   UNL A   1      46.062  23.982  26.484  1.00  0.00    -0.036 A 
ATOM     75  N   UNL A   1      45.639  26.091  27.092  1.00  0.00    -0.354 N 
ATOM     76  C   UNL A   1      41.665  27.315  28.243  1.00  0.00     0.074 A 
ATOM     77  C   UNL A   1      40.738  26.206  28.173  1.00  0.00    -0.034 C 
ATOM     78  H   UNL A   1      40.987  24.116  27.832  1.00  0.00     0.065 H 
ATOM     79  C   UNL A   1      47.203  24.676  26.350  1.00  0.00    -0.036 A 
ATOM     80  H   UNL A   1      45.945  22.978  26.274  1.00  0.00     0.065 H 
ATOM     81  C   UNL A   1      46.956  26.071  26.702  1.00  0.00     0.049 A 
ATOM     82  H   UNL A   1      45.187  26.901  27.423  1.00  0.00     0.167 HD
ATOM     83  C   UNL A   1      41.330  28.571  28.630  1.00  0.00     0.037 A 
ATOM     84  H   UNL A   1      39.720  26.285  28.327  1.00  0.00     0.065 H 
ATOM     85  H   UNL A   1      48.110  24.285  26.048  1.00  0.00     0.065 H 
ATOM     86  C   UNL A   1      47.860  27.065  26.615  1.00  0.00     0.037 A 
ATOM     87  C   UNL A   1      42.257  29.673  28.695  1.00  0.00     0.049 A 
ATOM     88  C   UNL A   1      47.460  28.459  27.019  1.00  0.00     0.074 A 
ATOM     89  C   UNL A   1      42.031  30.967  29.126  1.00  0.00    -0.036 A 
ATOM     90  N   UNL A   1      43.588  29.610  28.304  1.00  0.00    -0.354 N 
ATOM     91  N   UNL A   1      46.300  28.894  27.444  1.00  0.00    -0.248 NA
ATOM     92  C   UNL A   1      48.497  29.496  26.935  1.00  0.00    -0.034 C 
ATOM     93  C   UNL A   1      43.204  31.706  28.936  1.00  0.00    -0.036 A 
ATOM     94  H   UNL A   1      41.147  31.328  29.519  1.00  0.00     0.065 H 
ATOM     95  C   UNL A   1      44.184  30.855  28.447  1.00  0.00     0.049 A 
ATOM     96  H   UNL A   1      44.043  28.803  27.972  1.00  0.00     0.167 HD
ATOM     97  C   UNL A   1      46.468  30.249  27.695  1.00  0.00     0.074 A 
ATOM     98  C   UNL A   1      47.852  30.559  27.394  1.00  0.00    -0.034 C 
ATOM     99  H   UNL A   1      49.471  29.417  26.605  1.00  0.00     0.065 H 
ATOM    100  H   UNL A   1      43.320  32.713  29.128  1.00  0.00     0.065 H 
ATOM    101  C   UNL A   1      45.559  31.155  28.135  1.00  0.00     0.037 A 
ATOM    102  H   UNL A   1      48.280  31.490  27.522  1.00  0.00     0.065 H 
BRANCH  83 103
ATOM    103  C   UNL A   1      39.895  28.818  29.004  1.00  0.00     0.064 A 
ATOM    104  C   UNL A   1      39.427  28.610  30.311  1.00  0.00     0.173 A 
ATOM    105  C   UNL A   1      38.979  29.284  28.049  1.00  0.00     0.173 A 
ATOM    106  F   UNL A   1      40.258  28.159  31.262  1.00  0.00    -0.203 F 
ATOM    107  C   UNL A   1      38.088  28.813  30.635  1.00  0.00     0.198 A 
ATOM    108  C   UNL A   1      37.649  29.521  28.385  1.00  0.00     0.198 A 
ATOM    109  F   UNL A   1      39.372  29.512  26.786  1.00  0.00    -0.203 F 
ATOM    110  F   UNL A   1      37.651  28.543  31.873  1.00  0.00    -0.200 F 
ATOM    111  C   UNL A   1      37.201  29.274  29.674  1.00  0.00     0.200 A 
ATOM    112  F   UNL A   1      36.796  29.983  27.459  1.00  0.00    -0.200 F 
ATOM    113  F   UNL A   1      35.913  29.469  29.987  1.00  0.00    -0.200 F 
ENDBRANCH  83 103
BRANCH  86 114
ATOM    114  C   UNL A   1      49.230  26.770  26.122  1.00  0.00     0.064 A 
ATOM    115  C   UNL A   1      50.223  26.289  26.986  1.00  0.00     0.173 A 
ATOM    116  C   UNL A   1      49.568  26.941  24.771  1.00  0.00     0.173 A 
ATOM    117  F   UNL A   1      49.954  26.127  28.290  1.00  0.00    -0.203 F 
ATOM    118  C   UNL A   1      51.505  26.001  26.519  1.00  0.00     0.198 A 
ATOM    119  C   UNL A   1      50.840  26.624  24.300  1.00  0.00     0.198 A 
ATOM    120  F   UNL A   1      48.652  27.394  23.901  1.00  0.00    -0.203 F 
ATOM    121  F   UNL A   1      52.446  25.578  27.375  1.00  0.00    -0.200 F 
ATOM    122  C   UNL A   1      51.809  26.160  25.176  1.00  0.00     0.200 A 
ATOM    123  F   UNL A   1      51.123  26.761  22.998  1.00  0.00    -0.200 F 
ATOM    124  F   UNL A   1      53.038  25.871  24.726  1.00  0.00    -0.200 F 
ENDBRANCH  86 114
BRANCH 101 125
ATOM    125  C   UNL A   1      46.032  32.567  28.331  1.00  0.00     0.064 A 
ATOM    126  C   UNL A   1      46.000  33.507  27.289  1.00  0.00     0.173 A 
ATOM    127  C   UNL A   1      46.480  32.999  29.589  1.00  0.00     0.173 A 
ATOM    128  F   UNL A   1      45.595  33.142  26.063  1.00  0.00    -0.203 F 
ATOM    129  C   UNL A   1      46.421  34.818  27.494  1.00  0.00     0.198 A 
ATOM    130  C   UNL A   1      46.869  34.320  29.799  1.00  0.00     0.198 A 
ATOM    131  F   UNL A   1      46.527  32.143  30.621  1.00  0.00    -0.203 F 
ATOM    132  F   UNL A   1      46.428  35.685  26.472  1.00  0.00    -0.200 F 
ATOM    133  C   UNL A   1      46.847  35.226  28.750  1.00  0.00     0.200 A 
ATOM    134  F   UNL A   1      47.266  34.714  31.016  1.00  0.00    -0.200 F 
ATOM    135  F   UNL A   1      47.241  36.491  28.947  1.00  0.00    -0.200 F 
ENDBRANCH 101 125
ENDBRANCH  66  69
ENDBRANCH  56  59
ENDBRANCH  52  55
ENDBRANCH  49  52
ENDBRANCH  46  49
ENDBRANCH   1  46
TORSDOF 17
ENDMDL
MODEL 7
REMARK VINA RESULT:     -12.2      1.138      7.248
REMARK SMILES O=C(CNc1nc(-c2ccccc2)c(-c2ccccc2)s1)NCCCCCCNC(=O)c1ccc(-c2c3nc(c(-c4c(F)c(F)c(F)c(F)c4F)c4ccc([nH]4)c(-c4c(F)c(F)c(F)c(F)c4F)c4nc(c(-c5c(F)c(F)c(F)c(F)c5F)c5ccc2[nH]5)C=C4)C=C3)cc1
REMARK SMILES IDX 25 1 24 4 23 7 22 10 1 11 2 12 3 14 4 17 5 19 6 20 21 21
REMARK SMILES IDX 7 22 14 23 8 24 9 25 13 26 10 27 12 29 11 31 15 35 16 36
REMARK SMILES IDX 20 37 17 38 19 40 18 42 26 46 27 49 28 52 29 55 30 56 31 58
REMARK SMILES IDX 32 59 33 60 94 61 34 62 93 64 35 66 36 69 37 70 87 71 38 72
REMARK SMILES IDX 92 73 86 74 88 75 39 76 91 77 85 79 84 81 40 83 72 86 52 87
REMARK SMILES IDX 71 88 53 89 56 90 70 91 89 92 54 93 55 95 69 97 90 98 57 101
REMARK SMILES IDX 41 103 42 104 50 105 43 106 44 107 48 108 51 109 45 110
REMARK SMILES IDX 46 111 49 112 47 113 73 114 74 115 82 116 75 117 76 118
REMARK SMILES IDX 80 119 83 120 77 121 78 122 81 123 79 124 58 125 59 126
REMARK SMILES IDX 67 127 60 128 61 129 65 130 68 131 62 132 63 133 66 134
REMARK SMILES IDX 64 135
REMARK H PARENT 25 2 25 3 24 5 24 6 23 8 23 9 22 13 3 15 3 16 4 18 9 28 13 30
REMARK H PARENT 10 32 12 33 11 34 16 39 20 41 17 43 19 44 18 45 26 47 26 48
REMARK H PARENT 27 50 27 51 28 53 28 54 29 57 33 63 94 65 34 67 93 68 92 78
REMARK H PARENT 86 80 88 82 91 84 85 85 53 94 56 96 89 99 54 100 90 102
REMARK Flexibility Score: inf
ROOT
ATOM      1  C   UNL A   1      31.023  30.394  25.050  1.00  0.00    -0.052 C 
ATOM      2  H   UNL A   1      30.044  30.046  25.305  1.00  0.00     0.027 H 
ATOM      3  H   UNL A   1      31.023  31.275  24.442  1.00  0.00     0.027 H 
ENDROOT
BRANCH   1   4
ATOM      4  C   UNL A   1      31.710  29.305  24.214  1.00  0.00    -0.036 C 
ATOM      5  H   UNL A   1      32.139  29.770  23.350  1.00  0.00     0.028 H 
ATOM      6  H   UNL A   1      32.437  28.849  24.852  1.00  0.00     0.028 H 
BRANCH   4   7
ATOM      7  C   UNL A   1      30.786  28.184  23.741  1.00  0.00     0.017 C 
ATOM      8  H   UNL A   1      29.914  28.617  23.298  1.00  0.00     0.049 H 
ATOM      9  H   UNL A   1      31.321  27.587  23.031  1.00  0.00     0.049 H 
BRANCH   7  10
ATOM     10  N   UNL A   1      30.381  27.327  24.833  1.00  0.00    -0.355 N 
ATOM     11  O   UNL A   1      30.480  25.323  23.702  1.00  0.00    -0.273 OA
ATOM     12  C   UNL A   1      30.260  25.953  24.731  1.00  0.00     0.239 C 
ATOM     13  H   UNL A   1      30.178  27.747  25.700  1.00  0.00     0.163 HD
BRANCH  12  14
ATOM     14  C   UNL A   1      29.782  25.292  26.037  1.00  0.00     0.096 C 
ATOM     15  H   UNL A   1      29.105  24.496  25.808  1.00  0.00     0.059 H 
ATOM     16  H   UNL A   1      29.282  26.018  26.644  1.00  0.00     0.059 H 
BRANCH  14  17
ATOM     17  N   UNL A   1      30.933  24.761  26.756  1.00  0.00    -0.352 N 
ATOM     18  H   UNL A   1      31.153  25.130  27.641  1.00  0.00     0.163 HD
BRANCH  17  19
ATOM     19  C   UNL A   1      31.701  23.782  26.248  1.00  0.00     0.184 A 
ATOM     20  N   UNL A   1      32.975  23.878  25.955  1.00  0.00    -0.220 NA
ATOM     21  S   UNL A   1      30.980  22.261  25.898  1.00  0.00    -0.096 S 
ATOM     22  C   UNL A   1      33.426  22.687  25.405  1.00  0.00     0.091 A 
ATOM     23  C   UNL A   1      32.462  21.705  25.239  1.00  0.00     0.064 A 
BRANCH  22  24
ATOM     24  C   UNL A   1      34.828  22.492  25.064  1.00  0.00     0.002 A 
ATOM     25  C   UNL A   1      35.343  22.934  23.840  1.00  0.00    -0.053 A 
ATOM     26  C   UNL A   1      35.652  21.772  25.938  1.00  0.00    -0.053 A 
ATOM     27  C   UNL A   1      36.655  22.625  23.476  1.00  0.00    -0.062 A 
ATOM     28  H   UNL A   1      34.751  23.490  23.203  1.00  0.00     0.063 H 
ATOM     29  C   UNL A   1      36.963  21.461  25.570  1.00  0.00    -0.062 A 
ATOM     30  H   UNL A   1      35.291  21.472  26.857  1.00  0.00     0.063 H 
ATOM     31  C   UNL A   1      37.461  21.880  24.337  1.00  0.00    -0.062 A 
ATOM     32  H   UNL A   1      37.030  22.949  22.570  1.00  0.00     0.062 H 
ATOM     33  H   UNL A   1      37.564  20.920  26.211  1.00  0.00     0.062 H 
ATOM     34  H   UNL A   1      38.425  21.639  24.061  1.00  0.00     0.062 H 
ENDBRANCH  22  24
BRANCH  23  35
ATOM     35  C   UNL A   1      32.544  20.361  24.669  1.00  0.00    -0.006 A 
ATOM     36  C   UNL A   1      32.789  19.254  25.495  1.00  0.00    -0.053 A 
ATOM     37  C   UNL A   1      32.325  20.153  23.301  1.00  0.00    -0.053 A 
ATOM     38  C   UNL A   1      32.810  17.964  24.962  1.00  0.00    -0.062 A 
ATOM     39  H   UNL A   1      32.955  19.395  26.504  1.00  0.00     0.063 H 
ATOM     40  C   UNL A   1      32.345  18.862  22.770  1.00  0.00    -0.062 A 
ATOM     41  H   UNL A   1      32.146  20.959  22.682  1.00  0.00     0.063 H 
ATOM     42  C   UNL A   1      32.586  17.769  23.601  1.00  0.00    -0.062 A 
ATOM     43  H   UNL A   1      32.991  17.155  25.577  1.00  0.00     0.062 H 
ATOM     44  H   UNL A   1      32.181  18.716  21.762  1.00  0.00     0.062 H 
ATOM     45  H   UNL A   1      32.600  16.815  23.208  1.00  0.00     0.062 H 
ENDBRANCH  23  35
ENDBRANCH  17  19
ENDBRANCH  14  17
ENDBRANCH  12  14
ENDBRANCH   7  10
ENDBRANCH   4   7
ENDBRANCH   1   4
BRANCH   1  46
ATOM     46  C   UNL A   1      31.738  30.782  26.348  1.00  0.00    -0.052 C 
ATOM     47  H   UNL A   1      32.789  30.643  26.200  1.00  0.00     0.027 H 
ATOM     48  H   UNL A   1      31.326  30.155  27.111  1.00  0.00     0.027 H 
BRANCH  46  49
ATOM     49  C   UNL A   1      31.513  32.220  26.817  1.00  0.00    -0.036 C 
ATOM     50  H   UNL A   1      30.859  32.194  27.665  1.00  0.00     0.028 H 
ATOM     51  H   UNL A   1      31.104  32.746  25.980  1.00  0.00     0.028 H 
BRANCH  49  52
ATOM     52  C   UNL A   1      32.776  32.977  27.218  1.00  0.00     0.018 C 
ATOM     53  H   UNL A   1      33.426  33.032  26.370  1.00  0.00     0.049 H 
ATOM     54  H   UNL A   1      33.229  32.445  28.029  1.00  0.00     0.049 H 
BRANCH  52  55
ATOM     55  N   UNL A   1      32.496  34.329  27.680  1.00  0.00    -0.352 N 
ATOM     56  C   UNL A   1      33.045  35.032  28.725  1.00  0.00     0.251 C 
ATOM     57  H   UNL A   1      31.811  34.813  27.166  1.00  0.00     0.163 HD
ATOM     58  O   UNL A   1      32.561  36.109  29.067  1.00  0.00    -0.269 OA
BRANCH  56  59
ATOM     59  C   UNL A   1      34.201  34.482  29.466  1.00  0.00     0.039 A 
ATOM     60  C   UNL A   1      33.976  33.844  30.689  1.00  0.00    -0.049 A 
ATOM     61  C   UNL A   1      35.498  34.585  28.958  1.00  0.00    -0.049 A 
ATOM     62  C   UNL A   1      35.040  33.235  31.359  1.00  0.00    -0.053 A 
ATOM     63  H   UNL A   1      33.027  33.822  31.096  1.00  0.00     0.063 H 
ATOM     64  C   UNL A   1      36.544  33.916  29.590  1.00  0.00    -0.053 A 
ATOM     65  H   UNL A   1      35.681  35.156  28.118  1.00  0.00     0.063 H 
ATOM     66  C   UNL A   1      36.323  33.223  30.790  1.00  0.00    -0.014 A 
ATOM     67  H   UNL A   1      34.881  32.792  32.278  1.00  0.00     0.063 H 
ATOM     68  H   UNL A   1      37.488  33.930  29.172  1.00  0.00     0.063 H 
BRANCH  66  69
ATOM     69  C   UNL A   1      37.433  32.453  31.411  1.00  0.00     0.031 A 
ATOM     70  C   UNL A   1      37.975  32.841  32.756  1.00  0.00     0.074 A 
ATOM     71  C   UNL A   1      38.008  31.451  30.718  1.00  0.00     0.049 A 
ATOM     72  N   UNL A   1      38.990  32.341  33.416  1.00  0.00    -0.248 NA
ATOM     73  C   UNL A   1      37.304  33.957  33.439  1.00  0.00    -0.034 C 
ATOM     74  C   UNL A   1      37.609  31.015  29.380  1.00  0.00    -0.036 A 
ATOM     75  N   UNL A   1      39.064  30.632  31.034  1.00  0.00    -0.354 N 
ATOM     76  C   UNL A   1      39.080  33.080  34.587  1.00  0.00     0.074 A 
ATOM     77  C   UNL A   1      38.058  34.103  34.519  1.00  0.00    -0.034 C 
ATOM     78  H   UNL A   1      36.466  34.486  33.153  1.00  0.00     0.065 H 
ATOM     79  C   UNL A   1      38.403  30.003  28.993  1.00  0.00    -0.036 A 
ATOM     80  H   UNL A   1      36.841  31.419  28.822  1.00  0.00     0.065 H 
ATOM     81  C   UNL A   1      39.393  29.750  30.033  1.00  0.00     0.049 A 
ATOM     82  H   UNL A   1      39.541  30.674  31.894  1.00  0.00     0.167 HD
ATOM     83  C   UNL A   1      39.924  32.908  35.634  1.00  0.00     0.037 A 
ATOM     84  H   UNL A   1      37.932  34.850  35.220  1.00  0.00     0.065 H 
ATOM     85  H   UNL A   1      38.323  29.488  28.102  1.00  0.00     0.065 H 
ATOM     86  C   UNL A   1      40.393  28.852  29.952  1.00  0.00     0.037 A 
ATOM     87  C   UNL A   1      40.942  31.890  35.695  1.00  0.00     0.049 A 
ATOM     88  C   UNL A   1      41.340  28.697  31.112  1.00  0.00     0.074 A 
ATOM     89  C   UNL A   1      41.810  31.597  36.732  1.00  0.00    -0.036 A 
ATOM     90  N   UNL A   1      41.238  31.005  34.666  1.00  0.00    -0.354 N 
ATOM     91  N   UNL A   1      41.366  29.350  32.248  1.00  0.00    -0.248 NA
ATOM     92  C   UNL A   1      42.390  27.679  30.980  1.00  0.00    -0.034 C 
ATOM     93  C   UNL A   1      42.673  30.580  36.309  1.00  0.00    -0.036 A 
ATOM     94  H   UNL A   1      41.821  32.053  37.658  1.00  0.00     0.065 H 
ATOM     95  C   UNL A   1      42.301  30.192  35.031  1.00  0.00     0.049 A 
ATOM     96  H   UNL A   1      40.764  30.961  33.805  1.00  0.00     0.167 HD
ATOM     97  C   UNL A   1      42.421  28.813  32.973  1.00  0.00     0.074 A 
ATOM     98  C   UNL A   1      42.997  27.764  32.155  1.00  0.00    -0.034 C 
ATOM     99  H   UNL A   1      42.599  27.060  30.181  1.00  0.00     0.065 H 
ATOM    100  H   UNL A   1      43.453  30.186  36.856  1.00  0.00     0.065 H 
ATOM    101  C   UNL A   1      42.873  29.158  34.204  1.00  0.00     0.037 A 
ATOM    102  H   UNL A   1      43.780  27.160  32.451  1.00  0.00     0.065 H 
BRANCH  83 103
ATOM    103  C   UNL A   1      39.784  33.852  36.795  1.00  0.00     0.064 A 
ATOM    104  C   UNL A   1      40.471  35.077  36.838  1.00  0.00     0.173 A 
ATOM    105  C   UNL A   1      38.943  33.539  37.873  1.00  0.00     0.173 A 
ATOM    106  F   UNL A   1      41.294  35.425  35.837  1.00  0.00    -0.203 F 
ATOM    107  C   UNL A   1      40.356  35.928  37.934  1.00  0.00     0.198 A 
ATOM    108  C   UNL A   1      38.802  34.409  38.951  1.00  0.00     0.198 A 
ATOM    109  F   UNL A   1      38.253  32.388  37.883  1.00  0.00    -0.203 F 
ATOM    110  F   UNL A   1      41.073  37.059  37.981  1.00  0.00    -0.200 F 
ATOM    111  C   UNL A   1      39.518  35.596  38.987  1.00  0.00     0.200 A 
ATOM    112  F   UNL A   1      37.978  34.095  39.962  1.00  0.00    -0.200 F 
ATOM    113  F   UNL A   1      39.407  36.415  40.042  1.00  0.00    -0.200 F 
ENDBRANCH  83 103
BRANCH  86 114
ATOM    114  C   UNL A   1      40.545  28.033  28.721  1.00  0.00     0.064 A 
ATOM    115  C   UNL A   1      39.887  26.803  28.583  1.00  0.00     0.173 A 
ATOM    116  C   UNL A   1      41.332  28.476  27.647  1.00  0.00     0.173 A 
ATOM    117  F   UNL A   1      39.138  26.329  29.590  1.00  0.00    -0.203 F 
ATOM    118  C   UNL A   1      40.021  26.042  27.423  1.00  0.00     0.198 A 
ATOM    119  C   UNL A   1      41.440  27.728  26.477  1.00  0.00     0.198 A 
ATOM    120  F   UNL A   1      41.978  29.648  27.727  1.00  0.00    -0.203 F 
ATOM    121  F   UNL A   1      39.411  24.852  27.333  1.00  0.00    -0.200 F 
ATOM    122  C   UNL A   1      40.789  26.509  26.368  1.00  0.00     0.200 A 
ATOM    123  F   UNL A   1      42.168  28.193  25.453  1.00  0.00    -0.200 F 
ATOM    124  F   UNL A   1      40.907  25.783  25.248  1.00  0.00    -0.200 F 
ENDBRANCH  86 114
BRANCH 101 125
ATOM    125  C   UNL A   1      44.039  28.386  34.753  1.00  0.00     0.064 A 
ATOM    126  C   UNL A   1      43.862  27.189  35.464  1.00  0.00     0.173 A 
ATOM    127  C   UNL A   1      45.353  28.824  34.525  1.00  0.00     0.173 A 
ATOM    128  F   UNL A   1      42.627  26.734  35.723  1.00  0.00    -0.203 F 
ATOM    129  C   UNL A   1      44.956  26.474  35.946  1.00  0.00     0.198 A 
ATOM    130  C   UNL A   1      46.445  28.089  34.980  1.00  0.00     0.198 A 
ATOM    131  F   UNL A   1      45.580  29.959  33.847  1.00  0.00    -0.203 F 
ATOM    132  F   UNL A   1      44.760  25.360  36.665  1.00  0.00    -0.200 F 
ATOM    133  C   UNL A   1      46.245  26.920  35.697  1.00  0.00     0.200 A 
ATOM    134  F   UNL A   1      47.690  28.514  34.725  1.00  0.00    -0.200 F 
ATOM    135  F   UNL A   1      47.296  26.223  36.152  1.00  0.00    -0.200 F 
ENDBRANCH 101 125
ENDBRANCH  66  69
ENDBRANCH  56  59
ENDBRANCH  52  55
ENDBRANCH  49  52
ENDBRANCH  46  49
ENDBRANCH   1  46
TORSDOF 17
ENDMDL
MODEL 8
REMARK VINA RESULT:     -12.1      3.789      8.778
REMARK SMILES O=C(CNc1nc(-c2ccccc2)c(-c2ccccc2)s1)NCCCCCCNC(=O)c1ccc(-c2c3nc(c(-c4c(F)c(F)c(F)c(F)c4F)c4ccc([nH]4)c(-c4c(F)c(F)c(F)c(F)c4F)c4nc(c(-c5c(F)c(F)c(F)c(F)c5F)c5ccc2[nH]5)C=C4)C=C3)cc1
REMARK SMILES IDX 25 1 24 4 23 7 22 10 1 11 2 12 3 14 4 17 5 19 6 20 21 21
REMARK SMILES IDX 7 22 14 23 8 24 9 25 13 26 10 27 12 29 11 31 15 35 16 36
REMARK SMILES IDX 20 37 17 38 19 40 18 42 26 46 27 49 28 52 29 55 30 56 31 58
REMARK SMILES IDX 32 59 33 60 94 61 34 62 93 64 35 66 36 69 37 70 87 71 38 72
REMARK SMILES IDX 92 73 86 74 88 75 39 76 91 77 85 79 84 81 40 83 72 86 52 87
REMARK SMILES IDX 71 88 53 89 56 90 70 91 89 92 54 93 55 95 69 97 90 98 57 101
REMARK SMILES IDX 41 103 42 104 50 105 43 106 44 107 48 108 51 109 45 110
REMARK SMILES IDX 46 111 49 112 47 113 73 114 74 115 82 116 75 117 76 118
REMARK SMILES IDX 80 119 83 120 77 121 78 122 81 123 79 124 58 125 59 126
REMARK SMILES IDX 67 127 60 128 61 129 65 130 68 131 62 132 63 133 66 134
REMARK SMILES IDX 64 135
REMARK H PARENT 25 2 25 3 24 5 24 6 23 8 23 9 22 13 3 15 3 16 4 18 9 28 13 30
REMARK H PARENT 10 32 12 33 11 34 16 39 20 41 17 43 19 44 18 45 26 47 26 48
REMARK H PARENT 27 50 27 51 28 53 28 54 29 57 33 63 94 65 34 67 93 68 92 78
REMARK H PARENT 86 80 88 82 91 84 85 85 53 94 56 96 89 99 54 100 90 102
REMARK Flexibility Score: inf
ROOT
ATOM      1  C   UNL A   1      31.238  29.342  24.232  1.00  0.00    -0.052 C 
ATOM      2  H   UNL A   1      30.485  28.875  24.833  1.00  0.00     0.027 H 
ATOM      3  H   UNL A   1      31.038  30.370  24.012  1.00  0.00     0.027 H 
ENDROOT
BRANCH   1   4
ATOM      4  C   UNL A   1      31.275  28.621  22.877  1.00  0.00    -0.036 C 
ATOM      5  H   UNL A   1      30.807  29.253  22.151  1.00  0.00     0.028 H 
ATOM      6  H   UNL A   1      32.305  28.428  22.667  1.00  0.00     0.028 H 
BRANCH   4   7
ATOM      7  C   UNL A   1      30.568  27.267  22.853  1.00  0.00     0.017 C 
ATOM      8  H   UNL A   1      29.521  27.424  22.702  1.00  0.00     0.049 H 
ATOM      9  H   UNL A   1      30.987  26.685  22.058  1.00  0.00     0.049 H 
BRANCH   7  10
ATOM     10  N   UNL A   1      30.759  26.541  24.089  1.00  0.00    -0.355 N 
ATOM     11  O   UNL A   1      28.541  26.118  24.541  1.00  0.00    -0.273 OA
ATOM     12  C   UNL A   1      29.725  26.015  24.843  1.00  0.00     0.239 C 
ATOM     13  H   UNL A   1      31.680  26.414  24.414  1.00  0.00     0.163 HD
BRANCH  12  14
ATOM     14  C   UNL A   1      30.210  25.319  26.127  1.00  0.00     0.096 C 
ATOM     15  H   UNL A   1      29.633  25.664  26.960  1.00  0.00     0.059 H 
ATOM     16  H   UNL A   1      31.242  25.549  26.293  1.00  0.00     0.059 H 
BRANCH  14  17
ATOM     17  N   UNL A   1      30.045  23.879  25.984  1.00  0.00    -0.352 N 
ATOM     18  H   UNL A   1      29.174  23.475  26.201  1.00  0.00     0.163 HD
BRANCH  17  19
ATOM     19  C   UNL A   1      31.045  23.085  25.563  1.00  0.00     0.184 A 
ATOM     20  N   UNL A   1      30.948  21.808  25.286  1.00  0.00    -0.220 NA
ATOM     21  S   UNL A   1      32.619  23.755  25.396  1.00  0.00    -0.096 S 
ATOM     22  C   UNL A   1      32.191  21.304  24.930  1.00  0.00     0.091 A 
ATOM     23  C   UNL A   1      33.240  22.210  24.991  1.00  0.00     0.064 A 
BRANCH  22  24
ATOM     24  C   UNL A   1      32.354  19.926  24.493  1.00  0.00     0.002 A 
ATOM     25  C   UNL A   1      32.705  18.917  25.398  1.00  0.00    -0.053 A 
ATOM     26  C   UNL A   1      32.245  19.620  23.130  1.00  0.00    -0.053 A 
ATOM     27  C   UNL A   1      32.983  17.626  24.940  1.00  0.00    -0.062 A 
ATOM     28  H   UNL A   1      32.759  19.126  26.406  1.00  0.00     0.063 H 
ATOM     29  C   UNL A   1      32.526  18.331  22.675  1.00  0.00    -0.062 A 
ATOM     30  H   UNL A   1      31.954  20.350  22.462  1.00  0.00     0.063 H 
ATOM     31  C   UNL A   1      32.903  17.337  23.578  1.00  0.00    -0.062 A 
ATOM     32  H   UNL A   1      33.246  16.887  25.610  1.00  0.00     0.062 H 
ATOM     33  H   UNL A   1      32.457  18.113  21.669  1.00  0.00     0.062 H 
ATOM     34  H   UNL A   1      33.124  16.389  23.238  1.00  0.00     0.062 H 
ENDBRANCH  22  24
BRANCH  23  35
ATOM     35  C   UNL A   1      34.670  22.045  24.733  1.00  0.00    -0.006 A 
ATOM     36  C   UNL A   1      35.278  22.710  23.659  1.00  0.00    -0.053 A 
ATOM     37  C   UNL A   1      35.462  21.268  25.588  1.00  0.00    -0.053 A 
ATOM     38  C   UNL A   1      36.653  22.601  23.446  1.00  0.00    -0.062 A 
ATOM     39  H   UNL A   1      34.704  23.283  23.020  1.00  0.00     0.063 H 
ATOM     40  C   UNL A   1      36.838  21.162  25.375  1.00  0.00    -0.062 A 
ATOM     41  H   UNL A   1      35.027  20.772  26.381  1.00  0.00     0.063 H 
ATOM     42  C   UNL A   1      37.432  21.829  24.305  1.00  0.00    -0.062 A 
ATOM     43  H   UNL A   1      37.093  23.094  22.652  1.00  0.00     0.062 H 
ATOM     44  H   UNL A   1      37.416  20.589  26.010  1.00  0.00     0.062 H 
ATOM     45  H   UNL A   1      38.449  21.751  24.149  1.00  0.00     0.062 H 
ENDBRANCH  23  35
ENDBRANCH  17  19
ENDBRANCH  14  17
ENDBRANCH  12  14
ENDBRANCH   7  10
ENDBRANCH   4   7
ENDBRANCH   1   4
BRANCH   1  46
ATOM     46  C   UNL A   1      32.549  29.329  25.025  1.00  0.00    -0.052 C 
ATOM     47  H   UNL A   1      32.703  30.310  25.423  1.00  0.00     0.027 H 
ATOM     48  H   UNL A   1      33.307  29.022  24.335  1.00  0.00     0.027 H 
BRANCH  46  49
ATOM     49  C   UNL A   1      32.605  28.333  26.185  1.00  0.00    -0.036 C 
ATOM     50  H   UNL A   1      32.817  27.365  25.780  1.00  0.00     0.028 H 
ATOM     51  H   UNL A   1      31.655  28.392  26.674  1.00  0.00     0.028 H 
BRANCH  49  52
ATOM     52  C   UNL A   1      33.652  28.639  27.251  1.00  0.00     0.018 C 
ATOM     53  H   UNL A   1      34.616  28.366  26.874  1.00  0.00     0.049 H 
ATOM     54  H   UNL A   1      33.397  28.079  28.127  1.00  0.00     0.049 H 
BRANCH  52  55
ATOM     55  N   UNL A   1      33.680  30.047  27.622  1.00  0.00    -0.352 N 
ATOM     56  C   UNL A   1      34.665  30.772  28.246  1.00  0.00     0.251 C 
ATOM     57  H   UNL A   1      32.870  30.557  27.391  1.00  0.00     0.163 HD
ATOM     58  O   UNL A   1      34.441  31.919  28.629  1.00  0.00    -0.269 OA
BRANCH  56  59
ATOM     59  C   UNL A   1      35.992  30.166  28.491  1.00  0.00     0.039 A 
ATOM     60  C   UNL A   1      36.941  30.184  27.465  1.00  0.00    -0.049 A 
ATOM     61  C   UNL A   1      36.306  29.590  29.724  1.00  0.00    -0.049 A 
ATOM     62  C   UNL A   1      38.230  29.703  27.704  1.00  0.00    -0.053 A 
ATOM     63  H   UNL A   1      36.690  30.551  26.533  1.00  0.00     0.063 H 
ATOM     64  C   UNL A   1      37.611  29.178  29.984  1.00  0.00    -0.053 A 
ATOM     65  H   UNL A   1      35.573  29.471  30.441  1.00  0.00     0.063 H 
ATOM     66  C   UNL A   1      38.590  29.242  28.981  1.00  0.00    -0.014 A 
ATOM     67  H   UNL A   1      38.922  29.685  26.938  1.00  0.00     0.063 H 
ATOM     68  H   UNL A   1      37.859  28.824  30.922  1.00  0.00     0.063 H 
BRANCH  66  69
ATOM     69  C   UNL A   1      39.993  28.868  29.297  1.00  0.00     0.031 A 
ATOM     70  C   UNL A   1      40.901  29.830  30.007  1.00  0.00     0.074 A 
ATOM     71  C   UNL A   1      40.473  27.684  28.867  1.00  0.00     0.049 A 
ATOM     72  N   UNL A   1      42.173  29.712  30.293  1.00  0.00    -0.248 NA
ATOM     73  C   UNL A   1      40.306  31.107  30.428  1.00  0.00    -0.034 C 
ATOM     74  C   UNL A   1      39.708  26.687  28.119  1.00  0.00    -0.036 A 
ATOM     75  N   UNL A   1      41.724  27.130  28.977  1.00  0.00    -0.354 N 
ATOM     76  C   UNL A   1      42.531  30.896  30.923  1.00  0.00     0.074 A 
ATOM     77  C   UNL A   1      41.358  31.744  30.921  1.00  0.00    -0.034 C 
ATOM     78  H   UNL A   1      39.326  31.424  30.358  1.00  0.00     0.065 H 
ATOM     79  C   UNL A   1      40.501  25.639  27.846  1.00  0.00    -0.036 A 
ATOM     80  H   UNL A   1      38.717  26.774  27.845  1.00  0.00     0.065 H 
ATOM     81  C   UNL A   1      41.841  25.909  28.358  1.00  0.00     0.049 A 
ATOM     82  H   UNL A   1      42.468  27.566  29.454  1.00  0.00     0.167 HD
ATOM     83  C   UNL A   1      43.722  31.236  31.473  1.00  0.00     0.037 A 
ATOM     84  H   UNL A   1      41.342  32.719  31.260  1.00  0.00     0.065 H 
ATOM     85  H   UNL A   1      40.209  24.780  27.353  1.00  0.00     0.065 H 
ATOM     86  C   UNL A   1      42.909  25.105  28.200  1.00  0.00     0.037 A 
ATOM     87  C   UNL A   1      44.888  30.388  31.469  1.00  0.00     0.049 A 
ATOM     88  C   UNL A   1      44.232  25.515  28.790  1.00  0.00     0.074 A 
ATOM     89  C   UNL A   1      46.124  30.617  32.046  1.00  0.00    -0.036 A 
ATOM     90  N   UNL A   1      44.964  29.152  30.842  1.00  0.00    -0.354 N 
ATOM     91  N   UNL A   1      44.538  26.604  29.453  1.00  0.00    -0.248 NA
ATOM     92  C   UNL A   1      45.353  24.584  28.615  1.00  0.00    -0.034 C 
ATOM     93  C   UNL A   1      46.968  29.551  31.716  1.00  0.00    -0.036 A 
ATOM     94  H   UNL A   1      46.381  31.436  32.621  1.00  0.00     0.065 H 
ATOM     95  C   UNL A   1      46.239  28.624  30.987  1.00  0.00     0.049 A 
ATOM     96  H   UNL A   1      44.223  28.714  30.364  1.00  0.00     0.167 HD
ATOM     97  C   UNL A   1      45.879  26.482  29.789  1.00  0.00     0.074 A 
ATOM     98  C   UNL A   1      46.323  25.202  29.274  1.00  0.00    -0.034 C 
ATOM     99  H   UNL A   1      45.379  23.683  28.111  1.00  0.00     0.065 H 
ATOM    100  H   UNL A   1      47.963  29.469  31.972  1.00  0.00     0.065 H 
ATOM    101  C   UNL A   1      46.672  27.353  30.461  1.00  0.00     0.037 A 
ATOM    102  H   UNL A   1      47.273  24.821  29.405  1.00  0.00     0.065 H 
BRANCH  83 103
ATOM    103  C   UNL A   1      43.823  32.591  32.117  1.00  0.00     0.064 A 
ATOM    104  C   UNL A   1      43.523  32.786  33.475  1.00  0.00     0.173 A 
ATOM    105  C   UNL A   1      44.238  33.706  31.373  1.00  0.00     0.173 A 
ATOM    106  F   UNL A   1      43.115  31.757  34.232  1.00  0.00    -0.203 F 
ATOM    107  C   UNL A   1      43.591  34.053  34.051  1.00  0.00     0.198 A 
ATOM    108  C   UNL A   1      44.340  34.964  31.961  1.00  0.00     0.198 A 
ATOM    109  F   UNL A   1      44.548  33.577  30.074  1.00  0.00    -0.203 F 
ATOM    110  F   UNL A   1      43.236  34.225  35.331  1.00  0.00    -0.200 F 
ATOM    111  C   UNL A   1      44.004  35.139  33.295  1.00  0.00     0.200 A 
ATOM    112  F   UNL A   1      44.756  36.011  31.234  1.00  0.00    -0.200 F 
ATOM    113  F   UNL A   1      44.069  36.357  33.849  1.00  0.00    -0.200 F 
ENDBRANCH  83 103
BRANCH  86 114
ATOM    114  C   UNL A   1      42.764  23.833  27.446  1.00  0.00     0.064 A 
ATOM    115  C   UNL A   1      43.127  23.746  26.095  1.00  0.00     0.173 A 
ATOM    116  C   UNL A   1      42.281  22.672  28.068  1.00  0.00     0.173 A 
ATOM    117  F   UNL A   1      43.576  24.834  25.452  1.00  0.00    -0.203 F 
ATOM    118  C   UNL A   1      43.001  22.549  25.392  1.00  0.00     0.198 A 
ATOM    119  C   UNL A   1      42.185  21.469  27.372  1.00  0.00     0.198 A 
ATOM    120  F   UNL A   1      41.925  22.700  29.361  1.00  0.00    -0.203 F 
ATOM    121  F   UNL A   1      43.320  22.503  24.091  1.00  0.00    -0.200 F 
ATOM    122  C   UNL A   1      42.540  21.410  26.033  1.00  0.00     0.200 A 
ATOM    123  F   UNL A   1      41.756  20.366  28.001  1.00  0.00    -0.200 F 
ATOM    124  F   UNL A   1      42.431  20.256  25.360  1.00  0.00    -0.200 F 
ENDBRANCH  86 114
BRANCH 101 125
ATOM    125  C   UNL A   1      48.100  26.947  30.695  1.00  0.00     0.064 A 
ATOM    126  C   UNL A   1      48.465  26.123  31.770  1.00  0.00     0.173 A 
ATOM    127  C   UNL A   1      49.109  27.350  29.806  1.00  0.00     0.173 A 
ATOM    128  F   UNL A   1      47.543  25.724  32.659  1.00  0.00    -0.203 F 
ATOM    129  C   UNL A   1      49.790  25.739  31.960  1.00  0.00     0.198 A 
ATOM    130  C   UNL A   1      50.426  26.935  29.979  1.00  0.00     0.198 A 
ATOM    131  F   UNL A   1      48.813  28.134  28.758  1.00  0.00    -0.203 F 
ATOM    132  F   UNL A   1      50.123  24.992  33.022  1.00  0.00    -0.200 F 
ATOM    133  C   UNL A   1      50.768  26.137  31.060  1.00  0.00     0.200 A 
ATOM    134  F   UNL A   1      51.366  27.310  29.100  1.00  0.00    -0.200 F 
ATOM    135  F   UNL A   1      52.040  25.755  31.238  1.00  0.00    -0.200 F 
ENDBRANCH 101 125
ENDBRANCH  66  69
ENDBRANCH  56  59
ENDBRANCH  52  55
ENDBRANCH  49  52
ENDBRANCH  46  49
ENDBRANCH   1  46
TORSDOF 17
ENDMDL
MODEL 9
REMARK VINA RESULT:     -11.9      0.669      2.002
REMARK SMILES O=C(CNc1nc(-c2ccccc2)c(-c2ccccc2)s1)NCCCCCCNC(=O)c1ccc(-c2c3nc(c(-c4c(F)c(F)c(F)c(F)c4F)c4ccc([nH]4)c(-c4c(F)c(F)c(F)c(F)c4F)c4nc(c(-c5c(F)c(F)c(F)c(F)c5F)c5ccc2[nH]5)C=C4)C=C3)cc1
REMARK SMILES IDX 25 1 24 4 23 7 22 10 1 11 2 12 3 14 4 17 5 19 6 20 21 21
REMARK SMILES IDX 7 22 14 23 8 24 9 25 13 26 10 27 12 29 11 31 15 35 16 36
REMARK SMILES IDX 20 37 17 38 19 40 18 42 26 46 27 49 28 52 29 55 30 56 31 58
REMARK SMILES IDX 32 59 33 60 94 61 34 62 93 64 35 66 36 69 37 70 87 71 38 72
REMARK SMILES IDX 92 73 86 74 88 75 39 76 91 77 85 79 84 81 40 83 72 86 52 87
REMARK SMILES IDX 71 88 53 89 56 90 70 91 89 92 54 93 55 95 69 97 90 98 57 101
REMARK SMILES IDX 41 103 42 104 50 105 43 106 44 107 48 108 51 109 45 110
REMARK SMILES IDX 46 111 49 112 47 113 73 114 74 115 82 116 75 117 76 118
REMARK SMILES IDX 80 119 83 120 77 121 78 122 81 123 79 124 58 125 59 126
REMARK SMILES IDX 67 127 60 128 61 129 65 130 68 131 62 132 63 133 66 134
REMARK SMILES IDX 64 135
REMARK H PARENT 25 2 25 3 24 5 24 6 23 8 23 9 22 13 3 15 3 16 4 18 9 28 13 30
REMARK H PARENT 10 32 12 33 11 34 16 39 20 41 17 43 19 44 18 45 26 47 26 48
REMARK H PARENT 27 50 27 51 28 53 28 54 29 57 33 63 94 65 34 67 93 68 92 78
REMARK H PARENT 86 80 88 82 91 84 85 85 53 94 56 96 89 99 54 100 90 102
REMARK Flexibility Score: inf
ROOT
ATOM      1  C   UNL A   1      33.682  29.517  26.974  1.00  0.00    -0.052 C 
ATOM      2  H   UNL A   1      34.095  29.467  25.989  1.00  0.00     0.027 H 
ATOM      3  H   UNL A   1      33.928  28.676  27.589  1.00  0.00     0.027 H 
ENDROOT
BRANCH   1   4
ATOM      4  C   UNL A   1      32.151  29.509  26.846  1.00  0.00    -0.036 C 
ATOM      5  H   UNL A   1      31.813  28.499  26.949  1.00  0.00     0.028 H 
ATOM      6  H   UNL A   1      31.782  30.158  27.612  1.00  0.00     0.028 H 
BRANCH   4   7
ATOM      7  C   UNL A   1      31.618  30.057  25.523  1.00  0.00     0.017 C 
ATOM      8  H   UNL A   1      30.605  30.371  25.661  1.00  0.00     0.049 H 
ATOM      9  H   UNL A   1      32.237  30.879  25.228  1.00  0.00     0.049 H 
BRANCH   7  10
ATOM     10  N   UNL A   1      31.661  29.062  24.475  1.00  0.00    -0.355 N 
ATOM     11  O   UNL A   1      29.729  29.680  23.385  1.00  0.00    -0.273 OA
ATOM     12  C   UNL A   1      30.709  28.950  23.477  1.00  0.00     0.239 C 
ATOM     13  H   UNL A   1      32.412  28.425  24.471  1.00  0.00     0.163 HD
BRANCH  12  14
ATOM     14  C   UNL A   1      30.984  27.784  22.511  1.00  0.00     0.096 C 
ATOM     15  H   UNL A   1      32.029  27.749  22.280  1.00  0.00     0.059 H 
ATOM     16  H   UNL A   1      30.428  27.927  21.607  1.00  0.00     0.059 H 
BRANCH  14  17
ATOM     17  N   UNL A   1      30.582  26.533  23.140  1.00  0.00    -0.352 N 
ATOM     18  H   UNL A   1      29.647  26.423  23.427  1.00  0.00     0.163 HD
BRANCH  17  19
ATOM     19  C   UNL A   1      31.448  25.525  23.340  1.00  0.00     0.184 A 
ATOM     20  N   UNL A   1      31.140  24.254  23.435  1.00  0.00    -0.220 NA
ATOM     21  S   UNL A   1      33.116  25.892  23.532  1.00  0.00    -0.096 S 
ATOM     22  C   UNL A   1      32.280  23.507  23.690  1.00  0.00     0.091 A 
ATOM     23  C   UNL A   1      33.450  24.238  23.837  1.00  0.00     0.064 A 
BRANCH  22  24
ATOM     24  C   UNL A   1      32.236  22.054  23.761  1.00  0.00     0.002 A 
ATOM     25  C   UNL A   1      32.446  21.382  24.971  1.00  0.00    -0.053 A 
ATOM     26  C   UNL A   1      32.068  21.315  22.583  1.00  0.00    -0.053 A 
ATOM     27  C   UNL A   1      32.528  19.988  24.997  1.00  0.00    -0.062 A 
ATOM     28  H   UNL A   1      32.542  21.918  25.847  1.00  0.00     0.063 H 
ATOM     29  C   UNL A   1      32.154  19.921  22.611  1.00  0.00    -0.062 A 
ATOM     30  H   UNL A   1      31.879  21.801  21.693  1.00  0.00     0.063 H 
ATOM     31  C   UNL A   1      32.392  19.259  23.815  1.00  0.00    -0.062 A 
ATOM     32  H   UNL A   1      32.688  19.496  25.890  1.00  0.00     0.062 H 
ATOM     33  H   UNL A   1      32.042  19.380  21.739  1.00  0.00     0.062 H 
ATOM     34  H   UNL A   1      32.468  18.231  23.831  1.00  0.00     0.062 H 
ENDBRANCH  22  24
BRANCH  23  35
ATOM     35  C   UNL A   1      34.816  23.817  24.144  1.00  0.00    -0.006 A 
ATOM     36  C   UNL A   1      35.399  24.147  25.376  1.00  0.00    -0.053 A 
ATOM     37  C   UNL A   1      35.540  23.031  23.239  1.00  0.00    -0.053 A 
ATOM     38  C   UNL A   1      36.681  23.697  25.696  1.00  0.00    -0.062 A 
ATOM     39  H   UNL A   1      34.877  24.729  26.050  1.00  0.00     0.063 H 
ATOM     40  C   UNL A   1      36.822  22.579  23.561  1.00  0.00    -0.062 A 
ATOM     41  H   UNL A   1      35.123  22.782  22.327  1.00  0.00     0.063 H 
ATOM     42  C   UNL A   1      37.390  22.912  24.789  1.00  0.00    -0.062 A 
ATOM     43  H   UNL A   1      37.104  23.945  26.605  1.00  0.00     0.062 H 
ATOM     44  H   UNL A   1      37.348  21.999  22.889  1.00  0.00     0.062 H 
ATOM     45  H   UNL A   1      38.337  22.577  25.027  1.00  0.00     0.062 H 
ENDBRANCH  23  35
ENDBRANCH  17  19
ENDBRANCH  14  17
ENDBRANCH  12  14
ENDBRANCH   7  10
ENDBRANCH   4   7
ENDBRANCH   1   4
BRANCH   1  46
ATOM     46  C   UNL A   1      34.282  30.739  27.676  1.00  0.00    -0.052 C 
ATOM     47  H   UNL A   1      35.043  31.143  27.042  1.00  0.00     0.027 H 
ATOM     48  H   UNL A   1      34.650  30.388  28.617  1.00  0.00     0.027 H 
BRANCH  46  49
ATOM     49  C   UNL A   1      33.293  31.860  28.001  1.00  0.00    -0.036 C 
ATOM     50  H   UNL A   1      33.523  32.232  28.978  1.00  0.00     0.028 H 
ATOM     51  H   UNL A   1      32.317  31.427  27.930  1.00  0.00     0.028 H 
BRANCH  49  52
ATOM     52  C   UNL A   1      33.306  33.038  27.031  1.00  0.00     0.018 C 
ATOM     53  H   UNL A   1      32.694  32.795  26.188  1.00  0.00     0.049 H 
ATOM     54  H   UNL A   1      34.323  33.210  26.744  1.00  0.00     0.049 H 
BRANCH  52  55
ATOM     55  N   UNL A   1      32.804  34.265  27.633  1.00  0.00    -0.352 N 
ATOM     56  C   UNL A   1      33.185  34.895  28.792  1.00  0.00     0.251 C 
ATOM     57  H   UNL A   1      32.081  34.710  27.133  1.00  0.00     0.163 HD
ATOM     58  O   UNL A   1      32.528  35.839  29.227  1.00  0.00    -0.269 OA
BRANCH  56  59
ATOM     59  C   UNL A   1      34.369  34.422  29.541  1.00  0.00     0.039 A 
ATOM     60  C   UNL A   1      34.180  33.804  30.780  1.00  0.00    -0.049 A 
ATOM     61  C   UNL A   1      35.658  34.578  29.025  1.00  0.00    -0.049 A 
ATOM     62  C   UNL A   1      35.276  33.266  31.461  1.00  0.00    -0.053 A 
ATOM     63  H   UNL A   1      33.236  33.746  31.192  1.00  0.00     0.063 H 
ATOM     64  C   UNL A   1      36.739  33.978  29.669  1.00  0.00    -0.053 A 
ATOM     65  H   UNL A   1      35.809  35.136  28.170  1.00  0.00     0.063 H 
ATOM     66  C   UNL A   1      36.557  33.305  30.887  1.00  0.00    -0.014 A 
ATOM     67  H   UNL A   1      35.142  32.839  32.391  1.00  0.00     0.063 H 
ATOM     68  H   UNL A   1      37.679  34.029  29.246  1.00  0.00     0.063 H 
BRANCH  66  69
ATOM     69  C   UNL A   1      37.706  32.608  31.521  1.00  0.00     0.031 A 
ATOM     70  C   UNL A   1      38.341  31.420  30.859  1.00  0.00     0.074 A 
ATOM     71  C   UNL A   1      38.123  32.999  32.741  1.00  0.00     0.049 A 
ATOM     72  N   UNL A   1      39.295  30.638  31.298  1.00  0.00    -0.248 NA
ATOM     73  C   UNL A   1      37.817  31.045  29.537  1.00  0.00    -0.034 C 
ATOM     74  C   UNL A   1      37.551  34.103  33.513  1.00  0.00    -0.036 A 
ATOM     75  N   UNL A   1      39.109  32.500  33.556  1.00  0.00    -0.354 N 
ATOM     76  C   UNL A   1      39.482  29.679  30.311  1.00  0.00     0.074 A 
ATOM     77  C   UNL A   1      38.502  29.941  29.279  1.00  0.00    -0.034 C 
ATOM     78  H   UNL A   1      37.104  31.519  28.960  1.00  0.00     0.065 H 
ATOM     79  C   UNL A   1      38.200  34.204  34.683  1.00  0.00    -0.036 A 
ATOM     80  H   UNL A   1      36.772  34.707  33.206  1.00  0.00     0.065 H 
ATOM     81  C   UNL A   1      39.202  33.146  34.764  1.00  0.00     0.049 A 
ATOM     82  H   UNL A   1      39.692  31.750  33.298  1.00  0.00     0.167 HD
ATOM     83  C   UNL A   1      40.404  28.686  30.260  1.00  0.00     0.037 A 
ATOM     84  H   UNL A   1      38.355  29.344  28.449  1.00  0.00     0.065 H 
ATOM     85  H   UNL A   1      38.020  34.916  35.408  1.00  0.00     0.065 H 
ATOM     86  C   UNL A   1      39.991  32.903  35.828  1.00  0.00     0.037 A 
ATOM     87  C   UNL A   1      41.376  28.428  31.293  1.00  0.00     0.049 A 
ATOM     88  C   UNL A   1      40.985  31.775  35.765  1.00  0.00     0.074 A 
ATOM     89  C   UNL A   1      42.385  27.483  31.312  1.00  0.00    -0.036 A 
ATOM     90  N   UNL A   1      41.448  29.113  32.499  1.00  0.00    -0.354 N 
ATOM     91  N   UNL A   1      41.207  30.924  34.794  1.00  0.00    -0.248 NA
ATOM     92  C   UNL A   1      41.840  31.578  36.943  1.00  0.00    -0.034 C 
ATOM     93  C   UNL A   1      43.028  27.551  32.553  1.00  0.00    -0.036 A 
ATOM     94  H   UNL A   1      42.623  26.837  30.543  1.00  0.00     0.065 H 
ATOM     95  C   UNL A   1      42.462  28.584  33.284  1.00  0.00     0.049 A 
ATOM     96  H   UNL A   1      40.866  29.862  32.759  1.00  0.00     0.167 HD
ATOM     97  C   UNL A   1      42.236  30.102  35.233  1.00  0.00     0.074 A 
ATOM     98  C   UNL A   1      42.609  30.572  36.552  1.00  0.00    -0.034 C 
ATOM     99  H   UNL A   1      41.842  32.090  37.839  1.00  0.00     0.065 H 
ATOM    100  H   UNL A   1      43.794  26.937  32.870  1.00  0.00     0.065 H 
ATOM    101  C   UNL A   1      42.818  29.053  34.601  1.00  0.00     0.037 A 
ATOM    102  H   UNL A   1      43.377  30.173  37.115  1.00  0.00     0.065 H 
BRANCH  83 103
ATOM    103  C   UNL A   1      40.393  27.797  29.048  1.00  0.00     0.064 A 
ATOM    104  C   UNL A   1      39.632  26.618  29.003  1.00  0.00     0.173 A 
ATOM    105  C   UNL A   1      41.142  28.134  27.910  1.00  0.00     0.173 A 
ATOM    106  F   UNL A   1      38.903  26.245  30.065  1.00  0.00    -0.203 F 
ATOM    107  C   UNL A   1      39.656  25.789  27.885  1.00  0.00     0.198 A 
ATOM    108  C   UNL A   1      41.135  27.321  26.779  1.00  0.00     0.198 A 
ATOM    109  F   UNL A   1      41.880  29.254  27.890  1.00  0.00    -0.203 F 
ATOM    110  F   UNL A   1      38.974  24.636  27.892  1.00  0.00    -0.200 F 
ATOM    111  C   UNL A   1      40.403  26.143  26.772  1.00  0.00     0.200 A 
ATOM    112  F   UNL A   1      41.845  27.673  25.697  1.00  0.00    -0.200 F 
ATOM    113  F   UNL A   1      40.426  25.345  25.696  1.00  0.00    -0.200 F 
ENDBRANCH  83 103
BRANCH  86 114
ATOM    114  C   UNL A   1      39.863  33.749  37.044  1.00  0.00     0.064 A 
ATOM    115  C   UNL A   1      38.980  33.405  38.077  1.00  0.00     0.173 A 
ATOM    116  C   UNL A   1      40.638  34.907  37.206  1.00  0.00     0.173 A 
ATOM    117  F   UNL A   1      38.204  32.318  37.958  1.00  0.00    -0.203 F 
ATOM    118  C   UNL A   1      38.869  34.193  39.220  1.00  0.00     0.198 A 
ATOM    119  C   UNL A   1      40.548  35.677  38.364  1.00  0.00     0.198 A 
ATOM    120  F   UNL A   1      41.502  35.278  36.250  1.00  0.00    -0.203 F 
ATOM    121  F   UNL A   1      37.990  33.861  40.176  1.00  0.00    -0.200 F 
ATOM    122  C   UNL A   1      39.660  35.323  39.367  1.00  0.00     0.200 A 
ATOM    123  F   UNL A   1      41.328  36.757  38.509  1.00  0.00    -0.200 F 
ATOM    124  F   UNL A   1      39.562  36.073  40.474  1.00  0.00    -0.200 F 
ENDBRANCH  86 114
BRANCH 101 125
ATOM    125  C   UNL A   1      43.932  28.346  35.320  1.00  0.00     0.064 A 
ATOM    126  C   UNL A   1      43.689  27.240  36.148  1.00  0.00     0.173 A 
ATOM    127  C   UNL A   1      45.264  28.752  35.143  1.00  0.00     0.173 A 
ATOM    128  F   UNL A   1      42.434  26.821  36.364  1.00  0.00    -0.203 F 
ATOM    129  C   UNL A   1      44.736  26.583  36.790  1.00  0.00     0.198 A 
ATOM    130  C   UNL A   1      46.310  28.072  35.760  1.00  0.00     0.198 A 
ATOM    131  F   UNL A   1      45.553  29.801  34.358  1.00  0.00    -0.203 F 
ATOM    132  F   UNL A   1      44.475  25.559  37.615  1.00  0.00    -0.200 F 
ATOM    133  C   UNL A   1      46.045  26.993  36.589  1.00  0.00     0.200 A 
ATOM    134  F   UNL A   1      47.575  28.462  35.552  1.00  0.00    -0.200 F 
ATOM    135  F   UNL A   1      47.051  26.352  37.199  1.00  0.00    -0.200 F 
ENDBRANCH 101 125
ENDBRANCH  66  69
ENDBRANCH  56  59
ENDBRANCH  52  55
ENDBRANCH  49  52
ENDBRANCH  46  49
ENDBRANCH   1  46
TORSDOF 17
ENDMDL
MODEL 10
REMARK VINA RESULT:     -11.9      1.448      7.524
REMARK SMILES O=C(CNc1nc(-c2ccccc2)c(-c2ccccc2)s1)NCCCCCCNC(=O)c1ccc(-c2c3nc(c(-c4c(F)c(F)c(F)c(F)c4F)c4ccc([nH]4)c(-c4c(F)c(F)c(F)c(F)c4F)c4nc(c(-c5c(F)c(F)c(F)c(F)c5F)c5ccc2[nH]5)C=C4)C=C3)cc1
REMARK SMILES IDX 25 1 24 4 23 7 22 10 1 11 2 12 3 14 4 17 5 19 6 20 21 21
REMARK SMILES IDX 7 22 14 23 8 24 9 25 13 26 10 27 12 29 11 31 15 35 16 36
REMARK SMILES IDX 20 37 17 38 19 40 18 42 26 46 27 49 28 52 29 55 30 56 31 58
REMARK SMILES IDX 32 59 33 60 94 61 34 62 93 64 35 66 36 69 37 70 87 71 38 72
REMARK SMILES IDX 92 73 86 74 88 75 39 76 91 77 85 79 84 81 40 83 72 86 52 87
REMARK SMILES IDX 71 88 53 89 56 90 70 91 89 92 54 93 55 95 69 97 90 98 57 101
REMARK SMILES IDX 41 103 42 104 50 105 43 106 44 107 48 108 51 109 45 110
REMARK SMILES IDX 46 111 49 112 47 113 73 114 74 115 82 116 75 117 76 118
REMARK SMILES IDX 80 119 83 120 77 121 78 122 81 123 79 124 58 125 59 126
REMARK SMILES IDX 67 127 60 128 61 129 65 130 68 131 62 132 63 133 66 134
REMARK SMILES IDX 64 135
REMARK H PARENT 25 2 25 3 24 5 24 6 23 8 23 9 22 13 3 15 3 16 4 18 9 28 13 30
REMARK H PARENT 10 32 12 33 11 34 16 39 20 41 17 43 19 44 18 45 26 47 26 48
REMARK H PARENT 27 50 27 51 28 53 28 54 29 57 33 63 94 65 34 67 93 68 92 78
REMARK H PARENT 86 80 88 82 91 84 85 85 53 94 56 96 89 99 54 100 90 102
REMARK Flexibility Score: inf
ROOT
ATOM      1  C   UNL A   1      35.243  32.530  28.056  1.00  0.00    -0.052 C 
ATOM      2  H   UNL A   1      35.019  33.056  27.152  1.00  0.00     0.027 H 
ATOM      3  H   UNL A   1      36.274  32.576  28.339  1.00  0.00     0.027 H 
ENDROOT
BRANCH   1   4
ATOM      4  C   UNL A   1      34.937  31.043  27.826  1.00  0.00    -0.036 C 
ATOM      5  H   UNL A   1      35.668  30.653  27.148  1.00  0.00     0.028 H 
ATOM      6  H   UNL A   1      34.963  30.577  28.788  1.00  0.00     0.028 H 
BRANCH   4   7
ATOM      7  C   UNL A   1      33.552  30.757  27.246  1.00  0.00     0.017 C 
ATOM      8  H   UNL A   1      33.014  30.131  27.926  1.00  0.00     0.049 H 
ATOM      9  H   UNL A   1      33.049  31.692  27.106  1.00  0.00     0.049 H 
BRANCH   7  10
ATOM     10  N   UNL A   1      33.634  30.094  25.964  1.00  0.00    -0.355 N 
ATOM     11  O   UNL A   1      31.496  29.238  25.924  1.00  0.00    -0.273 OA
ATOM     12  C   UNL A   1      32.593  29.383  25.395  1.00  0.00     0.239 C 
ATOM     13  H   UNL A   1      34.482  30.151  25.466  1.00  0.00     0.163 HD
BRANCH  12  14
ATOM     14  C   UNL A   1      32.963  28.754  24.040  1.00  0.00     0.096 C 
ATOM     15  H   UNL A   1      33.991  28.460  24.050  1.00  0.00     0.059 H 
ATOM     16  H   UNL A   1      32.808  29.468  23.257  1.00  0.00     0.059 H 
BRANCH  14  17
ATOM     17  N   UNL A   1      32.124  27.585  23.808  1.00  0.00    -0.352 N 
ATOM     18  H   UNL A   1      31.181  27.717  23.559  1.00  0.00     0.163 HD
BRANCH  17  19
ATOM     19  C   UNL A   1      32.599  26.333  23.921  1.00  0.00     0.184 A 
ATOM     20  N   UNL A   1      33.830  26.002  24.227  1.00  0.00    -0.220 NA
ATOM     21  S   UNL A   1      31.542  25.014  23.607  1.00  0.00    -0.096 S 
ATOM     22  C   UNL A   1      33.971  24.623  24.203  1.00  0.00     0.091 A 
ATOM     23  C   UNL A   1      32.839  23.915  23.826  1.00  0.00     0.064 A 
BRANCH  22  24
ATOM     24  C   UNL A   1      35.219  23.981  24.586  1.00  0.00     0.002 A 
ATOM     25  C   UNL A   1      35.807  24.228  25.833  1.00  0.00    -0.053 A 
ATOM     26  C   UNL A   1      35.888  23.172  23.659  1.00  0.00    -0.053 A 
ATOM     27  C   UNL A   1      37.067  23.706  26.133  1.00  0.00    -0.062 A 
ATOM     28  H   UNL A   1      35.308  24.799  26.533  1.00  0.00     0.063 H 
ATOM     29  C   UNL A   1      37.149  22.653  23.960  1.00  0.00    -0.062 A 
ATOM     30  H   UNL A   1      35.447  22.957  22.751  1.00  0.00     0.063 H 
ATOM     31  C   UNL A   1      37.742  22.927  25.192  1.00  0.00    -0.062 A 
ATOM     32  H   UNL A   1      37.499  23.894  27.051  1.00  0.00     0.062 H 
ATOM     33  H   UNL A   1      37.645  22.068  23.269  1.00  0.00     0.062 H 
ATOM     34  H   UNL A   1      38.679  22.555  25.408  1.00  0.00     0.062 H 
ENDBRANCH  22  24
BRANCH  23  35
ATOM     35  C   UNL A   1      32.614  22.481  23.649  1.00  0.00    -0.006 A 
ATOM     36  C   UNL A   1      32.601  21.624  24.759  1.00  0.00    -0.053 A 
ATOM     37  C   UNL A   1      32.353  21.952  22.379  1.00  0.00    -0.053 A 
ATOM     38  C   UNL A   1      32.329  20.264  24.600  1.00  0.00    -0.062 A 
ATOM     39  H   UNL A   1      32.795  22.002  25.700  1.00  0.00     0.063 H 
ATOM     40  C   UNL A   1      32.079  20.592  22.221  1.00  0.00    -0.062 A 
ATOM     41  H   UNL A   1      32.362  22.572  21.554  1.00  0.00     0.063 H 
ATOM     42  C   UNL A   1      32.066  19.750  23.332  1.00  0.00    -0.062 A 
ATOM     43  H   UNL A   1      32.322  19.640  25.422  1.00  0.00     0.062 H 
ATOM     44  H   UNL A   1      31.886  20.210  21.283  1.00  0.00     0.062 H 
ATOM     45  H   UNL A   1      31.863  18.745  23.215  1.00  0.00     0.062 H 
ENDBRANCH  23  35
ENDBRANCH  17  19
ENDBRANCH  14  17
ENDBRANCH  12  14
ENDBRANCH   7  10
ENDBRANCH   4   7
ENDBRANCH   1   4
BRANCH   1  46
ATOM     46  C   UNL A   1      34.465  33.197  29.195  1.00  0.00    -0.052 C 
ATOM     47  H   UNL A   1      35.169  33.698  29.826  1.00  0.00     0.027 H 
ATOM     48  H   UNL A   1      33.931  32.411  29.688  1.00  0.00     0.027 H 
BRANCH  46  49
ATOM     49  C   UNL A   1      33.409  34.215  28.760  1.00  0.00    -0.036 C 
ATOM     50  H   UNL A   1      32.459  33.885  29.127  1.00  0.00     0.028 H 
ATOM     51  H   UNL A   1      33.460  34.260  27.693  1.00  0.00     0.028 H 
BRANCH  49  52
ATOM     52  C   UNL A   1      33.639  35.639  29.258  1.00  0.00     0.018 C 
ATOM     53  H   UNL A   1      33.528  36.312  28.433  1.00  0.00     0.049 H 
ATOM     54  H   UNL A   1      34.624  35.683  29.674  1.00  0.00     0.049 H 
BRANCH  52  55
ATOM     55  N   UNL A   1      32.702  36.025  30.303  1.00  0.00    -0.352 N 
ATOM     56  C   UNL A   1      32.715  35.736  31.646  1.00  0.00     0.251 C 
ATOM     57  H   UNL A   1      31.944  36.577  30.003  1.00  0.00     0.163 HD
ATOM     58  O   UNL A   1      31.744  36.011  32.347  1.00  0.00    -0.269 OA
BRANCH  56  59
ATOM     59  C   UNL A   1      33.885  35.062  32.250  1.00  0.00     0.039 A 
ATOM     60  C   UNL A   1      33.710  33.803  32.833  1.00  0.00    -0.049 A 
ATOM     61  C   UNL A   1      35.148  35.658  32.236  1.00  0.00    -0.049 A 
ATOM     62  C   UNL A   1      34.818  33.108  33.325  1.00  0.00    -0.053 A 
ATOM     63  H   UNL A   1      32.767  33.389  32.901  1.00  0.00     0.063 H 
ATOM     64  C   UNL A   1      36.260  34.935  32.661  1.00  0.00    -0.053 A 
ATOM     65  H   UNL A   1      35.256  36.632  31.914  1.00  0.00     0.063 H 
ATOM     66  C   UNL A   1      36.108  33.647  33.198  1.00  0.00    -0.014 A 
ATOM     67  H   UNL A   1      34.686  32.194  33.786  1.00  0.00     0.063 H 
ATOM     68  H   UNL A   1      37.203  35.349  32.579  1.00  0.00     0.063 H 
BRANCH  66  69
ATOM     69  C   UNL A   1      37.311  32.861  33.576  1.00  0.00     0.031 A 
ATOM     70  C   UNL A   1      38.070  33.178  34.831  1.00  0.00     0.074 A 
ATOM     71  C   UNL A   1      37.768  31.909  32.738  1.00  0.00     0.049 A 
ATOM     72  N   UNL A   1      39.185  32.657  35.280  1.00  0.00    -0.248 NA
ATOM     73  C   UNL A   1      37.518  34.242  35.683  1.00  0.00    -0.034 C 
ATOM     74  C   UNL A   1      37.151  31.545  31.462  1.00  0.00    -0.036 A 
ATOM     75  N   UNL A   1      38.866  31.090  32.822  1.00  0.00    -0.354 N 
ATOM     76  C   UNL A   1      39.467  33.330  36.461  1.00  0.00     0.074 A 
ATOM     77  C   UNL A   1      38.442  34.338  36.627  1.00  0.00    -0.034 C 
ATOM     78  H   UNL A   1      36.640  34.774  35.574  1.00  0.00     0.065 H 
ATOM     79  C   UNL A   1      37.873  30.570  30.887  1.00  0.00    -0.036 A 
ATOM     80  H   UNL A   1      36.297  31.968  31.067  1.00  0.00     0.065 H 
ATOM     81  C   UNL A   1      39.027  30.273  31.730  1.00  0.00     0.049 A 
ATOM     82  H   UNL A   1      39.481  31.090  33.591  1.00  0.00     0.167 HD
ATOM     83  C   UNL A   1      40.477  33.111  37.339  1.00  0.00     0.037 A 
ATOM     84  H   UNL A   1      38.432  35.041  37.383  1.00  0.00     0.065 H 
ATOM     85  H   UNL A   1      37.648  30.105  29.993  1.00  0.00     0.065 H 
ATOM     86  C   UNL A   1      40.004  29.397  31.428  1.00  0.00     0.037 A 
ATOM     87  C   UNL A   1      41.497  32.107  37.167  1.00  0.00     0.049 A 
ATOM     88  C   UNL A   1      41.134  29.191  32.401  1.00  0.00     0.074 A 
ATOM     89  C   UNL A   1      42.529  31.769  38.024  1.00  0.00    -0.036 A 
ATOM     90  N   UNL A   1      41.620  31.288  36.053  1.00  0.00    -0.354 N 
ATOM     91  N   UNL A   1      41.348  29.777  33.553  1.00  0.00    -0.248 NA
ATOM     92  C   UNL A   1      42.153  28.199  32.034  1.00  0.00    -0.034 C 
ATOM     93  C   UNL A   1      43.314  30.792  37.403  1.00  0.00    -0.036 A 
ATOM     94  H   UNL A   1      42.693  32.170  38.961  1.00  0.00     0.065 H 
ATOM     95  C   UNL A   1      42.735  30.472  36.185  1.00  0.00     0.049 A 
ATOM     96  H   UNL A   1      41.008  31.286  35.282  1.00  0.00     0.167 HD
ATOM     97  C   UNL A   1      42.514  29.216  34.057  1.00  0.00     0.074 A 
ATOM     98  C   UNL A   1      42.949  28.225  33.093  1.00  0.00    -0.034 C 
ATOM     99  H   UNL A   1      42.228  27.630  31.176  1.00  0.00     0.065 H 
ATOM    100  H   UNL A   1      44.178  30.379  37.786  1.00  0.00     0.065 H 
ATOM    101  C   UNL A   1      43.164  29.497  35.213  1.00  0.00     0.037 A 
ATOM    102  H   UNL A   1      43.774  27.618  33.216  1.00  0.00     0.065 H 
BRANCH  83 103
ATOM    103  C   UNL A   1      40.530  33.984  38.562  1.00  0.00     0.064 A 
ATOM    104  C   UNL A   1      41.270  35.177  38.585  1.00  0.00     0.173 A 
ATOM    105  C   UNL A   1      39.820  33.634  39.721  1.00  0.00     0.173 A 
ATOM    106  F   UNL A   1      41.972  35.557  37.507  1.00  0.00    -0.203 F 
ATOM    107  C   UNL A   1      41.335  35.961  39.735  1.00  0.00     0.198 A 
ATOM    108  C   UNL A   1      39.858  34.439  40.856  1.00  0.00     0.198 A 
ATOM    109  F   UNL A   1      39.087  32.511  39.753  1.00  0.00    -0.203 F 
ATOM    110  F   UNL A   1      42.101  37.059  39.753  1.00  0.00    -0.200 F 
ATOM    111  C   UNL A   1      40.625  35.594  40.867  1.00  0.00     0.200 A 
ATOM    112  F   UNL A   1      39.157  34.091  41.946  1.00  0.00    -0.200 F 
ATOM    113  F   UNL A   1      40.687  36.348  41.973  1.00  0.00    -0.200 F 
ENDBRANCH  83 103
BRANCH  86 114
ATOM    114  C   UNL A   1      39.951  28.653  30.143  1.00  0.00     0.064 A 
ATOM    115  C   UNL A   1      40.499  29.192  28.970  1.00  0.00     0.173 A 
ATOM    116  C   UNL A   1      39.369  27.379  30.065  1.00  0.00     0.173 A 
ATOM    117  F   UNL A   1      41.048  30.415  28.990  1.00  0.00    -0.203 F 
ATOM    118  C   UNL A   1      40.458  28.488  27.768  1.00  0.00     0.198 A 
ATOM    119  C   UNL A   1      39.357  26.664  28.869  1.00  0.00     0.198 A 
ATOM    120  F   UNL A   1      38.835  26.816  31.159  1.00  0.00    -0.203 F 
ATOM    121  F   UNL A   1      40.957  29.043  26.654  1.00  0.00    -0.200 F 
ATOM    122  C   UNL A   1      39.896  27.222  27.721  1.00  0.00     0.200 A 
ATOM    123  F   UNL A   1      38.829  25.433  28.833  1.00  0.00    -0.200 F 
ATOM    124  F   UNL A   1      39.868  26.541  26.566  1.00  0.00    -0.200 F 
ENDBRANCH  86 114
BRANCH 101 125
ATOM    125  C   UNL A   1      44.411  28.713  35.511  1.00  0.00     0.064 A 
ATOM    126  C   UNL A   1      45.679  29.167  35.115  1.00  0.00     0.173 A 
ATOM    127  C   UNL A   1      44.343  27.515  36.240  1.00  0.00     0.173 A 
ATOM    128  F   UNL A   1      45.799  30.297  34.403  1.00  0.00    -0.203 F 
ATOM    129  C   UNL A   1      46.827  28.439  35.418  1.00  0.00     0.198 A 
ATOM    130  C   UNL A   1      45.496  26.808  36.569  1.00  0.00     0.198 A 
ATOM    131  F   UNL A   1      43.157  27.038  36.646  1.00  0.00    -0.203 F 
ATOM    132  F   UNL A   1      48.022  28.868  34.987  1.00  0.00    -0.200 F 
ATOM    133  C   UNL A   1      46.736  27.266  36.151  1.00  0.00     0.200 A 
ATOM    134  F   UNL A   1      45.406  25.682  37.291  1.00  0.00    -0.200 F 
ATOM    135  F   UNL A   1      47.843  26.574  36.451  1.00  0.00    -0.200 F 
ENDBRANCH 101 125
ENDBRANCH  66  69
ENDBRANCH  56  59
ENDBRANCH  52  55
ENDBRANCH  49  52
ENDBRANCH  46  49
ENDBRANCH   1  46
TORSDOF 17
ENDMDL
