MODEL 1
REMARK VINA RESULT:     -12.8      0.000      0.000
REMARK SMILES NS(=O)(=O)c1ccc(N2N=C(C(=O)NCCCCCCNC(=O)c3ccc(-c4c5nc(c(-c6c(F)c(F)c(F)c(F)c6F)c6ccc([nH]6)c(-c6c(F)c(F)c(F)c(F)c6F)c6nc(c(-c7c(F)c(F)c(F)c(F)c7F)c7ccc4[nH]7)C=C6)C=C5)cc3)C[C@H]2c2ccco2)cc1
REMARK SMILES IDX 17 1 16 4 15 7 14 10 12 11 13 12 11 14 9 15 10 16 88 17
REMARK SMILES IDX 87 18 8 22 5 23 6 24 95 25 7 26 94 28 2 32 3 33 4 34 1 35
REMARK SMILES IDX 89 38 90 39 93 40 91 41 92 43 18 46 19 49 20 52 21 55 22 56
REMARK SMILES IDX 23 58 24 59 25 60 86 61 26 62 85 64 27 66 28 69 29 70 79 71
REMARK SMILES IDX 30 72 84 73 78 74 80 75 31 76 83 77 77 79 76 81 32 83 64 86
REMARK SMILES IDX 44 87 63 88 45 89 48 90 62 91 81 92 46 93 47 95 61 97 82 98
REMARK SMILES IDX 49 101 33 103 34 104 42 105 35 106 36 107 40 108 43 109
REMARK SMILES IDX 37 110 38 111 41 112 39 113 65 114 66 115 74 116 67 117
REMARK SMILES IDX 68 118 72 119 75 120 69 121 70 122 73 123 71 124 50 125
REMARK SMILES IDX 51 126 59 127 52 128 53 129 57 130 60 131 54 132 55 133
REMARK SMILES IDX 58 134 56 135
REMARK H PARENT 17 2 17 3 16 5 16 6 15 8 15 9 14 13 88 19 87 20 87 21 6 27
REMARK H PARENT 95 29 7 30 94 31 1 36 1 37 90 42 91 44 92 45 18 47 18 48 19 50
REMARK H PARENT 19 51 20 53 20 54 21 57 25 63 86 65 26 67 85 68 84 78 78 80
REMARK H PARENT 80 82 83 84 77 85 45 94 48 96 81 99 46 100 82 102
REMARK Flexibility Score: inf
ROOT
ATOM      1  C   UNL A   1      37.025  22.085  24.574  1.00  0.00    -0.052 C 
ATOM      2  H   UNL A   1      36.815  22.708  25.419  1.00  0.00     0.027 H 
ATOM      3  H   UNL A   1      38.065  22.051  24.322  1.00  0.00     0.027 H 
ENDROOT
BRANCH   1   4
ATOM      4  C   UNL A   1      36.307  22.675  23.359  1.00  0.00    -0.036 C 
ATOM      5  H   UNL A   1      36.984  23.333  22.854  1.00  0.00     0.028 H 
ATOM      6  H   UNL A   1      36.002  21.851  22.748  1.00  0.00     0.028 H 
BRANCH   4   7
ATOM      7  C   UNL A   1      35.047  23.458  23.708  1.00  0.00     0.018 C 
ATOM      8  H   UNL A   1      34.959  23.524  24.772  1.00  0.00     0.049 H 
ATOM      9  H   UNL A   1      35.122  24.434  23.277  1.00  0.00     0.049 H 
BRANCH   7  10
ATOM     10  N   UNL A   1      33.867  22.809  23.176  1.00  0.00    -0.351 N 
ATOM     11  C   UNL A   1      32.521  23.071  23.238  1.00  0.00     0.267 C 
ATOM     12  O   UNL A   1      31.760  22.242  22.747  1.00  0.00    -0.268 OA
ATOM     13  H   UNL A   1      34.076  22.001  22.654  1.00  0.00     0.163 HD
BRANCH  11  14
ATOM     14  C   UNL A   1      31.934  24.343  23.830  1.00  0.00     0.128 C 
ATOM     15  N   UNL A   1      31.143  26.317  23.873  1.00  0.00    -0.254 N 
ATOM     16  N   UNL A   1      31.388  25.247  23.073  1.00  0.00    -0.171 NA
ATOM     17  C   UNL A   1      31.365  26.068  25.298  1.00  0.00     0.116 C 
ATOM     18  C   UNL A   1      31.965  24.664  25.286  1.00  0.00     0.027 C 
ATOM     19  H   UNL A   1      30.449  26.178  25.840  1.00  0.00     0.064 H 
ATOM     20  H   UNL A   1      32.965  24.662  25.666  1.00  0.00     0.036 H 
ATOM     21  H   UNL A   1      31.443  23.960  25.901  1.00  0.00     0.036 H 
BRANCH  15  22
ATOM     22  C   UNL A   1      30.406  27.395  23.407  1.00  0.00     0.060 A 
ATOM     23  C   UNL A   1      28.977  29.652  22.558  1.00  0.00     0.082 A 
ATOM     24  C   UNL A   1      28.292  28.561  23.098  1.00  0.00    -0.040 A 
ATOM     25  C   UNL A   1      30.359  29.610  22.388  1.00  0.00    -0.040 A 
ATOM     26  C   UNL A   1      29.010  27.434  23.513  1.00  0.00    -0.035 A 
ATOM     27  H   UNL A   1      27.264  28.585  23.188  1.00  0.00     0.064 H 
ATOM     28  C   UNL A   1      31.059  28.481  22.808  1.00  0.00    -0.035 A 
ATOM     29  H   UNL A   1      30.858  30.404  21.957  1.00  0.00     0.064 H 
ATOM     30  H   UNL A   1      28.506  26.624  23.904  1.00  0.00     0.065 H 
ATOM     31  H   UNL A   1      32.082  28.444  22.675  1.00  0.00     0.065 H 
BRANCH  23  32
ATOM     32  S   UNL A   1      28.084  31.084  22.039  1.00  0.00     0.238 S 
ATOM     33  O   UNL A   1      27.185  31.497  23.090  1.00  0.00    -0.207 OA
ATOM     34  O   UNL A   1      27.656  30.916  20.669  1.00  0.00    -0.207 OA
BRANCH  32  35
ATOM     35  N   UNL A   1      29.302  32.242  21.990  1.00  0.00    -0.225 NA
ATOM     36  H   UNL A   1      28.896  33.154  21.780  1.00  0.00     0.137 HD
ATOM     37  H   UNL A   1      29.976  31.995  21.265  1.00  0.00     0.137 HD
ENDBRANCH  32  35
ENDBRANCH  23  32
ENDBRANCH  15  22
BRANCH  17  38
ATOM     38  C   UNL A   1      32.206  27.052  26.059  1.00  0.00     0.128 A 
ATOM     39  C   UNL A   1      31.933  27.884  27.129  1.00  0.00    -0.018 A 
ATOM     40  O   UNL A   1      33.510  27.217  25.680  1.00  0.00    -0.467 OA
ATOM     41  C   UNL A   1      33.117  28.615  27.388  1.00  0.00    -0.023 A 
ATOM     42  H   UNL A   1      31.040  27.959  27.640  1.00  0.00     0.066 H 
ATOM     43  C   UNL A   1      34.052  28.158  26.491  1.00  0.00     0.091 A 
ATOM     44  H   UNL A   1      33.251  29.344  28.106  1.00  0.00     0.066 H 
ATOM     45  H   UNL A   1      35.030  28.486  26.441  1.00  0.00     0.104 H 
ENDBRANCH  17  38
ENDBRANCH  11  14
ENDBRANCH   7  10
ENDBRANCH   4   7
ENDBRANCH   1   4
BRANCH   1  46
ATOM     46  C   UNL A   1      36.620  20.649  24.927  1.00  0.00    -0.052 C 
ATOM     47  H   UNL A   1      35.932  20.306  24.183  1.00  0.00     0.027 H 
ATOM     48  H   UNL A   1      36.199  20.692  25.910  1.00  0.00     0.027 H 
BRANCH  46  49
ATOM     49  C   UNL A   1      37.777  19.648  25.001  1.00  0.00    -0.036 C 
ATOM     50  H   UNL A   1      37.965  19.281  24.014  1.00  0.00     0.028 H 
ATOM     51  H   UNL A   1      37.473  18.881  25.682  1.00  0.00     0.028 H 
BRANCH  49  52
ATOM     52  C   UNL A   1      39.075  20.227  25.549  1.00  0.00     0.018 C 
ATOM     53  H   UNL A   1      38.860  20.768  26.448  1.00  0.00     0.049 H 
ATOM     54  H   UNL A   1      39.492  20.871  24.803  1.00  0.00     0.049 H 
BRANCH  52  55
ATOM     55  N   UNL A   1      40.049  19.191  25.845  1.00  0.00    -0.352 N 
ATOM     56  C   UNL A   1      41.385  19.309  26.127  1.00  0.00     0.251 C 
ATOM     57  H   UNL A   1      39.698  18.270  25.844  1.00  0.00     0.163 HD
ATOM     58  O   UNL A   1      42.105  18.315  26.138  1.00  0.00    -0.269 OA
BRANCH  56  59
ATOM     59  C   UNL A   1      41.962  20.641  26.400  1.00  0.00     0.039 A 
ATOM     60  C   UNL A   1      42.193  21.508  25.330  1.00  0.00    -0.049 A 
ATOM     61  C   UNL A   1      42.285  21.028  27.703  1.00  0.00    -0.049 A 
ATOM     62  C   UNL A   1      42.697  22.786  25.575  1.00  0.00    -0.053 A 
ATOM     63  H   UNL A   1      41.991  21.206  24.364  1.00  0.00     0.063 H 
ATOM     64  C   UNL A   1      42.709  22.328  27.954  1.00  0.00    -0.053 A 
ATOM     65  H   UNL A   1      42.208  20.351  28.479  1.00  0.00     0.063 H 
ATOM     66  C   UNL A   1      42.928  23.218  26.892  1.00  0.00    -0.014 A 
ATOM     67  H   UNL A   1      42.903  23.417  24.784  1.00  0.00     0.063 H 
ATOM     68  H   UNL A   1      42.864  22.641  28.925  1.00  0.00     0.063 H 
BRANCH  66  69
ATOM     69  C   UNL A   1      43.402  24.597  27.174  1.00  0.00     0.031 A 
ATOM     70  C   UNL A   1      42.454  25.625  27.726  1.00  0.00     0.074 A 
ATOM     71  C   UNL A   1      44.673  24.936  26.884  1.00  0.00     0.049 A 
ATOM     72  N   UNL A   1      42.663  26.891  27.985  1.00  0.00    -0.248 NA
ATOM     73  C   UNL A   1      41.078  25.178  27.998  1.00  0.00    -0.034 C 
ATOM     74  C   UNL A   1      45.675  24.039  26.305  1.00  0.00    -0.036 A 
ATOM     75  N   UNL A   1      45.338  26.129  27.026  1.00  0.00    -0.354 N 
ATOM     76  C   UNL A   1      41.449  27.391  28.438  1.00  0.00     0.074 A 
ATOM     77  C   UNL A   1      40.493  26.309  28.360  1.00  0.00    -0.034 C 
ATOM     78  H   UNL A   1      40.676  24.231  27.925  1.00  0.00     0.065 H 
ATOM     79  C   UNL A   1      46.834  24.704  26.168  1.00  0.00    -0.036 A 
ATOM     80  H   UNL A   1      45.517  23.054  26.045  1.00  0.00     0.065 H 
ATOM     81  C   UNL A   1      46.644  26.085  26.604  1.00  0.00     0.049 A 
ATOM     82  H   UNL A   1      44.918  26.939  27.395  1.00  0.00     0.167 HD
ATOM     83  C   UNL A   1      41.166  28.632  28.900  1.00  0.00     0.037 A 
ATOM     84  H   UNL A   1      39.485  26.405  28.562  1.00  0.00     0.065 H 
ATOM     85  H   UNL A   1      47.715  24.305  25.812  1.00  0.00     0.065 H 
ATOM     86  C   UNL A   1      47.581  27.052  26.562  1.00  0.00     0.037 A 
ATOM     87  C   UNL A   1      42.128  29.700  28.989  1.00  0.00     0.049 A 
ATOM     88  C   UNL A   1      47.231  28.430  27.058  1.00  0.00     0.074 A 
ATOM     89  C   UNL A   1      41.954  30.976  29.492  1.00  0.00    -0.036 A 
ATOM     90  N   UNL A   1      43.443  29.616  28.555  1.00  0.00    -0.354 N 
ATOM     91  N   UNL A   1      46.099  28.872  27.551  1.00  0.00    -0.248 NA
ATOM     92  C   UNL A   1      48.294  29.443  26.998  1.00  0.00    -0.034 C 
ATOM     93  C   UNL A   1      43.145  31.686  29.305  1.00  0.00    -0.036 A 
ATOM     94  H   UNL A   1      41.094  31.343  29.931  1.00  0.00     0.065 H 
ATOM     95  C   UNL A   1      44.084  30.830  28.751  1.00  0.00     0.049 A 
ATOM     96  H   UNL A   1      43.860  28.814  28.166  1.00  0.00     0.167 HD
ATOM     97  C   UNL A   1      46.322  30.200  27.890  1.00  0.00     0.074 A 
ATOM     98  C   UNL A   1      47.703  30.487  27.561  1.00  0.00    -0.034 C 
ATOM     99  H   UNL A   1      49.250  29.363  26.618  1.00  0.00     0.065 H 
ATOM    100  H   UNL A   1      43.299  32.679  29.540  1.00  0.00     0.065 H 
ATOM    101  C   UNL A   1      45.461  31.101  28.426  1.00  0.00     0.037 A 
ATOM    102  H   UNL A   1      48.167  31.391  27.742  1.00  0.00     0.065 H 
BRANCH  83 103
ATOM    103  C   UNL A   1      39.756  28.904  29.344  1.00  0.00     0.064 A 
ATOM    104  C   UNL A   1      38.784  29.399  28.460  1.00  0.00     0.173 A 
ATOM    105  C   UNL A   1      39.361  28.632  30.663  1.00  0.00     0.173 A 
ATOM    106  F   UNL A   1      39.110  29.687  27.190  1.00  0.00    -0.203 F 
ATOM    107  C   UNL A   1      37.481  29.641  28.887  1.00  0.00     0.198 A 
ATOM    108  C   UNL A   1      38.047  28.840  31.077  1.00  0.00     0.198 A 
ATOM    109  F   UNL A   1      40.245  28.151  31.550  1.00  0.00    -0.203 F 
ATOM    110  F   UNL A   1      36.586  30.166  28.038  1.00  0.00    -0.200 F 
ATOM    111  C   UNL A   1      37.111  29.354  30.191  1.00  0.00     0.200 A 
ATOM    112  F   UNL A   1      37.688  28.547  32.334  1.00  0.00    -0.200 F 
ATOM    113  F   UNL A   1      35.855  29.579  30.599  1.00  0.00    -0.200 F 
ENDBRANCH  83 103
BRANCH  86 114
ATOM    114  C   UNL A   1      48.943  26.749  26.048  1.00  0.00     0.064 A 
ATOM    115  C   UNL A   1      49.936  26.234  26.893  1.00  0.00     0.173 A 
ATOM    116  C   UNL A   1      49.283  26.978  24.707  1.00  0.00     0.173 A 
ATOM    117  F   UNL A   1      49.666  26.016  28.188  1.00  0.00    -0.203 F 
ATOM    118  C   UNL A   1      51.224  25.987  26.423  1.00  0.00     0.198 A 
ATOM    119  C   UNL A   1      50.562  26.698  24.230  1.00  0.00     0.198 A 
ATOM    120  F   UNL A   1      48.369  27.463  23.853  1.00  0.00    -0.203 F 
ATOM    121  F   UNL A   1      52.169  25.548  27.266  1.00  0.00    -0.200 F 
ATOM    122  C   UNL A   1      51.535  26.213  25.091  1.00  0.00     0.200 A 
ATOM    123  F   UNL A   1      50.852  26.901  22.938  1.00  0.00    -0.200 F 
ATOM    124  F   UNL A   1      52.773  25.973  24.639  1.00  0.00    -0.200 F 
ENDBRANCH  86 114
BRANCH 101 125
ATOM    125  C   UNL A   1      45.997  32.470  28.734  1.00  0.00     0.064 A 
ATOM    126  C   UNL A   1      45.883  33.533  27.824  1.00  0.00     0.173 A 
ATOM    127  C   UNL A   1      46.598  32.732  29.975  1.00  0.00     0.173 A 
ATOM    128  F   UNL A   1      45.330  33.333  26.619  1.00  0.00    -0.203 F 
ATOM    129  C   UNL A   1      46.379  34.797  28.135  1.00  0.00     0.198 A 
ATOM    130  C   UNL A   1      47.059  34.006  30.296  1.00  0.00     0.198 A 
ATOM    131  F   UNL A   1      46.725  31.755  30.885  1.00  0.00    -0.203 F 
ATOM    132  F   UNL A   1      46.309  35.781  27.228  1.00  0.00    -0.200 F 
ATOM    133  C   UNL A   1      46.957  35.034  29.373  1.00  0.00     0.200 A 
ATOM    134  F   UNL A   1      47.600  34.237  31.500  1.00  0.00    -0.200 F 
ATOM    135  F   UNL A   1      47.423  36.254  29.672  1.00  0.00    -0.200 F 
ENDBRANCH 101 125
ENDBRANCH  66  69
ENDBRANCH  56  59
ENDBRANCH  52  55
ENDBRANCH  49  52
ENDBRANCH  46  49
ENDBRANCH   1  46
TORSDOF 17
ENDMDL
MODEL 2
REMARK VINA RESULT:     -12.6      5.417     11.188
REMARK SMILES NS(=O)(=O)c1ccc(N2N=C(C(=O)NCCCCCCNC(=O)c3ccc(-c4c5nc(c(-c6c(F)c(F)c(F)c(F)c6F)c6ccc([nH]6)c(-c6c(F)c(F)c(F)c(F)c6F)c6nc(c(-c7c(F)c(F)c(F)c(F)c7F)c7ccc4[nH]7)C=C6)C=C5)cc3)C[C@H]2c2ccco2)cc1
REMARK SMILES IDX 17 1 16 4 15 7 14 10 12 11 13 12 11 14 9 15 10 16 88 17
REMARK SMILES IDX 87 18 8 22 5 23 6 24 95 25 7 26 94 28 2 32 3 33 4 34 1 35
REMARK SMILES IDX 89 38 90 39 93 40 91 41 92 43 18 46 19 49 20 52 21 55 22 56
REMARK SMILES IDX 23 58 24 59 25 60 86 61 26 62 85 64 27 66 28 69 29 70 79 71
REMARK SMILES IDX 30 72 84 73 78 74 80 75 31 76 83 77 77 79 76 81 32 83 64 86
REMARK SMILES IDX 44 87 63 88 45 89 48 90 62 91 81 92 46 93 47 95 61 97 82 98
REMARK SMILES IDX 49 101 33 103 34 104 42 105 35 106 36 107 40 108 43 109
REMARK SMILES IDX 37 110 38 111 41 112 39 113 65 114 66 115 74 116 67 117
REMARK SMILES IDX 68 118 72 119 75 120 69 121 70 122 73 123 71 124 50 125
REMARK SMILES IDX 51 126 59 127 52 128 53 129 57 130 60 131 54 132 55 133
REMARK SMILES IDX 58 134 56 135
REMARK H PARENT 17 2 17 3 16 5 16 6 15 8 15 9 14 13 88 19 87 20 87 21 6 27
REMARK H PARENT 95 29 7 30 94 31 1 36 1 37 90 42 91 44 92 45 18 47 18 48 19 50
REMARK H PARENT 19 51 20 53 20 54 21 57 25 63 86 65 26 67 85 68 84 78 78 80
REMARK H PARENT 80 82 83 84 77 85 45 94 48 96 81 99 46 100 82 102
REMARK Flexibility Score: inf
ROOT
ATOM      1  C   UNL A   1      31.851  29.259  26.804  1.00  0.00    -0.052 C 
ATOM      2  H   UNL A   1      32.488  29.594  27.596  1.00  0.00     0.027 H 
ATOM      3  H   UNL A   1      30.877  28.968  27.139  1.00  0.00     0.027 H 
ENDROOT
BRANCH   1   4
ATOM      4  C   UNL A   1      32.481  28.014  26.180  1.00  0.00    -0.036 C 
ATOM      5  H   UNL A   1      32.495  28.139  25.117  1.00  0.00     0.028 H 
ATOM      6  H   UNL A   1      33.463  27.920  26.595  1.00  0.00     0.028 H 
BRANCH   4   7
ATOM      7  C   UNL A   1      31.740  26.721  26.501  1.00  0.00     0.018 C 
ATOM      8  H   UNL A   1      32.448  25.921  26.575  1.00  0.00     0.049 H 
ATOM      9  H   UNL A   1      31.219  26.848  27.427  1.00  0.00     0.049 H 
BRANCH   7  10
ATOM     10  N   UNL A   1      30.776  26.403  25.469  1.00  0.00    -0.351 N 
ATOM     11  C   UNL A   1      30.776  25.561  24.386  1.00  0.00     0.267 C 
ATOM     12  O   UNL A   1      29.806  25.605  23.634  1.00  0.00    -0.268 OA
ATOM     13  H   UNL A   1      29.932  26.901  25.567  1.00  0.00     0.163 HD
BRANCH  11  14
ATOM     14  C   UNL A   1      31.878  24.553  24.099  1.00  0.00     0.128 C 
ATOM     15  N   UNL A   1      32.916  22.696  24.151  1.00  0.00    -0.254 N 
ATOM     16  N   UNL A   1      31.705  23.285  24.326  1.00  0.00    -0.171 NA
ATOM     17  C   UNL A   1      33.941  23.580  23.595  1.00  0.00     0.116 C 
ATOM     18  C   UNL A   1      33.224  24.929  23.580  1.00  0.00     0.027 C 
ATOM     19  H   UNL A   1      34.267  23.216  22.642  1.00  0.00     0.064 H 
ATOM     20  H   UNL A   1      33.707  25.636  24.221  1.00  0.00     0.036 H 
ATOM     21  H   UNL A   1      33.206  25.404  22.621  1.00  0.00     0.036 H 
BRANCH  15  22
ATOM     22  C   UNL A   1      33.039  21.315  24.153  1.00  0.00     0.060 A 
ATOM     23  C   UNL A   1      33.417  18.538  24.118  1.00  0.00     0.082 A 
ATOM     24  C   UNL A   1      32.493  19.123  23.248  1.00  0.00    -0.040 A 
ATOM     25  C   UNL A   1      34.115  19.315  25.040  1.00  0.00    -0.040 A 
ATOM     26  C   UNL A   1      32.305  20.509  23.275  1.00  0.00    -0.035 A 
ATOM     27  H   UNL A   1      31.954  18.537  22.591  1.00  0.00     0.064 H 
ATOM     28  C   UNL A   1      33.916  20.694  25.053  1.00  0.00    -0.035 A 
ATOM     29  H   UNL A   1      34.770  18.875  25.705  1.00  0.00     0.064 H 
ATOM     30  H   UNL A   1      31.617  20.942  22.640  1.00  0.00     0.065 H 
ATOM     31  H   UNL A   1      34.425  21.270  25.742  1.00  0.00     0.065 H 
BRANCH  23  32
ATOM     32  S   UNL A   1      33.673  16.792  24.087  1.00  0.00     0.238 S 
ATOM     33  O   UNL A   1      34.029  16.381  22.750  1.00  0.00    -0.207 OA
ATOM     34  O   UNL A   1      32.636  16.139  24.852  1.00  0.00    -0.207 OA
BRANCH  32  35
ATOM     35  N   UNL A   1      35.072  16.640  25.007  1.00  0.00    -0.225 NA
ATOM     36  H   UNL A   1      35.038  15.768  25.536  1.00  0.00     0.137 HD
ATOM     37  H   UNL A   1      35.142  17.426  25.653  1.00  0.00     0.137 HD
ENDBRANCH  32  35
ENDBRANCH  23  32
ENDBRANCH  15  22
BRANCH  17  38
ATOM     38  C   UNL A   1      35.271  23.638  24.290  1.00  0.00     0.128 A 
ATOM     39  C   UNL A   1      36.546  23.271  23.901  1.00  0.00    -0.018 A 
ATOM     40  O   UNL A   1      35.313  24.137  25.563  1.00  0.00    -0.467 OA
ATOM     41  C   UNL A   1      37.396  23.526  25.003  1.00  0.00    -0.023 A 
ATOM     42  H   UNL A   1      36.824  22.886  22.985  1.00  0.00     0.066 H 
ATOM     43  C   UNL A   1      36.600  24.069  25.982  1.00  0.00     0.091 A 
ATOM     44  H   UNL A   1      38.410  23.340  25.060  1.00  0.00     0.066 H 
ATOM     45  H   UNL A   1      36.936  24.383  26.907  1.00  0.00     0.104 H 
ENDBRANCH  17  38
ENDBRANCH  11  14
ENDBRANCH   7  10
ENDBRANCH   4   7
ENDBRANCH   1   4
BRANCH   1  46
ATOM     46  C   UNL A   1      31.641  30.430  25.836  1.00  0.00    -0.052 C 
ATOM     47  H   UNL A   1      30.792  30.206  25.224  1.00  0.00     0.027 H 
ATOM     48  H   UNL A   1      32.551  30.525  25.282  1.00  0.00     0.027 H 
BRANCH  46  49
ATOM     49  C   UNL A   1      31.402  31.788  26.501  1.00  0.00    -0.036 C 
ATOM     50  H   UNL A   1      30.707  31.649  27.304  1.00  0.00     0.028 H 
ATOM     51  H   UNL A   1      31.033  32.440  25.738  1.00  0.00     0.028 H 
BRANCH  49  52
ATOM     52  C   UNL A   1      32.657  32.442  27.064  1.00  0.00     0.018 C 
ATOM     53  H   UNL A   1      33.430  32.400  26.325  1.00  0.00     0.049 H 
ATOM     54  H   UNL A   1      32.940  31.909  27.948  1.00  0.00     0.049 H 
BRANCH  52  55
ATOM     55  N   UNL A   1      32.429  33.830  27.428  1.00  0.00    -0.352 N 
ATOM     56  C   UNL A   1      32.995  34.568  28.435  1.00  0.00     0.251 C 
ATOM     57  H   UNL A   1      31.774  34.309  26.871  1.00  0.00     0.163 HD
ATOM     58  O   UNL A   1      32.528  35.662  28.737  1.00  0.00    -0.269 OA
BRANCH  56  59
ATOM     59  C   UNL A   1      34.160  34.035  29.170  1.00  0.00     0.039 A 
ATOM     60  C   UNL A   1      33.943  33.169  30.243  1.00  0.00    -0.049 A 
ATOM     61  C   UNL A   1      35.461  34.396  28.808  1.00  0.00    -0.049 A 
ATOM     62  C   UNL A   1      35.033  32.623  30.920  1.00  0.00    -0.053 A 
ATOM     63  H   UNL A   1      32.981  32.934  30.534  1.00  0.00     0.063 H 
ATOM     64  C   UNL A   1      36.546  33.788  29.430  1.00  0.00    -0.053 A 
ATOM     65  H   UNL A   1      35.617  35.113  28.082  1.00  0.00     0.063 H 
ATOM     66  C   UNL A   1      36.344  32.902  30.499  1.00  0.00    -0.014 A 
ATOM     67  H   UNL A   1      34.876  32.011  31.737  1.00  0.00     0.063 H 
ATOM     68  H   UNL A   1      37.505  33.990  29.105  1.00  0.00     0.063 H 
BRANCH  66  69
ATOM     69  C   UNL A   1      37.515  32.277  31.166  1.00  0.00     0.031 A 
ATOM     70  C   UNL A   1      38.259  31.156  30.496  1.00  0.00     0.074 A 
ATOM     71  C   UNL A   1      37.872  32.684  32.399  1.00  0.00     0.049 A 
ATOM     72  N   UNL A   1      39.266  30.448  30.940  1.00  0.00    -0.248 NA
ATOM     73  C   UNL A   1      37.792  30.758  29.158  1.00  0.00    -0.034 C 
ATOM     74  C   UNL A   1      37.201  33.732  33.171  1.00  0.00    -0.036 A 
ATOM     75  N   UNL A   1      38.883  32.260  33.225  1.00  0.00    -0.354 N 
ATOM     76  C   UNL A   1      39.545  29.521  29.945  1.00  0.00     0.074 A 
ATOM     77  C   UNL A   1      38.563  29.713  28.902  1.00  0.00    -0.034 C 
ATOM     78  H   UNL A   1      37.056  31.184  28.573  1.00  0.00     0.065 H 
ATOM     79  C   UNL A   1      37.835  33.889  34.344  1.00  0.00    -0.036 A 
ATOM     80  H   UNL A   1      36.375  34.266  32.861  1.00  0.00     0.065 H 
ATOM     81  C   UNL A   1      38.925  32.922  34.429  1.00  0.00     0.049 A 
ATOM     82  H   UNL A   1      39.517  31.548  32.979  1.00  0.00     0.167 HD
ATOM     83  C   UNL A   1      40.545  28.608  29.896  1.00  0.00     0.037 A 
ATOM     84  H   UNL A   1      38.474  29.114  28.065  1.00  0.00     0.065 H 
ATOM     85  H   UNL A   1      37.590  34.580  35.069  1.00  0.00     0.065 H 
ATOM     86  C   UNL A   1      39.744  32.760  35.485  1.00  0.00     0.037 A 
ATOM     87  C   UNL A   1      41.529  28.432  30.933  1.00  0.00     0.049 A 
ATOM     88  C   UNL A   1      40.832  31.720  35.415  1.00  0.00     0.074 A 
ATOM     89  C   UNL A   1      42.613  27.573  30.956  1.00  0.00    -0.036 A 
ATOM     90  N   UNL A   1      41.542  29.124  32.135  1.00  0.00    -0.354 N 
ATOM     91  N   UNL A   1      41.130  30.896  34.439  1.00  0.00    -0.248 NA
ATOM     92  C   UNL A   1      41.701  31.593  36.593  1.00  0.00    -0.034 C 
ATOM     93  C   UNL A   1      43.245  27.699  32.197  1.00  0.00    -0.036 A 
ATOM     94  H   UNL A   1      42.906  26.947  30.189  1.00  0.00     0.065 H 
ATOM     95  C   UNL A   1      42.598  28.688  32.921  1.00  0.00     0.049 A 
ATOM     96  H   UNL A   1      40.897  29.821  32.394  1.00  0.00     0.167 HD
ATOM     97  C   UNL A   1      42.238  30.179  34.870  1.00  0.00     0.074 A 
ATOM     98  C   UNL A   1      42.569  30.677  36.189  1.00  0.00    -0.034 C 
ATOM     99  H   UNL A   1      41.650  32.088  37.496  1.00  0.00     0.065 H 
ATOM    100  H   UNL A   1      44.056  27.149  32.520  1.00  0.00     0.065 H 
ATOM    101  C   UNL A   1      42.921  29.197  34.230  1.00  0.00     0.037 A 
ATOM    102  H   UNL A   1      43.378  30.357  36.744  1.00  0.00     0.065 H 
BRANCH  83 103
ATOM    103  C   UNL A   1      40.624  27.726  28.682  1.00  0.00     0.064 A 
ATOM    104  C   UNL A   1      41.375  28.087  27.553  1.00  0.00     0.173 A 
ATOM    105  C   UNL A   1      39.971  26.484  28.663  1.00  0.00     0.173 A 
ATOM    106  F   UNL A   1      42.012  29.267  27.514  1.00  0.00    -0.203 F 
ATOM    107  C   UNL A   1      41.442  27.255  26.438  1.00  0.00     0.198 A 
ATOM    108  C   UNL A   1      40.070  25.637  27.561  1.00  0.00     0.198 A 
ATOM    109  F   UNL A   1      39.244  26.083  29.717  1.00  0.00    -0.203 F 
ATOM    110  F   UNL A   1      42.120  27.647  25.350  1.00  0.00    -0.200 F 
ATOM    111  C   UNL A   1      40.797  26.028  26.446  1.00  0.00     0.200 A 
ATOM    112  F   UNL A   1      39.459  24.444  27.577  1.00  0.00    -0.200 F 
ATOM    113  F   UNL A   1      40.869  25.223  25.376  1.00  0.00    -0.200 F 
ENDBRANCH  83 103
BRANCH  86 114
ATOM    114  C   UNL A   1      39.580  33.611  36.694  1.00  0.00     0.064 A 
ATOM    115  C   UNL A   1      38.787  33.190  37.770  1.00  0.00     0.173 A 
ATOM    116  C   UNL A   1      40.201  34.865  36.793  1.00  0.00     0.173 A 
ATOM    117  F   UNL A   1      38.156  32.008  37.717  1.00  0.00    -0.203 F 
ATOM    118  C   UNL A   1      38.599  34.003  38.887  1.00  0.00     0.198 A 
ATOM    119  C   UNL A   1      40.040  35.661  37.924  1.00  0.00     0.198 A 
ATOM    120  F   UNL A   1      40.976  35.313  35.794  1.00  0.00    -0.203 F 
ATOM    121  F   UNL A   1      37.790  33.600  39.877  1.00  0.00    -0.200 F 
ATOM    122  C   UNL A   1      39.230  35.235  38.966  1.00  0.00     0.200 A 
ATOM    123  F   UNL A   1      40.667  36.843  38.003  1.00  0.00    -0.200 F 
ATOM    124  F   UNL A   1      39.051  36.014  40.041  1.00  0.00    -0.200 F 
ENDBRANCH  86 114
BRANCH 101 125
ATOM    125  C   UNL A   1      44.122  28.625  34.927  1.00  0.00     0.064 A 
ATOM    126  C   UNL A   1      44.021  27.540  35.811  1.00  0.00     0.173 A 
ATOM    127  C   UNL A   1      45.401  29.145  34.673  1.00  0.00     0.173 A 
ATOM    128  F   UNL A   1      42.820  27.014  36.098  1.00  0.00    -0.203 F 
ATOM    129  C   UNL A   1      45.150  27.019  36.438  1.00  0.00     0.198 A 
ATOM    130  C   UNL A   1      46.531  28.598  35.274  1.00  0.00     0.198 A 
ATOM    131  F   UNL A   1      45.558  30.176  33.830  1.00  0.00    -0.203 F 
ATOM    132  F   UNL A   1      45.020  26.019  37.321  1.00  0.00    -0.200 F 
ATOM    133  C   UNL A   1      46.404  27.542  36.162  1.00  0.00     0.200 A 
ATOM    134  F   UNL A   1      47.745  29.092  34.991  1.00  0.00    -0.200 F 
ATOM    135  F   UNL A   1      47.489  27.032  36.759  1.00  0.00    -0.200 F 
ENDBRANCH 101 125
ENDBRANCH  66  69
ENDBRANCH  56  59
ENDBRANCH  52  55
ENDBRANCH  49  52
ENDBRANCH  46  49
ENDBRANCH   1  46
TORSDOF 17
ENDMDL
MODEL 3
REMARK VINA RESULT:     -12.5      5.367      9.988
REMARK SMILES NS(=O)(=O)c1ccc(N2N=C(C(=O)NCCCCCCNC(=O)c3ccc(-c4c5nc(c(-c6c(F)c(F)c(F)c(F)c6F)c6ccc([nH]6)c(-c6c(F)c(F)c(F)c(F)c6F)c6nc(c(-c7c(F)c(F)c(F)c(F)c7F)c7ccc4[nH]7)C=C6)C=C5)cc3)C[C@H]2c2ccco2)cc1
REMARK SMILES IDX 17 1 16 4 15 7 14 10 12 11 13 12 11 14 9 15 10 16 88 17
REMARK SMILES IDX 87 18 8 22 5 23 6 24 95 25 7 26 94 28 2 32 3 33 4 34 1 35
REMARK SMILES IDX 89 38 90 39 93 40 91 41 92 43 18 46 19 49 20 52 21 55 22 56
REMARK SMILES IDX 23 58 24 59 25 60 86 61 26 62 85 64 27 66 28 69 29 70 79 71
REMARK SMILES IDX 30 72 84 73 78 74 80 75 31 76 83 77 77 79 76 81 32 83 64 86
REMARK SMILES IDX 44 87 63 88 45 89 48 90 62 91 81 92 46 93 47 95 61 97 82 98
REMARK SMILES IDX 49 101 33 103 34 104 42 105 35 106 36 107 40 108 43 109
REMARK SMILES IDX 37 110 38 111 41 112 39 113 65 114 66 115 74 116 67 117
REMARK SMILES IDX 68 118 72 119 75 120 69 121 70 122 73 123 71 124 50 125
REMARK SMILES IDX 51 126 59 127 52 128 53 129 57 130 60 131 54 132 55 133
REMARK SMILES IDX 58 134 56 135
REMARK H PARENT 17 2 17 3 16 5 16 6 15 8 15 9 14 13 88 19 87 20 87 21 6 27
REMARK H PARENT 95 29 7 30 94 31 1 36 1 37 90 42 91 44 92 45 18 47 18 48 19 50
REMARK H PARENT 19 51 20 53 20 54 21 57 25 63 86 65 26 67 85 68 84 78 78 80
REMARK H PARENT 80 82 83 84 77 85 45 94 48 96 81 99 46 100 82 102
REMARK Flexibility Score: inf
ROOT
ATOM      1  C   UNL A   1      31.776  29.244  26.714  1.00  0.00    -0.052 C 
ATOM      2  H   UNL A   1      32.372  29.568  27.542  1.00  0.00     0.027 H 
ATOM      3  H   UNL A   1      30.805  28.900  27.001  1.00  0.00     0.027 H 
ENDROOT
BRANCH   1   4
ATOM      4  C   UNL A   1      32.479  28.053  26.059  1.00  0.00    -0.036 C 
ATOM      5  H   UNL A   1      32.382  28.146  24.997  1.00  0.00     0.028 H 
ATOM      6  H   UNL A   1      33.498  28.077  26.383  1.00  0.00     0.028 H 
BRANCH   4   7
ATOM      7  C   UNL A   1      31.914  26.700  26.475  1.00  0.00     0.018 C 
ATOM      8  H   UNL A   1      32.705  25.979  26.486  1.00  0.00     0.049 H 
ATOM      9  H   UNL A   1      31.481  26.796  27.449  1.00  0.00     0.049 H 
BRANCH   7  10
ATOM     10  N   UNL A   1      30.886  26.259  25.555  1.00  0.00    -0.351 N 
ATOM     11  C   UNL A   1      30.842  25.336  24.542  1.00  0.00     0.267 C 
ATOM     12  O   UNL A   1      29.814  25.277  23.873  1.00  0.00    -0.268 OA
ATOM     13  H   UNL A   1      30.029  26.725  25.687  1.00  0.00     0.163 HD
BRANCH  11  14
ATOM     14  C   UNL A   1      31.967  24.358  24.238  1.00  0.00     0.128 C 
ATOM     15  N   UNL A   1      33.056  22.530  24.272  1.00  0.00    -0.254 N 
ATOM     16  N   UNL A   1      31.831  23.086  24.463  1.00  0.00    -0.171 NA
ATOM     17  C   UNL A   1      34.050  23.444  23.706  1.00  0.00     0.116 C 
ATOM     18  C   UNL A   1      33.297  24.773  23.704  1.00  0.00     0.027 C 
ATOM     19  H   UNL A   1      34.374  23.092  22.749  1.00  0.00     0.064 H 
ATOM     20  H   UNL A   1      33.768  25.490  24.342  1.00  0.00     0.036 H 
ATOM     21  H   UNL A   1      33.254  25.250  22.747  1.00  0.00     0.036 H 
BRANCH  15  22
ATOM     22  C   UNL A   1      33.216  21.153  24.268  1.00  0.00     0.060 A 
ATOM     23  C   UNL A   1      33.657  18.386  24.192  1.00  0.00     0.082 A 
ATOM     24  C   UNL A   1      32.543  18.929  23.546  1.00  0.00    -0.040 A 
ATOM     25  C   UNL A   1      34.523  19.201  24.919  1.00  0.00    -0.040 A 
ATOM     26  C   UNL A   1      32.325  20.310  23.593  1.00  0.00    -0.035 A 
ATOM     27  H   UNL A   1      31.885  18.315  23.039  1.00  0.00     0.064 H 
ATOM     28  C   UNL A   1      34.292  20.574  24.954  1.00  0.00    -0.035 A 
ATOM     29  H   UNL A   1      35.325  18.792  25.423  1.00  0.00     0.064 H 
ATOM     30  H   UNL A   1      31.498  20.712  23.124  1.00  0.00     0.065 H 
ATOM     31  H   UNL A   1      34.927  21.178  25.499  1.00  0.00     0.065 H 
BRANCH  23  32
ATOM     32  S   UNL A   1      33.949  16.647  24.131  1.00  0.00     0.238 S 
ATOM     33  O   UNL A   1      34.940  16.290  25.118  1.00  0.00    -0.207 OA
ATOM     34  O   UNL A   1      34.034  16.220  22.753  1.00  0.00    -0.207 OA
BRANCH  32  35
ATOM     35  N   UNL A   1      32.488  16.039  24.699  1.00  0.00    -0.225 NA
ATOM     36  H   UNL A   1      32.234  16.517  25.564  1.00  0.00     0.137 HD
ATOM     37  H   UNL A   1      32.583  15.039  24.879  1.00  0.00     0.137 HD
ENDBRANCH  32  35
ENDBRANCH  23  32
ENDBRANCH  15  22
BRANCH  17  38
ATOM     38  C   UNL A   1      35.385  23.535  24.386  1.00  0.00     0.128 A 
ATOM     39  C   UNL A   1      36.671  23.251  23.963  1.00  0.00    -0.018 A 
ATOM     40  O   UNL A   1      35.423  23.975  25.681  1.00  0.00    -0.467 OA
ATOM     41  C   UNL A   1      37.525  23.497  25.065  1.00  0.00    -0.023 A 
ATOM     42  H   UNL A   1      36.954  22.925  23.026  1.00  0.00     0.066 H 
ATOM     43  C   UNL A   1      36.718  23.953  26.080  1.00  0.00     0.091 A 
ATOM     44  H   UNL A   1      38.547  23.359  25.100  1.00  0.00     0.066 H 
ATOM     45  H   UNL A   1      37.052  24.239  27.014  1.00  0.00     0.104 H 
ENDBRANCH  17  38
ENDBRANCH  11  14
ENDBRANCH   7  10
ENDBRANCH   4   7
ENDBRANCH   1   4
BRANCH   1  46
ATOM     46  C   UNL A   1      31.552  30.447  25.790  1.00  0.00    -0.052 C 
ATOM     47  H   UNL A   1      30.663  30.268  25.221  1.00  0.00     0.027 H 
ATOM     48  H   UNL A   1      32.433  30.528  25.187  1.00  0.00     0.027 H 
BRANCH  46  49
ATOM     49  C   UNL A   1      31.396  31.793  26.503  1.00  0.00    -0.036 C 
ATOM     50  H   UNL A   1      30.791  31.642  27.373  1.00  0.00     0.028 H 
ATOM     51  H   UNL A   1      30.953  32.463  25.796  1.00  0.00     0.028 H 
BRANCH  49  52
ATOM     52  C   UNL A   1      32.710  32.429  26.940  1.00  0.00     0.018 C 
ATOM     53  H   UNL A   1      33.395  32.406  26.118  1.00  0.00     0.049 H 
ATOM     54  H   UNL A   1      33.087  31.871  27.772  1.00  0.00     0.049 H 
BRANCH  52  55
ATOM     55  N   UNL A   1      32.531  33.806  27.365  1.00  0.00    -0.352 N 
ATOM     56  C   UNL A   1      33.124  34.480  28.401  1.00  0.00     0.251 C 
ATOM     57  H   UNL A   1      31.891  34.332  26.832  1.00  0.00     0.163 HD
ATOM     58  O   UNL A   1      32.696  35.575  28.752  1.00  0.00    -0.269 OA
BRANCH  56  59
ATOM     59  C   UNL A   1      34.273  33.876  29.106  1.00  0.00     0.039 A 
ATOM     60  C   UNL A   1      34.029  32.940  30.114  1.00  0.00    -0.049 A 
ATOM     61  C   UNL A   1      35.583  34.239  28.783  1.00  0.00    -0.049 A 
ATOM     62  C   UNL A   1      35.104  32.328  30.760  1.00  0.00    -0.053 A 
ATOM     63  H   UNL A   1      33.061  32.702  30.378  1.00  0.00     0.063 H 
ATOM     64  C   UNL A   1      36.651  33.569  29.370  1.00  0.00    -0.053 A 
ATOM     65  H   UNL A   1      35.759  35.002  28.111  1.00  0.00     0.063 H 
ATOM     66  C   UNL A   1      36.423  32.613  30.371  1.00  0.00    -0.014 A 
ATOM     67  H   UNL A   1      34.928  31.663  31.530  1.00  0.00     0.063 H 
ATOM     68  H   UNL A   1      37.616  33.776  29.068  1.00  0.00     0.063 H 
BRANCH  66  69
ATOM     69  C   UNL A   1      37.576  31.922  31.004  1.00  0.00     0.031 A 
ATOM     70  C   UNL A   1      38.026  32.310  32.385  1.00  0.00     0.074 A 
ATOM     71  C   UNL A   1      38.249  30.982  30.312  1.00  0.00     0.049 A 
ATOM     72  N   UNL A   1      39.041  31.864  33.081  1.00  0.00    -0.248 NA
ATOM     73  C   UNL A   1      37.248  33.359  33.064  1.00  0.00    -0.034 C 
ATOM     74  C   UNL A   1      37.935  30.550  28.949  1.00  0.00    -0.036 A 
ATOM     75  N   UNL A   1      39.342  30.227  30.656  1.00  0.00    -0.354 N 
ATOM     76  C   UNL A   1      39.028  32.582  34.270  1.00  0.00     0.074 A 
ATOM     77  C   UNL A   1      37.944  33.535  34.176  1.00  0.00    -0.034 C 
ATOM     78  H   UNL A   1      36.385  33.832  32.754  1.00  0.00     0.065 H 
ATOM     79  C   UNL A   1      38.797  29.588  28.584  1.00  0.00    -0.036 A 
ATOM     80  H   UNL A   1      37.173  30.925  28.363  1.00  0.00     0.065 H 
ATOM     81  C   UNL A   1      39.752  29.368  29.666  1.00  0.00     0.049 A 
ATOM     82  H   UNL A   1      39.790  30.294  31.530  1.00  0.00     0.167 HD
ATOM     83  C   UNL A   1      39.832  32.441  35.351  1.00  0.00     0.037 A 
ATOM     84  H   UNL A   1      37.740  34.258  34.884  1.00  0.00     0.065 H 
ATOM     85  H   UNL A   1      38.787  29.086  27.683  1.00  0.00     0.065 H 
ATOM     86  C   UNL A   1      40.788  28.508  29.630  1.00  0.00     0.037 A 
ATOM     87  C   UNL A   1      40.899  31.479  35.444  1.00  0.00     0.049 A 
ATOM     88  C   UNL A   1      41.682  28.389  30.836  1.00  0.00     0.074 A 
ATOM     89  C   UNL A   1      41.736  31.220  36.513  1.00  0.00    -0.036 A 
ATOM     90  N   UNL A   1      41.282  30.623  34.421  1.00  0.00    -0.354 N 
ATOM     91  N   UNL A   1      41.617  29.024  31.982  1.00  0.00    -0.248 NA
ATOM     92  C   UNL A   1      42.791  27.430  30.744  1.00  0.00    -0.034 C 
ATOM     93  C   UNL A   1      42.666  30.253  36.118  1.00  0.00    -0.036 A 
ATOM     94  H   UNL A   1      41.684  31.664  37.445  1.00  0.00     0.065 H 
ATOM     95  C   UNL A   1      42.364  29.857  34.825  1.00  0.00     0.049 A 
ATOM     96  H   UNL A   1      40.850  30.568  33.538  1.00  0.00     0.167 HD
ATOM     97  C   UNL A   1      42.651  28.517  32.758  1.00  0.00     0.074 A 
ATOM     98  C   UNL A   1      43.318  27.511  31.957  1.00  0.00    -0.034 C 
ATOM     99  H   UNL A   1      43.081  26.845  29.946  1.00  0.00     0.065 H 
ATOM    100  H   UNL A   1      43.445  29.895  36.692  1.00  0.00     0.065 H 
ATOM    101  C   UNL A   1      43.015  28.853  34.021  1.00  0.00     0.037 A 
ATOM    102  H   UNL A   1      44.104  26.932  32.290  1.00  0.00     0.065 H 
BRANCH  83 103
ATOM    103  C   UNL A   1      39.590  33.351  36.523  1.00  0.00     0.064 A 
ATOM    104  C   UNL A   1      38.731  32.992  37.574  1.00  0.00     0.173 A 
ATOM    105  C   UNL A   1      40.255  34.583  36.615  1.00  0.00     0.173 A 
ATOM    106  F   UNL A   1      38.062  31.829  37.533  1.00  0.00    -0.203 F 
ATOM    107  C   UNL A   1      38.522  33.845  38.654  1.00  0.00     0.198 A 
ATOM    108  C   UNL A   1      40.073  35.418  37.715  1.00  0.00     0.198 A 
ATOM    109  F   UNL A   1      41.093  34.975  35.643  1.00  0.00    -0.203 F 
ATOM    110  F   UNL A   1      37.655  33.504  39.617  1.00  0.00    -0.200 F 
ATOM    111  C   UNL A   1      39.199  35.052  38.728  1.00  0.00     0.200 A 
ATOM    112  F   UNL A   1      40.740  36.578  37.792  1.00  0.00    -0.200 F 
ATOM    113  F   UNL A   1      39.005  35.869  39.773  1.00  0.00    -0.200 F 
ENDBRANCH  83 103
BRANCH  86 114
ATOM    114  C   UNL A   1      41.027  27.680  28.418  1.00  0.00     0.064 A 
ATOM    115  C   UNL A   1      41.868  28.131  27.390  1.00  0.00     0.173 A 
ATOM    116  C   UNL A   1      40.415  26.429  28.257  1.00  0.00     0.173 A 
ATOM    117  F   UNL A   1      42.462  29.329  27.488  1.00  0.00    -0.203 F 
ATOM    118  C   UNL A   1      42.063  27.375  26.236  1.00  0.00     0.198 A 
ATOM    119  C   UNL A   1      40.638  25.658  27.118  1.00  0.00     0.198 A 
ATOM    120  F   UNL A   1      39.607  25.947  29.213  1.00  0.00    -0.203 F 
ATOM    121  F   UNL A   1      42.827  27.854  25.245  1.00  0.00    -0.200 F 
ATOM    122  C   UNL A   1      41.453  26.137  26.103  1.00  0.00     0.200 A 
ATOM    123  F   UNL A   1      40.061  24.454  27.002  1.00  0.00    -0.200 F 
ATOM    124  F   UNL A   1      41.644  25.408  24.995  1.00  0.00    -0.200 F 
ENDBRANCH  86 114
BRANCH 101 125
ATOM    125  C   UNL A   1      44.159  28.098  34.634  1.00  0.00     0.064 A 
ATOM    126  C   UNL A   1      45.479  28.570  34.570  1.00  0.00     0.173 A 
ATOM    127  C   UNL A   1      43.924  26.903  35.333  1.00  0.00     0.173 A 
ATOM    128  F   UNL A   1      45.760  29.700  33.903  1.00  0.00    -0.203 F 
ATOM    129  C   UNL A   1      46.523  27.858  35.154  1.00  0.00     0.198 A 
ATOM    130  C   UNL A   1      44.966  26.214  35.947  1.00  0.00     0.198 A 
ATOM    131  F   UNL A   1      42.681  26.411  35.433  1.00  0.00    -0.203 F 
ATOM    132  F   UNL A   1      47.783  28.299  35.031  1.00  0.00    -0.200 F 
ATOM    133  C   UNL A   1      46.265  26.686  35.850  1.00  0.00     0.200 A 
ATOM    134  F   UNL A   1      44.711  25.092  36.635  1.00  0.00    -0.200 F 
ATOM    135  F   UNL A   1      47.270  26.009  36.420  1.00  0.00    -0.200 F 
ENDBRANCH 101 125
ENDBRANCH  66  69
ENDBRANCH  56  59
ENDBRANCH  52  55
ENDBRANCH  49  52
ENDBRANCH  46  49
ENDBRANCH   1  46
TORSDOF 17
ENDMDL
MODEL 4
REMARK VINA RESULT:     -12.5      5.496     11.266
REMARK SMILES NS(=O)(=O)c1ccc(N2N=C(C(=O)NCCCCCCNC(=O)c3ccc(-c4c5nc(c(-c6c(F)c(F)c(F)c(F)c6F)c6ccc([nH]6)c(-c6c(F)c(F)c(F)c(F)c6F)c6nc(c(-c7c(F)c(F)c(F)c(F)c7F)c7ccc4[nH]7)C=C6)C=C5)cc3)C[C@H]2c2ccco2)cc1
REMARK SMILES IDX 17 1 16 4 15 7 14 10 12 11 13 12 11 14 9 15 10 16 88 17
REMARK SMILES IDX 87 18 8 22 5 23 6 24 95 25 7 26 94 28 2 32 3 33 4 34 1 35
REMARK SMILES IDX 89 38 90 39 93 40 91 41 92 43 18 46 19 49 20 52 21 55 22 56
REMARK SMILES IDX 23 58 24 59 25 60 86 61 26 62 85 64 27 66 28 69 29 70 79 71
REMARK SMILES IDX 30 72 84 73 78 74 80 75 31 76 83 77 77 79 76 81 32 83 64 86
REMARK SMILES IDX 44 87 63 88 45 89 48 90 62 91 81 92 46 93 47 95 61 97 82 98
REMARK SMILES IDX 49 101 33 103 34 104 42 105 35 106 36 107 40 108 43 109
REMARK SMILES IDX 37 110 38 111 41 112 39 113 65 114 66 115 74 116 67 117
REMARK SMILES IDX 68 118 72 119 75 120 69 121 70 122 73 123 71 124 50 125
REMARK SMILES IDX 51 126 59 127 52 128 53 129 57 130 60 131 54 132 55 133
REMARK SMILES IDX 58 134 56 135
REMARK H PARENT 17 2 17 3 16 5 16 6 15 8 15 9 14 13 88 19 87 20 87 21 6 27
REMARK H PARENT 95 29 7 30 94 31 1 36 1 37 90 42 91 44 92 45 18 47 18 48 19 50
REMARK H PARENT 19 51 20 53 20 54 21 57 25 63 86 65 26 67 85 68 84 78 78 80
REMARK H PARENT 80 82 83 84 77 85 45 94 48 96 81 99 46 100 82 102
REMARK Flexibility Score: inf
ROOT
ATOM      1  C   UNL A   1      32.391  29.582  26.819  1.00  0.00    -0.052 C 
ATOM      2  H   UNL A   1      33.280  29.325  26.281  1.00  0.00     0.027 H 
ATOM      3  H   UNL A   1      32.586  30.121  27.723  1.00  0.00     0.027 H 
ENDROOT
BRANCH   1   4
ATOM      4  C   UNL A   1      31.692  28.286  27.233  1.00  0.00    -0.036 C 
ATOM      5  H   UNL A   1      31.945  28.077  28.252  1.00  0.00     0.028 H 
ATOM      6  H   UNL A   1      30.643  28.440  27.092  1.00  0.00     0.028 H 
BRANCH   4   7
ATOM      7  C   UNL A   1      32.080  27.080  26.385  1.00  0.00     0.018 C 
ATOM      8  H   UNL A   1      32.917  27.338  25.770  1.00  0.00     0.049 H 
ATOM      9  H   UNL A   1      32.330  26.271  27.039  1.00  0.00     0.049 H 
BRANCH   7  10
ATOM     10  N   UNL A   1      30.982  26.664  25.538  1.00  0.00    -0.351 N 
ATOM     11  C   UNL A   1      30.826  25.692  24.583  1.00  0.00     0.267 C 
ATOM     12  O   UNL A   1      29.766  25.671  23.964  1.00  0.00    -0.268 OA
ATOM     13  H   UNL A   1      30.166  27.197  25.678  1.00  0.00     0.163 HD
BRANCH  11  14
ATOM     14  C   UNL A   1      31.866  24.621  24.289  1.00  0.00     0.128 C 
ATOM     15  N   UNL A   1      32.806  22.713  24.354  1.00  0.00    -0.254 N 
ATOM     16  N   UNL A   1      31.633  23.369  24.549  1.00  0.00    -0.171 NA
ATOM     17  C   UNL A   1      33.860  23.530  23.751  1.00  0.00     0.116 C 
ATOM     18  C   UNL A   1      33.215  24.914  23.726  1.00  0.00     0.027 C 
ATOM     19  H   UNL A   1      34.140  23.130  22.799  1.00  0.00     0.064 H 
ATOM     20  H   UNL A   1      33.752  25.608  24.338  1.00  0.00     0.036 H 
ATOM     21  H   UNL A   1      33.195  25.370  22.757  1.00  0.00     0.036 H 
BRANCH  15  22
ATOM     22  C   UNL A   1      32.857  21.328  24.384  1.00  0.00     0.060 A 
ATOM     23  C   UNL A   1      33.095  18.536  24.448  1.00  0.00     0.082 A 
ATOM     24  C   UNL A   1      32.529  19.158  23.332  1.00  0.00    -0.040 A 
ATOM     25  C   UNL A   1      33.494  19.286  25.552  1.00  0.00    -0.040 A 
ATOM     26  C   UNL A   1      32.406  20.552  23.309  1.00  0.00    -0.035 A 
ATOM     27  H   UNL A   1      32.202  18.594  22.532  1.00  0.00     0.064 H 
ATOM     28  C   UNL A   1      33.367  20.672  25.512  1.00  0.00    -0.035 A 
ATOM     29  H   UNL A   1      33.880  18.820  26.388  1.00  0.00     0.064 H 
ATOM     30  H   UNL A   1      31.981  21.013  22.490  1.00  0.00     0.065 H 
ATOM     31  H   UNL A   1      33.654  21.228  26.333  1.00  0.00     0.065 H 
BRANCH  23  32
ATOM     32  S   UNL A   1      33.265  16.780  24.485  1.00  0.00     0.238 S 
ATOM     33  O   UNL A   1      33.557  16.296  23.158  1.00  0.00    -0.207 OA
ATOM     34  O   UNL A   1      32.222  16.212  25.309  1.00  0.00    -0.207 OA
BRANCH  32  35
ATOM     35  N   UNL A   1      34.683  16.597  25.369  1.00  0.00    -0.225 NA
ATOM     36  H   UNL A   1      34.704  15.667  25.789  1.00  0.00     0.137 HD
ATOM     37  H   UNL A   1      34.719  17.302  26.104  1.00  0.00     0.137 HD
ENDBRANCH  32  35
ENDBRANCH  23  32
ENDBRANCH  15  22
BRANCH  17  38
ATOM     38  C   UNL A   1      35.210  23.532  24.410  1.00  0.00     0.128 A 
ATOM     39  C   UNL A   1      36.488  23.325  23.923  1.00  0.00    -0.018 A 
ATOM     40  O   UNL A   1      35.273  23.776  25.754  1.00  0.00    -0.467 OA
ATOM     41  C   UNL A   1      37.363  23.413  25.031  1.00  0.00    -0.023 A 
ATOM     42  H   UNL A   1      36.752  23.144  22.942  1.00  0.00     0.066 H 
ATOM     43  C   UNL A   1      36.576  23.706  26.119  1.00  0.00     0.091 A 
ATOM     44  H   UNL A   1      38.387  23.281  25.024  1.00  0.00     0.066 H 
ATOM     45  H   UNL A   1      36.929  23.853  27.078  1.00  0.00     0.104 H 
ENDBRANCH  17  38
ENDBRANCH  11  14
ENDBRANCH   7  10
ENDBRANCH   4   7
ENDBRANCH   1   4
BRANCH   1  46
ATOM     46  C   UNL A   1      31.553  30.513  25.935  1.00  0.00    -0.052 C 
ATOM     47  H   UNL A   1      30.597  30.057  25.786  1.00  0.00     0.027 H 
ATOM     48  H   UNL A   1      32.108  30.644  25.030  1.00  0.00     0.027 H 
BRANCH  46  49
ATOM     49  C   UNL A   1      31.325  31.917  26.503  1.00  0.00    -0.036 C 
ATOM     50  H   UNL A   1      30.501  31.873  27.184  1.00  0.00     0.028 H 
ATOM     51  H   UNL A   1      31.142  32.558  25.666  1.00  0.00     0.028 H 
BRANCH  49  52
ATOM     52  C   UNL A   1      32.524  32.498  27.242  1.00  0.00     0.018 C 
ATOM     53  H   UNL A   1      33.396  32.381  26.633  1.00  0.00     0.049 H 
ATOM     54  H   UNL A   1      32.628  31.972  28.169  1.00  0.00     0.049 H 
BRANCH  52  55
ATOM     55  N   UNL A   1      32.345  33.908  27.542  1.00  0.00    -0.352 N 
ATOM     56  C   UNL A   1      32.956  34.678  28.497  1.00  0.00     0.251 C 
ATOM     57  H   UNL A   1      31.691  34.380  26.976  1.00  0.00     0.163 HD
ATOM     58  O   UNL A   1      32.528  35.799  28.755  1.00  0.00    -0.269 OA
BRANCH  56  59
ATOM     59  C   UNL A   1      34.123  34.147  29.231  1.00  0.00     0.039 A 
ATOM     60  C   UNL A   1      33.909  33.431  30.411  1.00  0.00    -0.049 A 
ATOM     61  C   UNL A   1      35.422  34.363  28.764  1.00  0.00    -0.049 A 
ATOM     62  C   UNL A   1      34.997  32.886  31.093  1.00  0.00    -0.053 A 
ATOM     63  H   UNL A   1      32.952  33.305  30.776  1.00  0.00     0.063 H 
ATOM     64  C   UNL A   1      36.497  33.750  29.399  1.00  0.00    -0.053 A 
ATOM     65  H   UNL A   1      35.584  34.976  27.950  1.00  0.00     0.063 H 
ATOM     66  C   UNL A   1      36.297  33.013  30.575  1.00  0.00    -0.014 A 
ATOM     67  H   UNL A   1      34.846  32.387  31.984  1.00  0.00     0.063 H 
ATOM     68  H   UNL A   1      37.446  33.839  29.004  1.00  0.00     0.063 H 
BRANCH  66  69
ATOM     69  C   UNL A   1      37.458  32.382  31.254  1.00  0.00     0.031 A 
ATOM     70  C   UNL A   1      38.189  31.243  30.600  1.00  0.00     0.074 A 
ATOM     71  C   UNL A   1      37.819  32.802  32.482  1.00  0.00     0.049 A 
ATOM     72  N   UNL A   1      39.187  30.528  31.056  1.00  0.00    -0.248 NA
ATOM     73  C   UNL A   1      37.719  30.832  29.267  1.00  0.00    -0.034 C 
ATOM     74  C   UNL A   1      37.160  33.870  33.237  1.00  0.00    -0.036 A 
ATOM     75  N   UNL A   1      38.823  32.377  33.315  1.00  0.00    -0.354 N 
ATOM     76  C   UNL A   1      39.455  29.583  30.075  1.00  0.00     0.074 A 
ATOM     77  C   UNL A   1      38.476  29.773  29.027  1.00  0.00    -0.034 C 
ATOM     78  H   UNL A   1      36.989  31.259  28.676  1.00  0.00     0.065 H 
ATOM     79  C   UNL A   1      37.794  34.034  34.409  1.00  0.00    -0.036 A 
ATOM     80  H   UNL A   1      36.341  34.409  32.919  1.00  0.00     0.065 H 
ATOM     81  C   UNL A   1      38.872  33.055  34.509  1.00  0.00     0.049 A 
ATOM     82  H   UNL A   1      39.449  31.654  33.080  1.00  0.00     0.167 HD
ATOM     83  C   UNL A   1      40.443  28.658  30.040  1.00  0.00     0.037 A 
ATOM     84  H   UNL A   1      38.381  29.164  28.199  1.00  0.00     0.065 H 
ATOM     85  H   UNL A   1      37.557  34.738  35.124  1.00  0.00     0.065 H 
ATOM     86  C   UNL A   1      39.688  32.897  35.569  1.00  0.00     0.037 A 
ATOM     87  C   UNL A   1      41.423  28.484  31.081  1.00  0.00     0.049 A 
ATOM     88  C   UNL A   1      40.762  31.843  35.516  1.00  0.00     0.074 A 
ATOM     89  C   UNL A   1      42.496  27.612  31.118  1.00  0.00    -0.036 A 
ATOM     90  N   UNL A   1      41.443  29.192  32.273  1.00  0.00    -0.354 N 
ATOM     91  N   UNL A   1      41.051  31.002  34.552  1.00  0.00    -0.248 NA
ATOM     92  C   UNL A   1      41.628  31.721  36.696  1.00  0.00    -0.034 C 
ATOM     93  C   UNL A   1      43.128  27.747  32.358  1.00  0.00    -0.036 A 
ATOM     94  H   UNL A   1      42.782  26.971  30.360  1.00  0.00     0.065 H 
ATOM     95  C   UNL A   1      42.493  28.754  33.067  1.00  0.00     0.049 A 
ATOM     96  H   UNL A   1      40.807  29.901  32.521  1.00  0.00     0.167 HD
ATOM     97  C   UNL A   1      42.149  30.277  34.994  1.00  0.00     0.074 A 
ATOM     98  C   UNL A   1      42.484  30.789  36.307  1.00  0.00    -0.034 C 
ATOM     99  H   UNL A   1      41.582  32.229  37.592  1.00  0.00     0.065 H 
ATOM    100  H   UNL A   1      43.931  27.191  32.690  1.00  0.00     0.065 H 
ATOM    101  C   UNL A   1      42.820  29.277  34.369  1.00  0.00     0.037 A 
ATOM    102  H   UNL A   1      43.289  30.466  36.867  1.00  0.00     0.065 H 
BRANCH  83 103
ATOM    103  C   UNL A   1      40.513  27.757  28.839  1.00  0.00     0.064 A 
ATOM    104  C   UNL A   1      41.299  28.075  27.720  1.00  0.00     0.173 A 
ATOM    105  C   UNL A   1      39.814  26.540  28.821  1.00  0.00     0.173 A 
ATOM    106  F   UNL A   1      41.979  29.231  27.679  1.00  0.00    -0.203 F 
ATOM    107  C   UNL A   1      41.355  27.227  26.617  1.00  0.00     0.198 A 
ATOM    108  C   UNL A   1      39.903  25.676  27.732  1.00  0.00     0.198 A 
ATOM    109  F   UNL A   1      39.053  26.180  29.866  1.00  0.00    -0.203 F 
ATOM    110  F   UNL A   1      42.068  27.580  25.538  1.00  0.00    -0.200 F 
ATOM    111  C   UNL A   1      40.665  26.025  26.627  1.00  0.00     0.200 A 
ATOM    112  F   UNL A   1      39.247  24.507  27.751  1.00  0.00    -0.200 F 
ATOM    113  F   UNL A   1      40.728  25.205  25.569  1.00  0.00    -0.200 F 
ENDBRANCH  83 103
BRANCH  86 114
ATOM    114  C   UNL A   1      39.532  33.768  36.765  1.00  0.00     0.064 A 
ATOM    115  C   UNL A   1      40.176  35.011  36.841  1.00  0.00     0.173 A 
ATOM    116  C   UNL A   1      38.750  33.371  37.859  1.00  0.00     0.173 A 
ATOM    117  F   UNL A   1      40.951  35.428  35.829  1.00  0.00    -0.203 F 
ATOM    118  C   UNL A   1      40.064  35.811  37.976  1.00  0.00     0.198 A 
ATOM    119  C   UNL A   1      38.612  34.187  38.980  1.00  0.00     0.198 A 
ATOM    120  F   UNL A   1      38.108  32.194  37.836  1.00  0.00    -0.203 F 
ATOM    121  F   UNL A   1      40.735  36.970  38.045  1.00  0.00    -0.200 F 
ATOM    122  C   UNL A   1      39.278  35.402  39.042  1.00  0.00     0.200 A 
ATOM    123  F   UNL A   1      37.836  33.795  40.000  1.00  0.00    -0.200 F 
ATOM    124  F   UNL A   1      39.169  36.173  40.133  1.00  0.00    -0.200 F 
ENDBRANCH  86 114
BRANCH 101 125
ATOM    125  C   UNL A   1      44.013  28.699  35.075  1.00  0.00     0.064 A 
ATOM    126  C   UNL A   1      45.297  29.248  34.935  1.00  0.00     0.173 A 
ATOM    127  C   UNL A   1      43.861  27.603  35.939  1.00  0.00     0.173 A 
ATOM    128  F   UNL A   1      45.500  30.287  34.111  1.00  0.00    -0.203 F 
ATOM    129  C   UNL A   1      46.387  28.701  35.607  1.00  0.00     0.198 A 
ATOM    130  C   UNL A   1      44.946  27.083  36.638  1.00  0.00     0.198 A 
ATOM    131  F   UNL A   1      42.654  27.045  36.118  1.00  0.00    -0.203 F 
ATOM    132  F   UNL A   1      47.613  29.207  35.413  1.00  0.00    -0.200 F 
ATOM    133  C   UNL A   1      46.209  27.625  36.465  1.00  0.00     0.200 A 
ATOM    134  F   UNL A   1      44.769  26.056  37.481  1.00  0.00    -0.200 F 
ATOM    135  F   UNL A   1      47.258  27.109  37.118  1.00  0.00    -0.200 F 
ENDBRANCH 101 125
ENDBRANCH  66  69
ENDBRANCH  56  59
ENDBRANCH  52  55
ENDBRANCH  49  52
ENDBRANCH  46  49
ENDBRANCH   1  46
TORSDOF 17
ENDMDL
MODEL 5
REMARK VINA RESULT:     -12.5      5.325      9.952
REMARK SMILES NS(=O)(=O)c1ccc(N2N=C(C(=O)NCCCCCCNC(=O)c3ccc(-c4c5nc(c(-c6c(F)c(F)c(F)c(F)c6F)c6ccc([nH]6)c(-c6c(F)c(F)c(F)c(F)c6F)c6nc(c(-c7c(F)c(F)c(F)c(F)c7F)c7ccc4[nH]7)C=C6)C=C5)cc3)C[C@H]2c2ccco2)cc1
REMARK SMILES IDX 17 1 16 4 15 7 14 10 12 11 13 12 11 14 9 15 10 16 88 17
REMARK SMILES IDX 87 18 8 22 5 23 6 24 95 25 7 26 94 28 2 32 3 33 4 34 1 35
REMARK SMILES IDX 89 38 90 39 93 40 91 41 92 43 18 46 19 49 20 52 21 55 22 56
REMARK SMILES IDX 23 58 24 59 25 60 86 61 26 62 85 64 27 66 28 69 29 70 79 71
REMARK SMILES IDX 30 72 84 73 78 74 80 75 31 76 83 77 77 79 76 81 32 83 64 86
REMARK SMILES IDX 44 87 63 88 45 89 48 90 62 91 81 92 46 93 47 95 61 97 82 98
REMARK SMILES IDX 49 101 33 103 34 104 42 105 35 106 36 107 40 108 43 109
REMARK SMILES IDX 37 110 38 111 41 112 39 113 65 114 66 115 74 116 67 117
REMARK SMILES IDX 68 118 72 119 75 120 69 121 70 122 73 123 71 124 50 125
REMARK SMILES IDX 51 126 59 127 52 128 53 129 57 130 60 131 54 132 55 133
REMARK SMILES IDX 58 134 56 135
REMARK H PARENT 17 2 17 3 16 5 16 6 15 8 15 9 14 13 88 19 87 20 87 21 6 27
REMARK H PARENT 95 29 7 30 94 31 1 36 1 37 90 42 91 44 92 45 18 47 18 48 19 50
REMARK H PARENT 19 51 20 53 20 54 21 57 25 63 86 65 26 67 85 68 84 78 78 80
REMARK H PARENT 80 82 83 84 77 85 45 94 48 96 81 99 46 100 82 102
REMARK Flexibility Score: inf
ROOT
ATOM      1  C   UNL A   1      31.776  29.287  26.748  1.00  0.00    -0.052 C 
ATOM      2  H   UNL A   1      32.380  29.644  27.557  1.00  0.00     0.027 H 
ATOM      3  H   UNL A   1      30.822  28.918  27.063  1.00  0.00     0.027 H 
ENDROOT
BRANCH   1   4
ATOM      4  C   UNL A   1      32.501  28.108  26.097  1.00  0.00    -0.036 C 
ATOM      5  H   UNL A   1      32.431  28.215  25.034  1.00  0.00     0.028 H 
ATOM      6  H   UNL A   1      33.512  28.133  26.448  1.00  0.00     0.028 H 
BRANCH   4   7
ATOM      7  C   UNL A   1      31.932  26.747  26.481  1.00  0.00     0.018 C 
ATOM      8  H   UNL A   1      32.726  26.028  26.498  1.00  0.00     0.049 H 
ATOM      9  H   UNL A   1      31.479  26.828  27.447  1.00  0.00     0.049 H 
BRANCH   7  10
ATOM     10  N   UNL A   1      30.925  26.317  25.534  1.00  0.00    -0.351 N 
ATOM     11  C   UNL A   1      30.905  25.408  24.507  1.00  0.00     0.267 C 
ATOM     12  O   UNL A   1      29.891  25.356  23.816  1.00  0.00    -0.268 OA
ATOM     13  H   UNL A   1      30.064  26.778  25.654  1.00  0.00     0.163 HD
BRANCH  11  14
ATOM     14  C   UNL A   1      32.039  24.438  24.213  1.00  0.00     0.128 C 
ATOM     15  N   UNL A   1      33.136  22.615  24.250  1.00  0.00    -0.254 N 
ATOM     16  N   UNL A   1      31.906  23.163  24.428  1.00  0.00    -0.171 NA
ATOM     17  C   UNL A   1      34.133  23.537  23.704  1.00  0.00     0.116 C 
ATOM     18  C   UNL A   1      33.374  24.862  23.700  1.00  0.00     0.027 C 
ATOM     19  H   UNL A   1      34.472  23.192  22.749  1.00  0.00     0.064 H 
ATOM     20  H   UNL A   1      33.832  25.578  24.349  1.00  0.00     0.036 H 
ATOM     21  H   UNL A   1      33.342  25.345  22.745  1.00  0.00     0.036 H 
BRANCH  15  22
ATOM     22  C   UNL A   1      33.303  21.239  24.240  1.00  0.00     0.060 A 
ATOM     23  C   UNL A   1      33.524  18.445  24.284  1.00  0.00     0.082 A 
ATOM     24  C   UNL A   1      34.463  19.226  24.964  1.00  0.00    -0.040 A 
ATOM     25  C   UNL A   1      32.509  19.043  23.540  1.00  0.00    -0.040 A 
ATOM     26  C   UNL A   1      34.351  20.620  24.932  1.00  0.00    -0.035 A 
ATOM     27  H   UNL A   1      35.233  18.777  25.485  1.00  0.00     0.064 H 
ATOM     28  C   UNL A   1      32.411  20.432  23.520  1.00  0.00    -0.035 A 
ATOM     29  H   UNL A   1      31.839  18.464  23.010  1.00  0.00     0.064 H 
ATOM     30  H   UNL A   1      35.048  21.198  25.427  1.00  0.00     0.065 H 
ATOM     31  H   UNL A   1      31.666  20.877  22.962  1.00  0.00     0.065 H 
BRANCH  23  32
ATOM     32  S   UNL A   1      33.647  16.685  24.324  1.00  0.00     0.238 S 
ATOM     33  O   UNL A   1      34.077  16.202  23.034  1.00  0.00    -0.207 OA
ATOM     34  O   UNL A   1      32.504  16.138  25.019  1.00  0.00    -0.207 OA
BRANCH  32  35
ATOM     35  N   UNL A   1      34.951  16.462  25.362  1.00  0.00    -0.225 NA
ATOM     36  H   UNL A   1      34.614  16.129  26.266  1.00  0.00     0.137 HD
ATOM     37  H   UNL A   1      35.441  17.347  25.487  1.00  0.00     0.137 HD
ENDBRANCH  32  35
ENDBRANCH  23  32
ENDBRANCH  15  22
BRANCH  17  38
ATOM     38  C   UNL A   1      35.459  23.631  24.403  1.00  0.00     0.128 A 
ATOM     39  C   UNL A   1      36.748  23.327  24.006  1.00  0.00    -0.018 A 
ATOM     40  O   UNL A   1      35.481  24.097  25.688  1.00  0.00    -0.467 OA
ATOM     41  C   UNL A   1      37.587  23.588  25.115  1.00  0.00    -0.023 A 
ATOM     42  H   UNL A   1      37.042  22.978  23.080  1.00  0.00     0.066 H 
ATOM     43  C   UNL A   1      36.769  24.071  26.108  1.00  0.00     0.091 A 
ATOM     44  H   UNL A   1      38.607  23.442  25.169  1.00  0.00     0.066 H 
ATOM     45  H   UNL A   1      37.091  24.374  27.041  1.00  0.00     0.104 H 
ENDBRANCH  17  38
ENDBRANCH  11  14
ENDBRANCH   7  10
ENDBRANCH   4   7
ENDBRANCH   1   4
BRANCH   1  46
ATOM     46  C   UNL A   1      31.492  30.466  25.810  1.00  0.00    -0.052 C 
ATOM     47  H   UNL A   1      30.581  30.263  25.288  1.00  0.00     0.027 H 
ATOM     48  H   UNL A   1      32.343  30.546  25.165  1.00  0.00     0.027 H 
BRANCH  46  49
ATOM     49  C   UNL A   1      31.350  31.826  26.500  1.00  0.00    -0.036 C 
ATOM     50  H   UNL A   1      30.704  31.706  27.345  1.00  0.00     0.028 H 
ATOM     51  H   UNL A   1      30.960  32.500  25.768  1.00  0.00     0.028 H 
BRANCH  49  52
ATOM     52  C   UNL A   1      32.665  32.424  26.986  1.00  0.00     0.018 C 
ATOM     53  H   UNL A   1      33.382  32.373  26.193  1.00  0.00     0.049 H 
ATOM     54  H   UNL A   1      32.990  31.862  27.837  1.00  0.00     0.049 H 
BRANCH  52  55
ATOM     55  N   UNL A   1      32.512  33.810  27.393  1.00  0.00    -0.352 N 
ATOM     56  C   UNL A   1      33.130  34.490  28.410  1.00  0.00     0.251 C 
ATOM     57  H   UNL A   1      31.872  34.338  26.861  1.00  0.00     0.163 HD
ATOM     58  O   UNL A   1      32.723  35.597  28.751  1.00  0.00    -0.269 OA
BRANCH  56  59
ATOM     59  C   UNL A   1      34.280  33.880  29.108  1.00  0.00     0.039 A 
ATOM     60  C   UNL A   1      34.037  32.953  30.124  1.00  0.00    -0.049 A 
ATOM     61  C   UNL A   1      35.591  34.228  28.770  1.00  0.00    -0.049 A 
ATOM     62  C   UNL A   1      35.112  32.335  30.764  1.00  0.00    -0.053 A 
ATOM     63  H   UNL A   1      33.069  32.727  30.400  1.00  0.00     0.063 H 
ATOM     64  C   UNL A   1      36.658  33.551  29.350  1.00  0.00    -0.053 A 
ATOM     65  H   UNL A   1      35.767  34.984  28.090  1.00  0.00     0.063 H 
ATOM     66  C   UNL A   1      36.430  32.604  30.360  1.00  0.00    -0.014 A 
ATOM     67  H   UNL A   1      34.937  31.677  31.540  1.00  0.00     0.063 H 
ATOM     68  H   UNL A   1      37.622  33.747  29.038  1.00  0.00     0.063 H 
BRANCH  66  69
ATOM     69  C   UNL A   1      37.582  31.906  30.986  1.00  0.00     0.031 A 
ATOM     70  C   UNL A   1      38.034  32.282  32.369  1.00  0.00     0.074 A 
ATOM     71  C   UNL A   1      38.253  30.971  30.286  1.00  0.00     0.049 A 
ATOM     72  N   UNL A   1      39.049  31.830  33.061  1.00  0.00    -0.248 NA
ATOM     73  C   UNL A   1      37.260  33.327  33.058  1.00  0.00    -0.034 C 
ATOM     74  C   UNL A   1      37.937  30.550  28.920  1.00  0.00    -0.036 A 
ATOM     75  N   UNL A   1      39.345  30.210  30.623  1.00  0.00    -0.354 N 
ATOM     76  C   UNL A   1      39.039  32.538  34.256  1.00  0.00     0.074 A 
ATOM     77  C   UNL A   1      37.958  33.494  34.170  1.00  0.00    -0.034 C 
ATOM     78  H   UNL A   1      36.397  33.805  32.752  1.00  0.00     0.065 H 
ATOM     79  C   UNL A   1      38.796  29.588  28.546  1.00  0.00    -0.036 A 
ATOM     80  H   UNL A   1      37.175  30.930  28.338  1.00  0.00     0.065 H 
ATOM     81  C   UNL A   1      39.752  29.358  29.626  1.00  0.00     0.049 A 
ATOM     82  H   UNL A   1      39.794  30.270  31.497  1.00  0.00     0.167 HD
ATOM     83  C   UNL A   1      39.844  32.387  35.334  1.00  0.00     0.037 A 
ATOM     84  H   UNL A   1      37.755  34.212  34.884  1.00  0.00     0.065 H 
ATOM     85  H   UNL A   1      38.784  29.093  27.642  1.00  0.00     0.065 H 
ATOM     86  C   UNL A   1      40.786  28.497  29.582  1.00  0.00     0.037 A 
ATOM     87  C   UNL A   1      40.910  31.422  35.418  1.00  0.00     0.049 A 
ATOM     88  C   UNL A   1      41.682  28.367  30.786  1.00  0.00     0.074 A 
ATOM     89  C   UNL A   1      41.748  31.154  36.485  1.00  0.00    -0.036 A 
ATOM     90  N   UNL A   1      41.290  30.574  34.388  1.00  0.00    -0.354 N 
ATOM     91  N   UNL A   1      41.619  28.993  31.937  1.00  0.00    -0.248 NA
ATOM     92  C   UNL A   1      42.788  27.406  30.685  1.00  0.00    -0.034 C 
ATOM     93  C   UNL A   1      42.675  30.188  36.081  1.00  0.00    -0.036 A 
ATOM     94  H   UNL A   1      41.698  31.590  37.420  1.00  0.00     0.065 H 
ATOM     95  C   UNL A   1      42.371  29.802  34.785  1.00  0.00     0.049 A 
ATOM     96  H   UNL A   1      40.857  30.526  33.505  1.00  0.00     0.167 HD
ATOM     97  C   UNL A   1      42.653  28.478  32.707  1.00  0.00     0.074 A 
ATOM     98  C   UNL A   1      43.317  27.477  31.898  1.00  0.00    -0.034 C 
ATOM     99  H   UNL A   1      43.077  26.827  29.882  1.00  0.00     0.065 H 
ATOM    100  H   UNL A   1      43.455  29.824  36.651  1.00  0.00     0.065 H 
ATOM    101  C   UNL A   1      43.019  28.804  33.972  1.00  0.00     0.037 A 
ATOM    102  H   UNL A   1      44.103  26.894  32.226  1.00  0.00     0.065 H 
BRANCH  83 103
ATOM    103  C   UNL A   1      39.606  33.288  36.513  1.00  0.00     0.064 A 
ATOM    104  C   UNL A   1      38.720  32.939  37.544  1.00  0.00     0.173 A 
ATOM    105  C   UNL A   1      40.301  34.501  36.633  1.00  0.00     0.173 A 
ATOM    106  F   UNL A   1      38.021  31.796  37.476  1.00  0.00    -0.203 F 
ATOM    107  C   UNL A   1      38.514  33.784  38.632  1.00  0.00     0.198 A 
ATOM    108  C   UNL A   1      40.121  35.327  37.740  1.00  0.00     0.198 A 
ATOM    109  F   UNL A   1      41.166  34.884  35.680  1.00  0.00    -0.203 F 
ATOM    110  F   UNL A   1      37.621  33.454  39.575  1.00  0.00    -0.200 F 
ATOM    111  C   UNL A   1      39.221  34.972  38.734  1.00  0.00     0.200 A 
ATOM    112  F   UNL A   1      40.817  36.468  37.844  1.00  0.00    -0.200 F 
ATOM    113  F   UNL A   1      39.029  35.781  39.785  1.00  0.00    -0.200 F 
ENDBRANCH  83 103
BRANCH  86 114
ATOM    114  C   UNL A   1      41.023  27.677  28.363  1.00  0.00     0.064 A 
ATOM    115  C   UNL A   1      40.420  26.420  28.211  1.00  0.00     0.173 A 
ATOM    116  C   UNL A   1      41.863  28.126  27.334  1.00  0.00     0.173 A 
ATOM    117  F   UNL A   1      39.624  25.937  29.176  1.00  0.00    -0.203 F 
ATOM    118  C   UNL A   1      40.672  25.633  27.089  1.00  0.00     0.198 A 
ATOM    119  C   UNL A   1      42.086  27.353  26.197  1.00  0.00     0.198 A 
ATOM    120  F   UNL A   1      42.459  29.324  27.426  1.00  0.00    -0.203 F 
ATOM    121  F   UNL A   1      40.127  24.412  26.995  1.00  0.00    -0.200 F 
ATOM    122  C   UNL A   1      41.499  26.102  26.080  1.00  0.00     0.200 A 
ATOM    123  F   UNL A   1      42.872  27.818  25.217  1.00  0.00    -0.200 F 
ATOM    124  F   UNL A   1      41.738  25.345  25.000  1.00  0.00    -0.200 F 
ENDBRANCH  86 114
BRANCH 101 125
ATOM    125  C   UNL A   1      44.163  28.042  34.579  1.00  0.00     0.064 A 
ATOM    126  C   UNL A   1      45.484  28.510  34.514  1.00  0.00     0.173 A 
ATOM    127  C   UNL A   1      43.926  26.843  35.271  1.00  0.00     0.173 A 
ATOM    128  F   UNL A   1      45.766  29.643  33.852  1.00  0.00    -0.203 F 
ATOM    129  C   UNL A   1      46.527  27.791  35.091  1.00  0.00     0.198 A 
ATOM    130  C   UNL A   1      44.967  26.148  35.879  1.00  0.00     0.198 A 
ATOM    131  F   UNL A   1      42.681  26.354  35.372  1.00  0.00    -0.203 F 
ATOM    132  F   UNL A   1      47.788  28.230  34.967  1.00  0.00    -0.200 F 
ATOM    133  C   UNL A   1      46.267  26.616  35.780  1.00  0.00     0.200 A 
ATOM    134  F   UNL A   1      44.710  25.022  36.561  1.00  0.00    -0.200 F 
ATOM    135  F   UNL A   1      47.272  25.933  36.344  1.00  0.00    -0.200 F 
ENDBRANCH 101 125
ENDBRANCH  66  69
ENDBRANCH  56  59
ENDBRANCH  52  55
ENDBRANCH  49  52
ENDBRANCH  46  49
ENDBRANCH   1  46
TORSDOF 17
ENDMDL
MODEL 6
REMARK VINA RESULT:     -12.5      5.230     10.084
REMARK SMILES NS(=O)(=O)c1ccc(N2N=C(C(=O)NCCCCCCNC(=O)c3ccc(-c4c5nc(c(-c6c(F)c(F)c(F)c(F)c6F)c6ccc([nH]6)c(-c6c(F)c(F)c(F)c(F)c6F)c6nc(c(-c7c(F)c(F)c(F)c(F)c7F)c7ccc4[nH]7)C=C6)C=C5)cc3)C[C@H]2c2ccco2)cc1
REMARK SMILES IDX 17 1 16 4 15 7 14 10 12 11 13 12 11 14 9 15 10 16 88 17
REMARK SMILES IDX 87 18 8 22 5 23 6 24 95 25 7 26 94 28 2 32 3 33 4 34 1 35
REMARK SMILES IDX 89 38 90 39 93 40 91 41 92 43 18 46 19 49 20 52 21 55 22 56
REMARK SMILES IDX 23 58 24 59 25 60 86 61 26 62 85 64 27 66 28 69 29 70 79 71
REMARK SMILES IDX 30 72 84 73 78 74 80 75 31 76 83 77 77 79 76 81 32 83 64 86
REMARK SMILES IDX 44 87 63 88 45 89 48 90 62 91 81 92 46 93 47 95 61 97 82 98
REMARK SMILES IDX 49 101 33 103 34 104 42 105 35 106 36 107 40 108 43 109
REMARK SMILES IDX 37 110 38 111 41 112 39 113 65 114 66 115 74 116 67 117
REMARK SMILES IDX 68 118 72 119 75 120 69 121 70 122 73 123 71 124 50 125
REMARK SMILES IDX 51 126 59 127 52 128 53 129 57 130 60 131 54 132 55 133
REMARK SMILES IDX 58 134 56 135
REMARK H PARENT 17 2 17 3 16 5 16 6 15 8 15 9 14 13 88 19 87 20 87 21 6 27
REMARK H PARENT 95 29 7 30 94 31 1 36 1 37 90 42 91 44 92 45 18 47 18 48 19 50
REMARK H PARENT 19 51 20 53 20 54 21 57 25 63 86 65 26 67 85 68 84 78 78 80
REMARK H PARENT 80 82 83 84 77 85 45 94 48 96 81 99 46 100 82 102
REMARK Flexibility Score: inf
ROOT
ATOM      1  C   UNL A   1      32.860  29.825  25.777  1.00  0.00    -0.052 C 
ATOM      2  H   UNL A   1      33.560  30.620  25.934  1.00  0.00     0.027 H 
ATOM      3  H   UNL A   1      32.864  29.098  26.562  1.00  0.00     0.027 H 
ENDROOT
BRANCH   1   4
ATOM      4  C   UNL A   1      33.262  29.083  24.501  1.00  0.00    -0.036 C 
ATOM      5  H   UNL A   1      32.645  29.432  23.699  1.00  0.00     0.028 H 
ATOM      6  H   UNL A   1      34.301  29.285  24.338  1.00  0.00     0.028 H 
BRANCH   4   7
ATOM      7  C   UNL A   1      33.115  27.569  24.596  1.00  0.00     0.018 C 
ATOM      8  H   UNL A   1      33.907  27.178  25.201  1.00  0.00     0.049 H 
ATOM      9  H   UNL A   1      32.164  27.346  25.033  1.00  0.00     0.049 H 
BRANCH   7  10
ATOM     10  N   UNL A   1      33.175  26.956  23.286  1.00  0.00    -0.351 N 
ATOM     11  C   UNL A   1      33.593  25.736  22.819  1.00  0.00     0.267 C 
ATOM     12  O   UNL A   1      33.603  25.568  21.602  1.00  0.00    -0.268 OA
ATOM     13  H   UNL A   1      32.842  27.546  22.571  1.00  0.00     0.163 HD
BRANCH  11  14
ATOM     14  C   UNL A   1      33.992  24.577  23.720  1.00  0.00     0.128 C 
ATOM     15  N   UNL A   1      35.230  23.061  24.553  1.00  0.00    -0.254 N 
ATOM     16  N   UNL A   1      35.235  24.220  23.846  1.00  0.00    -0.171 NA
ATOM     17  C   UNL A   1      33.923  22.694  25.100  1.00  0.00     0.116 C 
ATOM     18  C   UNL A   1      33.012  23.754  24.486  1.00  0.00     0.027 C 
ATOM     19  H   UNL A   1      33.961  22.676  26.169  1.00  0.00     0.064 H 
ATOM     20  H   UNL A   1      32.280  23.315  23.840  1.00  0.00     0.036 H 
ATOM     21  H   UNL A   1      32.441  24.308  25.202  1.00  0.00     0.036 H 
BRANCH  15  22
ATOM     22  C   UNL A   1      36.415  22.503  25.007  1.00  0.00     0.060 A 
ATOM     23  C   UNL A   1      38.879  21.463  25.849  1.00  0.00     0.082 A 
ATOM     24  C   UNL A   1      37.997  20.656  25.125  1.00  0.00    -0.040 A 
ATOM     25  C   UNL A   1      38.524  22.764  26.202  1.00  0.00    -0.040 A 
ATOM     26  C   UNL A   1      36.766  21.179  24.714  1.00  0.00    -0.035 A 
ATOM     27  H   UNL A   1      38.251  19.682  24.897  1.00  0.00     0.064 H 
ATOM     28  C   UNL A   1      37.295  23.269  25.783  1.00  0.00    -0.035 A 
ATOM     29  H   UNL A   1      39.163  23.345  26.766  1.00  0.00     0.064 H 
ATOM     30  H   UNL A   1      36.109  20.582  24.187  1.00  0.00     0.065 H 
ATOM     31  H   UNL A   1      37.027  24.229  26.051  1.00  0.00     0.065 H 
BRANCH  23  32
ATOM     32  S   UNL A   1      40.439  20.820  26.364  1.00  0.00     0.238 S 
ATOM     33  O   UNL A   1      40.498  20.797  27.806  1.00  0.00    -0.207 OA
ATOM     34  O   UNL A   1      41.489  21.392  25.551  1.00  0.00    -0.207 OA
BRANCH  32  35
ATOM     35  N   UNL A   1      40.320  19.215  25.878  1.00  0.00    -0.225 NA
ATOM     36  H   UNL A   1      40.271  19.171  24.860  1.00  0.00     0.137 HD
ATOM     37  H   UNL A   1      39.478  18.801  26.277  1.00  0.00     0.137 HD
ENDBRANCH  32  35
ENDBRANCH  23  32
ENDBRANCH  15  22
BRANCH  17  38
ATOM     38  C   UNL A   1      33.429  21.296  24.860  1.00  0.00     0.128 A 
ATOM     39  C   UNL A   1      32.873  20.677  23.756  1.00  0.00    -0.018 A 
ATOM     40  O   UNL A   1      33.509  20.397  25.888  1.00  0.00    -0.467 OA
ATOM     41  C   UNL A   1      32.569  19.351  24.144  1.00  0.00    -0.023 A 
ATOM     42  H   UNL A   1      32.712  21.100  22.828  1.00  0.00     0.066 H 
ATOM     43  C   UNL A   1      32.992  19.226  25.445  1.00  0.00     0.091 A 
ATOM     44  H   UNL A   1      32.118  18.624  23.566  1.00  0.00     0.066 H 
ATOM     45  H   UNL A   1      32.926  18.361  26.005  1.00  0.00     0.104 H 
ENDBRANCH  17  38
ENDBRANCH  11  14
ENDBRANCH   7  10
ENDBRANCH   4   7
ENDBRANCH   1   4
BRANCH   1  46
ATOM     46  C   UNL A   1      31.451  30.429  25.754  1.00  0.00    -0.052 C 
ATOM     47  H   UNL A   1      30.780  29.720  26.192  1.00  0.00     0.027 H 
ATOM     48  H   UNL A   1      31.234  30.642  24.728  1.00  0.00     0.027 H 
BRANCH  46  49
ATOM     49  C   UNL A   1      31.300  31.753  26.507  1.00  0.00    -0.036 C 
ATOM     50  H   UNL A   1      30.663  31.588  27.351  1.00  0.00     0.028 H 
ATOM     51  H   UNL A   1      30.896  32.456  25.809  1.00  0.00     0.028 H 
BRANCH  49  52
ATOM     52  C   UNL A   1      32.612  32.344  27.008  1.00  0.00     0.018 C 
ATOM     53  H   UNL A   1      33.345  32.267  26.232  1.00  0.00     0.049 H 
ATOM     54  H   UNL A   1      32.912  31.796  27.877  1.00  0.00     0.049 H 
BRANCH  52  55
ATOM     55  N   UNL A   1      32.470  33.740  27.383  1.00  0.00    -0.352 N 
ATOM     56  C   UNL A   1      33.110  34.445  28.370  1.00  0.00     0.251 C 
ATOM     57  H   UNL A   1      31.820  34.256  26.852  1.00  0.00     0.163 HD
ATOM     58  O   UNL A   1      32.712  35.560  28.692  1.00  0.00    -0.269 OA
BRANCH  56  59
ATOM     59  C   UNL A   1      34.273  33.849  29.059  1.00  0.00     0.039 A 
ATOM     60  C   UNL A   1      34.052  32.891  30.050  1.00  0.00    -0.049 A 
ATOM     61  C   UNL A   1      35.575  34.242  28.736  1.00  0.00    -0.049 A 
ATOM     62  C   UNL A   1      35.141  32.288  30.680  1.00  0.00    -0.053 A 
ATOM     63  H   UNL A   1      33.090  32.631  30.315  1.00  0.00     0.063 H 
ATOM     64  C   UNL A   1      36.659  33.582  29.305  1.00  0.00    -0.053 A 
ATOM     65  H   UNL A   1      35.733  35.021  28.077  1.00  0.00     0.063 H 
ATOM     66  C   UNL A   1      36.453  32.604  30.290  1.00  0.00    -0.014 A 
ATOM     67  H   UNL A   1      34.982  31.606  31.439  1.00  0.00     0.063 H 
ATOM     68  H   UNL A   1      37.618  33.813  29.003  1.00  0.00     0.063 H 
BRANCH  66  69
ATOM     69  C   UNL A   1      37.622  31.924  30.904  1.00  0.00     0.031 A 
ATOM     70  C   UNL A   1      38.069  32.291  32.292  1.00  0.00     0.074 A 
ATOM     71  C   UNL A   1      38.311  31.013  30.191  1.00  0.00     0.049 A 
ATOM     72  N   UNL A   1      39.095  31.852  32.976  1.00  0.00    -0.248 NA
ATOM     73  C   UNL A   1      37.272  33.310  32.996  1.00  0.00    -0.034 C 
ATOM     74  C   UNL A   1      38.002  30.603  28.820  1.00  0.00    -0.036 A 
ATOM     75  N   UNL A   1      39.421  30.272  30.516  1.00  0.00    -0.354 N 
ATOM     76  C   UNL A   1      39.072  32.544  34.180  1.00  0.00     0.074 A 
ATOM     77  C   UNL A   1      37.969  33.477  34.109  1.00  0.00    -0.034 C 
ATOM     78  H   UNL A   1      36.399  33.772  32.698  1.00  0.00     0.065 H 
ATOM     79  C   UNL A   1      38.881  29.666  28.432  1.00  0.00    -0.036 A 
ATOM     80  H   UNL A   1      37.230  30.974  28.245  1.00  0.00     0.065 H 
ATOM     81  C   UNL A   1      39.844  29.443  29.506  1.00  0.00     0.049 A 
ATOM     82  H   UNL A   1      39.870  30.331  31.390  1.00  0.00     0.167 HD
ATOM     83  C   UNL A   1      39.882  32.397  35.254  1.00  0.00     0.037 A 
ATOM     84  H   UNL A   1      37.753  34.181  34.832  1.00  0.00     0.065 H 
ATOM     85  H   UNL A   1      38.878  29.183  27.521  1.00  0.00     0.065 H 
ATOM     86  C   UNL A   1      40.897  28.605  29.449  1.00  0.00     0.037 A 
ATOM     87  C   UNL A   1      40.970  31.455  35.323  1.00  0.00     0.049 A 
ATOM     88  C   UNL A   1      41.798  28.479  30.649  1.00  0.00     0.074 A 
ATOM     89  C   UNL A   1      41.816  31.191  36.385  1.00  0.00    -0.036 A 
ATOM     90  N   UNL A   1      41.366  30.629  34.282  1.00  0.00    -0.354 N 
ATOM     91  N   UNL A   1      41.724  29.088  31.809  1.00  0.00    -0.248 NA
ATOM     92  C   UNL A   1      42.925  27.544  30.534  1.00  0.00    -0.034 C 
ATOM     93  C   UNL A   1      42.763  30.252  35.966  1.00  0.00    -0.036 A 
ATOM     94  H   UNL A   1      41.758  31.614  37.326  1.00  0.00     0.065 H 
ATOM     95  C   UNL A   1      42.465  29.876  34.666  1.00  0.00     0.049 A 
ATOM     96  H   UNL A   1      40.932  30.583  33.399  1.00  0.00     0.167 HD
ATOM     97  C   UNL A   1      42.771  28.586  32.570  1.00  0.00     0.074 A 
ATOM     98  C   UNL A   1      43.455  27.611  31.747  1.00  0.00    -0.034 C 
ATOM     99  H   UNL A   1      43.225  26.982  29.723  1.00  0.00     0.065 H 
ATOM    100  H   UNL A   1      43.552  29.897  36.531  1.00  0.00     0.065 H 
ATOM    101  C   UNL A   1      43.132  28.903  33.839  1.00  0.00     0.037 A 
ATOM    102  H   UNL A   1      44.254  27.041  32.065  1.00  0.00     0.065 H 
BRANCH  83 103
ATOM    103  C   UNL A   1      39.626  33.277  36.446  1.00  0.00     0.064 A 
ATOM    104  C   UNL A   1      38.740  32.901  37.467  1.00  0.00     0.173 A 
ATOM    105  C   UNL A   1      40.306  34.497  36.587  1.00  0.00     0.173 A 
ATOM    106  F   UNL A   1      38.056  31.750  37.378  1.00  0.00    -0.203 F 
ATOM    107  C   UNL A   1      38.518  33.727  38.566  1.00  0.00     0.198 A 
ATOM    108  C   UNL A   1      40.110  35.303  37.707  1.00  0.00     0.198 A 
ATOM    109  F   UNL A   1      41.171  34.904  35.646  1.00  0.00    -0.203 F 
ATOM    110  F   UNL A   1      37.624  33.371  39.500  1.00  0.00    -0.200 F 
ATOM    111  C   UNL A   1      39.209  34.921  38.690  1.00  0.00     0.200 A 
ATOM    112  F   UNL A   1      40.791  36.451  37.831  1.00  0.00    -0.200 F 
ATOM    113  F   UNL A   1      39.002  35.711  39.753  1.00  0.00    -0.200 F 
ENDBRANCH  83 103
BRANCH  86 114
ATOM    114  C   UNL A   1      41.149  27.807  28.219  1.00  0.00     0.064 A 
ATOM    115  C   UNL A   1      40.745  26.467  28.133  1.00  0.00     0.173 A 
ATOM    116  C   UNL A   1      41.808  28.362  27.112  1.00  0.00     0.173 A 
ATOM    117  F   UNL A   1      40.129  25.885  29.172  1.00  0.00    -0.203 F 
ATOM    118  C   UNL A   1      41.015  25.706  26.998  1.00  0.00     0.198 A 
ATOM    119  C   UNL A   1      42.047  27.609  25.965  1.00  0.00     0.198 A 
ATOM    120  F   UNL A   1      42.210  29.641  27.139  1.00  0.00    -0.203 F 
ATOM    121  F   UNL A   1      40.668  24.412  26.964  1.00  0.00    -0.200 F 
ATOM    122  C   UNL A   1      41.660  26.278  25.913  1.00  0.00     0.200 A 
ATOM    123  F   UNL A   1      42.654  28.172  24.911  1.00  0.00    -0.200 F 
ATOM    124  F   UNL A   1      41.917  25.546  24.820  1.00  0.00    -0.200 F 
ENDBRANCH  86 114
BRANCH 101 125
ATOM    125  C   UNL A   1      44.294  28.159  34.433  1.00  0.00     0.064 A 
ATOM    126  C   UNL A   1      45.605  28.654  34.366  1.00  0.00     0.173 A 
ATOM    127  C   UNL A   1      44.085  26.950  35.116  1.00  0.00     0.173 A 
ATOM    128  F   UNL A   1      45.862  29.798  33.713  1.00  0.00    -0.203 F 
ATOM    129  C   UNL A   1      46.666  27.951  34.932  1.00  0.00     0.198 A 
ATOM    130  C   UNL A   1      45.142  26.270  35.712  1.00  0.00     0.198 A 
ATOM    131  F   UNL A   1      42.850  26.435  35.218  1.00  0.00    -0.203 F 
ATOM    132  F   UNL A   1      47.917  28.415  34.806  1.00  0.00    -0.200 F 
ATOM    133  C   UNL A   1      46.432  26.765  35.612  1.00  0.00     0.200 A 
ATOM    134  F   UNL A   1      44.911  25.133  36.385  1.00  0.00    -0.200 F 
ATOM    135  F   UNL A   1      47.453  26.097  36.165  1.00  0.00    -0.200 F 
ENDBRANCH 101 125
ENDBRANCH  66  69
ENDBRANCH  56  59
ENDBRANCH  52  55
ENDBRANCH  49  52
ENDBRANCH  46  49
ENDBRANCH   1  46
TORSDOF 17
ENDMDL
MODEL 7
REMARK VINA RESULT:     -12.5      0.603      7.202
REMARK SMILES NS(=O)(=O)c1ccc(N2N=C(C(=O)NCCCCCCNC(=O)c3ccc(-c4c5nc(c(-c6c(F)c(F)c(F)c(F)c6F)c6ccc([nH]6)c(-c6c(F)c(F)c(F)c(F)c6F)c6nc(c(-c7c(F)c(F)c(F)c(F)c7F)c7ccc4[nH]7)C=C6)C=C5)cc3)C[C@H]2c2ccco2)cc1
REMARK SMILES IDX 17 1 16 4 15 7 14 10 12 11 13 12 11 14 9 15 10 16 88 17
REMARK SMILES IDX 87 18 8 22 5 23 6 24 95 25 7 26 94 28 2 32 3 33 4 34 1 35
REMARK SMILES IDX 89 38 90 39 93 40 91 41 92 43 18 46 19 49 20 52 21 55 22 56
REMARK SMILES IDX 23 58 24 59 25 60 86 61 26 62 85 64 27 66 28 69 29 70 79 71
REMARK SMILES IDX 30 72 84 73 78 74 80 75 31 76 83 77 77 79 76 81 32 83 64 86
REMARK SMILES IDX 44 87 63 88 45 89 48 90 62 91 81 92 46 93 47 95 61 97 82 98
REMARK SMILES IDX 49 101 33 103 34 104 42 105 35 106 36 107 40 108 43 109
REMARK SMILES IDX 37 110 38 111 41 112 39 113 65 114 66 115 74 116 67 117
REMARK SMILES IDX 68 118 72 119 75 120 69 121 70 122 73 123 71 124 50 125
REMARK SMILES IDX 51 126 59 127 52 128 53 129 57 130 60 131 54 132 55 133
REMARK SMILES IDX 58 134 56 135
REMARK H PARENT 17 2 17 3 16 5 16 6 15 8 15 9 14 13 88 19 87 20 87 21 6 27
REMARK H PARENT 95 29 7 30 94 31 1 36 1 37 90 42 91 44 92 45 18 47 18 48 19 50
REMARK H PARENT 19 51 20 53 20 54 21 57 25 63 86 65 26 67 85 68 84 78 78 80
REMARK H PARENT 80 82 83 84 77 85 45 94 48 96 81 99 46 100 82 102
REMARK Flexibility Score: inf
ROOT
ATOM      1  C   UNL A   1      37.108  22.070  24.589  1.00  0.00    -0.052 C 
ATOM      2  H   UNL A   1      37.024  22.595  25.518  1.00  0.00     0.027 H 
ATOM      3  H   UNL A   1      38.101  22.074  24.190  1.00  0.00     0.027 H 
ENDROOT
BRANCH   1   4
ATOM      4  C   UNL A   1      36.228  22.781  23.560  1.00  0.00    -0.036 C 
ATOM      5  H   UNL A   1      36.831  23.490  23.032  1.00  0.00     0.028 H 
ATOM      6  H   UNL A   1      35.826  22.025  22.919  1.00  0.00     0.028 H 
BRANCH   4   7
ATOM      7  C   UNL A   1      35.042  23.520  24.169  1.00  0.00     0.018 C 
ATOM      8  H   UNL A   1      35.119  23.487  25.236  1.00  0.00     0.049 H 
ATOM      9  H   UNL A   1      35.058  24.533  23.823  1.00  0.00     0.049 H 
BRANCH   7  10
ATOM     10  N   UNL A   1      33.789  22.916  23.768  1.00  0.00    -0.351 N 
ATOM     11  C   UNL A   1      32.469  23.259  23.920  1.00  0.00     0.267 C 
ATOM     12  O   UNL A   1      31.627  22.452  23.537  1.00  0.00    -0.268 OA
ATOM     13  H   UNL A   1      33.911  22.071  23.277  1.00  0.00     0.163 HD
BRANCH  11  14
ATOM     14  C   UNL A   1      32.002  24.591  24.484  1.00  0.00     0.128 C 
ATOM     15  N   UNL A   1      31.296  26.598  24.477  1.00  0.00    -0.254 N 
ATOM     16  N   UNL A   1      31.409  25.469  23.732  1.00  0.00    -0.171 NA
ATOM     17  C   UNL A   1      31.669  26.432  25.883  1.00  0.00     0.116 C 
ATOM     18  C   UNL A   1      32.210  25.004  25.902  1.00  0.00     0.027 C 
ATOM     19  H   UNL A   1      30.826  26.619  26.514  1.00  0.00     0.064 H 
ATOM     20  H   UNL A   1      33.246  24.981  26.168  1.00  0.00     0.036 H 
ATOM     21  H   UNL A   1      31.735  24.366  26.618  1.00  0.00     0.036 H 
BRANCH  15  22
ATOM     22  C   UNL A   1      30.553  27.677  24.023  1.00  0.00     0.060 A 
ATOM     23  C   UNL A   1      29.063  29.809  22.978  1.00  0.00     0.082 A 
ATOM     24  C   UNL A   1      30.283  30.060  23.612  1.00  0.00    -0.040 A 
ATOM     25  C   UNL A   1      28.554  28.514  22.905  1.00  0.00    -0.040 A 
ATOM     26  C   UNL A   1      31.018  28.992  24.138  1.00  0.00    -0.035 A 
ATOM     27  H   UNL A   1      30.637  31.027  23.694  1.00  0.00     0.064 H 
ATOM     28  C   UNL A   1      29.300  27.462  23.432  1.00  0.00    -0.035 A 
ATOM     29  H   UNL A   1      27.637  28.336  22.467  1.00  0.00     0.064 H 
ATOM     30  H   UNL A   1      31.914  29.177  24.615  1.00  0.00     0.065 H 
ATOM     31  H   UNL A   1      28.921  26.503  23.388  1.00  0.00     0.065 H 
BRANCH  23  32
ATOM     32  S   UNL A   1      28.130  31.146  22.301  1.00  0.00     0.238 S 
ATOM     33  O   UNL A   1      27.172  31.607  23.276  1.00  0.00    -0.207 OA
ATOM     34  O   UNL A   1      27.767  30.838  20.937  1.00  0.00    -0.207 OA
BRANCH  32  35
ATOM     35  N   UNL A   1      29.298  32.351  22.192  1.00  0.00    -0.225 NA
ATOM     36  H   UNL A   1      29.453  32.587  21.211  1.00  0.00     0.137 HD
ATOM     37  H   UNL A   1      30.170  32.017  22.602  1.00  0.00     0.137 HD
ENDBRANCH  32  35
ENDBRANCH  23  32
ENDBRANCH  15  22
BRANCH  17  38
ATOM     38  C   UNL A   1      32.629  27.424  26.476  1.00  0.00     0.128 A 
ATOM     39  C   UNL A   1      32.555  28.247  27.585  1.00  0.00    -0.018 A 
ATOM     40  O   UNL A   1      33.834  27.608  25.857  1.00  0.00    -0.467 OA
ATOM     41  C   UNL A   1      33.758  28.992  27.618  1.00  0.00    -0.023 A 
ATOM     42  H   UNL A   1      31.775  28.307  28.257  1.00  0.00     0.066 H 
ATOM     43  C   UNL A   1      34.509  28.552  26.555  1.00  0.00     0.091 A 
ATOM     44  H   UNL A   1      34.017  29.720  28.302  1.00  0.00     0.066 H 
ATOM     45  H   UNL A   1      35.456  28.893  26.322  1.00  0.00     0.104 H 
ENDBRANCH  17  38
ENDBRANCH  11  14
ENDBRANCH   7  10
ENDBRANCH   4   7
ENDBRANCH   1   4
BRANCH   1  46
ATOM     46  C   UNL A   1      36.750  20.600  24.838  1.00  0.00    -0.052 C 
ATOM     47  H   UNL A   1      36.143  20.264  24.023  1.00  0.00     0.027 H 
ATOM     48  H   UNL A   1      36.247  20.572  25.782  1.00  0.00     0.027 H 
BRANCH  46  49
ATOM     49  C   UNL A   1      37.946  19.653  24.961  1.00  0.00    -0.036 C 
ATOM     50  H   UNL A   1      38.309  19.443  23.976  1.00  0.00     0.028 H 
ATOM     51  H   UNL A   1      37.592  18.781  25.470  1.00  0.00     0.028 H 
BRANCH  49  52
ATOM     52  C   UNL A   1      39.100  20.202  25.789  1.00  0.00     0.018 C 
ATOM     53  H   UNL A   1      38.737  20.457  26.763  1.00  0.00     0.049 H 
ATOM     54  H   UNL A   1      39.489  21.063  25.285  1.00  0.00     0.049 H 
BRANCH  52  55
ATOM     55  N   UNL A   1      40.177  19.236  25.927  1.00  0.00    -0.352 N 
ATOM     56  C   UNL A   1      41.519  19.450  26.105  1.00  0.00     0.251 C 
ATOM     57  H   UNL A   1      39.903  18.291  25.887  1.00  0.00     0.163 HD
ATOM     58  O   UNL A   1      42.314  18.524  25.984  1.00  0.00    -0.269 OA
BRANCH  56  59
ATOM     59  C   UNL A   1      42.009  20.806  26.426  1.00  0.00     0.039 A 
ATOM     60  C   UNL A   1      42.253  21.700  25.382  1.00  0.00    -0.049 A 
ATOM     61  C   UNL A   1      42.237  21.190  27.751  1.00  0.00    -0.049 A 
ATOM     62  C   UNL A   1      42.675  22.998  25.671  1.00  0.00    -0.053 A 
ATOM     63  H   UNL A   1      42.122  21.403  24.403  1.00  0.00     0.063 H 
ATOM     64  C   UNL A   1      42.577  22.507  28.041  1.00  0.00    -0.053 A 
ATOM     65  H   UNL A   1      42.153  20.499  28.512  1.00  0.00     0.063 H 
ATOM     66  C   UNL A   1      42.809  23.423  27.003  1.00  0.00    -0.014 A 
ATOM     67  H   UNL A   1      42.891  23.651  24.900  1.00  0.00     0.063 H 
ATOM     68  H   UNL A   1      42.661  22.812  29.023  1.00  0.00     0.063 H 
BRANCH  66  69
ATOM     69  C   UNL A   1      43.193  24.820  27.329  1.00  0.00     0.031 A 
ATOM     70  C   UNL A   1      44.608  25.283  27.122  1.00  0.00     0.074 A 
ATOM     71  C   UNL A   1      42.279  25.654  27.860  1.00  0.00     0.049 A 
ATOM     72  N   UNL A   1      45.149  26.443  27.398  1.00  0.00    -0.248 NA
ATOM     73  C   UNL A   1      45.550  24.304  26.555  1.00  0.00    -0.034 C 
ATOM     74  C   UNL A   1      40.886  25.308  28.149  1.00  0.00    -0.036 A 
ATOM     75  N   UNL A   1      42.386  26.963  28.262  1.00  0.00    -0.354 N 
ATOM     76  C   UNL A   1      46.488  26.329  27.048  1.00  0.00     0.074 A 
ATOM     77  C   UNL A   1      46.693  24.969  26.600  1.00  0.00    -0.034 C 
ATOM     78  H   UNL A   1      45.365  23.348  26.212  1.00  0.00     0.065 H 
ATOM     79  C   UNL A   1      40.261  26.384  28.653  1.00  0.00    -0.036 A 
ATOM     80  H   UNL A   1      40.454  24.386  27.988  1.00  0.00     0.065 H 
ATOM     81  C   UNL A   1      41.219  27.480  28.770  1.00  0.00     0.049 A 
ATOM     82  H   UNL A   1      43.220  27.481  28.194  1.00  0.00     0.167 HD
ATOM     83  C   UNL A   1      47.453  27.279  27.076  1.00  0.00     0.037 A 
ATOM     84  H   UNL A   1      47.611  24.570  26.346  1.00  0.00     0.065 H 
ATOM     85  H   UNL A   1      39.266  26.429  28.918  1.00  0.00     0.065 H 
ATOM     86  C   UNL A   1      40.954  28.697  29.281  1.00  0.00     0.037 A 
ATOM     87  C   UNL A   1      47.238  28.636  27.510  1.00  0.00     0.049 A 
ATOM     88  C   UNL A   1      42.051  29.728  29.324  1.00  0.00     0.074 A 
ATOM     89  C   UNL A   1      48.135  29.688  27.526  1.00  0.00    -0.036 A 
ATOM     90  N   UNL A   1      46.041  29.123  28.013  1.00  0.00    -0.354 N 
ATOM     91  N   UNL A   1      43.297  29.629  28.925  1.00  0.00    -0.248 NA
ATOM     92  C   UNL A   1      41.703  31.041  29.884  1.00  0.00    -0.034 C 
ATOM     93  C   UNL A   1      47.501  30.795  28.097  1.00  0.00    -0.036 A 
ATOM     94  H   UNL A   1      49.106  29.662  27.175  1.00  0.00     0.065 H 
ATOM     95  C   UNL A   1      46.186  30.455  28.372  1.00  0.00     0.049 A 
ATOM     96  H   UNL A   1      45.211  28.603  28.103  1.00  0.00     0.167 HD
ATOM     97  C   UNL A   1      43.869  30.873  29.152  1.00  0.00     0.074 A 
ATOM     98  C   UNL A   1      42.831  31.714  29.710  1.00  0.00    -0.034 C 
ATOM     99  H   UNL A   1      40.814  31.356  30.301  1.00  0.00     0.065 H 
ATOM    100  H   UNL A   1      47.938  31.712  28.283  1.00  0.00     0.065 H 
ATOM    101  C   UNL A   1      45.142  31.283  28.920  1.00  0.00     0.037 A 
ATOM    102  H   UNL A   1      42.954  32.712  29.943  1.00  0.00     0.065 H 
BRANCH  83 103
ATOM    103  C   UNL A   1      48.832  26.886  26.627  1.00  0.00     0.064 A 
ATOM    104  C   UNL A   1      49.773  26.342  27.515  1.00  0.00     0.173 A 
ATOM    105  C   UNL A   1      49.206  27.018  25.280  1.00  0.00     0.173 A 
ATOM    106  F   UNL A   1      49.472  26.202  28.816  1.00  0.00    -0.203 F 
ATOM    107  C   UNL A   1      51.045  25.978  27.081  1.00  0.00     0.198 A 
ATOM    108  C   UNL A   1      50.466  26.618  24.842  1.00  0.00     0.198 A 
ATOM    109  F   UNL A   1      48.345  27.525  24.385  1.00  0.00    -0.203 F 
ATOM    110  F   UNL A   1      51.944  25.514  27.960  1.00  0.00    -0.200 F 
ATOM    111  C   UNL A   1      51.387  26.108  25.744  1.00  0.00     0.200 A 
ATOM    112  F   UNL A   1      50.790  26.730  23.546  1.00  0.00    -0.200 F 
ATOM    113  F   UNL A   1      52.609  25.748  25.325  1.00  0.00    -0.200 F 
ENDBRANCH  83 103
BRANCH  86 114
ATOM    114  C   UNL A   1      39.589  29.016  29.779  1.00  0.00     0.064 A 
ATOM    115  C   UNL A   1      39.209  28.704  31.092  1.00  0.00     0.173 A 
ATOM    116  C   UNL A   1      38.634  29.625  28.951  1.00  0.00     0.173 A 
ATOM    117  F   UNL A   1      40.078  28.103  31.917  1.00  0.00    -0.203 F 
ATOM    118  C   UNL A   1      37.918  28.965  31.549  1.00  0.00     0.198 A 
ATOM    119  C   UNL A   1      37.355  29.917  29.420  1.00  0.00     0.198 A 
ATOM    120  F   UNL A   1      38.948  29.950  27.688  1.00  0.00    -0.203 F 
ATOM    121  F   UNL A   1      37.565  28.607  32.791  1.00  0.00    -0.200 F 
ATOM    122  C   UNL A   1      36.995  29.577  30.715  1.00  0.00     0.200 A 
ATOM    123  F   UNL A   1      36.472  30.524  28.616  1.00  0.00    -0.200 F 
ATOM    124  F   UNL A   1      35.755  29.830  31.156  1.00  0.00    -0.200 F 
ENDBRANCH  86 114
BRANCH 101 125
ATOM    125  C   UNL A   1      45.472  32.716  29.225  1.00  0.00     0.064 A 
ATOM    126  C   UNL A   1      46.006  33.107  30.463  1.00  0.00     0.173 A 
ATOM    127  C   UNL A   1      45.290  33.708  28.248  1.00  0.00     0.173 A 
ATOM    128  F   UNL A   1      46.187  32.201  31.435  1.00  0.00    -0.203 F 
ATOM    129  C   UNL A   1      46.314  34.441  30.720  1.00  0.00     0.198 A 
ATOM    130  C   UNL A   1      45.634  35.033  28.497  1.00  0.00     0.198 A 
ATOM    131  F   UNL A   1      44.792  33.389  27.044  1.00  0.00    -0.203 F 
ATOM    132  F   UNL A   1      46.770  34.798  31.929  1.00  0.00    -0.200 F 
ATOM    133  C   UNL A   1      46.137  35.400  29.735  1.00  0.00     0.200 A 
ATOM    134  F   UNL A   1      45.480  35.956  27.536  1.00  0.00    -0.200 F 
ATOM    135  F   UNL A   1      46.444  36.681  29.982  1.00  0.00    -0.200 F 
ENDBRANCH 101 125
ENDBRANCH  66  69
ENDBRANCH  56  59
ENDBRANCH  52  55
ENDBRANCH  49  52
ENDBRANCH  46  49
ENDBRANCH   1  46
TORSDOF 17
ENDMDL
MODEL 8
REMARK VINA RESULT:     -12.5      4.847     10.550
REMARK SMILES NS(=O)(=O)c1ccc(N2N=C(C(=O)NCCCCCCNC(=O)c3ccc(-c4c5nc(c(-c6c(F)c(F)c(F)c(F)c6F)c6ccc([nH]6)c(-c6c(F)c(F)c(F)c(F)c6F)c6nc(c(-c7c(F)c(F)c(F)c(F)c7F)c7ccc4[nH]7)C=C6)C=C5)cc3)C[C@H]2c2ccco2)cc1
REMARK SMILES IDX 17 1 16 4 15 7 14 10 12 11 13 12 11 14 9 15 10 16 88 17
REMARK SMILES IDX 87 18 8 22 5 23 6 24 95 25 7 26 94 28 2 32 3 33 4 34 1 35
REMARK SMILES IDX 89 38 90 39 93 40 91 41 92 43 18 46 19 49 20 52 21 55 22 56
REMARK SMILES IDX 23 58 24 59 25 60 86 61 26 62 85 64 27 66 28 69 29 70 79 71
REMARK SMILES IDX 30 72 84 73 78 74 80 75 31 76 83 77 77 79 76 81 32 83 64 86
REMARK SMILES IDX 44 87 63 88 45 89 48 90 62 91 81 92 46 93 47 95 61 97 82 98
REMARK SMILES IDX 49 101 33 103 34 104 42 105 35 106 36 107 40 108 43 109
REMARK SMILES IDX 37 110 38 111 41 112 39 113 65 114 66 115 74 116 67 117
REMARK SMILES IDX 68 118 72 119 75 120 69 121 70 122 73 123 71 124 50 125
REMARK SMILES IDX 51 126 59 127 52 128 53 129 57 130 60 131 54 132 55 133
REMARK SMILES IDX 58 134 56 135
REMARK H PARENT 17 2 17 3 16 5 16 6 15 8 15 9 14 13 88 19 87 20 87 21 6 27
REMARK H PARENT 95 29 7 30 94 31 1 36 1 37 90 42 91 44 92 45 18 47 18 48 19 50
REMARK H PARENT 19 51 20 53 20 54 21 57 25 63 86 65 26 67 85 68 84 78 78 80
REMARK H PARENT 80 82 83 84 77 85 45 94 48 96 81 99 46 100 82 102
REMARK Flexibility Score: inf
ROOT
ATOM      1  C   UNL A   1      29.900  28.596  23.435  1.00  0.00    -0.052 C 
ATOM      2  H   UNL A   1      29.036  28.512  24.063  1.00  0.00     0.027 H 
ATOM      3  H   UNL A   1      29.718  29.153  22.539  1.00  0.00     0.027 H 
ENDROOT
BRANCH   1   4
ATOM      4  C   UNL A   1      30.305  27.189  22.993  1.00  0.00    -0.036 C 
ATOM      5  H   UNL A   1      30.317  27.162  21.923  1.00  0.00     0.028 H 
ATOM      6  H   UNL A   1      31.266  26.994  23.420  1.00  0.00     0.028 H 
BRANCH   4   7
ATOM      7  C   UNL A   1      29.369  26.093  23.490  1.00  0.00     0.018 C 
ATOM      8  H   UNL A   1      28.356  26.391  23.313  1.00  0.00     0.049 H 
ATOM      9  H   UNL A   1      29.592  25.190  22.962  1.00  0.00     0.049 H 
BRANCH   7  10
ATOM     10  N   UNL A   1      29.551  25.856  24.906  1.00  0.00    -0.351 N 
ATOM     11  C   UNL A   1      30.313  24.981  25.639  1.00  0.00     0.267 C 
ATOM     12  O   UNL A   1      30.154  24.975  26.857  1.00  0.00    -0.268 OA
ATOM     13  H   UNL A   1      29.008  26.454  25.468  1.00  0.00     0.163 HD
BRANCH  11  14
ATOM     14  C   UNL A   1      31.367  24.067  25.035  1.00  0.00     0.128 C 
ATOM     15  N   UNL A   1      32.493  22.289  24.725  1.00  0.00    -0.254 N 
ATOM     16  N   UNL A   1      31.330  22.782  25.223  1.00  0.00    -0.171 NA
ATOM     17  C   UNL A   1      33.296  23.266  23.990  1.00  0.00     0.116 C 
ATOM     18  C   UNL A   1      32.521  24.560  24.228  1.00  0.00     0.027 C 
ATOM     19  H   UNL A   1      33.399  22.967  22.967  1.00  0.00     0.064 H 
ATOM     20  H   UNL A   1      33.104  25.272  24.774  1.00  0.00     0.036 H 
ATOM     21  H   UNL A   1      32.239  25.073  23.332  1.00  0.00     0.036 H 
BRANCH  15  22
ATOM     22  C   UNL A   1      32.694  20.921  24.616  1.00  0.00     0.060 A 
ATOM     23  C   UNL A   1      33.233  18.178  24.402  1.00  0.00     0.082 A 
ATOM     24  C   UNL A   1      32.605  18.846  23.347  1.00  0.00    -0.040 A 
ATOM     25  C   UNL A   1      33.547  18.851  25.581  1.00  0.00    -0.040 A 
ATOM     26  C   UNL A   1      32.332  20.213  23.463  1.00  0.00    -0.035 A 
ATOM     27  H   UNL A   1      32.342  18.334  22.490  1.00  0.00     0.064 H 
ATOM     28  C   UNL A   1      33.270  20.213  25.679  1.00  0.00    -0.035 A 
ATOM     29  H   UNL A   1      33.979  18.348  26.371  1.00  0.00     0.064 H 
ATOM     30  H   UNL A   1      31.860  20.706  22.689  1.00  0.00     0.065 H 
ATOM     31  H   UNL A   1      33.494  20.711  26.555  1.00  0.00     0.065 H 
BRANCH  23  32
ATOM     32  S   UNL A   1      33.592  16.456  24.265  1.00  0.00     0.238 S 
ATOM     33  O   UNL A   1      34.065  16.167  22.933  1.00  0.00    -0.207 OA
ATOM     34  O   UNL A   1      32.544  15.693  24.903  1.00  0.00    -0.207 OA
BRANCH  32  35
ATOM     35  N   UNL A   1      34.929  16.309  25.274  1.00  0.00    -0.225 NA
ATOM     36  H   UNL A   1      35.236  15.336  25.292  1.00  0.00     0.137 HD
ATOM     37  H   UNL A   1      34.678  16.604  26.217  1.00  0.00     0.137 HD
ENDBRANCH  32  35
ENDBRANCH  23  32
ENDBRANCH  15  22
BRANCH  17  38
ATOM     38  C   UNL A   1      34.751  23.389  24.344  1.00  0.00     0.128 A 
ATOM     39  C   UNL A   1      35.905  22.950  23.721  1.00  0.00    -0.018 A 
ATOM     40  O   UNL A   1      35.082  24.048  25.496  1.00  0.00    -0.467 OA
ATOM     41  C   UNL A   1      36.985  23.330  24.553  1.00  0.00    -0.023 A 
ATOM     42  H   UNL A   1      35.967  22.444  22.824  1.00  0.00     0.066 H 
ATOM     43  C   UNL A   1      36.432  24.011  25.611  1.00  0.00     0.091 A 
ATOM     44  H   UNL A   1      37.986  23.134  24.397  1.00  0.00     0.066 H 
ATOM     45  H   UNL A   1      36.969  24.436  26.383  1.00  0.00     0.104 H 
ENDBRANCH  17  38
ENDBRANCH  11  14
ENDBRANCH   7  10
ENDBRANCH   4   7
ENDBRANCH   1   4
BRANCH   1  46
ATOM     46  C   UNL A   1      30.978  29.364  24.209  1.00  0.00    -0.052 C 
ATOM     47  H   UNL A   1      30.498  29.907  24.995  1.00  0.00     0.027 H 
ATOM     48  H   UNL A   1      31.467  29.993  23.494  1.00  0.00     0.027 H 
BRANCH  46  49
ATOM     49  C   UNL A   1      32.073  28.494  24.832  1.00  0.00    -0.036 C 
ATOM     50  H   UNL A   1      32.498  27.887  24.060  1.00  0.00     0.028 H 
ATOM     51  H   UNL A   1      31.605  27.922  25.604  1.00  0.00     0.028 H 
BRANCH  49  52
ATOM     52  C   UNL A   1      33.199  29.279  25.494  1.00  0.00     0.018 C 
ATOM     53  H   UNL A   1      34.010  29.373  24.801  1.00  0.00     0.049 H 
ATOM     54  H   UNL A   1      33.502  28.747  26.372  1.00  0.00     0.049 H 
BRANCH  52  55
ATOM     55  N   UNL A   1      32.770  30.607  25.897  1.00  0.00    -0.352 N 
ATOM     56  C   UNL A   1      33.237  31.400  26.913  1.00  0.00     0.251 C 
ATOM     57  H   UNL A   1      32.037  30.994  25.364  1.00  0.00     0.163 HD
ATOM     58  O   UNL A   1      32.616  32.403  27.251  1.00  0.00    -0.269 OA
BRANCH  56  59
ATOM     59  C   UNL A   1      34.486  31.036  27.613  1.00  0.00     0.039 A 
ATOM     60  C   UNL A   1      35.469  32.011  27.790  1.00  0.00    -0.049 A 
ATOM     61  C   UNL A   1      34.690  29.735  28.082  1.00  0.00    -0.049 A 
ATOM     62  C   UNL A   1      36.636  31.694  28.487  1.00  0.00    -0.053 A 
ATOM     63  H   UNL A   1      35.334  32.960  27.409  1.00  0.00     0.063 H 
ATOM     64  C   UNL A   1      35.815  29.444  28.846  1.00  0.00    -0.053 A 
ATOM     65  H   UNL A   1      34.008  28.992  27.862  1.00  0.00     0.063 H 
ATOM     66  C   UNL A   1      36.804  30.417  29.049  1.00  0.00    -0.014 A 
ATOM     67  H   UNL A   1      37.381  32.402  28.589  1.00  0.00     0.063 H 
ATOM     68  H   UNL A   1      35.923  28.507  29.266  1.00  0.00     0.063 H 
BRANCH  66  69
ATOM     69  C   UNL A   1      38.010  30.084  29.850  1.00  0.00     0.031 A 
ATOM     70  C   UNL A   1      39.045  29.142  29.302  1.00  0.00     0.074 A 
ATOM     71  C   UNL A   1      38.144  30.589  31.091  1.00  0.00     0.049 A 
ATOM     72  N   UNL A   1      40.134  28.687  29.869  1.00  0.00    -0.248 NA
ATOM     73  C   UNL A   1      38.814  28.620  27.945  1.00  0.00    -0.034 C 
ATOM     74  C   UNL A   1      37.186  31.478  31.750  1.00  0.00    -0.036 A 
ATOM     75  N   UNL A   1      39.135  30.419  32.026  1.00  0.00    -0.354 N 
ATOM     76  C   UNL A   1      40.708  27.822  28.946  1.00  0.00     0.074 A 
ATOM     77  C   UNL A   1      39.816  27.767  27.808  1.00  0.00    -0.034 C 
ATOM     78  H   UNL A   1      38.065  28.858  27.277  1.00  0.00     0.065 H 
ATOM     79  C   UNL A   1      37.649  31.799  32.969  1.00  0.00    -0.036 A 
ATOM     80  H   UNL A   1      36.297  31.808  31.342  1.00  0.00     0.065 H 
ATOM     81  C   UNL A   1      38.911  31.101  33.197  1.00  0.00     0.049 A 
ATOM     82  H   UNL A   1      39.931  29.861  31.871  1.00  0.00     0.167 HD
ATOM     83  C   UNL A   1      41.883  27.154  29.030  1.00  0.00     0.037 A 
ATOM     84  H   UNL A   1      39.946  27.144  26.995  1.00  0.00     0.065 H 
ATOM     85  H   UNL A   1      37.187  32.434  33.637  1.00  0.00     0.065 H 
ATOM     86  C   UNL A   1      39.635  31.149  34.331  1.00  0.00     0.037 A 
ATOM     87  C   UNL A   1      42.773  27.226  30.160  1.00  0.00     0.049 A 
ATOM     88  C   UNL A   1      40.926  30.377  34.409  1.00  0.00     0.074 A 
ATOM     89  C   UNL A   1      44.010  26.630  30.322  1.00  0.00    -0.036 A 
ATOM     90  N   UNL A   1      42.513  27.930  31.327  1.00  0.00    -0.354 N 
ATOM     91  N   UNL A   1      41.493  29.618  33.502  1.00  0.00    -0.248 NA
ATOM     92  C   UNL A   1      41.679  30.473  35.666  1.00  0.00    -0.034 C 
ATOM     93  C   UNL A   1      44.472  26.922  31.610  1.00  0.00    -0.036 A 
ATOM     94  H   UNL A   1      44.510  26.068  29.614  1.00  0.00     0.065 H 
ATOM     95  C   UNL A   1      43.555  27.759  32.226  1.00  0.00     0.049 A 
ATOM     96  H   UNL A   1      41.708  28.472  31.493  1.00  0.00     0.167 HD
ATOM     97  C   UNL A   1      42.683  29.176  34.065  1.00  0.00     0.074 A 
ATOM     98  C   UNL A   1      42.762  29.764  35.385  1.00  0.00    -0.034 C 
ATOM     99  H   UNL A   1      41.430  30.965  36.538  1.00  0.00     0.065 H 
ATOM    100  H   UNL A   1      45.347  26.574  32.030  1.00  0.00     0.065 H 
ATOM    101  C   UNL A   1      43.625  28.356  33.535  1.00  0.00     0.037 A 
ATOM    102  H   UNL A   1      43.562  29.645  36.027  1.00  0.00     0.065 H 
BRANCH  83 103
ATOM    103  C   UNL A   1      42.275  26.284  27.869  1.00  0.00     0.064 A 
ATOM    104  C   UNL A   1      41.772  24.983  27.716  1.00  0.00     0.173 A 
ATOM    105  C   UNL A   1      43.137  26.772  26.875  1.00  0.00     0.173 A 
ATOM    106  F   UNL A   1      40.952  24.462  28.642  1.00  0.00    -0.203 F 
ATOM    107  C   UNL A   1      42.143  24.192  26.631  1.00  0.00     0.198 A 
ATOM    108  C   UNL A   1      43.476  25.992  25.771  1.00  0.00     0.198 A 
ATOM    109  F   UNL A   1      43.643  28.012  26.965  1.00  0.00    -0.203 F 
ATOM    110  F   UNL A   1      41.692  22.933  26.537  1.00  0.00    -0.200 F 
ATOM    111  C   UNL A   1      42.986  24.700  25.656  1.00  0.00     0.200 A 
ATOM    112  F   UNL A   1      44.279  26.491  24.822  1.00  0.00    -0.200 F 
ATOM    113  F   UNL A   1      43.335  23.942  24.607  1.00  0.00    -0.200 F 
ENDBRANCH  83 103
BRANCH  86 114
ATOM    114  C   UNL A   1      39.168  31.970  35.480  1.00  0.00     0.064 A 
ATOM    115  C   UNL A   1      39.528  33.320  35.597  1.00  0.00     0.173 A 
ATOM    116  C   UNL A   1      38.363  31.421  36.489  1.00  0.00     0.173 A 
ATOM    117  F   UNL A   1      40.312  33.887  34.668  1.00  0.00    -0.203 F 
ATOM    118  C   UNL A   1      39.125  34.081  36.692  1.00  0.00     0.198 A 
ATOM    119  C   UNL A   1      37.932  32.192  37.566  1.00  0.00     0.198 A 
ATOM    120  F   UNL A   1      37.983  30.137  36.423  1.00  0.00    -0.203 F 
ATOM    121  F   UNL A   1      39.531  35.353  36.807  1.00  0.00    -0.200 F 
ATOM    122  C   UNL A   1      38.322  33.519  37.673  1.00  0.00     0.200 A 
ATOM    123  F   UNL A   1      37.141  31.649  38.502  1.00  0.00    -0.200 F 
ATOM    124  F   UNL A   1      37.932  34.251  38.725  1.00  0.00    -0.200 F 
ENDBRANCH  86 114
BRANCH 101 125
ATOM    125  C   UNL A   1      44.847  28.081  34.365  1.00  0.00     0.064 A 
ATOM    126  C   UNL A   1      44.927  26.976  35.225  1.00  0.00     0.173 A 
ATOM    127  C   UNL A   1      45.971  28.916  34.266  1.00  0.00     0.173 A 
ATOM    128  F   UNL A   1      43.875  26.154  35.367  1.00  0.00    -0.203 F 
ATOM    129  C   UNL A   1      46.073  26.736  35.978  1.00  0.00     0.198 A 
ATOM    130  C   UNL A   1      47.129  28.651  34.992  1.00  0.00     0.198 A 
ATOM    131  F   UNL A   1      45.954  29.982  33.452  1.00  0.00    -0.203 F 
ATOM    132  F   UNL A   1      46.104  25.706  36.835  1.00  0.00    -0.200 F 
ATOM    133  C   UNL A   1      47.176  27.568  35.854  1.00  0.00     0.200 A 
ATOM    134  F   UNL A   1      48.200  29.446  34.856  1.00  0.00    -0.200 F 
ATOM    135  F   UNL A   1      48.281  27.327  36.572  1.00  0.00    -0.200 F 
ENDBRANCH 101 125
ENDBRANCH  66  69
ENDBRANCH  56  59
ENDBRANCH  52  55
ENDBRANCH  49  52
ENDBRANCH  46  49
ENDBRANCH   1  46
TORSDOF 17
ENDMDL
MODEL 9
REMARK VINA RESULT:     -12.4      4.038      8.562
REMARK SMILES NS(=O)(=O)c1ccc(N2N=C(C(=O)NCCCCCCNC(=O)c3ccc(-c4c5nc(c(-c6c(F)c(F)c(F)c(F)c6F)c6ccc([nH]6)c(-c6c(F)c(F)c(F)c(F)c6F)c6nc(c(-c7c(F)c(F)c(F)c(F)c7F)c7ccc4[nH]7)C=C6)C=C5)cc3)C[C@H]2c2ccco2)cc1
REMARK SMILES IDX 17 1 16 4 15 7 14 10 12 11 13 12 11 14 9 15 10 16 88 17
REMARK SMILES IDX 87 18 8 22 5 23 6 24 95 25 7 26 94 28 2 32 3 33 4 34 1 35
REMARK SMILES IDX 89 38 90 39 93 40 91 41 92 43 18 46 19 49 20 52 21 55 22 56
REMARK SMILES IDX 23 58 24 59 25 60 86 61 26 62 85 64 27 66 28 69 29 70 79 71
REMARK SMILES IDX 30 72 84 73 78 74 80 75 31 76 83 77 77 79 76 81 32 83 64 86
REMARK SMILES IDX 44 87 63 88 45 89 48 90 62 91 81 92 46 93 47 95 61 97 82 98
REMARK SMILES IDX 49 101 33 103 34 104 42 105 35 106 36 107 40 108 43 109
REMARK SMILES IDX 37 110 38 111 41 112 39 113 65 114 66 115 74 116 67 117
REMARK SMILES IDX 68 118 72 119 75 120 69 121 70 122 73 123 71 124 50 125
REMARK SMILES IDX 51 126 59 127 52 128 53 129 57 130 60 131 54 132 55 133
REMARK SMILES IDX 58 134 56 135
REMARK H PARENT 17 2 17 3 16 5 16 6 15 8 15 9 14 13 88 19 87 20 87 21 6 27
REMARK H PARENT 95 29 7 30 94 31 1 36 1 37 90 42 91 44 92 45 18 47 18 48 19 50
REMARK H PARENT 19 51 20 53 20 54 21 57 25 63 86 65 26 67 85 68 84 78 78 80
REMARK H PARENT 80 82 83 84 77 85 45 94 48 96 81 99 46 100 82 102
REMARK Flexibility Score: inf
ROOT
ATOM      1  C   UNL A   1      30.865  28.778  24.415  1.00  0.00    -0.052 C 
ATOM      2  H   UNL A   1      29.891  28.580  24.814  1.00  0.00     0.027 H 
ATOM      3  H   UNL A   1      30.892  29.632  23.772  1.00  0.00     0.027 H 
ENDROOT
BRANCH   1   4
ATOM      4  C   UNL A   1      31.280  27.580  23.560  1.00  0.00    -0.036 C 
ATOM      5  H   UNL A   1      31.383  27.909  22.546  1.00  0.00     0.028 H 
ATOM      6  H   UNL A   1      32.198  27.210  23.968  1.00  0.00     0.028 H 
BRANCH   4   7
ATOM      7  C   UNL A   1      30.286  26.425  23.591  1.00  0.00     0.018 C 
ATOM      8  H   UNL A   1      29.337  26.771  23.234  1.00  0.00     0.049 H 
ATOM      9  H   UNL A   1      30.657  25.639  22.968  1.00  0.00     0.049 H 
BRANCH   7  10
ATOM     10  N   UNL A   1      30.125  25.911  24.935  1.00  0.00    -0.351 N 
ATOM     11  C   UNL A   1      30.686  24.874  25.635  1.00  0.00     0.267 C 
ATOM     12  O   UNL A   1      30.243  24.642  26.757  1.00  0.00    -0.268 OA
ATOM     13  H   UNL A   1      29.468  26.419  25.464  1.00  0.00     0.163 HD
BRANCH  11  14
ATOM     14  C   UNL A   1      31.847  24.037  25.122  1.00  0.00     0.128 C 
ATOM     15  N   UNL A   1      33.059  22.313  24.828  1.00  0.00    -0.254 N 
ATOM     16  N   UNL A   1      31.819  22.739  25.182  1.00  0.00    -0.171 NA
ATOM     17  C   UNL A   1      33.937  23.368  24.320  1.00  0.00     0.116 C 
ATOM     18  C   UNL A   1      33.096  24.622  24.553  1.00  0.00     0.027 C 
ATOM     19  H   UNL A   1      34.205  23.170  23.303  1.00  0.00     0.064 H 
ATOM     20  H   UNL A   1      33.567  25.286  25.246  1.00  0.00     0.036 H 
ATOM     21  H   UNL A   1      32.941  25.214  23.674  1.00  0.00     0.036 H 
BRANCH  15  22
ATOM     22  C   UNL A   1      33.315  20.965  24.627  1.00  0.00     0.060 A 
ATOM     23  C   UNL A   1      33.752  18.213  24.325  1.00  0.00     0.082 A 
ATOM     24  C   UNL A   1      34.825  19.057  24.626  1.00  0.00    -0.040 A 
ATOM     25  C   UNL A   1      32.475  18.733  24.122  1.00  0.00    -0.040 A 
ATOM     26  C   UNL A   1      34.601  20.430  24.768  1.00  0.00    -0.035 A 
ATOM     27  H   UNL A   1      35.775  18.669  24.741  1.00  0.00     0.064 H 
ATOM     28  C   UNL A   1      32.270  20.102  24.269  1.00  0.00    -0.035 A 
ATOM     29  H   UNL A   1      31.693  18.111  23.866  1.00  0.00     0.064 H 
ATOM     30  H   UNL A   1      35.393  21.056  24.981  1.00  0.00     0.065 H 
ATOM     31  H   UNL A   1      31.327  20.490  24.109  1.00  0.00     0.065 H 
BRANCH  23  32
ATOM     32  S   UNL A   1      34.019  16.477  24.154  1.00  0.00     0.238 S 
ATOM     33  O   UNL A   1      34.967  16.034  25.148  1.00  0.00    -0.207 OA
ATOM     34  O   UNL A   1      34.146  16.144  22.753  1.00  0.00    -0.207 OA
BRANCH  32  35
ATOM     35  N   UNL A   1      32.528  15.858  24.627  1.00  0.00    -0.225 NA
ATOM     36  H   UNL A   1      31.979  15.624  23.800  1.00  0.00     0.137 HD
ATOM     37  H   UNL A   1      32.031  16.556  25.179  1.00  0.00     0.137 HD
ENDBRANCH  32  35
ENDBRANCH  23  32
ENDBRANCH  15  22
BRANCH  17  38
ATOM     38  C   UNL A   1      35.315  23.478  24.907  1.00  0.00     0.128 A 
ATOM     39  C   UNL A   1      35.768  23.710  26.193  1.00  0.00    -0.018 A 
ATOM     40  O   UNL A   1      36.387  23.332  24.071  1.00  0.00    -0.467 OA
ATOM     41  C   UNL A   1      37.181  23.743  26.127  1.00  0.00    -0.023 A 
ATOM     42  H   UNL A   1      35.188  23.835  27.038  1.00  0.00     0.066 H 
ATOM     43  C   UNL A   1      37.508  23.490  24.817  1.00  0.00     0.091 A 
ATOM     44  H   UNL A   1      37.834  23.923  26.906  1.00  0.00     0.066 H 
ATOM     45  H   UNL A   1      38.472  23.427  24.453  1.00  0.00     0.104 H 
ENDBRANCH  17  38
ENDBRANCH  11  14
ENDBRANCH   7  10
ENDBRANCH   4   7
ENDBRANCH   1   4
BRANCH   1  46
ATOM     46  C   UNL A   1      31.804  29.090  25.586  1.00  0.00    -0.052 C 
ATOM     47  H   UNL A   1      31.206  29.240  26.461  1.00  0.00     0.027 H 
ATOM     48  H   UNL A   1      32.361  29.958  25.298  1.00  0.00     0.027 H 
BRANCH  46  49
ATOM     49  C   UNL A   1      32.837  28.004  25.898  1.00  0.00    -0.036 C 
ATOM     50  H   UNL A   1      33.378  27.789  25.000  1.00  0.00     0.028 H 
ATOM     51  H   UNL A   1      32.291  27.161  26.268  1.00  0.00     0.028 H 
BRANCH  49  52
ATOM     52  C   UNL A   1      33.840  28.382  26.981  1.00  0.00     0.018 C 
ATOM     53  H   UNL A   1      34.829  28.185  26.620  1.00  0.00     0.049 H 
ATOM     54  H   UNL A   1      33.623  27.797  27.851  1.00  0.00     0.049 H 
BRANCH  52  55
ATOM     55  N   UNL A   1      33.743  29.785  27.344  1.00  0.00    -0.352 N 
ATOM     56  C   UNL A   1      34.623  30.562  28.051  1.00  0.00     0.251 C 
ATOM     57  H   UNL A   1      32.927  30.244  27.038  1.00  0.00     0.163 HD
ATOM     58  O   UNL A   1      34.283  31.670  28.455  1.00  0.00    -0.269 OA
BRANCH  56  59
ATOM     59  C   UNL A   1      35.979  30.054  28.343  1.00  0.00     0.039 A 
ATOM     60  C   UNL A   1      36.959  30.140  27.352  1.00  0.00    -0.049 A 
ATOM     61  C   UNL A   1      36.280  29.487  29.585  1.00  0.00    -0.049 A 
ATOM     62  C   UNL A   1      38.256  29.704  27.626  1.00  0.00    -0.053 A 
ATOM     63  H   UNL A   1      36.725  30.523  26.423  1.00  0.00     0.063 H 
ATOM     64  C   UNL A   1      37.590  29.131  29.883  1.00  0.00    -0.053 A 
ATOM     65  H   UNL A   1      35.532  29.333  30.279  1.00  0.00     0.063 H 
ATOM     66  C   UNL A   1      38.590  29.227  28.904  1.00  0.00    -0.014 A 
ATOM     67  H   UNL A   1      38.973  29.732  26.884  1.00  0.00     0.063 H 
ATOM     68  H   UNL A   1      37.829  28.793  30.829  1.00  0.00     0.063 H 
BRANCH  66  69
ATOM     69  C   UNL A   1      39.981  28.821  29.232  1.00  0.00     0.031 A 
ATOM     70  C   UNL A   1      40.872  29.741  30.020  1.00  0.00     0.074 A 
ATOM     71  C   UNL A   1      40.457  27.648  28.774  1.00  0.00     0.049 A 
ATOM     72  N   UNL A   1      42.128  29.591  30.356  1.00  0.00    -0.248 NA
ATOM     73  C   UNL A   1      40.280  31.013  30.466  1.00  0.00    -0.034 C 
ATOM     74  C   UNL A   1      39.704  26.689  27.963  1.00  0.00    -0.036 A 
ATOM     75  N   UNL A   1      41.691  27.064  28.916  1.00  0.00    -0.354 N 
ATOM     76  C   UNL A   1      42.477  30.747  31.042  1.00  0.00     0.074 A 
ATOM     77  C   UNL A   1      41.321  31.617  31.019  1.00  0.00    -0.034 C 
ATOM     78  H   UNL A   1      39.309  31.346  30.372  1.00  0.00     0.065 H 
ATOM     79  C   UNL A   1      40.481  25.626  27.704  1.00  0.00    -0.036 A 
ATOM     80  H   UNL A   1      38.731  26.811  27.643  1.00  0.00     0.065 H 
ATOM     81  C   UNL A   1      41.801  25.847  28.288  1.00  0.00     0.049 A 
ATOM     82  H   UNL A   1      42.428  27.478  29.420  1.00  0.00     0.167 HD
ATOM     83  C   UNL A   1      43.647  31.046  31.654  1.00  0.00     0.037 A 
ATOM     84  H   UNL A   1      41.308  32.581  31.387  1.00  0.00     0.065 H 
ATOM     85  H   UNL A   1      40.193  24.788  27.176  1.00  0.00     0.065 H 
ATOM     86  C   UNL A   1      42.850  25.009  28.186  1.00  0.00     0.037 A 
ATOM     87  C   UNL A   1      44.789  30.169  31.685  1.00  0.00     0.049 A 
ATOM     88  C   UNL A   1      44.148  25.377  28.855  1.00  0.00     0.074 A 
ATOM     89  C   UNL A   1      46.002  30.355  32.324  1.00  0.00    -0.036 A 
ATOM     90  N   UNL A   1      44.861  28.943  31.041  1.00  0.00    -0.354 N 
ATOM     91  N   UNL A   1      44.444  26.442  29.561  1.00  0.00    -0.248 NA
ATOM     92  C   UNL A   1      45.256  24.422  28.718  1.00  0.00    -0.034 C 
ATOM     93  C   UNL A   1      46.830  29.272  32.014  1.00  0.00    -0.036 A 
ATOM     94  H   UNL A   1      46.253  31.156  32.926  1.00  0.00     0.065 H 
ATOM     95  C   UNL A   1      46.110  28.375  31.242  1.00  0.00     0.049 A 
ATOM     96  H   UNL A   1      44.133  28.535  30.518  1.00  0.00     0.167 HD
ATOM     97  C   UNL A   1      45.756  26.269  29.980  1.00  0.00     0.074 A 
ATOM     98  C   UNL A   1      46.194  24.990  29.462  1.00  0.00    -0.034 C 
ATOM     99  H   UNL A   1      45.293  23.540  28.185  1.00  0.00     0.065 H 
ATOM    100  H   UNL A   1      47.812  29.159  32.311  1.00  0.00     0.065 H 
ATOM    101  C   UNL A   1      46.530  27.096  30.727  1.00  0.00     0.037 A 
ATOM    102  H   UNL A   1      47.120  24.574  29.648  1.00  0.00     0.065 H 
BRANCH  83 103
ATOM    103  C   UNL A   1      43.754  32.379  32.341  1.00  0.00     0.064 A 
ATOM    104  C   UNL A   1      43.403  32.547  33.690  1.00  0.00     0.173 A 
ATOM    105  C   UNL A   1      44.251  33.495  31.652  1.00  0.00     0.173 A 
ATOM    106  F   UNL A   1      42.912  31.515  34.394  1.00  0.00    -0.203 F 
ATOM    107  C   UNL A   1      43.512  33.788  34.311  1.00  0.00     0.198 A 
ATOM    108  C   UNL A   1      44.395  34.727  32.287  1.00  0.00     0.198 A 
ATOM    109  F   UNL A   1      44.609  33.392  30.362  1.00  0.00    -0.203 F 
ATOM    110  F   UNL A   1      43.117  33.935  35.584  1.00  0.00    -0.200 F 
ATOM    111  C   UNL A   1      44.016  34.874  33.613  1.00  0.00     0.200 A 
ATOM    112  F   UNL A   1      44.897  35.772  31.614  1.00  0.00    -0.200 F 
ATOM    113  F   UNL A   1      44.131  36.066  34.215  1.00  0.00    -0.200 F 
ENDBRANCH  83 103
BRANCH  86 114
ATOM    114  C   UNL A   1      42.714  23.733  27.434  1.00  0.00     0.064 A 
ATOM    115  C   UNL A   1      42.213  22.579  28.055  1.00  0.00     0.173 A 
ATOM    116  C   UNL A   1      43.093  23.635  26.088  1.00  0.00     0.173 A 
ATOM    117  F   UNL A   1      41.855  22.615  29.347  1.00  0.00    -0.203 F 
ATOM    118  C   UNL A   1      42.122  21.372  27.365  1.00  0.00     0.198 A 
ATOM    119  C   UNL A   1      42.970  22.436  25.389  1.00  0.00     0.198 A 
ATOM    120  F   UNL A   1      43.572  24.710  25.444  1.00  0.00    -0.203 F 
ATOM    121  F   UNL A   1      41.692  20.272  27.998  1.00  0.00    -0.200 F 
ATOM    122  C   UNL A   1      42.495  21.303  26.031  1.00  0.00     0.200 A 
ATOM    123  F   UNL A   1      43.314  22.379  24.095  1.00  0.00    -0.200 F 
ATOM    124  F   UNL A   1      42.404  20.142  25.367  1.00  0.00    -0.200 F 
ENDBRANCH  86 114
BRANCH 101 125
ATOM    125  C   UNL A   1      47.915  26.625  31.068  1.00  0.00     0.064 A 
ATOM    126  C   UNL A   1      48.176  25.855  32.212  1.00  0.00     0.173 A 
ATOM    127  C   UNL A   1      48.991  26.916  30.215  1.00  0.00     0.173 A 
ATOM    128  F   UNL A   1      47.186  25.560  33.067  1.00  0.00    -0.203 F 
ATOM    129  C   UNL A   1      49.467  25.421  32.503  1.00  0.00     0.198 A 
ATOM    130  C   UNL A   1      50.273  26.449  30.491  1.00  0.00     0.198 A 
ATOM    131  F   UNL A   1      48.797  27.641  29.103  1.00  0.00    -0.203 F 
ATOM    132  F   UNL A   1      49.701  24.735  33.630  1.00  0.00    -0.200 F 
ATOM    133  C   UNL A   1      50.512  25.711  31.638  1.00  0.00     0.200 A 
ATOM    134  F   UNL A   1      51.278  26.714  29.643  1.00  0.00    -0.200 F 
ATOM    135  F   UNL A   1      51.750  25.283  31.916  1.00  0.00    -0.200 F 
ENDBRANCH 101 125
ENDBRANCH  66  69
ENDBRANCH  56  59
ENDBRANCH  52  55
ENDBRANCH  49  52
ENDBRANCH  46  49
ENDBRANCH   1  46
TORSDOF 17
ENDMDL
MODEL 10
REMARK VINA RESULT:     -12.3      1.076      1.722
REMARK SMILES NS(=O)(=O)c1ccc(N2N=C(C(=O)NCCCCCCNC(=O)c3ccc(-c4c5nc(c(-c6c(F)c(F)c(F)c(F)c6F)c6ccc([nH]6)c(-c6c(F)c(F)c(F)c(F)c6F)c6nc(c(-c7c(F)c(F)c(F)c(F)c7F)c7ccc4[nH]7)C=C6)C=C5)cc3)C[C@H]2c2ccco2)cc1
REMARK SMILES IDX 17 1 16 4 15 7 14 10 12 11 13 12 11 14 9 15 10 16 88 17
REMARK SMILES IDX 87 18 8 22 5 23 6 24 95 25 7 26 94 28 2 32 3 33 4 34 1 35
REMARK SMILES IDX 89 38 90 39 93 40 91 41 92 43 18 46 19 49 20 52 21 55 22 56
REMARK SMILES IDX 23 58 24 59 25 60 86 61 26 62 85 64 27 66 28 69 29 70 79 71
REMARK SMILES IDX 30 72 84 73 78 74 80 75 31 76 83 77 77 79 76 81 32 83 64 86
REMARK SMILES IDX 44 87 63 88 45 89 48 90 62 91 81 92 46 93 47 95 61 97 82 98
REMARK SMILES IDX 49 101 33 103 34 104 42 105 35 106 36 107 40 108 43 109
REMARK SMILES IDX 37 110 38 111 41 112 39 113 65 114 66 115 74 116 67 117
REMARK SMILES IDX 68 118 72 119 75 120 69 121 70 122 73 123 71 124 50 125
REMARK SMILES IDX 51 126 59 127 52 128 53 129 57 130 60 131 54 132 55 133
REMARK SMILES IDX 58 134 56 135
REMARK H PARENT 17 2 17 3 16 5 16 6 15 8 15 9 14 13 88 19 87 20 87 21 6 27
REMARK H PARENT 95 29 7 30 94 31 1 36 1 37 90 42 91 44 92 45 18 47 18 48 19 50
REMARK H PARENT 19 51 20 53 20 54 21 57 25 63 86 65 26 67 85 68 84 78 78 80
REMARK H PARENT 80 82 83 84 77 85 45 94 48 96 81 99 46 100 82 102
REMARK Flexibility Score: inf
ROOT
ATOM      1  C   UNL A   1      36.803  21.539  24.235  1.00  0.00    -0.052 C 
ATOM      2  H   UNL A   1      37.832  21.833  24.225  1.00  0.00     0.027 H 
ATOM      3  H   UNL A   1      36.393  21.404  23.256  1.00  0.00     0.027 H 
ENDROOT
BRANCH   1   4
ATOM      4  C   UNL A   1      35.994  22.659  24.890  1.00  0.00    -0.036 C 
ATOM      5  H   UNL A   1      35.227  22.215  25.490  1.00  0.00     0.028 H 
ATOM      6  H   UNL A   1      36.681  23.243  25.465  1.00  0.00     0.028 H 
BRANCH   4   7
ATOM      7  C   UNL A   1      35.335  23.607  23.894  1.00  0.00     0.018 C 
ATOM      8  H   UNL A   1      34.962  24.462  24.419  1.00  0.00     0.049 H 
ATOM      9  H   UNL A   1      36.065  23.900  23.169  1.00  0.00     0.049 H 
BRANCH   7  10
ATOM     10  N   UNL A   1      34.238  22.959  23.206  1.00  0.00    -0.351 N 
ATOM     11  C   UNL A   1      32.886  23.181  23.140  1.00  0.00     0.267 C 
ATOM     12  O   UNL A   1      32.206  22.363  22.527  1.00  0.00    -0.268 OA
ATOM     13  H   UNL A   1      34.526  22.188  22.666  1.00  0.00     0.163 HD
BRANCH  11  14
ATOM     14  C   UNL A   1      32.199  24.401  23.736  1.00  0.00     0.128 C 
ATOM     15  N   UNL A   1      31.300  26.328  23.791  1.00  0.00    -0.254 N 
ATOM     16  N   UNL A   1      31.645  25.298  22.977  1.00  0.00    -0.171 NA
ATOM     17  C   UNL A   1      31.461  26.047  25.219  1.00  0.00     0.116 C 
ATOM     18  C   UNL A   1      32.137  24.678  25.200  1.00  0.00     0.027 C 
ATOM     19  H   UNL A   1      30.513  26.092  25.714  1.00  0.00     0.064 H 
ATOM     20  H   UNL A   1      33.114  24.718  25.632  1.00  0.00     0.036 H 
ATOM     21  H   UNL A   1      31.622  23.928  25.765  1.00  0.00     0.036 H 
BRANCH  15  22
ATOM     22  C   UNL A   1      30.531  27.380  23.317  1.00  0.00     0.060 A 
ATOM     23  C   UNL A   1      29.042  29.588  22.441  1.00  0.00     0.082 A 
ATOM     24  C   UNL A   1      28.400  28.534  23.097  1.00  0.00    -0.040 A 
ATOM     25  C   UNL A   1      30.408  29.529  22.172  1.00  0.00    -0.040 A 
ATOM     26  C   UNL A   1      29.147  27.432  23.525  1.00  0.00    -0.035 A 
ATOM     27  H   UNL A   1      27.381  28.568  23.262  1.00  0.00     0.064 H 
ATOM     28  C   UNL A   1      31.138  28.424  22.607  1.00  0.00    -0.035 A 
ATOM     29  H   UNL A   1      30.873  30.293  21.657  1.00  0.00     0.064 H 
ATOM     30  H   UNL A   1      28.673  26.649  24.001  1.00  0.00     0.065 H 
ATOM     31  H   UNL A   1      32.148  28.374  22.400  1.00  0.00     0.065 H 
BRANCH  23  32
ATOM     32  S   UNL A   1      28.114  30.989  21.905  1.00  0.00     0.238 S 
ATOM     33  O   UNL A   1      27.145  31.340  22.916  1.00  0.00    -0.207 OA
ATOM     34  O   UNL A   1      27.764  30.832  20.512  1.00  0.00    -0.207 OA
BRANCH  32  35
ATOM     35  N   UNL A   1      29.280  32.200  21.940  1.00  0.00    -0.225 NA
ATOM     36  H   UNL A   1      29.407  32.577  21.001  1.00  0.00     0.137 HD
ATOM     37  H   UNL A   1      30.162  31.813  22.273  1.00  0.00     0.137 HD
ENDBRANCH  32  35
ENDBRANCH  23  32
ENDBRANCH  15  22
BRANCH  17  38
ATOM     38  C   UNL A   1      32.206  27.051  26.051  1.00  0.00     0.128 A 
ATOM     39  C   UNL A   1      31.788  28.016  26.949  1.00  0.00    -0.018 A 
ATOM     40  O   UNL A   1      33.570  27.081  25.959  1.00  0.00    -0.467 OA
ATOM     41  C   UNL A   1      32.951  28.687  27.395  1.00  0.00    -0.023 A 
ATOM     42  H   UNL A   1      30.817  28.209  27.238  1.00  0.00     0.066 H 
ATOM     43  C   UNL A   1      34.011  28.068  26.777  1.00  0.00     0.091 A 
ATOM     44  H   UNL A   1      32.995  29.482  28.052  1.00  0.00     0.066 H 
ATOM     45  H   UNL A   1      35.002  28.319  26.917  1.00  0.00     0.104 H 
ENDBRANCH  17  38
ENDBRANCH  11  14
ENDBRANCH   7  10
ENDBRANCH   4   7
ENDBRANCH   1   4
BRANCH   1  46
ATOM     46  C   UNL A   1      36.703  20.178  24.935  1.00  0.00    -0.052 C 
ATOM     47  H   UNL A   1      35.962  19.597  24.426  1.00  0.00     0.027 H 
ATOM     48  H   UNL A   1      36.455  20.385  25.955  1.00  0.00     0.027 H 
BRANCH  46  49
ATOM     49  C   UNL A   1      38.002  19.368  24.967  1.00  0.00    -0.036 C 
ATOM     50  H   UNL A   1      38.355  19.262  23.962  1.00  0.00     0.028 H 
ATOM     51  H   UNL A   1      37.765  18.431  25.428  1.00  0.00     0.028 H 
BRANCH  49  52
ATOM     52  C   UNL A   1      39.113  19.994  25.800  1.00  0.00     0.018 C 
ATOM     53  H   UNL A   1      38.747  20.165  26.792  1.00  0.00     0.049 H 
ATOM     54  H   UNL A   1      39.400  20.913  25.332  1.00  0.00     0.049 H 
BRANCH  52  55
ATOM     55  N   UNL A   1      40.285  19.139  25.872  1.00  0.00    -0.352 N 
ATOM     56  C   UNL A   1      41.597  19.479  26.076  1.00  0.00     0.251 C 
ATOM     57  H   UNL A   1      40.112  18.176  25.758  1.00  0.00     0.163 HD
ATOM     58  O   UNL A   1      42.486  18.653  25.890  1.00  0.00    -0.269 OA
BRANCH  56  59
ATOM     59  C   UNL A   1      41.942  20.850  26.503  1.00  0.00     0.039 A 
ATOM     60  C   UNL A   1      42.023  21.131  27.869  1.00  0.00    -0.049 A 
ATOM     61  C   UNL A   1      42.173  21.857  25.562  1.00  0.00    -0.049 A 
ATOM     62  C   UNL A   1      42.390  22.410  28.289  1.00  0.00    -0.053 A 
ATOM     63  H   UNL A   1      41.813  20.396  28.563  1.00  0.00     0.063 H 
ATOM     64  C   UNL A   1      42.619  23.106  25.980  1.00  0.00    -0.053 A 
ATOM     65  H   UNL A   1      42.015  21.674  24.558  1.00  0.00     0.063 H 
ATOM     66  C   UNL A   1      42.722  23.399  27.348  1.00  0.00    -0.014 A 
ATOM     67  H   UNL A   1      42.415  22.631  29.297  1.00  0.00     0.063 H 
ATOM     68  H   UNL A   1      42.872  23.822  25.281  1.00  0.00     0.063 H 
BRANCH  66  69
ATOM     69  C   UNL A   1      43.178  24.745  27.779  1.00  0.00     0.031 A 
ATOM     70  C   UNL A   1      42.174  25.812  28.116  1.00  0.00     0.074 A 
ATOM     71  C   UNL A   1      44.496  25.021  27.815  1.00  0.00     0.049 A 
ATOM     72  N   UNL A   1      42.373  27.060  28.456  1.00  0.00    -0.248 NA
ATOM     73  C   UNL A   1      40.753  25.434  28.032  1.00  0.00    -0.034 C 
ATOM     74  C   UNL A   1      45.565  24.083  27.469  1.00  0.00    -0.036 A 
ATOM     75  N   UNL A   1      45.161  26.174  28.151  1.00  0.00    -0.354 N 
ATOM     76  C   UNL A   1      41.110  27.615  28.617  1.00  0.00     0.074 A 
ATOM     77  C   UNL A   1      40.151  26.588  28.276  1.00  0.00    -0.034 C 
ATOM     78  H   UNL A   1      40.337  24.511  27.835  1.00  0.00     0.065 H 
ATOM     79  C   UNL A   1      46.752  24.688  27.638  1.00  0.00    -0.036 A 
ATOM     80  H   UNL A   1      45.428  23.112  27.149  1.00  0.00     0.065 H 
ATOM     81  C   UNL A   1      46.528  26.068  28.057  1.00  0.00     0.049 A 
ATOM     82  H   UNL A   1      44.703  26.998  28.432  1.00  0.00     0.167 HD
ATOM     83  C   UNL A   1      40.782  28.861  29.034  1.00  0.00     0.037 A 
ATOM     84  H   UNL A   1      39.130  26.734  28.231  1.00  0.00     0.065 H 
ATOM     85  H   UNL A   1      47.674  24.248  27.493  1.00  0.00     0.065 H 
ATOM     86  C   UNL A   1      47.491  26.984  28.273  1.00  0.00     0.037 A 
ATOM     87  C   UNL A   1      41.743  29.875  29.386  1.00  0.00     0.049 A 
ATOM     88  C   UNL A   1      47.097  28.370  28.711  1.00  0.00     0.074 A 
ATOM     89  C   UNL A   1      41.513  31.149  29.870  1.00  0.00    -0.036 A 
ATOM     90  N   UNL A   1      43.118  29.729  29.282  1.00  0.00    -0.354 N 
ATOM     91  N   UNL A   1      45.901  28.863  28.928  1.00  0.00    -0.248 NA
ATOM     92  C   UNL A   1      48.189  29.326  28.941  1.00  0.00    -0.034 C 
ATOM     93  C   UNL A   1      42.745  31.797  30.000  1.00  0.00    -0.036 A 
ATOM     94  H   UNL A   1      40.590  31.554  30.099  1.00  0.00     0.065 H 
ATOM     95  C   UNL A   1      43.749  30.903  29.663  1.00  0.00     0.049 A 
ATOM     96  H   UNL A   1      43.580  28.913  28.980  1.00  0.00     0.167 HD
ATOM     97  C   UNL A   1      46.098  30.170  29.352  1.00  0.00     0.074 A 
ATOM     98  C   UNL A   1      47.529  30.389  29.376  1.00  0.00    -0.034 C 
ATOM     99  H   UNL A   1      49.203  29.201  28.802  1.00  0.00     0.065 H 
ATOM    100  H   UNL A   1      42.884  32.777  30.295  1.00  0.00     0.065 H 
ATOM    101  C   UNL A   1      45.176  31.106  29.690  1.00  0.00     0.037 A 
ATOM    102  H   UNL A   1      47.977  31.263  29.692  1.00  0.00     0.065 H 
BRANCH  83 103
ATOM    103  C   UNL A   1      39.321  29.201  29.132  1.00  0.00     0.064 A 
ATOM    104  C   UNL A   1      38.655  29.259  30.366  1.00  0.00     0.173 A 
ATOM    105  C   UNL A   1      38.585  29.510  27.977  1.00  0.00     0.173 A 
ATOM    106  F   UNL A   1      39.308  28.963  31.500  1.00  0.00    -0.203 F 
ATOM    107  C   UNL A   1      37.302  29.580  30.438  1.00  0.00     0.198 A 
ATOM    108  C   UNL A   1      37.241  29.868  28.057  1.00  0.00     0.198 A 
ATOM    109  F   UNL A   1      39.171  29.478  26.770  1.00  0.00    -0.203 F 
ATOM    110  F   UNL A   1      36.676  29.573  31.623  1.00  0.00    -0.200 F 
ATOM    111  C   UNL A   1      36.599  29.892  29.285  1.00  0.00     0.200 A 
ATOM    112  F   UNL A   1      36.567  30.184  26.942  1.00  0.00    -0.200 F 
ATOM    113  F   UNL A   1      35.298  30.210  29.356  1.00  0.00    -0.200 F 
ENDBRANCH  83 103
BRANCH  86 114
ATOM    114  C   UNL A   1      48.921  26.618  28.094  1.00  0.00     0.064 A 
ATOM    115  C   UNL A   1      49.721  26.273  29.193  1.00  0.00     0.173 A 
ATOM    116  C   UNL A   1      49.522  26.618  26.827  1.00  0.00     0.173 A 
ATOM    117  F   UNL A   1      49.199  26.276  30.429  1.00  0.00    -0.203 F 
ATOM    118  C   UNL A   1      51.071  25.969  29.034  1.00  0.00     0.198 A 
ATOM    119  C   UNL A   1      50.864  26.281  26.665  1.00  0.00     0.198 A 
ATOM    120  F   UNL A   1      48.801  26.935  25.741  1.00  0.00    -0.203 F 
ATOM    121  F   UNL A   1      51.825  25.696  30.108  1.00  0.00    -0.200 F 
ATOM    122  C   UNL A   1      51.640  25.967  27.770  1.00  0.00     0.200 A 
ATOM    123  F   UNL A   1      51.404  26.262  25.439  1.00  0.00    -0.200 F 
ATOM    124  F   UNL A   1      52.938  25.671  27.617  1.00  0.00    -0.200 F 
ENDBRANCH  86 114
BRANCH 101 125
ATOM    125  C   UNL A   1      45.685  32.439  30.160  1.00  0.00     0.064 A 
ATOM    126  C   UNL A   1      45.889  33.509  29.276  1.00  0.00     0.173 A 
ATOM    127  C   UNL A   1      45.933  32.660  31.524  1.00  0.00     0.173 A 
ATOM    128  F   UNL A   1      45.679  33.347  27.961  1.00  0.00    -0.203 F 
ATOM    129  C   UNL A   1      46.352  34.739  29.736  1.00  0.00     0.198 A 
ATOM    130  C   UNL A   1      46.361  33.902  31.984  1.00  0.00     0.198 A 
ATOM    131  F   UNL A   1      45.747  31.675  32.415  1.00  0.00    -0.203 F 
ATOM    132  F   UNL A   1      46.593  35.729  28.864  1.00  0.00    -0.200 F 
ATOM    133  C   UNL A   1      46.579  34.937  31.089  1.00  0.00     0.200 A 
ATOM    134  F   UNL A   1      46.561  34.097  33.295  1.00  0.00    -0.200 F 
ATOM    135  F   UNL A   1      47.015  36.125  31.529  1.00  0.00    -0.200 F 
ENDBRANCH 101 125
ENDBRANCH  66  69
ENDBRANCH  56  59
ENDBRANCH  52  55
ENDBRANCH  49  52
ENDBRANCH  46  49
ENDBRANCH   1  46
TORSDOF 17
ENDMDL
