MODEL 1
REMARK VINA RESULT:     -10.9      0.000      0.000
REMARK SMILES CC(=O)Oc1ccccc1C(=O)NCCCCCCNC(=O)c1ccc(-c2c3nc(c(-c4c(F)c(F)c(F)c(F)c4F)c4ccc([nH]4)c(-c4c(F)c(F)c(F)c(F)c4F)c4nc(c(-c5c(F)c(F)c(F)c(F)c5F)c5ccc2[nH]5)C=C4)C=C3)cc1
REMARK SMILES IDX 16 1 15 4 14 7 13 10 11 11 12 12 10 14 5 15 6 16 7 17 9 19
REMARK SMILES IDX 8 20 4 24 2 25 3 26 1 27 17 31 18 34 19 37 20 40 21 41 22 43
REMARK SMILES IDX 23 44 24 45 85 46 25 47 84 49 26 51 27 54 28 55 78 56 29 57
REMARK SMILES IDX 83 58 77 59 79 60 30 61 82 62 76 64 75 66 31 68 63 71 43 72
REMARK SMILES IDX 62 73 44 74 47 75 61 76 80 77 45 78 46 80 60 82 81 83 48 86
REMARK SMILES IDX 32 88 33 89 41 90 34 91 35 92 39 93 42 94 36 95 37 96 40 97
REMARK SMILES IDX 38 98 64 99 65 100 73 101 66 102 67 103 71 104 74 105 68 106
REMARK SMILES IDX 69 107 72 108 70 109 49 110 50 111 58 112 51 113 52 114
REMARK SMILES IDX 56 115 59 116 53 117 54 118 57 119 55 120
REMARK H PARENT 16 2 16 3 15 5 15 6 14 8 14 9 13 13 6 18 7 21 9 22 8 23 1 28
REMARK H PARENT 1 29 1 30 17 32 17 33 18 35 18 36 19 38 19 39 20 42 24 48
REMARK H PARENT 85 50 25 52 84 53 83 63 77 65 79 67 82 69 76 70 44 79 47 81
REMARK H PARENT 80 84 45 85 81 87
REMARK Flexibility Score: inf
ROOT
ATOM      1  C   UNL A   1      32.281  29.841  26.833  1.00  0.00    -0.052 C 
ATOM      2  H   UNL A   1      33.069  29.531  26.178  1.00  0.00     0.027 H 
ATOM      3  H   UNL A   1      32.581  30.410  27.687  1.00  0.00     0.027 H 
ENDROOT
BRANCH   1   4
ATOM      4  C   UNL A   1      31.653  28.573  27.421  1.00  0.00    -0.036 C 
ATOM      5  H   UNL A   1      31.728  28.641  28.486  1.00  0.00     0.028 H 
ATOM      6  H   UNL A   1      30.656  28.557  27.032  1.00  0.00     0.028 H 
BRANCH   4   7
ATOM      7  C   UNL A   1      32.253  27.233  27.005  1.00  0.00     0.018 C 
ATOM      8  H   UNL A   1      33.015  27.425  26.279  1.00  0.00     0.049 H 
ATOM      9  H   UNL A   1      32.617  26.784  27.906  1.00  0.00     0.049 H 
BRANCH   7  10
ATOM     10  N   UNL A   1      31.329  26.284  26.438  1.00  0.00    -0.352 N 
ATOM     11  C   UNL A   1      30.690  26.252  25.221  1.00  0.00     0.255 C 
ATOM     12  O   UNL A   1      29.969  25.272  25.015  1.00  0.00    -0.269 OA
ATOM     13  H   UNL A   1      31.117  25.525  27.027  1.00  0.00     0.163 HD
BRANCH  11  14
ATOM     14  C   UNL A   1      30.742  27.324  24.172  1.00  0.00     0.082 A 
ATOM     15  C   UNL A   1      31.857  27.842  23.502  1.00  0.00     0.143 A 
ATOM     16  C   UNL A   1      31.730  28.867  22.548  1.00  0.00    -0.018 A 
ATOM     17  C   UNL A   1      30.475  29.357  22.202  1.00  0.00    -0.059 A 
ATOM     18  H   UNL A   1      32.575  29.259  22.102  1.00  0.00     0.066 H 
ATOM     19  C   UNL A   1      29.480  27.828  23.784  1.00  0.00    -0.046 A 
ATOM     20  C   UNL A   1      29.346  28.829  22.813  1.00  0.00    -0.061 A 
ATOM     21  H   UNL A   1      30.385  30.106  21.498  1.00  0.00     0.062 H 
ATOM     22  H   UNL A   1      28.631  27.447  24.229  1.00  0.00     0.063 H 
ATOM     23  H   UNL A   1      28.409  29.174  22.553  1.00  0.00     0.062 H 
BRANCH  15  24
ATOM     24  O   UNL A   1      33.173  27.459  23.770  1.00  0.00    -0.426 OA
BRANCH  24  25
ATOM     25  C   UNL A   1      33.640  26.371  23.043  1.00  0.00     0.308 C 
ATOM     26  O   UNL A   1      33.781  26.305  21.832  1.00  0.00    -0.252 OA
BRANCH  25  27
ATOM     27  C   UNL A   1      33.960  25.259  24.003  1.00  0.00     0.034 C 
ATOM     28  H   UNL A   1      33.054  24.889  24.435  1.00  0.00     0.035 H 
ATOM     29  H   UNL A   1      34.598  25.629  24.777  1.00  0.00     0.035 H 
ATOM     30  H   UNL A   1      34.456  24.468  23.480  1.00  0.00     0.035 H 
ENDBRANCH  25  27
ENDBRANCH  24  25
ENDBRANCH  15  24
ENDBRANCH  11  14
ENDBRANCH   7  10
ENDBRANCH   4   7
ENDBRANCH   1   4
BRANCH   1  31
ATOM     31  C   UNL A   1      31.381  30.794  26.038  1.00  0.00    -0.052 C 
ATOM     32  H   UNL A   1      30.392  30.389  26.055  1.00  0.00     0.027 H 
ATOM     33  H   UNL A   1      31.839  30.855  25.072  1.00  0.00     0.027 H 
BRANCH  31  34
ATOM     34  C   UNL A   1      31.288  32.246  26.512  1.00  0.00    -0.036 C 
ATOM     35  H   UNL A   1      30.523  32.292  27.259  1.00  0.00     0.028 H 
ATOM     36  H   UNL A   1      31.092  32.813  25.626  1.00  0.00     0.028 H 
BRANCH  34  37
ATOM     37  C   UNL A   1      32.547  32.868  27.106  1.00  0.00     0.018 C 
ATOM     38  H   UNL A   1      33.297  32.910  26.344  1.00  0.00     0.049 H 
ATOM     39  H   UNL A   1      32.840  32.255  27.932  1.00  0.00     0.049 H 
BRANCH  37  40
ATOM     40  N   UNL A   1      32.343  34.209  27.622  1.00  0.00    -0.352 N 
ATOM     41  C   UNL A   1      32.996  34.895  28.617  1.00  0.00     0.251 C 
ATOM     42  H   UNL A   1      31.617  34.710  27.186  1.00  0.00     0.163 HD
ATOM     43  O   UNL A   1      32.580  35.999  28.958  1.00  0.00    -0.269 OA
BRANCH  41  44
ATOM     44  C   UNL A   1      34.176  34.323  29.312  1.00  0.00     0.039 A 
ATOM     45  C   UNL A   1      33.963  33.589  30.486  1.00  0.00    -0.049 A 
ATOM     46  C   UNL A   1      35.482  34.538  28.868  1.00  0.00    -0.049 A 
ATOM     47  C   UNL A   1      35.044  33.031  31.177  1.00  0.00    -0.053 A 
ATOM     48  H   UNL A   1      33.003  33.459  30.844  1.00  0.00     0.063 H 
ATOM     49  C   UNL A   1      36.555  33.921  29.516  1.00  0.00    -0.053 A 
ATOM     50  H   UNL A   1      35.656  35.155  28.059  1.00  0.00     0.063 H 
ATOM     51  C   UNL A   1      36.349  33.167  30.682  1.00  0.00    -0.014 A 
ATOM     52  H   UNL A   1      34.880  32.516  32.056  1.00  0.00     0.063 H 
ATOM     53  H   UNL A   1      37.508  34.020  29.132  1.00  0.00     0.063 H 
BRANCH  51  54
ATOM     54  C   UNL A   1      37.506  32.541  31.379  1.00  0.00     0.031 A 
ATOM     55  C   UNL A   1      38.230  31.376  30.760  1.00  0.00     0.074 A 
ATOM     56  C   UNL A   1      37.870  32.979  32.600  1.00  0.00     0.049 A 
ATOM     57  N   UNL A   1      39.216  30.661  31.242  1.00  0.00    -0.248 NA
ATOM     58  C   UNL A   1      37.765  30.941  29.435  1.00  0.00    -0.034 C 
ATOM     59  C   UNL A   1      37.218  34.062  33.337  1.00  0.00    -0.036 A 
ATOM     60  N   UNL A   1      38.866  32.555  33.445  1.00  0.00    -0.354 N 
ATOM     61  C   UNL A   1      39.473  29.681  30.290  1.00  0.00     0.074 A 
ATOM     62  C   UNL A   1      38.507  29.863  29.228  1.00  0.00    -0.034 C 
ATOM     63  H   UNL A   1      37.047  31.364  28.826  1.00  0.00     0.065 H 
ATOM     64  C   UNL A   1      37.835  34.224  34.517  1.00  0.00    -0.036 A 
ATOM     65  H   UNL A   1      36.413  34.615  33.001  1.00  0.00     0.065 H 
ATOM     66  C   UNL A   1      38.905  33.237  34.637  1.00  0.00     0.049 A 
ATOM     67  H   UNL A   1      39.492  31.829  33.218  1.00  0.00     0.167 HD
ATOM     68  C   UNL A   1      40.440  28.731  30.291  1.00  0.00     0.037 A 
ATOM     69  H   UNL A   1      38.408  29.235  28.416  1.00  0.00     0.065 H 
ATOM     70  H   UNL A   1      37.593  34.933  35.227  1.00  0.00     0.065 H 
ATOM     71  C   UNL A   1      39.704  33.080  35.710  1.00  0.00     0.037 A 
ATOM     72  C   UNL A   1      41.420  28.570  31.333  1.00  0.00     0.049 A 
ATOM     73  C   UNL A   1      40.783  32.031  35.681  1.00  0.00     0.074 A 
ATOM     74  C   UNL A   1      42.486  27.690  31.388  1.00  0.00    -0.036 A 
ATOM     75  N   UNL A   1      41.449  29.304  32.511  1.00  0.00    -0.354 N 
ATOM     76  N   UNL A   1      41.067  31.162  34.741  1.00  0.00    -0.248 NA
ATOM     77  C   UNL A   1      41.659  31.949  36.858  1.00  0.00    -0.034 C 
ATOM     78  C   UNL A   1      43.132  27.857  32.619  1.00  0.00    -0.036 A 
ATOM     79  H   UNL A   1      42.759  27.024  30.648  1.00  0.00     0.065 H 
ATOM     80  C   UNL A   1      42.499  28.878  33.310  1.00  0.00     0.049 A 
ATOM     81  H   UNL A   1      40.817  30.022  32.745  1.00  0.00     0.167 HD
ATOM     82  C   UNL A   1      42.163  30.446  35.202  1.00  0.00     0.074 A 
ATOM     83  C   UNL A   1      42.504  30.992  36.499  1.00  0.00    -0.034 C 
ATOM     84  H   UNL A   1      41.626  32.493  37.735  1.00  0.00     0.065 H 
ATOM     85  H   UNL A   1      43.941  27.313  32.955  1.00  0.00     0.065 H 
ATOM     86  C   UNL A   1      42.826  29.426  34.602  1.00  0.00     0.037 A 
ATOM     87  H   UNL A   1      43.303  30.677  37.070  1.00  0.00     0.065 H 
BRANCH  68  88
ATOM     88  C   UNL A   1      40.480  27.785  29.124  1.00  0.00     0.064 A 
ATOM     89  C   UNL A   1      39.682  26.632  29.079  1.00  0.00     0.173 A 
ATOM     90  C   UNL A   1      41.316  28.046  28.027  1.00  0.00     0.173 A 
ATOM     91  F   UNL A   1      38.871  26.332  30.105  1.00  0.00    -0.203 F 
ATOM     92  C   UNL A   1      39.748  25.755  28.000  1.00  0.00     0.198 A 
ATOM     93  C   UNL A   1      41.355  27.183  26.934  1.00  0.00     0.198 A 
ATOM     94  F   UNL A   1      42.094  29.138  28.012  1.00  0.00    -0.203 F 
ATOM     95  F   UNL A   1      39.022  24.629  28.008  1.00  0.00    -0.200 F 
ATOM     96  C   UNL A   1      40.581  26.033  26.926  1.00  0.00     0.200 A 
ATOM     97  F   UNL A   1      42.150  27.460  25.892  1.00  0.00    -0.200 F 
ATOM     98  F   UNL A   1      40.645  25.187  25.888  1.00  0.00    -0.200 F 
ENDBRANCH  68  88
BRANCH  71  99
ATOM     99  C   UNL A   1      39.519  33.956  36.896  1.00  0.00     0.064 A 
ATOM    100  C   UNL A   1      38.764  33.532  37.997  1.00  0.00     0.173 A 
ATOM    101  C   UNL A   1      40.113  35.225  36.960  1.00  0.00     0.173 A 
ATOM    102  F   UNL A   1      38.161  32.334  37.973  1.00  0.00    -0.203 F 
ATOM    103  C   UNL A   1      38.600  34.348  39.114  1.00  0.00     0.198 A 
ATOM    104  C   UNL A   1      39.970  36.029  38.087  1.00  0.00     0.198 A 
ATOM    105  F   UNL A   1      40.850  35.674  35.934  1.00  0.00    -0.203 F 
ATOM    106  F   UNL A   1      37.843  33.933  40.139  1.00  0.00    -0.200 F 
ATOM    107  C   UNL A   1      39.209  35.593  39.161  1.00  0.00     0.200 A 
ATOM    108  F   UNL A   1      40.574  37.225  38.136  1.00  0.00    -0.200 F 
ATOM    109  F   UNL A   1      39.060  36.374  40.240  1.00  0.00    -0.200 F 
ENDBRANCH  71  99
BRANCH  86 110
ATOM    110  C   UNL A   1      44.002  28.845  35.333  1.00  0.00     0.064 A 
ATOM    111  C   UNL A   1      45.302  29.334  35.137  1.00  0.00     0.173 A 
ATOM    112  C   UNL A   1      43.821  27.816  36.268  1.00  0.00     0.173 A 
ATOM    113  F   UNL A   1      45.530  30.308  34.243  1.00  0.00    -0.203 F 
ATOM    114  C   UNL A   1      46.381  28.798  35.836  1.00  0.00     0.198 A 
ATOM    115  C   UNL A   1      44.898  27.301  36.986  1.00  0.00     0.198 A 
ATOM    116  F   UNL A   1      42.597  27.316  36.497  1.00  0.00    -0.203 F 
ATOM    117  F   UNL A   1      47.620  29.250  35.600  1.00  0.00    -0.200 F 
ATOM    118  C   UNL A   1      46.177  27.788  36.764  1.00  0.00     0.200 A 
ATOM    119  F   UNL A   1      44.697  26.334  37.891  1.00  0.00    -0.200 F 
ATOM    120  F   UNL A   1      47.216  27.278  37.440  1.00  0.00    -0.200 F 
ENDBRANCH  86 110
ENDBRANCH  51  54
ENDBRANCH  41  44
ENDBRANCH  37  40
ENDBRANCH  34  37
ENDBRANCH  31  34
ENDBRANCH   1  31
TORSDOF 16
ENDMDL
MODEL 2
REMARK VINA RESULT:     -10.9      0.993      2.665
REMARK SMILES CC(=O)Oc1ccccc1C(=O)NCCCCCCNC(=O)c1ccc(-c2c3nc(c(-c4c(F)c(F)c(F)c(F)c4F)c4ccc([nH]4)c(-c4c(F)c(F)c(F)c(F)c4F)c4nc(c(-c5c(F)c(F)c(F)c(F)c5F)c5ccc2[nH]5)C=C4)C=C3)cc1
REMARK SMILES IDX 16 1 15 4 14 7 13 10 11 11 12 12 10 14 5 15 6 16 7 17 9 19
REMARK SMILES IDX 8 20 4 24 2 25 3 26 1 27 17 31 18 34 19 37 20 40 21 41 22 43
REMARK SMILES IDX 23 44 24 45 85 46 25 47 84 49 26 51 27 54 28 55 78 56 29 57
REMARK SMILES IDX 83 58 77 59 79 60 30 61 82 62 76 64 75 66 31 68 63 71 43 72
REMARK SMILES IDX 62 73 44 74 47 75 61 76 80 77 45 78 46 80 60 82 81 83 48 86
REMARK SMILES IDX 32 88 33 89 41 90 34 91 35 92 39 93 42 94 36 95 37 96 40 97
REMARK SMILES IDX 38 98 64 99 65 100 73 101 66 102 67 103 71 104 74 105 68 106
REMARK SMILES IDX 69 107 72 108 70 109 49 110 50 111 58 112 51 113 52 114
REMARK SMILES IDX 56 115 59 116 53 117 54 118 57 119 55 120
REMARK H PARENT 16 2 16 3 15 5 15 6 14 8 14 9 13 13 6 18 7 21 9 22 8 23 1 28
REMARK H PARENT 1 29 1 30 17 32 17 33 18 35 18 36 19 38 19 39 20 42 24 48
REMARK H PARENT 85 50 25 52 84 53 83 63 77 65 79 67 82 69 76 70 44 79 47 81
REMARK H PARENT 80 84 45 85 81 87
REMARK Flexibility Score: inf
ROOT
ATOM      1  C   UNL A   1      32.136  29.768  27.106  1.00  0.00    -0.052 C 
ATOM      2  H   UNL A   1      32.015  30.120  28.110  1.00  0.00     0.027 H 
ATOM      3  H   UNL A   1      31.638  28.851  26.869  1.00  0.00     0.027 H 
ENDROOT
BRANCH   1   4
ATOM      4  C   UNL A   1      33.623  29.456  26.909  1.00  0.00    -0.036 C 
ATOM      5  H   UNL A   1      34.111  30.370  26.642  1.00  0.00     0.028 H 
ATOM      6  H   UNL A   1      33.936  29.023  27.837  1.00  0.00     0.028 H 
BRANCH   4   7
ATOM      7  C   UNL A   1      33.990  28.417  25.853  1.00  0.00     0.018 C 
ATOM      8  H   UNL A   1      35.002  28.116  26.026  1.00  0.00     0.049 H 
ATOM      9  H   UNL A   1      33.278  27.627  25.961  1.00  0.00     0.049 H 
BRANCH   7  10
ATOM     10  N   UNL A   1      33.886  28.856  24.484  1.00  0.00    -0.352 N 
ATOM     11  C   UNL A   1      32.958  28.578  23.508  1.00  0.00     0.255 C 
ATOM     12  O   UNL A   1      33.131  29.142  22.424  1.00  0.00    -0.269 OA
ATOM     13  H   UNL A   1      34.607  29.462  24.198  1.00  0.00     0.163 HD
BRANCH  11  14
ATOM     14  C   UNL A   1      31.818  27.610  23.628  1.00  0.00     0.082 A 
ATOM     15  C   UNL A   1      30.444  27.875  23.666  1.00  0.00     0.143 A 
ATOM     16  C   UNL A   1      29.500  26.841  23.799  1.00  0.00    -0.018 A 
ATOM     17  C   UNL A   1      29.909  25.513  23.839  1.00  0.00    -0.059 A 
ATOM     18  H   UNL A   1      28.495  27.071  23.867  1.00  0.00     0.066 H 
ATOM     19  C   UNL A   1      32.201  26.250  23.649  1.00  0.00    -0.046 A 
ATOM     20  C   UNL A   1      31.263  25.215  23.753  1.00  0.00    -0.061 A 
ATOM     21  H   UNL A   1      29.213  24.756  23.931  1.00  0.00     0.062 H 
ATOM     22  H   UNL A   1      33.203  26.011  23.587  1.00  0.00     0.063 H 
ATOM     23  H   UNL A   1      31.577  24.232  23.765  1.00  0.00     0.062 H 
BRANCH  15  24
ATOM     24  O   UNL A   1      29.899  29.161  23.660  1.00  0.00    -0.426 OA
BRANCH  24  25
ATOM     25  C   UNL A   1      29.232  29.524  22.497  1.00  0.00     0.308 C 
ATOM     26  O   UNL A   1      29.714  29.634  21.381  1.00  0.00    -0.252 OA
BRANCH  25  27
ATOM     27  C   UNL A   1      27.786  29.762  22.830  1.00  0.00     0.034 C 
ATOM     28  H   UNL A   1      27.717  30.435  23.660  1.00  0.00     0.035 H 
ATOM     29  H   UNL A   1      27.322  28.832  23.087  1.00  0.00     0.035 H 
ATOM     30  H   UNL A   1      27.290  30.186  21.983  1.00  0.00     0.035 H 
ENDBRANCH  25  27
ENDBRANCH  24  25
ENDBRANCH  15  24
ENDBRANCH  11  14
ENDBRANCH   7  10
ENDBRANCH   4   7
ENDBRANCH   1   4
BRANCH   1  31
ATOM     31  C   UNL A   1      31.484  30.804  26.182  1.00  0.00    -0.052 C 
ATOM     32  H   UNL A   1      30.503  30.449  25.945  1.00  0.00     0.027 H 
ATOM     33  H   UNL A   1      32.157  30.888  25.354  1.00  0.00     0.027 H 
BRANCH  31  34
ATOM     34  C   UNL A   1      31.338  32.233  26.706  1.00  0.00    -0.036 C 
ATOM     35  H   UNL A   1      30.731  32.193  27.587  1.00  0.00     0.028 H 
ATOM     36  H   UNL A   1      30.918  32.785  25.891  1.00  0.00     0.028 H 
BRANCH  34  37
ATOM     37  C   UNL A   1      32.619  32.979  27.067  1.00  0.00     0.018 C 
ATOM     38  H   UNL A   1      33.203  33.096  26.178  1.00  0.00     0.049 H 
ATOM     39  H   UNL A   1      33.122  32.397  27.811  1.00  0.00     0.049 H 
BRANCH  37  40
ATOM     40  N   UNL A   1      32.383  34.291  27.639  1.00  0.00    -0.352 N 
ATOM     41  C   UNL A   1      33.015  34.946  28.668  1.00  0.00     0.251 C 
ATOM     42  H   UNL A   1      31.651  34.797  27.219  1.00  0.00     0.163 HD
ATOM     43  O   UNL A   1      32.574  36.026  29.053  1.00  0.00    -0.269 OA
BRANCH  41  44
ATOM     44  C   UNL A   1      34.201  34.367  29.347  1.00  0.00     0.039 A 
ATOM     45  C   UNL A   1      33.991  33.525  30.446  1.00  0.00    -0.049 A 
ATOM     46  C   UNL A   1      35.508  34.678  28.964  1.00  0.00    -0.049 A 
ATOM     47  C   UNL A   1      35.077  32.956  31.120  1.00  0.00    -0.053 A 
ATOM     48  H   UNL A   1      33.029  33.322  30.762  1.00  0.00     0.063 H 
ATOM     49  C   UNL A   1      36.590  34.054  29.589  1.00  0.00    -0.053 A 
ATOM     50  H   UNL A   1      35.675  35.370  28.217  1.00  0.00     0.063 H 
ATOM     51  C   UNL A   1      36.388  33.192  30.679  1.00  0.00    -0.014 A 
ATOM     52  H   UNL A   1      34.914  32.360  31.945  1.00  0.00     0.063 H 
ATOM     53  H   UNL A   1      37.548  34.228  29.245  1.00  0.00     0.063 H 
BRANCH  51  54
ATOM     54  C   UNL A   1      37.553  32.559  31.355  1.00  0.00     0.031 A 
ATOM     55  C   UNL A   1      38.273  31.405  30.711  1.00  0.00     0.074 A 
ATOM     56  C   UNL A   1      37.929  32.980  32.578  1.00  0.00     0.049 A 
ATOM     57  N   UNL A   1      39.266  30.684  31.172  1.00  0.00    -0.248 NA
ATOM     58  C   UNL A   1      37.795  30.988  29.385  1.00  0.00    -0.034 C 
ATOM     59  C   UNL A   1      37.283  34.051  33.337  1.00  0.00    -0.036 A 
ATOM     60  N   UNL A   1      38.934  32.545  33.407  1.00  0.00    -0.354 N 
ATOM     61  C   UNL A   1      39.515  29.719  30.204  1.00  0.00     0.074 A 
ATOM     62  C   UNL A   1      38.538  29.915  29.155  1.00  0.00    -0.034 C 
ATOM     63  H   UNL A   1      37.070  31.418  28.789  1.00  0.00     0.065 H 
ATOM     64  C   UNL A   1      37.911  34.197  34.513  1.00  0.00    -0.036 A 
ATOM     65  H   UNL A   1      36.473  34.606  33.018  1.00  0.00     0.065 H 
ATOM     66  C   UNL A   1      38.984  33.210  34.608  1.00  0.00     0.049 A 
ATOM     67  H   UNL A   1      39.560  31.825  33.163  1.00  0.00     0.167 HD
ATOM     68  C   UNL A   1      40.484  28.772  30.181  1.00  0.00     0.037 A 
ATOM     69  H   UNL A   1      38.432  29.298  28.334  1.00  0.00     0.065 H 
ATOM     70  H   UNL A   1      37.675  34.894  35.236  1.00  0.00     0.065 H 
ATOM     71  C   UNL A   1      39.795  33.039  35.670  1.00  0.00     0.037 A 
ATOM     72  C   UNL A   1      41.475  28.598  31.211  1.00  0.00     0.049 A 
ATOM     73  C   UNL A   1      40.876  31.993  35.615  1.00  0.00     0.074 A 
ATOM     74  C   UNL A   1      42.544  27.720  31.241  1.00  0.00    -0.036 A 
ATOM     75  N   UNL A   1      41.515  29.315  32.399  1.00  0.00    -0.354 N 
ATOM     76  N   UNL A   1      41.152  31.139  34.659  1.00  0.00    -0.248 NA
ATOM     77  C   UNL A   1      41.764  31.896  36.782  1.00  0.00    -0.034 C 
ATOM     78  C   UNL A   1      43.202  27.870  32.468  1.00  0.00    -0.036 A 
ATOM     79  H   UNL A   1      42.811  27.065  30.489  1.00  0.00     0.065 H 
ATOM     80  C   UNL A   1      42.574  28.879  33.180  1.00  0.00     0.049 A 
ATOM     81  H   UNL A   1      40.884  30.027  32.649  1.00  0.00     0.167 HD
ATOM     82  C   UNL A   1      42.254  30.419  35.098  1.00  0.00     0.074 A 
ATOM     83  C   UNL A   1      42.608  30.946  36.399  1.00  0.00    -0.034 C 
ATOM     84  H   UNL A   1      41.739  32.427  37.666  1.00  0.00     0.065 H 
ATOM     85  H   UNL A   1      44.016  27.323  32.787  1.00  0.00     0.065 H 
ATOM     86  C   UNL A   1      42.913  29.409  34.477  1.00  0.00     0.037 A 
ATOM     87  H   UNL A   1      43.413  30.625  36.958  1.00  0.00     0.065 H 
BRANCH  68  88
ATOM     88  C   UNL A   1      40.514  27.843  28.999  1.00  0.00     0.064 A 
ATOM     89  C   UNL A   1      41.321  28.098  27.879  1.00  0.00     0.173 A 
ATOM     90  C   UNL A   1      39.740  26.672  28.996  1.00  0.00     0.173 A 
ATOM     91  F   UNL A   1      42.074  29.207  27.829  1.00  0.00    -0.203 F 
ATOM     92  C   UNL A   1      41.320  27.240  26.784  1.00  0.00     0.198 A 
ATOM     93  C   UNL A   1      39.767  25.799  27.911  1.00  0.00     0.198 A 
ATOM     94  F   UNL A   1      38.958  26.374  30.043  1.00  0.00    -0.203 F 
ATOM     95  F   UNL A   1      42.051  27.536  25.701  1.00  0.00    -0.200 F 
ATOM     96  C   UNL A   1      40.547  26.087  26.802  1.00  0.00     0.200 A 
ATOM     97  F   UNL A   1      39.031  24.679  27.936  1.00  0.00    -0.200 F 
ATOM     98  F   UNL A   1      40.547  25.262  25.747  1.00  0.00    -0.200 F 
ENDBRANCH  68  88
BRANCH  71  99
ATOM     99  C   UNL A   1      39.620  33.897  36.870  1.00  0.00     0.064 A 
ATOM    100  C   UNL A   1      40.224  35.158  36.952  1.00  0.00     0.173 A 
ATOM    101  C   UNL A   1      38.828  33.481  37.951  1.00  0.00     0.173 A 
ATOM    102  F   UNL A   1      41.008  35.591  35.952  1.00  0.00    -0.203 F 
ATOM    103  C   UNL A   1      40.053  35.967  38.073  1.00  0.00     0.198 A 
ATOM    104  C   UNL A   1      38.634  34.301  39.059  1.00  0.00     0.198 A 
ATOM    105  F   UNL A   1      38.223  32.284  37.918  1.00  0.00    -0.203 F 
ATOM    106  F   UNL A   1      40.671  37.155  38.141  1.00  0.00    -0.200 F 
ATOM    107  C   UNL A   1      39.251  35.542  39.122  1.00  0.00     0.200 A 
ATOM    108  F   UNL A   1      37.847  33.893  40.064  1.00  0.00    -0.200 F 
ATOM    109  F   UNL A   1      39.078  36.324  40.195  1.00  0.00    -0.200 F 
ENDBRANCH  71  99
BRANCH  86 110
ATOM    110  C   UNL A   1      44.098  28.820  35.186  1.00  0.00     0.064 A 
ATOM    111  C   UNL A   1      43.965  27.724  36.051  1.00  0.00     0.173 A 
ATOM    112  C   UNL A   1      45.385  29.333  34.968  1.00  0.00     0.173 A 
ATOM    113  F   UNL A   1      42.754  27.207  36.305  1.00  0.00    -0.203 F 
ATOM    114  C   UNL A   1      45.077  27.176  36.689  1.00  0.00     0.198 A 
ATOM    115  C   UNL A   1      46.497  28.765  35.584  1.00  0.00     0.198 A 
ATOM    116  F   UNL A   1      45.567  30.377  34.146  1.00  0.00    -0.203 F 
ATOM    117  F   UNL A   1      44.920  26.158  37.545  1.00  0.00    -0.200 F 
ATOM    118  C   UNL A   1      46.341  27.692  36.449  1.00  0.00     0.200 A 
ATOM    119  F   UNL A   1      47.720  29.257  35.341  1.00  0.00    -0.200 F 
ATOM    120  F   UNL A   1      47.410  27.160  37.057  1.00  0.00    -0.200 F 
ENDBRANCH  86 110
ENDBRANCH  51  54
ENDBRANCH  41  44
ENDBRANCH  37  40
ENDBRANCH  34  37
ENDBRANCH  31  34
ENDBRANCH   1  31
TORSDOF 16
ENDMDL
MODEL 3
REMARK VINA RESULT:     -10.9      0.830      2.030
REMARK SMILES CC(=O)Oc1ccccc1C(=O)NCCCCCCNC(=O)c1ccc(-c2c3nc(c(-c4c(F)c(F)c(F)c(F)c4F)c4ccc([nH]4)c(-c4c(F)c(F)c(F)c(F)c4F)c4nc(c(-c5c(F)c(F)c(F)c(F)c5F)c5ccc2[nH]5)C=C4)C=C3)cc1
REMARK SMILES IDX 16 1 15 4 14 7 13 10 11 11 12 12 10 14 5 15 6 16 7 17 9 19
REMARK SMILES IDX 8 20 4 24 2 25 3 26 1 27 17 31 18 34 19 37 20 40 21 41 22 43
REMARK SMILES IDX 23 44 24 45 85 46 25 47 84 49 26 51 27 54 28 55 78 56 29 57
REMARK SMILES IDX 83 58 77 59 79 60 30 61 82 62 76 64 75 66 31 68 63 71 43 72
REMARK SMILES IDX 62 73 44 74 47 75 61 76 80 77 45 78 46 80 60 82 81 83 48 86
REMARK SMILES IDX 32 88 33 89 41 90 34 91 35 92 39 93 42 94 36 95 37 96 40 97
REMARK SMILES IDX 38 98 64 99 65 100 73 101 66 102 67 103 71 104 74 105 68 106
REMARK SMILES IDX 69 107 72 108 70 109 49 110 50 111 58 112 51 113 52 114
REMARK SMILES IDX 56 115 59 116 53 117 54 118 57 119 55 120
REMARK H PARENT 16 2 16 3 15 5 15 6 14 8 14 9 13 13 6 18 7 21 9 22 8 23 1 28
REMARK H PARENT 1 29 1 30 17 32 17 33 18 35 18 36 19 38 19 39 20 42 24 48
REMARK H PARENT 85 50 25 52 84 53 83 63 77 65 79 67 82 69 76 70 44 79 47 81
REMARK H PARENT 80 84 45 85 81 87
REMARK Flexibility Score: inf
ROOT
ATOM      1  C   UNL A   1      32.054  29.899  27.101  1.00  0.00    -0.052 C 
ATOM      2  H   UNL A   1      31.873  30.283  28.084  1.00  0.00     0.027 H 
ATOM      3  H   UNL A   1      31.613  28.950  26.881  1.00  0.00     0.027 H 
ENDROOT
BRANCH   1   4
ATOM      4  C   UNL A   1      33.563  29.654  26.981  1.00  0.00    -0.036 C 
ATOM      5  H   UNL A   1      34.006  30.555  26.611  1.00  0.00     0.028 H 
ATOM      6  H   UNL A   1      33.871  29.362  27.963  1.00  0.00     0.028 H 
BRANCH   4   7
ATOM      7  C   UNL A   1      34.020  28.515  26.075  1.00  0.00     0.018 C 
ATOM      8  H   UNL A   1      35.000  28.220  26.387  1.00  0.00     0.049 H 
ATOM      9  H   UNL A   1      33.283  27.746  26.178  1.00  0.00     0.049 H 
BRANCH   7  10
ATOM     10  N   UNL A   1      34.076  28.821  24.668  1.00  0.00    -0.352 N 
ATOM     11  C   UNL A   1      33.238  28.484  23.630  1.00  0.00     0.255 C 
ATOM     12  O   UNL A   1      33.546  28.933  22.522  1.00  0.00    -0.269 OA
ATOM     13  H   UNL A   1      34.850  29.367  24.403  1.00  0.00     0.163 HD
BRANCH  11  14
ATOM     14  C   UNL A   1      32.046  27.579  23.720  1.00  0.00     0.082 A 
ATOM     15  C   UNL A   1      32.012  26.187  23.871  1.00  0.00     0.143 A 
ATOM     16  C   UNL A   1      30.795  25.483  23.923  1.00  0.00    -0.018 A 
ATOM     17  C   UNL A   1      29.583  26.165  23.882  1.00  0.00    -0.059 A 
ATOM     18  H   UNL A   1      30.802  24.453  23.992  1.00  0.00     0.066 H 
ATOM     19  C   UNL A   1      30.799  28.244  23.702  1.00  0.00    -0.046 A 
ATOM     20  C   UNL A   1      29.585  27.549  23.782  1.00  0.00    -0.061 A 
ATOM     21  H   UNL A   1      28.693  25.646  23.925  1.00  0.00     0.062 H 
ATOM     22  H   UNL A   1      30.782  29.272  23.627  1.00  0.00     0.063 H 
ATOM     23  H   UNL A   1      28.692  28.067  23.767  1.00  0.00     0.062 H 
BRANCH  15  24
ATOM     24  O   UNL A   1      33.150  25.379  23.901  1.00  0.00    -0.426 OA
BRANCH  24  25
ATOM     25  C   UNL A   1      33.598  24.929  22.666  1.00  0.00     0.308 C 
ATOM     26  O   UNL A   1      33.651  25.570  21.628  1.00  0.00    -0.252 OA
BRANCH  25  27
ATOM     27  C   UNL A   1      34.026  23.495  22.807  1.00  0.00     0.034 C 
ATOM     28  H   UNL A   1      34.979  23.453  23.291  1.00  0.00     0.035 H 
ATOM     29  H   UNL A   1      34.099  23.048  21.838  1.00  0.00     0.035 H 
ATOM     30  H   UNL A   1      33.305  22.964  23.391  1.00  0.00     0.035 H 
ENDBRANCH  25  27
ENDBRANCH  24  25
ENDBRANCH  15  24
ENDBRANCH  11  14
ENDBRANCH   7  10
ENDBRANCH   4   7
ENDBRANCH   1   4
BRANCH   1  31
ATOM     31  C   UNL A   1      31.395  30.864  26.109  1.00  0.00    -0.052 C 
ATOM     32  H   UNL A   1      30.398  30.516  25.939  1.00  0.00     0.027 H 
ATOM     33  H   UNL A   1      32.040  30.855  25.254  1.00  0.00     0.027 H 
BRANCH  31  34
ATOM     34  C   UNL A   1      31.303  32.339  26.504  1.00  0.00    -0.036 C 
ATOM     35  H   UNL A   1      30.547  32.424  27.257  1.00  0.00     0.028 H 
ATOM     36  H   UNL A   1      31.095  32.857  25.591  1.00  0.00     0.028 H 
BRANCH  34  37
ATOM     37  C   UNL A   1      32.567  32.995  27.050  1.00  0.00     0.018 C 
ATOM     38  H   UNL A   1      33.269  33.096  26.249  1.00  0.00     0.049 H 
ATOM     39  H   UNL A   1      32.933  32.368  27.836  1.00  0.00     0.049 H 
BRANCH  37  40
ATOM     40  N   UNL A   1      32.336  34.307  27.625  1.00  0.00    -0.352 N 
ATOM     41  C   UNL A   1      32.965  34.954  28.662  1.00  0.00     0.251 C 
ATOM     42  H   UNL A   1      31.610  34.819  27.202  1.00  0.00     0.163 HD
ATOM     43  O   UNL A   1      32.528  36.036  29.047  1.00  0.00    -0.269 OA
BRANCH  41  44
ATOM     44  C   UNL A   1      34.142  34.365  29.347  1.00  0.00     0.039 A 
ATOM     45  C   UNL A   1      33.933  33.670  30.545  1.00  0.00    -0.049 A 
ATOM     46  C   UNL A   1      35.445  34.529  28.870  1.00  0.00    -0.049 A 
ATOM     47  C   UNL A   1      35.012  33.099  31.228  1.00  0.00    -0.053 A 
ATOM     48  H   UNL A   1      32.978  33.579  30.926  1.00  0.00     0.063 H 
ATOM     49  C   UNL A   1      36.513  33.897  29.511  1.00  0.00    -0.053 A 
ATOM     50  H   UNL A   1      35.619  35.119  28.040  1.00  0.00     0.063 H 
ATOM     51  C   UNL A   1      36.310  33.182  30.702  1.00  0.00    -0.014 A 
ATOM     52  H   UNL A   1      34.853  32.613  32.124  1.00  0.00     0.063 H 
ATOM     53  H   UNL A   1      37.460  33.957  29.105  1.00  0.00     0.063 H 
BRANCH  51  54
ATOM     54  C   UNL A   1      37.463  32.540  31.391  1.00  0.00     0.031 A 
ATOM     55  C   UNL A   1      38.183  31.381  30.755  1.00  0.00     0.074 A 
ATOM     56  C   UNL A   1      37.827  32.958  32.619  1.00  0.00     0.049 A 
ATOM     57  N   UNL A   1      39.165  30.654  31.228  1.00  0.00    -0.248 NA
ATOM     58  C   UNL A   1      37.718  30.968  29.423  1.00  0.00    -0.034 C 
ATOM     59  C   UNL A   1      37.179  34.032  33.371  1.00  0.00    -0.036 A 
ATOM     60  N   UNL A   1      38.819  32.516  33.460  1.00  0.00    -0.354 N 
ATOM     61  C   UNL A   1      39.419  29.688  30.262  1.00  0.00     0.074 A 
ATOM     62  C   UNL A   1      38.456  29.890  29.202  1.00  0.00    -0.034 C 
ATOM     63  H   UNL A   1      37.003  31.403  28.819  1.00  0.00     0.065 H 
ATOM     64  C   UNL A   1      37.794  34.174  34.555  1.00  0.00    -0.036 A 
ATOM     65  H   UNL A   1      36.377  34.594  33.043  1.00  0.00     0.065 H 
ATOM     66  C   UNL A   1      38.859  33.179  34.661  1.00  0.00     0.049 A 
ATOM     67  H   UNL A   1      39.443  31.791  33.222  1.00  0.00     0.167 HD
ATOM     68  C   UNL A   1      40.381  28.734  30.251  1.00  0.00     0.037 A 
ATOM     69  H   UNL A   1      38.356  29.275  28.379  1.00  0.00     0.065 H 
ATOM     70  H   UNL A   1      37.554  34.872  35.275  1.00  0.00     0.065 H 
ATOM     71  C   UNL A   1      39.655  33.003  35.733  1.00  0.00     0.037 A 
ATOM     72  C   UNL A   1      41.359  28.552  31.292  1.00  0.00     0.049 A 
ATOM     73  C   UNL A   1      40.730  31.949  35.690  1.00  0.00     0.074 A 
ATOM     74  C   UNL A   1      42.421  27.667  31.334  1.00  0.00    -0.036 A 
ATOM     75  N   UNL A   1      41.389  29.268  32.481  1.00  0.00    -0.354 N 
ATOM     76  N   UNL A   1      41.011  31.094  34.738  1.00  0.00    -0.248 NA
ATOM     77  C   UNL A   1      41.604  31.845  36.868  1.00  0.00    -0.034 C 
ATOM     78  C   UNL A   1      43.065  27.812  32.569  1.00  0.00    -0.036 A 
ATOM     79  H   UNL A   1      42.692  27.011  30.585  1.00  0.00     0.065 H 
ATOM     80  C   UNL A   1      42.436  28.825  33.274  1.00  0.00     0.049 A 
ATOM     81  H   UNL A   1      40.760  29.985  32.724  1.00  0.00     0.167 HD
ATOM     82  C   UNL A   1      42.104  30.366  35.189  1.00  0.00     0.074 A 
ATOM     83  C   UNL A   1      42.445  30.890  36.495  1.00  0.00    -0.034 C 
ATOM     84  H   UNL A   1      41.571  32.376  37.752  1.00  0.00     0.065 H 
ATOM     85  H   UNL A   1      43.872  27.259  32.898  1.00  0.00     0.065 H 
ATOM     86  C   UNL A   1      42.763  29.352  34.575  1.00  0.00     0.037 A 
ATOM     87  H   UNL A   1      43.241  30.563  37.063  1.00  0.00     0.065 H 
BRANCH  68  88
ATOM     88  C   UNL A   1      40.420  27.805  29.069  1.00  0.00     0.064 A 
ATOM     89  C   UNL A   1      41.200  28.083  27.935  1.00  0.00     0.173 A 
ATOM     90  C   UNL A   1      39.680  26.612  29.078  1.00  0.00     0.173 A 
ATOM     91  F   UNL A   1      41.919  29.214  27.872  1.00  0.00    -0.203 F 
ATOM     92  C   UNL A   1      41.206  27.224  26.841  1.00  0.00     0.198 A 
ATOM     93  C   UNL A   1      39.715  25.739  27.993  1.00  0.00     0.198 A 
ATOM     94  F   UNL A   1      38.923  26.292  30.138  1.00  0.00    -0.203 F 
ATOM     95  F   UNL A   1      41.911  27.541  25.746  1.00  0.00    -0.200 F 
ATOM     96  C   UNL A   1      40.468  26.050  26.871  1.00  0.00     0.200 A 
ATOM     97  F   UNL A   1      39.012  24.599  28.031  1.00  0.00    -0.200 F 
ATOM     98  F   UNL A   1      40.474  25.223  25.817  1.00  0.00    -0.200 F 
ENDBRANCH  68  88
BRANCH  71  99
ATOM     99  C   UNL A   1      39.473  33.861  36.932  1.00  0.00     0.064 A 
ATOM    100  C   UNL A   1      38.720  33.421  38.028  1.00  0.00     0.173 A 
ATOM    101  C   UNL A   1      40.067  35.130  37.013  1.00  0.00     0.173 A 
ATOM    102  F   UNL A   1      38.116  32.224  37.988  1.00  0.00    -0.203 F 
ATOM    103  C   UNL A   1      38.557  34.222  39.157  1.00  0.00     0.198 A 
ATOM    104  C   UNL A   1      39.926  35.917  38.153  1.00  0.00     0.198 A 
ATOM    105  F   UNL A   1      40.802  35.593  35.993  1.00  0.00    -0.203 F 
ATOM    106  F   UNL A   1      37.802  33.792  40.178  1.00  0.00    -0.200 F 
ATOM    107  C   UNL A   1      39.167  35.465  39.222  1.00  0.00     0.200 A 
ATOM    108  F   UNL A   1      40.530  37.113  38.218  1.00  0.00    -0.200 F 
ATOM    109  F   UNL A   1      39.019  36.230  40.312  1.00  0.00    -0.200 F 
ENDBRANCH  71  99
BRANCH  86 110
ATOM    110  C   UNL A   1      43.935  28.755  35.299  1.00  0.00     0.064 A 
ATOM    111  C   UNL A   1      43.785  27.658  36.159  1.00  0.00     0.173 A 
ATOM    112  C   UNL A   1      45.228  29.259  35.097  1.00  0.00     0.173 A 
ATOM    113  F   UNL A   1      42.568  27.148  36.398  1.00  0.00    -0.203 F 
ATOM    114  C   UNL A   1      44.885  27.102  36.810  1.00  0.00     0.198 A 
ATOM    115  C   UNL A   1      46.329  28.683  35.726  1.00  0.00     0.198 A 
ATOM    116  F   UNL A   1      45.427  30.304  34.279  1.00  0.00    -0.203 F 
ATOM    117  F   UNL A   1      44.711  26.084  37.663  1.00  0.00    -0.200 F 
ATOM    118  C   UNL A   1      46.156  27.611  36.587  1.00  0.00     0.200 A 
ATOM    119  F   UNL A   1      47.558  29.168  35.499  1.00  0.00    -0.200 F 
ATOM    120  F   UNL A   1      47.213  27.071  37.208  1.00  0.00    -0.200 F 
ENDBRANCH  86 110
ENDBRANCH  51  54
ENDBRANCH  41  44
ENDBRANCH  37  40
ENDBRANCH  34  37
ENDBRANCH  31  34
ENDBRANCH   1  31
TORSDOF 16
ENDMDL
MODEL 4
REMARK VINA RESULT:     -10.8      1.222      7.613
REMARK SMILES CC(=O)Oc1ccccc1C(=O)NCCCCCCNC(=O)c1ccc(-c2c3nc(c(-c4c(F)c(F)c(F)c(F)c4F)c4ccc([nH]4)c(-c4c(F)c(F)c(F)c(F)c4F)c4nc(c(-c5c(F)c(F)c(F)c(F)c5F)c5ccc2[nH]5)C=C4)C=C3)cc1
REMARK SMILES IDX 16 1 15 4 14 7 13 10 11 11 12 12 10 14 5 15 6 16 7 17 9 19
REMARK SMILES IDX 8 20 4 24 2 25 3 26 1 27 17 31 18 34 19 37 20 40 21 41 22 43
REMARK SMILES IDX 23 44 24 45 85 46 25 47 84 49 26 51 27 54 28 55 78 56 29 57
REMARK SMILES IDX 83 58 77 59 79 60 30 61 82 62 76 64 75 66 31 68 63 71 43 72
REMARK SMILES IDX 62 73 44 74 47 75 61 76 80 77 45 78 46 80 60 82 81 83 48 86
REMARK SMILES IDX 32 88 33 89 41 90 34 91 35 92 39 93 42 94 36 95 37 96 40 97
REMARK SMILES IDX 38 98 64 99 65 100 73 101 66 102 67 103 71 104 74 105 68 106
REMARK SMILES IDX 69 107 72 108 70 109 49 110 50 111 58 112 51 113 52 114
REMARK SMILES IDX 56 115 59 116 53 117 54 118 57 119 55 120
REMARK H PARENT 16 2 16 3 15 5 15 6 14 8 14 9 13 13 6 18 7 21 9 22 8 23 1 28
REMARK H PARENT 1 29 1 30 17 32 17 33 18 35 18 36 19 38 19 39 20 42 24 48
REMARK H PARENT 85 50 25 52 84 53 83 63 77 65 79 67 82 69 76 70 44 79 47 81
REMARK H PARENT 80 84 45 85 81 87
REMARK Flexibility Score: inf
ROOT
ATOM      1  C   UNL A   1      32.156  29.779  27.127  1.00  0.00    -0.052 C 
ATOM      2  H   UNL A   1      32.030  30.152  28.123  1.00  0.00     0.027 H 
ATOM      3  H   UNL A   1      31.675  28.848  26.913  1.00  0.00     0.027 H 
ENDROOT
BRANCH   1   4
ATOM      4  C   UNL A   1      33.648  29.489  26.935  1.00  0.00    -0.036 C 
ATOM      5  H   UNL A   1      34.109  30.390  26.586  1.00  0.00     0.028 H 
ATOM      6  H   UNL A   1      33.984  29.144  27.891  1.00  0.00     0.028 H 
BRANCH   4   7
ATOM      7  C   UNL A   1      34.030  28.376  25.964  1.00  0.00     0.018 C 
ATOM      8  H   UNL A   1      35.015  28.042  26.217  1.00  0.00     0.049 H 
ATOM      9  H   UNL A   1      33.277  27.623  26.072  1.00  0.00     0.049 H 
BRANCH   7  10
ATOM     10  N   UNL A   1      34.028  28.737  24.569  1.00  0.00    -0.352 N 
ATOM     11  C   UNL A   1      33.125  28.480  23.564  1.00  0.00     0.255 C 
ATOM     12  O   UNL A   1      33.396  28.960  22.460  1.00  0.00    -0.269 OA
ATOM     13  H   UNL A   1      34.812  29.259  24.286  1.00  0.00     0.163 HD
BRANCH  11  14
ATOM     14  C   UNL A   1      31.899  27.624  23.681  1.00  0.00     0.082 A 
ATOM     15  C   UNL A   1      30.557  28.019  23.749  1.00  0.00     0.143 A 
ATOM     16  C   UNL A   1      29.520  27.077  23.874  1.00  0.00    -0.018 A 
ATOM     17  C   UNL A   1      29.800  25.715  23.875  1.00  0.00    -0.059 A 
ATOM     18  H   UNL A   1      28.544  27.400  23.965  1.00  0.00     0.066 H 
ATOM     19  C   UNL A   1      32.149  26.233  23.665  1.00  0.00    -0.046 A 
ATOM     20  C   UNL A   1      31.117  25.291  23.760  1.00  0.00    -0.061 A 
ATOM     21  H   UNL A   1      29.036  25.026  23.962  1.00  0.00     0.062 H 
ATOM     22  H   UNL A   1      33.122  25.901  23.580  1.00  0.00     0.063 H 
ATOM     23  H   UNL A   1      31.335  24.283  23.743  1.00  0.00     0.062 H 
BRANCH  15  24
ATOM     24  O   UNL A   1      30.138  29.350  23.782  1.00  0.00    -0.426 OA
BRANCH  24  25
ATOM     25  C   UNL A   1      29.437  29.786  22.666  1.00  0.00     0.308 C 
ATOM     26  O   UNL A   1      29.789  29.700  21.500  1.00  0.00    -0.252 OA
BRANCH  25  27
ATOM     27  C   UNL A   1      28.139  30.391  23.124  1.00  0.00     0.034 C 
ATOM     28  H   UNL A   1      27.344  30.046  22.497  1.00  0.00     0.035 H 
ATOM     29  H   UNL A   1      28.202  31.457  23.064  1.00  0.00     0.035 H 
ATOM     30  H   UNL A   1      27.949  30.101  24.136  1.00  0.00     0.035 H 
ENDBRANCH  25  27
ENDBRANCH  24  25
ENDBRANCH  15  24
ENDBRANCH  11  14
ENDBRANCH   7  10
ENDBRANCH   4   7
ENDBRANCH   1   4
BRANCH   1  31
ATOM     31  C   UNL A   1      31.484  30.780  26.181  1.00  0.00    -0.052 C 
ATOM     32  H   UNL A   1      30.493  30.426  25.991  1.00  0.00     0.027 H 
ATOM     33  H   UNL A   1      32.131  30.822  25.328  1.00  0.00     0.027 H 
BRANCH  31  34
ATOM     34  C   UNL A   1      31.368  32.233  26.646  1.00  0.00    -0.036 C 
ATOM     35  H   UNL A   1      30.786  32.238  27.544  1.00  0.00     0.028 H 
ATOM     36  H   UNL A   1      30.933  32.754  25.819  1.00  0.00     0.028 H 
BRANCH  34  37
ATOM     37  C   UNL A   1      32.667  32.977  26.940  1.00  0.00     0.018 C 
ATOM     38  H   UNL A   1      33.163  33.171  26.011  1.00  0.00     0.049 H 
ATOM     39  H   UNL A   1      33.247  32.354  27.588  1.00  0.00     0.049 H 
BRANCH  37  40
ATOM     40  N   UNL A   1      32.469  34.239  27.627  1.00  0.00    -0.352 N 
ATOM     41  C   UNL A   1      33.113  34.778  28.714  1.00  0.00     0.251 C 
ATOM     42  H   UNL A   1      31.755  34.803  27.251  1.00  0.00     0.163 HD
ATOM     43  O   UNL A   1      32.703  35.833  29.193  1.00  0.00    -0.269 OA
BRANCH  41  44
ATOM     44  C   UNL A   1      34.276  34.104  29.342  1.00  0.00     0.039 A 
ATOM     45  C   UNL A   1      34.030  33.089  30.276  1.00  0.00    -0.049 A 
ATOM     46  C   UNL A   1      35.594  34.484  29.078  1.00  0.00    -0.049 A 
ATOM     47  C   UNL A   1      35.094  32.425  30.896  1.00  0.00    -0.053 A 
ATOM     48  H   UNL A   1      33.058  32.830  30.508  1.00  0.00     0.063 H 
ATOM     49  C   UNL A   1      36.657  33.773  29.640  1.00  0.00    -0.053 A 
ATOM     50  H   UNL A   1      35.784  35.292  28.464  1.00  0.00     0.063 H 
ATOM     51  C   UNL A   1      36.419  32.741  30.562  1.00  0.00    -0.014 A 
ATOM     52  H   UNL A   1      34.903  31.698  31.602  1.00  0.00     0.063 H 
ATOM     53  H   UNL A   1      37.626  34.009  29.375  1.00  0.00     0.063 H 
BRANCH  51  54
ATOM     54  C   UNL A   1      37.562  32.013  31.177  1.00  0.00     0.031 A 
ATOM     55  C   UNL A   1      38.044  32.376  32.556  1.00  0.00     0.074 A 
ATOM     56  C   UNL A   1      38.210  31.064  30.474  1.00  0.00     0.049 A 
ATOM     57  N   UNL A   1      39.061  31.901  33.232  1.00  0.00    -0.248 NA
ATOM     58  C   UNL A   1      37.301  33.434  33.256  1.00  0.00    -0.034 C 
ATOM     59  C   UNL A   1      37.881  30.654  29.108  1.00  0.00    -0.036 A 
ATOM     60  N   UNL A   1      39.292  30.285  30.802  1.00  0.00    -0.354 N 
ATOM     61  C   UNL A   1      39.091  32.615  34.423  1.00  0.00     0.074 A 
ATOM     62  C   UNL A   1      38.023  33.589  34.356  1.00  0.00    -0.034 C 
ATOM     63  H   UNL A   1      36.443  33.928  32.965  1.00  0.00     0.065 H 
ATOM     64  C   UNL A   1      38.734  29.695  28.720  1.00  0.00    -0.036 A 
ATOM     65  H   UNL A   1      37.113  31.041  28.536  1.00  0.00     0.065 H 
ATOM     66  C   UNL A   1      39.691  29.443  29.794  1.00  0.00     0.049 A 
ATOM     67  H   UNL A   1      39.739  30.326  31.679  1.00  0.00     0.167 HD
ATOM     68  C   UNL A   1      39.918  32.457  35.485  1.00  0.00     0.037 A 
ATOM     69  H   UNL A   1      37.846  34.311  35.072  1.00  0.00     0.065 H 
ATOM     70  H   UNL A   1      38.717  29.212  27.808  1.00  0.00     0.065 H 
ATOM     71  C   UNL A   1      40.717  28.573  29.734  1.00  0.00     0.037 A 
ATOM     72  C   UNL A   1      40.960  31.468  35.564  1.00  0.00     0.049 A 
ATOM     73  C   UNL A   1      41.612  28.401  30.933  1.00  0.00     0.074 A 
ATOM     74  C   UNL A   1      41.798  31.178  36.627  1.00  0.00    -0.036 A 
ATOM     75  N   UNL A   1      41.313  30.607  34.534  1.00  0.00    -0.354 N 
ATOM     76  N   UNL A   1      41.580  29.027  32.084  1.00  0.00    -0.248 NA
ATOM     77  C   UNL A   1      42.677  27.394  30.826  1.00  0.00    -0.034 C 
ATOM     78  C   UNL A   1      42.689  30.177  36.224  1.00  0.00    -0.036 A 
ATOM     79  H   UNL A   1      41.771  31.624  37.557  1.00  0.00     0.065 H 
ATOM     80  C   UNL A   1      42.373  29.805  34.927  1.00  0.00     0.049 A 
ATOM     81  H   UNL A   1      40.874  30.572  33.653  1.00  0.00     0.167 HD
ATOM     82  C   UNL A   1      42.603  28.478  32.845  1.00  0.00     0.074 A 
ATOM     83  C   UNL A   1      43.228  27.456  32.031  1.00  0.00    -0.034 C 
ATOM     84  H   UNL A   1      42.930  26.796  30.024  1.00  0.00     0.065 H 
ATOM     85  H   UNL A   1      43.452  29.782  36.796  1.00  0.00     0.065 H 
ATOM     86  C   UNL A   1      42.990  28.795  34.106  1.00  0.00     0.037 A 
ATOM     87  H   UNL A   1      44.003  26.853  32.347  1.00  0.00     0.065 H 
BRANCH  68  88
ATOM     88  C   UNL A   1      39.729  33.386  36.652  1.00  0.00     0.064 A 
ATOM     89  C   UNL A   1      38.849  33.084  37.703  1.00  0.00     0.173 A 
ATOM     90  C   UNL A   1      40.451  34.588  36.728  1.00  0.00     0.173 A 
ATOM     91  F   UNL A   1      38.129  31.952  37.676  1.00  0.00    -0.203 F 
ATOM     92  C   UNL A   1      38.669  33.966  38.765  1.00  0.00     0.198 A 
ATOM     93  C   UNL A   1      40.292  35.452  37.809  1.00  0.00     0.198 A 
ATOM     94  F   UNL A   1      41.312  34.924  35.756  1.00  0.00    -0.203 F 
ATOM     95  F   UNL A   1      37.779  33.683  39.726  1.00  0.00    -0.200 F 
ATOM     96  C   UNL A   1      39.394  35.147  38.820  1.00  0.00     0.200 A 
ATOM     97  F   UNL A   1      41.004  36.586  37.867  1.00  0.00    -0.200 F 
ATOM     98  F   UNL A   1      39.220  35.996  39.842  1.00  0.00    -0.200 F 
ENDBRANCH  68  88
BRANCH  71  99
ATOM     99  C   UNL A   1      40.939  27.784  28.495  1.00  0.00     0.064 A 
ATOM    100  C   UNL A   1      40.288  26.561  28.290  1.00  0.00     0.173 A 
ATOM    101  C   UNL A   1      41.790  28.250  27.481  1.00  0.00     0.173 A 
ATOM    102  F   UNL A   1      39.480  26.065  29.240  1.00  0.00    -0.203 F 
ATOM    103  C   UNL A   1      40.487  25.826  27.123  1.00  0.00     0.198 A 
ATOM    104  C   UNL A   1      41.967  27.528  26.303  1.00  0.00     0.198 A 
ATOM    105  F   UNL A   1      42.431  29.418  27.626  1.00  0.00    -0.203 F 
ATOM    106  F   UNL A   1      39.880  24.641  26.967  1.00  0.00    -0.200 F 
ATOM    107  C   UNL A   1      41.321  26.314  26.128  1.00  0.00     0.200 A 
ATOM    108  F   UNL A   1      42.761  28.010  25.337  1.00  0.00    -0.200 F 
ATOM    109  F   UNL A   1      41.504  25.612  25.001  1.00  0.00    -0.200 F 
ENDBRANCH  71  99
BRANCH  86 110
ATOM    110  C   UNL A   1      44.130  28.014  34.693  1.00  0.00     0.064 A 
ATOM    111  C   UNL A   1      45.455  28.463  34.594  1.00  0.00     0.173 A 
ATOM    112  C   UNL A   1      43.890  26.825  35.397  1.00  0.00     0.173 A 
ATOM    113  F   UNL A   1      45.739  29.586  33.918  1.00  0.00    -0.203 F 
ATOM    114  C   UNL A   1      46.501  27.738  35.160  1.00  0.00     0.198 A 
ATOM    115  C   UNL A   1      44.935  26.117  35.987  1.00  0.00     0.198 A 
ATOM    116  F   UNL A   1      42.641  26.355  35.526  1.00  0.00    -0.203 F 
ATOM    117  F   UNL A   1      47.764  28.162  35.014  1.00  0.00    -0.200 F 
ATOM    118  C   UNL A   1      46.239  26.570  35.862  1.00  0.00     0.200 A 
ATOM    119  F   UNL A   1      44.678  24.997  36.675  1.00  0.00    -0.200 F 
ATOM    120  F   UNL A   1      47.246  25.878  36.411  1.00  0.00    -0.200 F 
ENDBRANCH  86 110
ENDBRANCH  51  54
ENDBRANCH  41  44
ENDBRANCH  37  40
ENDBRANCH  34  37
ENDBRANCH  31  34
ENDBRANCH   1  31
TORSDOF 16
ENDMDL
MODEL 5
REMARK VINA RESULT:     -10.7      1.080      7.677
REMARK SMILES CC(=O)Oc1ccccc1C(=O)NCCCCCCNC(=O)c1ccc(-c2c3nc(c(-c4c(F)c(F)c(F)c(F)c4F)c4ccc([nH]4)c(-c4c(F)c(F)c(F)c(F)c4F)c4nc(c(-c5c(F)c(F)c(F)c(F)c5F)c5ccc2[nH]5)C=C4)C=C3)cc1
REMARK SMILES IDX 16 1 15 4 14 7 13 10 11 11 12 12 10 14 5 15 6 16 7 17 9 19
REMARK SMILES IDX 8 20 4 24 2 25 3 26 1 27 17 31 18 34 19 37 20 40 21 41 22 43
REMARK SMILES IDX 23 44 24 45 85 46 25 47 84 49 26 51 27 54 28 55 78 56 29 57
REMARK SMILES IDX 83 58 77 59 79 60 30 61 82 62 76 64 75 66 31 68 63 71 43 72
REMARK SMILES IDX 62 73 44 74 47 75 61 76 80 77 45 78 46 80 60 82 81 83 48 86
REMARK SMILES IDX 32 88 33 89 41 90 34 91 35 92 39 93 42 94 36 95 37 96 40 97
REMARK SMILES IDX 38 98 64 99 65 100 73 101 66 102 67 103 71 104 74 105 68 106
REMARK SMILES IDX 69 107 72 108 70 109 49 110 50 111 58 112 51 113 52 114
REMARK SMILES IDX 56 115 59 116 53 117 54 118 57 119 55 120
REMARK H PARENT 16 2 16 3 15 5 15 6 14 8 14 9 13 13 6 18 7 21 9 22 8 23 1 28
REMARK H PARENT 1 29 1 30 17 32 17 33 18 35 18 36 19 38 19 39 20 42 24 48
REMARK H PARENT 85 50 25 52 84 53 83 63 77 65 79 67 82 69 76 70 44 79 47 81
REMARK H PARENT 80 84 45 85 81 87
REMARK Flexibility Score: inf
ROOT
ATOM      1  C   UNL A   1      31.939  29.768  26.967  1.00  0.00    -0.052 C 
ATOM      2  H   UNL A   1      31.620  29.935  27.975  1.00  0.00     0.027 H 
ATOM      3  H   UNL A   1      31.549  28.893  26.492  1.00  0.00     0.027 H 
ENDROOT
BRANCH   1   4
ATOM      4  C   UNL A   1      33.454  29.539  27.002  1.00  0.00    -0.036 C 
ATOM      5  H   UNL A   1      33.926  30.470  26.766  1.00  0.00     0.028 H 
ATOM      6  H   UNL A   1      33.650  29.162  27.984  1.00  0.00     0.028 H 
BRANCH   4   7
ATOM      7  C   UNL A   1      34.028  28.485  26.060  1.00  0.00     0.018 C 
ATOM      8  H   UNL A   1      35.032  28.280  26.368  1.00  0.00     0.049 H 
ATOM      9  H   UNL A   1      33.373  27.642  26.130  1.00  0.00     0.049 H 
BRANCH   7  10
ATOM     10  N   UNL A   1      34.057  28.845  24.665  1.00  0.00    -0.352 N 
ATOM     11  C   UNL A   1      33.203  28.544  23.630  1.00  0.00     0.255 C 
ATOM     12  O   UNL A   1      33.489  29.036  22.534  1.00  0.00    -0.269 OA
ATOM     13  H   UNL A   1      34.825  29.404  24.408  1.00  0.00     0.163 HD
BRANCH  11  14
ATOM     14  C   UNL A   1      32.016  27.629  23.706  1.00  0.00     0.082 A 
ATOM     15  C   UNL A   1      31.991  26.235  23.841  1.00  0.00     0.143 A 
ATOM     16  C   UNL A   1      30.779  25.524  23.881  1.00  0.00    -0.018 A 
ATOM     17  C   UNL A   1      29.563  26.197  23.844  1.00  0.00    -0.059 A 
ATOM     18  H   UNL A   1      30.793  24.493  23.938  1.00  0.00     0.066 H 
ATOM     19  C   UNL A   1      30.765  28.286  23.691  1.00  0.00    -0.046 A 
ATOM     20  C   UNL A   1      29.556  27.583  23.760  1.00  0.00    -0.061 A 
ATOM     21  H   UNL A   1      28.675  25.672  23.878  1.00  0.00     0.062 H 
ATOM     22  H   UNL A   1      30.742  29.315  23.628  1.00  0.00     0.063 H 
ATOM     23  H   UNL A   1      28.660  28.095  23.748  1.00  0.00     0.062 H 
BRANCH  15  24
ATOM     24  O   UNL A   1      33.135  25.435  23.865  1.00  0.00    -0.426 OA
BRANCH  24  25
ATOM     25  C   UNL A   1      33.552  24.949  22.633  1.00  0.00     0.308 C 
ATOM     26  O   UNL A   1      33.742  25.597  21.616  1.00  0.00    -0.252 OA
BRANCH  25  27
ATOM     27  C   UNL A   1      33.746  23.463  22.748  1.00  0.00     0.034 C 
ATOM     28  H   UNL A   1      34.450  23.137  22.011  1.00  0.00     0.035 H 
ATOM     29  H   UNL A   1      32.811  22.968  22.590  1.00  0.00     0.035 H 
ATOM     30  H   UNL A   1      34.114  23.226  23.723  1.00  0.00     0.035 H 
ENDBRANCH  25  27
ENDBRANCH  24  25
ENDBRANCH  15  24
ENDBRANCH  11  14
ENDBRANCH   7  10
ENDBRANCH   4   7
ENDBRANCH   1   4
BRANCH   1  31
ATOM     31  C   UNL A   1      31.402  30.930  26.124  1.00  0.00    -0.052 C 
ATOM     32  H   UNL A   1      30.422  30.658  25.792  1.00  0.00     0.027 H 
ATOM     33  H   UNL A   1      32.131  31.062  25.350  1.00  0.00     0.027 H 
BRANCH  31  34
ATOM     34  C   UNL A   1      31.294  32.303  26.789  1.00  0.00    -0.036 C 
ATOM     35  H   UNL A   1      30.869  32.157  27.760  1.00  0.00     0.028 H 
ATOM     36  H   UNL A   1      30.701  32.889  26.118  1.00  0.00     0.028 H 
BRANCH  34  37
ATOM     37  C   UNL A   1      32.585  33.095  26.968  1.00  0.00     0.018 C 
ATOM     38  H   UNL A   1      33.001  33.288  26.001  1.00  0.00     0.049 H 
ATOM     39  H   UNL A   1      33.234  32.503  27.579  1.00  0.00     0.049 H 
BRANCH  37  40
ATOM     40  N   UNL A   1      32.397  34.362  27.649  1.00  0.00    -0.352 N 
ATOM     41  C   UNL A   1      33.059  34.909  28.722  1.00  0.00     0.251 C 
ATOM     42  H   UNL A   1      31.678  34.924  27.280  1.00  0.00     0.163 HD
ATOM     43  O   UNL A   1      32.657  35.967  29.199  1.00  0.00    -0.269 OA
BRANCH  41  44
ATOM     44  C   UNL A   1      34.231  34.240  29.337  1.00  0.00     0.039 A 
ATOM     45  C   UNL A   1      34.006  33.347  30.393  1.00  0.00    -0.049 A 
ATOM     46  C   UNL A   1      35.542  34.512  28.939  1.00  0.00    -0.049 A 
ATOM     47  C   UNL A   1      35.080  32.692  31.006  1.00  0.00    -0.053 A 
ATOM     48  H   UNL A   1      33.044  33.171  30.720  1.00  0.00     0.063 H 
ATOM     49  C   UNL A   1      36.608  33.805  29.501  1.00  0.00    -0.053 A 
ATOM     50  H   UNL A   1      35.724  35.237  28.228  1.00  0.00     0.063 H 
ATOM     51  C   UNL A   1      36.391  32.893  30.546  1.00  0.00    -0.014 A 
ATOM     52  H   UNL A   1      34.908  32.057  31.800  1.00  0.00     0.063 H 
ATOM     53  H   UNL A   1      37.565  33.954  29.143  1.00  0.00     0.063 H 
BRANCH  51  54
ATOM     54  C   UNL A   1      37.539  32.169  31.156  1.00  0.00     0.031 A 
ATOM     55  C   UNL A   1      38.031  32.540  32.529  1.00  0.00     0.074 A 
ATOM     56  C   UNL A   1      38.183  31.218  30.452  1.00  0.00     0.049 A 
ATOM     57  N   UNL A   1      39.054  32.069  33.199  1.00  0.00    -0.248 NA
ATOM     58  C   UNL A   1      37.292  33.601  33.229  1.00  0.00    -0.034 C 
ATOM     59  C   UNL A   1      37.843  30.801  29.091  1.00  0.00    -0.036 A 
ATOM     60  N   UNL A   1      39.268  30.442  30.776  1.00  0.00    -0.354 N 
ATOM     61  C   UNL A   1      39.092  32.789  34.387  1.00  0.00     0.074 A 
ATOM     62  C   UNL A   1      38.022  33.762  34.323  1.00  0.00    -0.034 C 
ATOM     63  H   UNL A   1      36.431  34.091  32.943  1.00  0.00     0.065 H 
ATOM     64  C   UNL A   1      38.695  29.841  28.701  1.00  0.00    -0.036 A 
ATOM     65  H   UNL A   1      37.071  31.184  28.523  1.00  0.00     0.065 H 
ATOM     66  C   UNL A   1      39.661  29.595  29.768  1.00  0.00     0.049 A 
ATOM     67  H   UNL A   1      39.723  30.488  31.649  1.00  0.00     0.167 HD
ATOM     68  C   UNL A   1      39.928  32.639  35.443  1.00  0.00     0.037 A 
ATOM     69  H   UNL A   1      37.850  34.487  35.037  1.00  0.00     0.065 H 
ATOM     70  H   UNL A   1      38.672  29.354  27.791  1.00  0.00     0.065 H 
ATOM     71  C   UNL A   1      40.688  28.727  29.705  1.00  0.00     0.037 A 
ATOM     72  C   UNL A   1      40.972  31.651  35.519  1.00  0.00     0.049 A 
ATOM     73  C   UNL A   1      41.592  28.562  30.897  1.00  0.00     0.074 A 
ATOM     74  C   UNL A   1      41.818  31.367  36.577  1.00  0.00    -0.036 A 
ATOM     75  N   UNL A   1      41.318  30.786  34.490  1.00  0.00    -0.354 N 
ATOM     76  N   UNL A   1      41.569  29.193  32.046  1.00  0.00    -0.248 NA
ATOM     77  C   UNL A   1      42.658  27.556  30.787  1.00  0.00    -0.034 C 
ATOM     78  C   UNL A   1      42.708  30.365  36.171  1.00  0.00    -0.036 A 
ATOM     79  H   UNL A   1      41.798  31.818  37.505  1.00  0.00     0.065 H 
ATOM     80  C   UNL A   1      42.382  29.987  34.879  1.00  0.00     0.049 A 
ATOM     81  H   UNL A   1      40.872  30.745  33.613  1.00  0.00     0.167 HD
ATOM     82  C   UNL A   1      42.598  28.650  32.801  1.00  0.00     0.074 A 
ATOM     83  C   UNL A   1      43.218  27.625  31.988  1.00  0.00    -0.034 C 
ATOM     84  H   UNL A   1      42.906  26.954  29.986  1.00  0.00     0.065 H 
ATOM     85  H   UNL A   1      43.476  29.975  36.739  1.00  0.00     0.065 H 
ATOM     86  C   UNL A   1      42.994  28.974  34.057  1.00  0.00     0.037 A 
ATOM     87  H   UNL A   1      43.996  27.025  32.301  1.00  0.00     0.065 H 
BRANCH  68  88
ATOM     88  C   UNL A   1      39.746  33.573  36.607  1.00  0.00     0.064 A 
ATOM     89  C   UNL A   1      38.897  33.261  37.680  1.00  0.00     0.173 A 
ATOM     90  C   UNL A   1      40.446  34.789  36.658  1.00  0.00     0.173 A 
ATOM     91  F   UNL A   1      38.199  32.116  37.677  1.00  0.00    -0.203 F 
ATOM     92  C   UNL A   1      38.723  34.148  38.738  1.00  0.00     0.198 A 
ATOM     93  C   UNL A   1      40.294  35.659  37.735  1.00  0.00     0.198 A 
ATOM     94  F   UNL A   1      41.278  35.134  35.663  1.00  0.00    -0.203 F 
ATOM     95  F   UNL A   1      37.860  33.856  39.721  1.00  0.00    -0.200 F 
ATOM     96  C   UNL A   1      39.426  35.344  38.768  1.00  0.00     0.200 A 
ATOM     97  F   UNL A   1      40.984  36.807  37.768  1.00  0.00    -0.200 F 
ATOM     98  F   UNL A   1      39.257  36.197  39.788  1.00  0.00    -0.200 F 
ENDBRANCH  68  88
BRANCH  71  99
ATOM     99  C   UNL A   1      40.901  27.932  28.468  1.00  0.00     0.064 A 
ATOM    100  C   UNL A   1      41.714  28.410  27.432  1.00  0.00     0.173 A 
ATOM    101  C   UNL A   1      40.313  26.668  28.307  1.00  0.00     0.173 A 
ATOM    102  F   UNL A   1      42.281  29.622  27.532  1.00  0.00    -0.203 F 
ATOM    103  C   UNL A   1      41.923  27.661  26.276  1.00  0.00     0.198 A 
ATOM    104  C   UNL A   1      40.544  25.908  27.163  1.00  0.00     0.198 A 
ATOM    105  F   UNL A   1      39.532  26.163  29.272  1.00  0.00    -0.203 F 
ATOM    106  F   UNL A   1      42.676  28.157  25.285  1.00  0.00    -0.200 F 
ATOM    107  C   UNL A   1      41.344  26.407  26.146  1.00  0.00     0.200 A 
ATOM    108  F   UNL A   1      39.996  24.690  27.048  1.00  0.00    -0.200 F 
ATOM    109  F   UNL A   1      41.554  25.682  25.039  1.00  0.00    -0.200 F 
ENDBRANCH  71  99
BRANCH  86 110
ATOM    110  C   UNL A   1      44.140  28.197  34.640  1.00  0.00     0.064 A 
ATOM    111  C   UNL A   1      43.937  26.987  35.319  1.00  0.00     0.173 A 
ATOM    112  C   UNL A   1      45.459  28.649  34.481  1.00  0.00     0.173 A 
ATOM    113  F   UNL A   1      42.695  26.520  35.510  1.00  0.00    -0.203 F 
ATOM    114  C   UNL A   1      45.012  26.268  35.838  1.00  0.00     0.198 A 
ATOM    115  C   UNL A   1      46.533  27.913  34.976  1.00  0.00     0.198 A 
ATOM    116  F   UNL A   1      45.708  29.797  33.835  1.00  0.00    -0.203 F 
ATOM    117  F   UNL A   1      44.791  25.138  36.522  1.00  0.00    -0.200 F 
ATOM    118  C   UNL A   1      46.308  26.728  35.660  1.00  0.00     0.200 A 
ATOM    119  F   UNL A   1      47.785  28.353  34.792  1.00  0.00    -0.200 F 
ATOM    120  F   UNL A   1      47.341  26.032  36.153  1.00  0.00    -0.200 F 
ENDBRANCH  86 110
ENDBRANCH  51  54
ENDBRANCH  41  44
ENDBRANCH  37  40
ENDBRANCH  34  37
ENDBRANCH  31  34
ENDBRANCH   1  31
TORSDOF 16
ENDMDL
MODEL 6
REMARK VINA RESULT:     -10.7      3.660     10.031
REMARK SMILES CC(=O)Oc1ccccc1C(=O)NCCCCCCNC(=O)c1ccc(-c2c3nc(c(-c4c(F)c(F)c(F)c(F)c4F)c4ccc([nH]4)c(-c4c(F)c(F)c(F)c(F)c4F)c4nc(c(-c5c(F)c(F)c(F)c(F)c5F)c5ccc2[nH]5)C=C4)C=C3)cc1
REMARK SMILES IDX 16 1 15 4 14 7 13 10 11 11 12 12 10 14 5 15 6 16 7 17 9 19
REMARK SMILES IDX 8 20 4 24 2 25 3 26 1 27 17 31 18 34 19 37 20 40 21 41 22 43
REMARK SMILES IDX 23 44 24 45 85 46 25 47 84 49 26 51 27 54 28 55 78 56 29 57
REMARK SMILES IDX 83 58 77 59 79 60 30 61 82 62 76 64 75 66 31 68 63 71 43 72
REMARK SMILES IDX 62 73 44 74 47 75 61 76 80 77 45 78 46 80 60 82 81 83 48 86
REMARK SMILES IDX 32 88 33 89 41 90 34 91 35 92 39 93 42 94 36 95 37 96 40 97
REMARK SMILES IDX 38 98 64 99 65 100 73 101 66 102 67 103 71 104 74 105 68 106
REMARK SMILES IDX 69 107 72 108 70 109 49 110 50 111 58 112 51 113 52 114
REMARK SMILES IDX 56 115 59 116 53 117 54 118 57 119 55 120
REMARK H PARENT 16 2 16 3 15 5 15 6 14 8 14 9 13 13 6 18 7 21 9 22 8 23 1 28
REMARK H PARENT 1 29 1 30 17 32 17 33 18 35 18 36 19 38 19 39 20 42 24 48
REMARK H PARENT 85 50 25 52 84 53 83 63 77 65 79 67 82 69 76 70 44 79 47 81
REMARK H PARENT 80 84 45 85 81 87
REMARK Flexibility Score: inf
ROOT
ATOM      1  C   UNL A   1      33.213  35.463  30.468  1.00  0.00    -0.052 C 
ATOM      2  H   UNL A   1      32.581  36.284  30.198  1.00  0.00     0.027 H 
ATOM      3  H   UNL A   1      32.711  34.571  30.779  1.00  0.00     0.027 H 
ENDROOT
BRANCH   1   4
ATOM      4  C   UNL A   1      34.017  35.896  31.699  1.00  0.00    -0.036 C 
ATOM      5  H   UNL A   1      35.026  36.058  31.383  1.00  0.00     0.028 H 
ATOM      6  H   UNL A   1      33.508  36.763  32.067  1.00  0.00     0.028 H 
BRANCH   4   7
ATOM      7  C   UNL A   1      34.058  34.937  32.885  1.00  0.00     0.018 C 
ATOM      8  H   UNL A   1      34.860  35.240  33.525  1.00  0.00     0.049 H 
ATOM      9  H   UNL A   1      33.093  34.997  33.343  1.00  0.00     0.049 H 
BRANCH   7  10
ATOM     10  N   UNL A   1      34.253  33.548  32.557  1.00  0.00    -0.352 N 
ATOM     11  C   UNL A   1      35.313  32.889  31.979  1.00  0.00     0.255 C 
ATOM     12  O   UNL A   1      35.187  31.667  31.856  1.00  0.00    -0.269 OA
ATOM     13  H   UNL A   1      33.492  32.967  32.787  1.00  0.00     0.163 HD
BRANCH  11  14
ATOM     14  C   UNL A   1      36.555  33.530  31.434  1.00  0.00     0.082 A 
ATOM     15  C   UNL A   1      37.480  34.349  32.092  1.00  0.00     0.143 A 
ATOM     16  C   UNL A   1      38.594  34.886  31.421  1.00  0.00    -0.018 A 
ATOM     17  C   UNL A   1      38.836  34.567  30.090  1.00  0.00    -0.059 A 
ATOM     18  H   UNL A   1      39.235  35.521  31.922  1.00  0.00     0.066 H 
ATOM     19  C   UNL A   1      36.840  33.209  30.087  1.00  0.00    -0.046 A 
ATOM     20  C   UNL A   1      37.963  33.718  29.423  1.00  0.00    -0.061 A 
ATOM     21  H   UNL A   1      39.657  34.959  29.602  1.00  0.00     0.062 H 
ATOM     22  H   UNL A   1      36.201  32.579  29.578  1.00  0.00     0.063 H 
ATOM     23  H   UNL A   1      38.142  33.461  28.440  1.00  0.00     0.062 H 
BRANCH  15  24
ATOM     24  O   UNL A   1      37.345  34.767  33.418  1.00  0.00    -0.426 OA
BRANCH  24  25
ATOM     25  C   UNL A   1      38.462  34.581  34.222  1.00  0.00     0.308 C 
ATOM     26  O   UNL A   1      39.223  35.444  34.629  1.00  0.00    -0.252 OA
BRANCH  25  27
ATOM     27  C   UNL A   1      38.591  33.115  34.527  1.00  0.00     0.034 C 
ATOM     28  H   UNL A   1      39.622  32.831  34.486  1.00  0.00     0.035 H 
ATOM     29  H   UNL A   1      38.037  32.551  33.807  1.00  0.00     0.035 H 
ATOM     30  H   UNL A   1      38.205  32.919  35.506  1.00  0.00     0.035 H 
ENDBRANCH  25  27
ENDBRANCH  24  25
ENDBRANCH  15  24
ENDBRANCH  11  14
ENDBRANCH   7  10
ENDBRANCH   4   7
ENDBRANCH   1   4
BRANCH   1  31
ATOM     31  C   UNL A   1      33.981  35.049  29.209  1.00  0.00    -0.052 C 
ATOM     32  H   UNL A   1      34.975  34.793  29.511  1.00  0.00     0.027 H 
ATOM     33  H   UNL A   1      33.900  35.892  28.554  1.00  0.00     0.027 H 
BRANCH  31  34
ATOM     34  C   UNL A   1      33.435  33.875  28.395  1.00  0.00    -0.036 C 
ATOM     35  H   UNL A   1      33.020  34.274  27.493  1.00  0.00     0.028 H 
ATOM     36  H   UNL A   1      32.733  33.393  29.043  1.00  0.00     0.028 H 
BRANCH  34  37
ATOM     37  C   UNL A   1      34.422  32.781  28.000  1.00  0.00     0.018 C 
ATOM     38  H   UNL A   1      35.085  32.610  28.823  1.00  0.00     0.049 H 
ATOM     39  H   UNL A   1      34.936  33.122  27.127  1.00  0.00     0.049 H 
BRANCH  37  40
ATOM     40  N   UNL A   1      33.785  31.523  27.656  1.00  0.00    -0.352 N 
ATOM     41  C   UNL A   1      34.284  30.244  27.630  1.00  0.00     0.251 C 
ATOM     42  H   UNL A   1      32.838  31.600  27.399  1.00  0.00     0.163 HD
ATOM     43  O   UNL A   1      33.580  29.333  27.203  1.00  0.00    -0.269 OA
BRANCH  41  44
ATOM     44  C   UNL A   1      35.665  29.938  28.080  1.00  0.00     0.039 A 
ATOM     45  C   UNL A   1      35.843  29.417  29.368  1.00  0.00    -0.049 A 
ATOM     46  C   UNL A   1      36.785  30.204  27.290  1.00  0.00    -0.049 A 
ATOM     47  C   UNL A   1      37.126  29.114  29.837  1.00  0.00    -0.053 A 
ATOM     48  H   UNL A   1      35.023  29.255  29.974  1.00  0.00     0.063 H 
ATOM     49  C   UNL A   1      38.059  29.834  27.729  1.00  0.00    -0.053 A 
ATOM     50  H   UNL A   1      36.672  30.675  26.378  1.00  0.00     0.063 H 
ATOM     51  C   UNL A   1      38.245  29.292  29.010  1.00  0.00    -0.014 A 
ATOM     52  H   UNL A   1      37.249  28.756  30.797  1.00  0.00     0.063 H 
ATOM     53  H   UNL A   1      38.871  29.960  27.103  1.00  0.00     0.063 H 
BRANCH  51  54
ATOM     54  C   UNL A   1      39.612  28.932  29.476  1.00  0.00     0.031 A 
ATOM     55  C   UNL A   1      40.365  29.844  30.406  1.00  0.00     0.074 A 
ATOM     56  C   UNL A   1      40.203  27.813  29.016  1.00  0.00     0.049 A 
ATOM     57  N   UNL A   1      41.586  29.733  30.870  1.00  0.00    -0.248 NA
ATOM     58  C   UNL A   1      39.664  31.057  30.851  1.00  0.00    -0.034 C 
ATOM     59  C   UNL A   1      39.606  26.870  28.070  1.00  0.00    -0.036 A 
ATOM     60  N   UNL A   1      41.447  27.286  29.269  1.00  0.00    -0.354 N 
ATOM     61  C   UNL A   1      41.803  30.868  31.640  1.00  0.00     0.074 A 
ATOM     62  C   UNL A   1      40.609  31.678  31.541  1.00  0.00    -0.034 C 
ATOM     63  H   UNL A   1      38.690  31.349  30.671  1.00  0.00     0.065 H 
ATOM     64  C   UNL A   1      40.476  25.879  27.829  1.00  0.00    -0.036 A 
ATOM     65  H   UNL A   1      38.664  26.955  27.655  1.00  0.00     0.065 H 
ATOM     66  C   UNL A   1      41.706  26.129  28.576  1.00  0.00     0.049 A 
ATOM     67  H   UNL A   1      42.091  27.700  29.888  1.00  0.00     0.167 HD
ATOM     68  C   UNL A   1      42.890  31.194  32.382  1.00  0.00     0.037 A 
ATOM     69  H   UNL A   1      40.506  32.619  31.954  1.00  0.00     0.065 H 
ATOM     70  H   UNL A   1      40.305  25.068  27.213  1.00  0.00     0.065 H 
ATOM     71  C   UNL A   1      42.811  25.360  28.538  1.00  0.00     0.037 A 
ATOM     72  C   UNL A   1      44.066  30.373  32.505  1.00  0.00     0.049 A 
ATOM     73  C   UNL A   1      43.999  25.732  29.384  1.00  0.00     0.074 A 
ATOM     74  C   UNL A   1      45.185  30.578  33.293  1.00  0.00    -0.036 A 
ATOM     75  N   UNL A   1      44.278  29.187  31.814  1.00  0.00    -0.354 N 
ATOM     76  N   UNL A   1      44.163  26.767  30.171  1.00  0.00    -0.248 NA
ATOM     77  C   UNL A   1      45.152  24.821  29.344  1.00  0.00    -0.034 C 
ATOM     78  C   UNL A   1      46.095  29.544  33.043  1.00  0.00    -0.036 A 
ATOM     79  H   UNL A   1      45.325  31.360  33.952  1.00  0.00     0.065 H 
ATOM     80  C   UNL A   1      45.521  28.666  32.138  1.00  0.00     0.049 A 
ATOM     81  H   UNL A   1      43.640  28.778  31.187  1.00  0.00     0.167 HD
ATOM     82  C   UNL A   1      45.423  26.623  30.735  1.00  0.00     0.074 A 
ATOM     83  C   UNL A   1      45.977  25.391  30.212  1.00  0.00    -0.034 C 
ATOM     84  H   UNL A   1      45.286  23.962  28.786  1.00  0.00     0.065 H 
ATOM     85  H   UNL A   1      47.033  29.452  33.461  1.00  0.00     0.065 H 
ATOM     86  C   UNL A   1      46.064  27.441  31.607  1.00  0.00     0.037 A 
ATOM     87  H   UNL A   1      46.895  25.006  30.481  1.00  0.00     0.065 H 
BRANCH  68  88
ATOM     88  C   UNL A   1      42.857  32.505  33.117  1.00  0.00     0.064 A 
ATOM     89  C   UNL A   1      42.304  32.618  34.402  1.00  0.00     0.173 A 
ATOM     90  C   UNL A   1      43.403  33.660  32.535  1.00  0.00     0.173 A 
ATOM     91  F   UNL A   1      41.762  31.546  35.000  1.00  0.00    -0.203 F 
ATOM     92  C   UNL A   1      42.262  33.844  35.060  1.00  0.00     0.198 A 
ATOM     93  C   UNL A   1      43.388  34.878  33.210  1.00  0.00     0.198 A 
ATOM     94  F   UNL A   1      43.952  33.608  31.313  1.00  0.00    -0.203 F 
ATOM     95  F   UNL A   1      41.674  33.939  36.260  1.00  0.00    -0.200 F 
ATOM     96  C   UNL A   1      42.808  34.973  34.466  1.00  0.00     0.200 A 
ATOM     97  F   UNL A   1      43.928  35.964  32.641  1.00  0.00    -0.200 F 
ATOM     98  F   UNL A   1      42.766  36.152  35.100  1.00  0.00    -0.200 F 
ENDBRANCH  68  88
BRANCH  71  99
ATOM     99  C   UNL A   1      42.833  24.150  27.677  1.00  0.00     0.064 A 
ATOM    100  C   UNL A   1      43.210  24.227  26.330  1.00  0.00     0.173 A 
ATOM    101  C   UNL A   1      42.498  22.888  28.191  1.00  0.00     0.173 A 
ATOM    102  F   UNL A   1      43.520  25.416  25.789  1.00  0.00    -0.203 F 
ATOM    103  C   UNL A   1      43.241  23.091  25.525  1.00  0.00     0.198 A 
ATOM    104  C   UNL A   1      42.556  21.748  27.392  1.00  0.00     0.198 A 
ATOM    105  F   UNL A   1      42.136  22.760  29.475  1.00  0.00    -0.203 F 
ATOM    106  F   UNL A   1      43.572  23.197  24.231  1.00  0.00    -0.200 F 
ATOM    107  C   UNL A   1      42.922  21.851  26.059  1.00  0.00     0.200 A 
ATOM    108  F   UNL A   1      42.261  20.550  27.916  1.00  0.00    -0.200 F 
ATOM    109  F   UNL A   1      42.962  20.757  25.287  1.00  0.00    -0.200 F 
ENDBRANCH  71  99
BRANCH  86 110
ATOM    110  C   UNL A   1      47.429  27.021  32.069  1.00  0.00     0.064 A 
ATOM    111  C   UNL A   1      47.602  26.176  33.175  1.00  0.00     0.173 A 
ATOM    112  C   UNL A   1      48.575  27.435  31.373  1.00  0.00     0.173 A 
ATOM    113  F   UNL A   1      46.540  25.764  33.883  1.00  0.00    -0.203 F 
ATOM    114  C   UNL A   1      48.874  25.779  33.581  1.00  0.00     0.198 A 
ATOM    115  C   UNL A   1      49.843  27.014  31.765  1.00  0.00     0.198 A 
ATOM    116  F   UNL A   1      48.464  28.239  30.305  1.00  0.00    -0.203 F 
ATOM    117  F   UNL A   1      49.018  25.009  34.667  1.00  0.00    -0.200 F 
ATOM    118  C   UNL A   1      49.992  26.193  32.872  1.00  0.00     0.200 A 
ATOM    119  F   UNL A   1      50.920  27.404  31.070  1.00  0.00    -0.200 F 
ATOM    120  F   UNL A   1      51.214  25.805  33.259  1.00  0.00    -0.200 F 
ENDBRANCH  86 110
ENDBRANCH  51  54
ENDBRANCH  41  44
ENDBRANCH  37  40
ENDBRANCH  34  37
ENDBRANCH  31  34
ENDBRANCH   1  31
TORSDOF 16
ENDMDL
MODEL 7
REMARK VINA RESULT:     -10.7      0.782      7.504
REMARK SMILES CC(=O)Oc1ccccc1C(=O)NCCCCCCNC(=O)c1ccc(-c2c3nc(c(-c4c(F)c(F)c(F)c(F)c4F)c4ccc([nH]4)c(-c4c(F)c(F)c(F)c(F)c4F)c4nc(c(-c5c(F)c(F)c(F)c(F)c5F)c5ccc2[nH]5)C=C4)C=C3)cc1
REMARK SMILES IDX 16 1 15 4 14 7 13 10 11 11 12 12 10 14 5 15 6 16 7 17 9 19
REMARK SMILES IDX 8 20 4 24 2 25 3 26 1 27 17 31 18 34 19 37 20 40 21 41 22 43
REMARK SMILES IDX 23 44 24 45 85 46 25 47 84 49 26 51 27 54 28 55 78 56 29 57
REMARK SMILES IDX 83 58 77 59 79 60 30 61 82 62 76 64 75 66 31 68 63 71 43 72
REMARK SMILES IDX 62 73 44 74 47 75 61 76 80 77 45 78 46 80 60 82 81 83 48 86
REMARK SMILES IDX 32 88 33 89 41 90 34 91 35 92 39 93 42 94 36 95 37 96 40 97
REMARK SMILES IDX 38 98 64 99 65 100 73 101 66 102 67 103 71 104 74 105 68 106
REMARK SMILES IDX 69 107 72 108 70 109 49 110 50 111 58 112 51 113 52 114
REMARK SMILES IDX 56 115 59 116 53 117 54 118 57 119 55 120
REMARK H PARENT 16 2 16 3 15 5 15 6 14 8 14 9 13 13 6 18 7 21 9 22 8 23 1 28
REMARK H PARENT 1 29 1 30 17 32 17 33 18 35 18 36 19 38 19 39 20 42 24 48
REMARK H PARENT 85 50 25 52 84 53 83 63 77 65 79 67 82 69 76 70 44 79 47 81
REMARK H PARENT 80 84 45 85 81 87
REMARK Flexibility Score: inf
ROOT
ATOM      1  C   UNL A   1      32.825  29.976  26.566  1.00  0.00    -0.052 C 
ATOM      2  H   UNL A   1      33.342  29.855  25.636  1.00  0.00     0.027 H 
ATOM      3  H   UNL A   1      33.299  30.610  27.285  1.00  0.00     0.027 H 
ENDROOT
BRANCH   1   4
ATOM      4  C   UNL A   1      32.779  28.601  27.242  1.00  0.00    -0.036 C 
ATOM      5  H   UNL A   1      33.322  27.919  26.621  1.00  0.00     0.028 H 
ATOM      6  H   UNL A   1      33.193  28.762  28.216  1.00  0.00     0.028 H 
BRANCH   4   7
ATOM      7  C   UNL A   1      31.406  27.989  27.499  1.00  0.00     0.018 C 
ATOM      8  H   UNL A   1      31.311  27.824  28.552  1.00  0.00     0.049 H 
ATOM      9  H   UNL A   1      30.696  28.686  27.104  1.00  0.00     0.049 H 
BRANCH   7  10
ATOM     10  N   UNL A   1      31.144  26.740  26.829  1.00  0.00    -0.352 N 
ATOM     11  C   UNL A   1      30.965  26.441  25.499  1.00  0.00     0.255 C 
ATOM     12  O   UNL A   1      30.785  25.249  25.233  1.00  0.00    -0.269 OA
ATOM     13  H   UNL A   1      31.082  25.964  27.431  1.00  0.00     0.163 HD
BRANCH  11  14
ATOM     14  C   UNL A   1      30.902  27.433  24.375  1.00  0.00     0.082 A 
ATOM     15  C   UNL A   1      31.930  27.862  23.526  1.00  0.00     0.143 A 
ATOM     16  C   UNL A   1      31.701  28.821  22.523  1.00  0.00    -0.018 A 
ATOM     17  C   UNL A   1      30.425  29.330  22.311  1.00  0.00    -0.059 A 
ATOM     18  H   UNL A   1      32.488  29.149  21.940  1.00  0.00     0.066 H 
ATOM     19  C   UNL A   1      29.613  27.953  24.121  1.00  0.00    -0.046 A 
ATOM     20  C   UNL A   1      29.375  28.887  23.105  1.00  0.00    -0.061 A 
ATOM     21  H   UNL A   1      30.260  30.030  21.571  1.00  0.00     0.062 H 
ATOM     22  H   UNL A   1      28.822  27.635  24.703  1.00  0.00     0.063 H 
ATOM     23  H   UNL A   1      28.421  29.246  22.946  1.00  0.00     0.062 H 
BRANCH  15  24
ATOM     24  O   UNL A   1      33.259  27.452  23.644  1.00  0.00    -0.426 OA
BRANCH  24  25
ATOM     25  C   UNL A   1      33.623  26.364  22.861  1.00  0.00     0.308 C 
ATOM     26  O   UNL A   1      33.654  26.318  21.641  1.00  0.00    -0.252 OA
BRANCH  25  27
ATOM     27  C   UNL A   1      33.989  25.224  23.769  1.00  0.00     0.034 C 
ATOM     28  H   UNL A   1      34.075  25.581  24.774  1.00  0.00     0.035 H 
ATOM     29  H   UNL A   1      34.924  24.806  23.458  1.00  0.00     0.035 H 
ATOM     30  H   UNL A   1      33.229  24.472  23.721  1.00  0.00     0.035 H 
ENDBRANCH  25  27
ENDBRANCH  24  25
ENDBRANCH  15  24
ENDBRANCH  11  14
ENDBRANCH   7  10
ENDBRANCH   4   7
ENDBRANCH   1   4
BRANCH   1  31
ATOM     31  C   UNL A   1      31.497  30.676  26.258  1.00  0.00    -0.052 C 
ATOM     32  H   UNL A   1      30.733  30.174  26.814  1.00  0.00     0.027 H 
ATOM     33  H   UNL A   1      31.403  30.621  25.192  1.00  0.00     0.027 H 
BRANCH  31  34
ATOM     34  C   UNL A   1      31.388  32.168  26.577  1.00  0.00    -0.036 C 
ATOM     35  H   UNL A   1      30.727  32.271  27.412  1.00  0.00     0.028 H 
ATOM     36  H   UNL A   1      31.047  32.621  25.669  1.00  0.00     0.028 H 
BRANCH  34  37
ATOM     37  C   UNL A   1      32.679  32.904  26.922  1.00  0.00     0.018 C 
ATOM     38  H   UNL A   1      33.206  33.107  26.013  1.00  0.00     0.049 H 
ATOM     39  H   UNL A   1      33.234  32.271  27.581  1.00  0.00     0.049 H 
BRANCH  37  40
ATOM     40  N   UNL A   1      32.462  34.159  27.617  1.00  0.00    -0.352 N 
ATOM     41  C   UNL A   1      33.097  34.698  28.710  1.00  0.00     0.251 C 
ATOM     42  H   UNL A   1      31.742  34.716  27.243  1.00  0.00     0.163 HD
ATOM     43  O   UNL A   1      32.672  35.744  29.195  1.00  0.00    -0.269 OA
BRANCH  41  44
ATOM     44  C   UNL A   1      34.266  34.034  29.337  1.00  0.00     0.039 A 
ATOM     45  C   UNL A   1      34.030  33.025  30.278  1.00  0.00    -0.049 A 
ATOM     46  C   UNL A   1      35.581  34.420  29.063  1.00  0.00    -0.049 A 
ATOM     47  C   UNL A   1      35.100  32.370  30.897  1.00  0.00    -0.053 A 
ATOM     48  H   UNL A   1      33.061  32.761  30.517  1.00  0.00     0.063 H 
ATOM     49  C   UNL A   1      36.650  33.718  29.625  1.00  0.00    -0.053 A 
ATOM     50  H   UNL A   1      35.763  35.225  28.443  1.00  0.00     0.063 H 
ATOM     51  C   UNL A   1      36.423  32.691  30.555  1.00  0.00    -0.014 A 
ATOM     52  H   UNL A   1      34.917  31.647  31.610  1.00  0.00     0.063 H 
ATOM     53  H   UNL A   1      37.617  33.958  29.354  1.00  0.00     0.063 H 
BRANCH  51  54
ATOM     54  C   UNL A   1      37.573  31.974  31.169  1.00  0.00     0.031 A 
ATOM     55  C   UNL A   1      38.055  32.344  32.546  1.00  0.00     0.074 A 
ATOM     56  C   UNL A   1      38.225  31.028  30.467  1.00  0.00     0.049 A 
ATOM     57  N   UNL A   1      39.077  31.878  33.221  1.00  0.00    -0.248 NA
ATOM     58  C   UNL A   1      37.306  33.399  33.245  1.00  0.00    -0.034 C 
ATOM     59  C   UNL A   1      37.896  30.611  29.103  1.00  0.00    -0.036 A 
ATOM     60  N   UNL A   1      39.314  30.257  30.795  1.00  0.00    -0.354 N 
ATOM     61  C   UNL A   1      39.105  32.596  34.410  1.00  0.00     0.074 A 
ATOM     62  C   UNL A   1      38.030  33.562  34.343  1.00  0.00    -0.034 C 
ATOM     63  H   UNL A   1      36.444  33.885  32.955  1.00  0.00     0.065 H 
ATOM     64  C   UNL A   1      38.755  29.657  28.716  1.00  0.00    -0.036 A 
ATOM     65  H   UNL A   1      37.124  30.991  28.532  1.00  0.00     0.065 H 
ATOM     66  C   UNL A   1      39.717  29.415  29.788  1.00  0.00     0.049 A 
ATOM     67  H   UNL A   1      39.763  30.305  31.671  1.00  0.00     0.167 HD
ATOM     68  C   UNL A   1      39.936  32.448  35.470  1.00  0.00     0.037 A 
ATOM     69  H   UNL A   1      37.850  34.285  35.057  1.00  0.00     0.065 H 
ATOM     70  H   UNL A   1      38.740  29.172  27.805  1.00  0.00     0.065 H 
ATOM     71  C   UNL A   1      40.749  28.553  29.728  1.00  0.00     0.037 A 
ATOM     72  C   UNL A   1      40.985  31.466  35.549  1.00  0.00     0.049 A 
ATOM     73  C   UNL A   1      41.648  28.391  30.925  1.00  0.00     0.074 A 
ATOM     74  C   UNL A   1      41.828  31.186  36.611  1.00  0.00    -0.036 A 
ATOM     75  N   UNL A   1      41.342  30.606  34.520  1.00  0.00    -0.354 N 
ATOM     76  N   UNL A   1      41.615  29.020  32.074  1.00  0.00    -0.248 NA
ATOM     77  C   UNL A   1      42.721  27.392  30.818  1.00  0.00    -0.034 C 
ATOM     78  C   UNL A   1      42.726  30.190  36.208  1.00  0.00    -0.036 A 
ATOM     79  H   UNL A   1      41.800  31.634  37.540  1.00  0.00     0.065 H 
ATOM     80  C   UNL A   1      42.409  29.813  34.913  1.00  0.00     0.049 A 
ATOM     81  H   UNL A   1      40.901  30.564  33.641  1.00  0.00     0.167 HD
ATOM     82  C   UNL A   1      42.644  28.481  32.834  1.00  0.00     0.074 A 
ATOM     83  C   UNL A   1      43.274  27.462  32.022  1.00  0.00    -0.034 C 
ATOM     84  H   UNL A   1      42.976  26.793  30.018  1.00  0.00     0.065 H 
ATOM     85  H   UNL A   1      43.493  29.803  36.779  1.00  0.00     0.065 H 
ATOM     86  C   UNL A   1      43.032  28.804  34.093  1.00  0.00     0.037 A 
ATOM     87  H   UNL A   1      44.054  26.866  32.338  1.00  0.00     0.065 H 
BRANCH  68  88
ATOM     88  C   UNL A   1      39.743  33.379  36.635  1.00  0.00     0.064 A 
ATOM     89  C   UNL A   1      40.433  34.597  36.730  1.00  0.00     0.173 A 
ATOM     90  C   UNL A   1      38.840  33.056  37.660  1.00  0.00     0.173 A 
ATOM     91  F   UNL A   1      41.314  34.950  35.781  1.00  0.00    -0.203 F 
ATOM     92  C   UNL A   1      40.260  35.437  37.826  1.00  0.00     0.198 A 
ATOM     93  C   UNL A   1      38.645  33.915  38.739  1.00  0.00     0.198 A 
ATOM     94  F   UNL A   1      38.147  31.909  37.617  1.00  0.00    -0.203 F 
ATOM     95  F   UNL A   1      40.976  36.565  37.925  1.00  0.00    -0.200 F 
ATOM     96  C   UNL A   1      39.362  35.098  38.828  1.00  0.00     0.200 A 
ATOM     97  F   UNL A   1      37.767  33.593  39.700  1.00  0.00    -0.200 F 
ATOM     98  F   UNL A   1      39.196  35.907  39.883  1.00  0.00    -0.200 F 
ENDBRANCH  68  88
BRANCH  71  99
ATOM     99  C   UNL A   1      40.974  27.762  28.490  1.00  0.00     0.064 A 
ATOM    100  C   UNL A   1      40.317  26.542  28.283  1.00  0.00     0.173 A 
ATOM    101  C   UNL A   1      41.833  28.222  27.481  1.00  0.00     0.173 A 
ATOM    102  F   UNL A   1      39.502  26.052  29.228  1.00  0.00    -0.203 F 
ATOM    103  C   UNL A   1      40.519  25.806  27.117  1.00  0.00     0.198 A 
ATOM    104  C   UNL A   1      42.014  27.499  26.305  1.00  0.00     0.198 A 
ATOM    105  F   UNL A   1      42.480  29.387  27.630  1.00  0.00    -0.203 F 
ATOM    106  F   UNL A   1      39.907  24.624  26.959  1.00  0.00    -0.200 F 
ATOM    107  C   UNL A   1      41.361  26.288  26.126  1.00  0.00     0.200 A 
ATOM    108  F   UNL A   1      42.816  27.977  25.343  1.00  0.00    -0.200 F 
ATOM    109  F   UNL A   1      41.547  25.585  25.001  1.00  0.00    -0.200 F 
ENDBRANCH  71  99
BRANCH  86 110
ATOM    110  C   UNL A   1      44.179  28.034  34.680  1.00  0.00     0.064 A 
ATOM    111  C   UNL A   1      45.499  28.498  34.585  1.00  0.00     0.173 A 
ATOM    112  C   UNL A   1      43.951  26.840  35.380  1.00  0.00     0.173 A 
ATOM    113  F   UNL A   1      45.772  29.626  33.913  1.00  0.00    -0.203 F 
ATOM    114  C   UNL A   1      46.552  27.781  35.150  1.00  0.00     0.198 A 
ATOM    115  C   UNL A   1      45.002  26.142  35.969  1.00  0.00     0.198 A 
ATOM    116  F   UNL A   1      42.706  26.356  35.505  1.00  0.00    -0.203 F 
ATOM    117  F   UNL A   1      47.810  28.220  35.008  1.00  0.00    -0.200 F 
ATOM    118  C   UNL A   1      46.302  26.609  35.847  1.00  0.00     0.200 A 
ATOM    119  F   UNL A   1      44.756  25.016  36.652  1.00  0.00    -0.200 F 
ATOM    120  F   UNL A   1      47.315  25.925  36.396  1.00  0.00    -0.200 F 
ENDBRANCH  86 110
ENDBRANCH  51  54
ENDBRANCH  41  44
ENDBRANCH  37  40
ENDBRANCH  34  37
ENDBRANCH  31  34
ENDBRANCH   1  31
TORSDOF 16
ENDMDL
MODEL 8
REMARK VINA RESULT:     -10.7      4.629     12.693
REMARK SMILES CC(=O)Oc1ccccc1C(=O)NCCCCCCNC(=O)c1ccc(-c2c3nc(c(-c4c(F)c(F)c(F)c(F)c4F)c4ccc([nH]4)c(-c4c(F)c(F)c(F)c(F)c4F)c4nc(c(-c5c(F)c(F)c(F)c(F)c5F)c5ccc2[nH]5)C=C4)C=C3)cc1
REMARK SMILES IDX 16 1 15 4 14 7 13 10 11 11 12 12 10 14 5 15 6 16 7 17 9 19
REMARK SMILES IDX 8 20 4 24 2 25 3 26 1 27 17 31 18 34 19 37 20 40 21 41 22 43
REMARK SMILES IDX 23 44 24 45 85 46 25 47 84 49 26 51 27 54 28 55 78 56 29 57
REMARK SMILES IDX 83 58 77 59 79 60 30 61 82 62 76 64 75 66 31 68 63 71 43 72
REMARK SMILES IDX 62 73 44 74 47 75 61 76 80 77 45 78 46 80 60 82 81 83 48 86
REMARK SMILES IDX 32 88 33 89 41 90 34 91 35 92 39 93 42 94 36 95 37 96 40 97
REMARK SMILES IDX 38 98 64 99 65 100 73 101 66 102 67 103 71 104 74 105 68 106
REMARK SMILES IDX 69 107 72 108 70 109 49 110 50 111 58 112 51 113 52 114
REMARK SMILES IDX 56 115 59 116 53 117 54 118 57 119 55 120
REMARK H PARENT 16 2 16 3 15 5 15 6 14 8 14 9 13 13 6 18 7 21 9 22 8 23 1 28
REMARK H PARENT 1 29 1 30 17 32 17 33 18 35 18 36 19 38 19 39 20 42 24 48
REMARK H PARENT 85 50 25 52 84 53 83 63 77 65 79 67 82 69 76 70 44 79 47 81
REMARK H PARENT 80 84 45 85 81 87
REMARK Flexibility Score: inf
ROOT
ATOM      1  C   UNL A   1      44.546  22.985  32.809  1.00  0.00    -0.052 C 
ATOM      2  H   UNL A   1      45.286  22.252  32.563  1.00  0.00     0.027 H 
ATOM      3  H   UNL A   1      43.599  22.604  33.128  1.00  0.00     0.027 H 
ENDROOT
BRANCH   1   4
ATOM      4  C   UNL A   1      44.231  23.761  31.526  1.00  0.00    -0.036 C 
ATOM      5  H   UNL A   1      43.285  24.242  31.664  1.00  0.00     0.028 H 
ATOM      6  H   UNL A   1      45.065  24.420  31.394  1.00  0.00     0.028 H 
BRANCH   4   7
ATOM      7  C   UNL A   1      44.154  22.968  30.225  1.00  0.00     0.018 C 
ATOM      8  H   UNL A   1      44.707  23.502  29.481  1.00  0.00     0.049 H 
ATOM      9  H   UNL A   1      44.552  22.000  30.449  1.00  0.00     0.049 H 
BRANCH   7  10
ATOM     10  N   UNL A   1      42.827  22.738  29.712  1.00  0.00    -0.352 N 
ATOM     11  C   UNL A   1      42.359  22.610  28.425  1.00  0.00     0.255 C 
ATOM     12  O   UNL A   1      41.150  22.383  28.312  1.00  0.00    -0.269 OA
ATOM     13  H   UNL A   1      42.134  22.659  30.406  1.00  0.00     0.163 HD
BRANCH  11  14
ATOM     14  C   UNL A   1      43.165  22.789  27.174  1.00  0.00     0.082 A 
ATOM     15  C   UNL A   1      43.016  22.151  25.936  1.00  0.00     0.143 A 
ATOM     16  C   UNL A   1      43.878  22.428  24.859  1.00  0.00    -0.018 A 
ATOM     17  C   UNL A   1      44.873  23.391  24.980  1.00  0.00    -0.059 A 
ATOM     18  H   UNL A   1      43.769  21.910  23.972  1.00  0.00     0.066 H 
ATOM     19  C   UNL A   1      44.172  23.777  27.259  1.00  0.00    -0.046 A 
ATOM     20  C   UNL A   1      45.014  24.076  26.180  1.00  0.00    -0.061 A 
ATOM     21  H   UNL A   1      45.500  23.595  24.187  1.00  0.00     0.062 H 
ATOM     22  H   UNL A   1      44.291  24.294  28.143  1.00  0.00     0.063 H 
ATOM     23  H   UNL A   1      45.739  24.804  26.276  1.00  0.00     0.062 H 
BRANCH  15  24
ATOM     24  O   UNL A   1      42.077  21.149  25.685  1.00  0.00    -0.426 OA
BRANCH  24  25
ATOM     25  C   UNL A   1      42.566  19.849  25.713  1.00  0.00     0.308 C 
ATOM     26  O   UNL A   1      43.172  19.275  24.822  1.00  0.00    -0.252 OA
BRANCH  25  27
ATOM     27  C   UNL A   1      42.230  19.243  27.047  1.00  0.00     0.034 C 
ATOM     28  H   UNL A   1      42.125  20.019  27.776  1.00  0.00     0.035 H 
ATOM     29  H   UNL A   1      43.015  18.579  27.344  1.00  0.00     0.035 H 
ATOM     30  H   UNL A   1      41.313  18.698  26.970  1.00  0.00     0.035 H 
ENDBRANCH  25  27
ENDBRANCH  24  25
ENDBRANCH  15  24
ENDBRANCH  11  14
ENDBRANCH   7  10
ENDBRANCH   4   7
ENDBRANCH   1   4
BRANCH   1  31
ATOM     31  C   UNL A   1      45.068  23.767  34.020  1.00  0.00    -0.052 C 
ATOM     32  H   UNL A   1      44.310  23.733  34.774  1.00  0.00     0.027 H 
ATOM     33  H   UNL A   1      45.294  24.741  33.635  1.00  0.00     0.027 H 
BRANCH  31  34
ATOM     34  C   UNL A   1      46.374  23.296  34.663  1.00  0.00    -0.036 C 
ATOM     35  H   UNL A   1      46.705  22.434  34.123  1.00  0.00     0.028 H 
ATOM     36  H   UNL A   1      46.129  23.123  35.690  1.00  0.00     0.028 H 
BRANCH  34  37
ATOM     37  C   UNL A   1      47.532  24.288  34.697  1.00  0.00     0.018 C 
ATOM     38  H   UNL A   1      47.361  25.034  33.948  1.00  0.00     0.049 H 
ATOM     39  H   UNL A   1      48.428  23.731  34.520  1.00  0.00     0.049 H 
BRANCH  37  40
ATOM     40  N   UNL A   1      47.688  24.952  35.977  1.00  0.00    -0.352 N 
ATOM     41  C   UNL A   1      47.026  26.029  36.515  1.00  0.00     0.251 C 
ATOM     42  H   UNL A   1      48.383  24.566  36.558  1.00  0.00     0.163 HD
ATOM     43  O   UNL A   1      47.400  26.488  37.591  1.00  0.00    -0.269 OA
BRANCH  41  44
ATOM     44  C   UNL A   1      45.886  26.670  35.814  1.00  0.00     0.039 A 
ATOM     45  C   UNL A   1      46.157  27.727  34.936  1.00  0.00    -0.049 A 
ATOM     46  C   UNL A   1      44.560  26.294  36.042  1.00  0.00    -0.049 A 
ATOM     47  C   UNL A   1      45.115  28.364  34.253  1.00  0.00    -0.053 A 
ATOM     48  H   UNL A   1      47.130  28.039  34.792  1.00  0.00     0.063 H 
ATOM     49  C   UNL A   1      43.527  26.880  35.307  1.00  0.00    -0.053 A 
ATOM     50  H   UNL A   1      44.343  25.581  36.757  1.00  0.00     0.063 H 
ATOM     51  C   UNL A   1      43.791  27.927  34.410  1.00  0.00    -0.014 A 
ATOM     52  H   UNL A   1      45.321  29.160  33.630  1.00  0.00     0.063 H 
ATOM     53  H   UNL A   1      42.559  26.538  35.424  1.00  0.00     0.063 H 
BRANCH  51  54
ATOM     54  C   UNL A   1      42.676  28.562  33.656  1.00  0.00     0.031 A 
ATOM     55  C   UNL A   1      41.716  29.489  34.352  1.00  0.00     0.074 A 
ATOM     56  C   UNL A   1      42.488  28.261  32.357  1.00  0.00     0.049 A 
ATOM     57  N   UNL A   1      40.649  30.086  33.881  1.00  0.00    -0.248 NA
ATOM     58  C   UNL A   1      41.973  29.756  35.775  1.00  0.00    -0.034 C 
ATOM     59  C   UNL A   1      43.311  27.337  31.577  1.00  0.00    -0.036 A 
ATOM     60  N   UNL A   1      41.531  28.685  31.467  1.00  0.00    -0.354 N 
ATOM     61  C   UNL A   1      40.099  30.780  34.951  1.00  0.00     0.074 A 
ATOM     62  C   UNL A   1      40.920  30.489  36.107  1.00  0.00    -0.034 C 
ATOM     63  H   UNL A   1      42.765  29.452  36.362  1.00  0.00     0.065 H 
ATOM     64  C   UNL A   1      42.833  27.270  30.326  1.00  0.00    -0.036 A 
ATOM     65  H   UNL A   1      44.131  26.819  31.933  1.00  0.00     0.065 H 
ATOM     66  C   UNL A   1      41.650  28.120  30.221  1.00  0.00     0.049 A 
ATOM     67  H   UNL A   1      40.827  29.333  31.701  1.00  0.00     0.167 HD
ATOM     68  C   UNL A   1      39.022  31.602  34.965  1.00  0.00     0.037 A 
ATOM     69  H   UNL A   1      40.713  30.811  37.065  1.00  0.00     0.065 H 
ATOM     70  H   UNL A   1      43.236  26.708  29.560  1.00  0.00     0.065 H 
ATOM     71  C   UNL A   1      40.888  28.262  29.119  1.00  0.00     0.037 A 
ATOM     72  C   UNL A   1      38.224  31.916  33.808  1.00  0.00     0.049 A 
ATOM     73  C   UNL A   1      39.707  29.196  29.152  1.00  0.00     0.074 A 
ATOM     74  C   UNL A   1      37.163  32.798  33.704  1.00  0.00    -0.036 A 
ATOM     75  N   UNL A   1      38.396  31.350  32.552  1.00  0.00    -0.354 N 
ATOM     76  N   UNL A   1      39.244  29.908  30.150  1.00  0.00    -0.248 NA
ATOM     77  C   UNL A   1      38.951  29.351  27.901  1.00  0.00    -0.034 C 
ATOM     78  C   UNL A   1      36.661  32.730  32.399  1.00  0.00    -0.036 A 
ATOM     79  H   UNL A   1      36.801  33.401  34.459  1.00  0.00     0.065 H 
ATOM     80  C   UNL A   1      37.444  31.845  31.675  1.00  0.00     0.049 A 
ATOM     81  H   UNL A   1      39.093  30.695  32.319  1.00  0.00     0.167 HD
ATOM     82  C   UNL A   1      38.159  30.611  29.645  1.00  0.00     0.074 A 
ATOM     83  C   UNL A   1      38.041  30.252  28.248  1.00  0.00    -0.034 C 
ATOM     84  H   UNL A   1      39.091  28.883  26.992  1.00  0.00     0.065 H 
ATOM     85  H   UNL A   1      35.848  33.251  32.037  1.00  0.00     0.065 H 
ATOM     86  C   UNL A   1      37.333  31.476  30.286  1.00  0.00     0.037 A 
ATOM     87  H   UNL A   1      37.339  30.647  27.603  1.00  0.00     0.065 H 
BRANCH  68  88
ATOM     88  C   UNL A   1      38.641  32.221  36.281  1.00  0.00     0.064 A 
ATOM     89  C   UNL A   1      38.974  33.546  36.599  1.00  0.00     0.173 A 
ATOM     90  C   UNL A   1      37.916  31.482  37.230  1.00  0.00     0.173 A 
ATOM     91  F   UNL A   1      39.673  34.293  35.731  1.00  0.00    -0.203 F 
ATOM     92  C   UNL A   1      38.633  34.096  37.832  1.00  0.00     0.198 A 
ATOM     93  C   UNL A   1      37.548  32.046  38.449  1.00  0.00     0.198 A 
ATOM     94  F   UNL A   1      37.563  30.213  36.975  1.00  0.00    -0.203 F 
ATOM     95  F   UNL A   1      39.016  35.343  38.137  1.00  0.00    -0.200 F 
ATOM     96  C   UNL A   1      37.916  33.348  38.754  1.00  0.00     0.200 A 
ATOM     97  F   UNL A   1      36.844  31.327  39.333  1.00  0.00    -0.200 F 
ATOM     98  F   UNL A   1      37.589  33.877  39.941  1.00  0.00    -0.200 F 
ENDBRANCH  68  88
BRANCH  71  99
ATOM     99  C   UNL A   1      41.235  27.510  27.886  1.00  0.00     0.064 A 
ATOM    100  C   UNL A   1      42.205  27.988  26.996  1.00  0.00     0.173 A 
ATOM    101  C   UNL A   1      40.617  26.287  27.584  1.00  0.00     0.173 A 
ATOM    102  F   UNL A   1      42.809  29.163  27.232  1.00  0.00    -0.203 F 
ATOM    103  C   UNL A   1      42.539  27.278  25.845  1.00  0.00     0.198 A 
ATOM    104  C   UNL A   1      40.970  25.564  26.447  1.00  0.00     0.198 A 
ATOM    105  F   UNL A   1      39.686  25.784  28.407  1.00  0.00    -0.203 F 
ATOM    106  F   UNL A   1      43.445  27.774  24.992  1.00  0.00    -0.200 F 
ATOM    107  C   UNL A   1      41.927  26.063  25.576  1.00  0.00     0.200 A 
ATOM    108  F   UNL A   1      40.387  24.383  26.199  1.00  0.00    -0.200 F 
ATOM    109  F   UNL A   1      42.255  25.374  24.474  1.00  0.00    -0.200 F 
ENDBRANCH  71  99
BRANCH  86 110
ATOM    110  C   UNL A   1      36.240  32.112  29.477  1.00  0.00     0.064 A 
ATOM    111  C   UNL A   1      35.159  31.365  28.988  1.00  0.00     0.173 A 
ATOM    112  C   UNL A   1      36.254  33.491  29.222  1.00  0.00     0.173 A 
ATOM    113  F   UNL A   1      35.107  30.040  29.191  1.00  0.00    -0.203 F 
ATOM    114  C   UNL A   1      34.142  31.972  28.253  1.00  0.00     0.198 A 
ATOM    115  C   UNL A   1      35.221  34.100  28.513  1.00  0.00     0.198 A 
ATOM    116  F   UNL A   1      37.262  34.253  29.673  1.00  0.00    -0.203 F 
ATOM    117  F   UNL A   1      33.143  31.230  27.758  1.00  0.00    -0.200 F 
ATOM    118  C   UNL A   1      34.171  33.339  28.024  1.00  0.00     0.200 A 
ATOM    119  F   UNL A   1      35.245  35.423  28.303  1.00  0.00    -0.200 F 
ATOM    120  F   UNL A   1      33.189  33.923  27.324  1.00  0.00    -0.200 F 
ENDBRANCH  86 110
ENDBRANCH  51  54
ENDBRANCH  41  44
ENDBRANCH  37  40
ENDBRANCH  34  37
ENDBRANCH  31  34
ENDBRANCH   1  31
TORSDOF 16
ENDMDL
MODEL 9
REMARK VINA RESULT:     -10.7      5.394     10.101
REMARK SMILES CC(=O)Oc1ccccc1C(=O)NCCCCCCNC(=O)c1ccc(-c2c3nc(c(-c4c(F)c(F)c(F)c(F)c4F)c4ccc([nH]4)c(-c4c(F)c(F)c(F)c(F)c4F)c4nc(c(-c5c(F)c(F)c(F)c(F)c5F)c5ccc2[nH]5)C=C4)C=C3)cc1
REMARK SMILES IDX 16 1 15 4 14 7 13 10 11 11 12 12 10 14 5 15 6 16 7 17 9 19
REMARK SMILES IDX 8 20 4 24 2 25 3 26 1 27 17 31 18 34 19 37 20 40 21 41 22 43
REMARK SMILES IDX 23 44 24 45 85 46 25 47 84 49 26 51 27 54 28 55 78 56 29 57
REMARK SMILES IDX 83 58 77 59 79 60 30 61 82 62 76 64 75 66 31 68 63 71 43 72
REMARK SMILES IDX 62 73 44 74 47 75 61 76 80 77 45 78 46 80 60 82 81 83 48 86
REMARK SMILES IDX 32 88 33 89 41 90 34 91 35 92 39 93 42 94 36 95 37 96 40 97
REMARK SMILES IDX 38 98 64 99 65 100 73 101 66 102 67 103 71 104 74 105 68 106
REMARK SMILES IDX 69 107 72 108 70 109 49 110 50 111 58 112 51 113 52 114
REMARK SMILES IDX 56 115 59 116 53 117 54 118 57 119 55 120
REMARK H PARENT 16 2 16 3 15 5 15 6 14 8 14 9 13 13 6 18 7 21 9 22 8 23 1 28
REMARK H PARENT 1 29 1 30 17 32 17 33 18 35 18 36 19 38 19 39 20 42 24 48
REMARK H PARENT 85 50 25 52 84 53 83 63 77 65 79 67 82 69 76 70 44 79 47 81
REMARK H PARENT 80 84 45 85 81 87
REMARK Flexibility Score: inf
ROOT
ATOM      1  C   UNL A   1      43.282  22.492  29.117  1.00  0.00    -0.052 C 
ATOM      2  H   UNL A   1      42.915  21.800  29.847  1.00  0.00     0.027 H 
ATOM      3  H   UNL A   1      44.016  22.110  28.440  1.00  0.00     0.027 H 
ENDROOT
BRANCH   1   4
ATOM      4  C   UNL A   1      44.006  23.610  29.875  1.00  0.00    -0.036 C 
ATOM      5  H   UNL A   1      43.319  24.423  29.982  1.00  0.00     0.028 H 
ATOM      6  H   UNL A   1      44.326  23.157  30.790  1.00  0.00     0.028 H 
BRANCH   4   7
ATOM      7  C   UNL A   1      45.282  24.169  29.252  1.00  0.00     0.018 C 
ATOM      8  H   UNL A   1      45.097  25.189  28.983  1.00  0.00     0.049 H 
ATOM      9  H   UNL A   1      46.046  24.048  29.991  1.00  0.00     0.049 H 
BRANCH   7  10
ATOM     10  N   UNL A   1      45.757  23.481  28.079  1.00  0.00    -0.352 N 
ATOM     11  C   UNL A   1      45.768  23.845  26.752  1.00  0.00     0.255 C 
ATOM     12  O   UNL A   1      46.281  23.034  25.975  1.00  0.00    -0.269 OA
ATOM     13  H   UNL A   1      46.141  22.593  28.259  1.00  0.00     0.163 HD
BRANCH  11  14
ATOM     14  C   UNL A   1      45.157  25.088  26.176  1.00  0.00     0.082 A 
ATOM     15  C   UNL A   1      45.721  26.363  26.048  1.00  0.00     0.143 A 
ATOM     16  C   UNL A   1      44.998  27.434  25.492  1.00  0.00    -0.018 A 
ATOM     17  C   UNL A   1      43.712  27.236  25.000  1.00  0.00    -0.059 A 
ATOM     18  H   UNL A   1      45.425  28.373  25.450  1.00  0.00     0.066 H 
ATOM     19  C   UNL A   1      43.858  24.915  25.648  1.00  0.00    -0.046 A 
ATOM     20  C   UNL A   1      43.144  25.971  25.068  1.00  0.00    -0.061 A 
ATOM     21  H   UNL A   1      43.186  28.023  24.588  1.00  0.00     0.062 H 
ATOM     22  H   UNL A   1      43.421  23.981  25.691  1.00  0.00     0.063 H 
ATOM     23  H   UNL A   1      42.198  25.810  24.691  1.00  0.00     0.062 H 
BRANCH  15  24
ATOM     24  O   UNL A   1      46.990  26.704  26.522  1.00  0.00    -0.426 OA
BRANCH  24  25
ATOM     25  C   UNL A   1      47.892  27.138  25.559  1.00  0.00     0.308 C 
ATOM     26  O   UNL A   1      48.275  28.283  25.378  1.00  0.00    -0.252 OA
BRANCH  25  27
ATOM     27  C   UNL A   1      48.342  25.949  24.757  1.00  0.00     0.034 C 
ATOM     28  H   UNL A   1      47.493  25.482  24.304  1.00  0.00     0.035 H 
ATOM     29  H   UNL A   1      48.832  25.249  25.402  1.00  0.00     0.035 H 
ATOM     30  H   UNL A   1      49.023  26.269  23.996  1.00  0.00     0.035 H 
ENDBRANCH  25  27
ENDBRANCH  24  25
ENDBRANCH  15  24
ENDBRANCH  11  14
ENDBRANCH   7  10
ENDBRANCH   4   7
ENDBRANCH   1   4
BRANCH   1  31
ATOM     31  C   UNL A   1      42.099  22.873  28.220  1.00  0.00    -0.052 C 
ATOM     32  H   UNL A   1      42.492  23.411  27.383  1.00  0.00     0.027 H 
ATOM     33  H   UNL A   1      41.443  23.428  28.859  1.00  0.00     0.027 H 
BRANCH  31  34
ATOM     34  C   UNL A   1      41.230  21.741  27.667  1.00  0.00    -0.036 C 
ATOM     35  H   UNL A   1      40.292  21.775  28.181  1.00  0.00     0.028 H 
ATOM     36  H   UNL A   1      41.803  20.851  27.826  1.00  0.00     0.028 H 
BRANCH  34  37
ATOM     37  C   UNL A   1      40.934  21.757  26.171  1.00  0.00     0.018 C 
ATOM     38  H   UNL A   1      41.266  20.830  25.751  1.00  0.00     0.049 H 
ATOM     39  H   UNL A   1      41.449  22.598  25.758  1.00  0.00     0.049 H 
BRANCH  37  40
ATOM     40  N   UNL A   1      39.526  21.923  25.861  1.00  0.00    -0.352 N 
ATOM     41  C   UNL A   1      38.667  22.961  26.132  1.00  0.00     0.251 C 
ATOM     42  H   UNL A   1      39.120  21.169  25.376  1.00  0.00     0.163 HD
ATOM     43  O   UNL A   1      37.475  22.839  25.860  1.00  0.00    -0.269 OA
BRANCH  41  44
ATOM     44  C   UNL A   1      39.137  24.215  26.771  1.00  0.00     0.039 A 
ATOM     45  C   UNL A   1      39.887  25.111  25.999  1.00  0.00    -0.049 A 
ATOM     46  C   UNL A   1      38.907  24.500  28.118  1.00  0.00    -0.049 A 
ATOM     47  C   UNL A   1      40.353  26.307  26.557  1.00  0.00    -0.053 A 
ATOM     48  H   UNL A   1      40.097  24.890  25.013  1.00  0.00     0.063 H 
ATOM     49  C   UNL A   1      39.308  25.725  28.656  1.00  0.00    -0.053 A 
ATOM     50  H   UNL A   1      38.437  23.804  28.719  1.00  0.00     0.063 H 
ATOM     51  C   UNL A   1      40.043  26.639  27.884  1.00  0.00    -0.014 A 
ATOM     52  H   UNL A   1      40.928  26.948  25.989  1.00  0.00     0.063 H 
ATOM     53  H   UNL A   1      39.061  25.960  29.631  1.00  0.00     0.063 H 
BRANCH  51  54
ATOM     54  C   UNL A   1      40.491  27.927  28.480  1.00  0.00     0.031 A 
ATOM     55  C   UNL A   1      41.924  28.114  28.902  1.00  0.00     0.074 A 
ATOM     56  C   UNL A   1      39.598  28.911  28.699  1.00  0.00     0.049 A 
ATOM     57  N   UNL A   1      42.488  29.138  29.495  1.00  0.00    -0.248 NA
ATOM     58  C   UNL A   1      42.837  26.990  28.650  1.00  0.00    -0.034 C 
ATOM     59  C   UNL A   1      38.170  28.839  28.388  1.00  0.00    -0.036 A 
ATOM     60  N   UNL A   1      39.755  30.158  29.253  1.00  0.00    -0.354 N 
ATOM     61  C   UNL A   1      43.811  28.772  29.704  1.00  0.00     0.074 A 
ATOM     62  C   UNL A   1      43.954  27.416  29.221  1.00  0.00    -0.034 C 
ATOM     63  H   UNL A   1      42.655  26.102  28.157  1.00  0.00     0.065 H 
ATOM     64  C   UNL A   1      37.584  29.992  28.745  1.00  0.00    -0.036 A 
ATOM     65  H   UNL A   1      37.691  28.031  27.961  1.00  0.00     0.065 H 
ATOM     66  C   UNL A   1      38.586  30.873  29.340  1.00  0.00     0.049 A 
ATOM     67  H   UNL A   1      40.625  30.507  29.558  1.00  0.00     0.167 HD
ATOM     68  C   UNL A   1      44.821  29.508  30.230  1.00  0.00     0.037 A 
ATOM     69  H   UNL A   1      44.814  26.852  29.310  1.00  0.00     0.065 H 
ATOM     70  H   UNL A   1      36.586  30.220  28.620  1.00  0.00     0.065 H 
ATOM     71  C   UNL A   1      38.343  32.096  29.850  1.00  0.00     0.037 A 
ATOM     72  C   UNL A   1      44.686  30.868  30.682  1.00  0.00     0.049 A 
ATOM     73  C   UNL A   1      39.483  32.903  30.412  1.00  0.00     0.074 A 
ATOM     74  C   UNL A   1      45.666  31.722  31.156  1.00  0.00    -0.036 A 
ATOM     75  N   UNL A   1      43.490  31.572  30.723  1.00  0.00    -0.354 N 
ATOM     76  N   UNL A   1      40.747  32.576  30.531  1.00  0.00    -0.248 NA
ATOM     77  C   UNL A   1      39.164  34.252  30.899  1.00  0.00    -0.034 C 
ATOM     78  C   UNL A   1      45.057  32.926  31.529  1.00  0.00    -0.036 A 
ATOM     79  H   UNL A   1      46.673  31.509  31.224  1.00  0.00     0.065 H 
ATOM     80  C   UNL A   1      43.705  32.841  31.239  1.00  0.00     0.049 A 
ATOM     81  H   UNL A   1      42.619  31.222  30.428  1.00  0.00     0.167 HD
ATOM     82  C   UNL A   1      41.376  33.682  31.085  1.00  0.00     0.074 A 
ATOM     83  C   UNL A   1      40.359  34.696  31.265  1.00  0.00    -0.034 C 
ATOM     84  H   UNL A   1      38.250  34.729  30.945  1.00  0.00     0.065 H 
ATOM     85  H   UNL A   1      45.533  33.739  31.949  1.00  0.00     0.065 H 
ATOM     86  C   UNL A   1      42.682  33.840  31.418  1.00  0.00     0.037 A 
ATOM     87  H   UNL A   1      40.540  35.643  31.631  1.00  0.00     0.065 H 
BRANCH  68  88
ATOM     88  C   UNL A   1      46.167  28.849  30.348  1.00  0.00     0.064 A 
ATOM     89  C   UNL A   1      47.103  28.887  29.303  1.00  0.00     0.173 A 
ATOM     90  C   UNL A   1      46.533  28.186  31.530  1.00  0.00     0.173 A 
ATOM     91  F   UNL A   1      46.801  29.501  28.149  1.00  0.00    -0.203 F 
ATOM     92  C   UNL A   1      48.337  28.253  29.420  1.00  0.00     0.198 A 
ATOM     93  C   UNL A   1      47.781  27.580  31.656  1.00  0.00     0.198 A 
ATOM     94  F   UNL A   1      45.681  28.125  32.564  1.00  0.00    -0.203 F 
ATOM     95  F   UNL A   1      49.189  28.251  28.387  1.00  0.00    -0.200 F 
ATOM     96  C   UNL A   1      48.677  27.603  30.598  1.00  0.00     0.200 A 
ATOM     97  F   UNL A   1      48.113  26.965  32.799  1.00  0.00    -0.200 F 
ATOM     98  F   UNL A   1      49.864  26.993  30.710  1.00  0.00    -0.200 F 
ENDBRANCH  68  88
BRANCH  71  99
ATOM     99  C   UNL A   1      36.959  32.636  29.834  1.00  0.00     0.064 A 
ATOM    100  C   UNL A   1      36.118  32.502  30.946  1.00  0.00     0.173 A 
ATOM    101  C   UNL A   1      36.458  33.315  28.713  1.00  0.00     0.173 A 
ATOM    102  F   UNL A   1      36.546  31.843  32.034  1.00  0.00    -0.203 F 
ATOM    103  C   UNL A   1      34.823  33.018  30.936  1.00  0.00     0.198 A 
ATOM    104  C   UNL A   1      35.174  33.853  28.714  1.00  0.00     0.198 A 
ATOM    105  F   UNL A   1      37.226  33.474  27.626  1.00  0.00    -0.203 F 
ATOM    106  F   UNL A   1      34.027  32.845  31.999  1.00  0.00    -0.200 F 
ATOM    107  C   UNL A   1      34.355  33.700  29.822  1.00  0.00     0.200 A 
ATOM    108  F   UNL A   1      34.731  34.525  27.641  1.00  0.00    -0.200 F 
ATOM    109  F   UNL A   1      33.114  34.204  29.816  1.00  0.00    -0.200 F 
ENDBRANCH  71  99
BRANCH  86 110
ATOM    110  C   UNL A   1      43.091  35.167  31.990  1.00  0.00     0.064 A 
ATOM    111  C   UNL A   1      43.589  36.195  31.177  1.00  0.00     0.173 A 
ATOM    112  C   UNL A   1      42.944  35.426  33.361  1.00  0.00     0.173 A 
ATOM    113  F   UNL A   1      43.763  35.992  29.862  1.00  0.00    -0.203 F 
ATOM    114  C   UNL A   1      43.948  37.427  31.719  1.00  0.00     0.198 A 
ATOM    115  C   UNL A   1      43.276  36.668  33.895  1.00  0.00     0.198 A 
ATOM    116  F   UNL A   1      42.466  34.479  34.181  1.00  0.00    -0.203 F 
ATOM    117  F   UNL A   1      44.465  38.379  30.930  1.00  0.00    -0.200 F 
ATOM    118  C   UNL A   1      43.784  37.665  33.076  1.00  0.00     0.200 A 
ATOM    119  F   UNL A   1      43.105  36.900  35.204  1.00  0.00    -0.200 F 
ATOM    120  F   UNL A   1      44.123  38.853  33.594  1.00  0.00    -0.200 F 
ENDBRANCH  86 110
ENDBRANCH  51  54
ENDBRANCH  41  44
ENDBRANCH  37  40
ENDBRANCH  34  37
ENDBRANCH  31  34
ENDBRANCH   1  31
TORSDOF 16
ENDMDL
MODEL 10
REMARK VINA RESULT:     -10.7      1.136      2.215
REMARK SMILES CC(=O)Oc1ccccc1C(=O)NCCCCCCNC(=O)c1ccc(-c2c3nc(c(-c4c(F)c(F)c(F)c(F)c4F)c4ccc([nH]4)c(-c4c(F)c(F)c(F)c(F)c4F)c4nc(c(-c5c(F)c(F)c(F)c(F)c5F)c5ccc2[nH]5)C=C4)C=C3)cc1
REMARK SMILES IDX 16 1 15 4 14 7 13 10 11 11 12 12 10 14 5 15 6 16 7 17 9 19
REMARK SMILES IDX 8 20 4 24 2 25 3 26 1 27 17 31 18 34 19 37 20 40 21 41 22 43
REMARK SMILES IDX 23 44 24 45 85 46 25 47 84 49 26 51 27 54 28 55 78 56 29 57
REMARK SMILES IDX 83 58 77 59 79 60 30 61 82 62 76 64 75 66 31 68 63 71 43 72
REMARK SMILES IDX 62 73 44 74 47 75 61 76 80 77 45 78 46 80 60 82 81 83 48 86
REMARK SMILES IDX 32 88 33 89 41 90 34 91 35 92 39 93 42 94 36 95 37 96 40 97
REMARK SMILES IDX 38 98 64 99 65 100 73 101 66 102 67 103 71 104 74 105 68 106
REMARK SMILES IDX 69 107 72 108 70 109 49 110 50 111 58 112 51 113 52 114
REMARK SMILES IDX 56 115 59 116 53 117 54 118 57 119 55 120
REMARK H PARENT 16 2 16 3 15 5 15 6 14 8 14 9 13 13 6 18 7 21 9 22 8 23 1 28
REMARK H PARENT 1 29 1 30 17 32 17 33 18 35 18 36 19 38 19 39 20 42 24 48
REMARK H PARENT 85 50 25 52 84 53 83 63 77 65 79 67 82 69 76 70 44 79 47 81
REMARK H PARENT 80 84 45 85 81 87
REMARK Flexibility Score: inf
ROOT
ATOM      1  C   UNL A   1      32.254  29.646  27.227  1.00  0.00    -0.052 C 
ATOM      2  H   UNL A   1      32.244  30.072  28.209  1.00  0.00     0.027 H 
ATOM      3  H   UNL A   1      31.660  28.767  27.094  1.00  0.00     0.027 H 
ENDROOT
BRANCH   1   4
ATOM      4  C   UNL A   1      33.688  29.184  26.947  1.00  0.00    -0.036 C 
ATOM      5  H   UNL A   1      34.169  29.953  26.379  1.00  0.00     0.028 H 
ATOM      6  H   UNL A   1      34.108  28.997  27.914  1.00  0.00     0.028 H 
BRANCH   4   7
ATOM      7  C   UNL A   1      33.868  27.874  26.186  1.00  0.00     0.018 C 
ATOM      8  H   UNL A   1      33.898  28.102  25.141  1.00  0.00     0.049 H 
ATOM      9  H   UNL A   1      34.772  27.441  26.560  1.00  0.00     0.049 H 
BRANCH   7  10
ATOM     10  N   UNL A   1      32.842  26.884  26.395  1.00  0.00    -0.352 N 
ATOM     11  C   UNL A   1      32.767  25.561  26.029  1.00  0.00     0.255 C 
ATOM     12  O   UNL A   1      31.750  24.959  26.388  1.00  0.00    -0.269 OA
ATOM     13  H   UNL A   1      32.056  27.215  26.886  1.00  0.00     0.163 HD
BRANCH  11  14
ATOM     14  C   UNL A   1      33.765  24.822  25.187  1.00  0.00     0.082 A 
ATOM     15  C   UNL A   1      33.763  24.619  23.801  1.00  0.00     0.143 A 
ATOM     16  C   UNL A   1      34.778  23.882  23.166  1.00  0.00    -0.018 A 
ATOM     17  C   UNL A   1      35.849  23.380  23.897  1.00  0.00    -0.059 A 
ATOM     18  H   UNL A   1      34.727  23.713  22.149  1.00  0.00     0.066 H 
ATOM     19  C   UNL A   1      34.876  24.318  25.899  1.00  0.00    -0.046 A 
ATOM     20  C   UNL A   1      35.904  23.607  25.266  1.00  0.00    -0.061 A 
ATOM     21  H   UNL A   1      36.595  22.844  23.427  1.00  0.00     0.062 H 
ATOM     22  H   UNL A   1      34.933  24.477  26.916  1.00  0.00     0.063 H 
ATOM     23  H   UNL A   1      36.702  23.253  25.816  1.00  0.00     0.062 H 
BRANCH  15  24
ATOM     24  O   UNL A   1      32.739  25.046  22.954  1.00  0.00    -0.426 OA
BRANCH  24  25
ATOM     25  C   UNL A   1      33.128  25.891  21.922  1.00  0.00     0.308 C 
ATOM     26  O   UNL A   1      33.210  25.610  20.737  1.00  0.00    -0.252 OA
BRANCH  25  27
ATOM     27  C   UNL A   1      33.434  27.243  22.503  1.00  0.00     0.034 C 
ATOM     28  H   UNL A   1      34.269  27.165  23.167  1.00  0.00     0.035 H 
ATOM     29  H   UNL A   1      32.582  27.601  23.043  1.00  0.00     0.035 H 
ATOM     30  H   UNL A   1      33.667  27.926  21.713  1.00  0.00     0.035 H 
ENDBRANCH  25  27
ENDBRANCH  24  25
ENDBRANCH  15  24
ENDBRANCH  11  14
ENDBRANCH   7  10
ENDBRANCH   4   7
ENDBRANCH   1   4
BRANCH   1  31
ATOM     31  C   UNL A   1      31.626  30.676  26.281  1.00  0.00    -0.052 C 
ATOM     32  H   UNL A   1      30.669  30.300  25.988  1.00  0.00     0.027 H 
ATOM     33  H   UNL A   1      32.341  30.787  25.491  1.00  0.00     0.027 H 
BRANCH  31  34
ATOM     34  C   UNL A   1      31.416  32.095  26.811  1.00  0.00    -0.036 C 
ATOM     35  H   UNL A   1      30.959  32.014  27.775  1.00  0.00     0.028 H 
ATOM     36  H   UNL A   1      30.822  32.583  26.067  1.00  0.00     0.028 H 
BRANCH  34  37
ATOM     37  C   UNL A   1      32.654  32.973  26.964  1.00  0.00     0.018 C 
ATOM     38  H   UNL A   1      33.065  33.152  25.992  1.00  0.00     0.049 H 
ATOM     39  H   UNL A   1      33.333  32.450  27.604  1.00  0.00     0.049 H 
BRANCH  37  40
ATOM     40  N   UNL A   1      32.382  34.254  27.590  1.00  0.00    -0.352 N 
ATOM     41  C   UNL A   1      32.997  34.885  28.643  1.00  0.00     0.251 C 
ATOM     42  H   UNL A   1      31.633  34.754  27.192  1.00  0.00     0.163 HD
ATOM     43  O   UNL A   1      32.526  35.935  29.073  1.00  0.00    -0.269 OA
BRANCH  41  44
ATOM     44  C   UNL A   1      34.203  34.315  29.295  1.00  0.00     0.039 A 
ATOM     45  C   UNL A   1      34.024  33.485  30.409  1.00  0.00    -0.049 A 
ATOM     46  C   UNL A   1      35.498  34.623  28.873  1.00  0.00    -0.049 A 
ATOM     47  C   UNL A   1      35.130  32.925  31.058  1.00  0.00    -0.053 A 
ATOM     48  H   UNL A   1      33.072  33.284  30.753  1.00  0.00     0.063 H 
ATOM     49  C   UNL A   1      36.598  34.007  29.474  1.00  0.00    -0.053 A 
ATOM     50  H   UNL A   1      35.643  35.308  28.113  1.00  0.00     0.063 H 
ATOM     51  C   UNL A   1      36.428  33.158  30.578  1.00  0.00    -0.014 A 
ATOM     52  H   UNL A   1      34.991  32.337  31.894  1.00  0.00     0.063 H 
ATOM     53  H   UNL A   1      37.546  34.179  29.101  1.00  0.00     0.063 H 
BRANCH  51  54
ATOM     54  C   UNL A   1      37.612  32.533  31.228  1.00  0.00     0.031 A 
ATOM     55  C   UNL A   1      38.298  31.354  30.591  1.00  0.00     0.074 A 
ATOM     56  C   UNL A   1      38.037  32.985  32.423  1.00  0.00     0.049 A 
ATOM     57  N   UNL A   1      39.301  30.638  31.036  1.00  0.00    -0.248 NA
ATOM     58  C   UNL A   1      37.767  30.904  29.297  1.00  0.00    -0.034 C 
ATOM     59  C   UNL A   1      37.429  34.084  33.175  1.00  0.00    -0.036 A 
ATOM     60  N   UNL A   1      39.070  32.566  33.226  1.00  0.00    -0.354 N 
ATOM     61  C   UNL A   1      39.506  29.643  30.088  1.00  0.00     0.074 A 
ATOM     62  C   UNL A   1      38.491  29.818  29.071  1.00  0.00    -0.034 C 
ATOM     63  H   UNL A   1      37.024  31.323  28.717  1.00  0.00     0.065 H 
ATOM     64  C   UNL A   1      38.103  34.258  34.322  1.00  0.00    -0.036 A 
ATOM     65  H   UNL A   1      36.613  34.637  32.870  1.00  0.00     0.065 H 
ATOM     66  C   UNL A   1      39.170  33.264  34.404  1.00  0.00     0.049 A 
ATOM     67  H   UNL A   1      39.680  31.832  32.980  1.00  0.00     0.167 HD
ATOM     68  C   UNL A   1      40.465  28.687  30.056  1.00  0.00     0.037 A 
ATOM     69  H   UNL A   1      38.350  29.178  28.273  1.00  0.00     0.065 H 
ATOM     70  H   UNL A   1      37.900  34.978  35.032  1.00  0.00     0.065 H 
ATOM     71  C   UNL A   1      40.019  33.116  35.440  1.00  0.00     0.037 A 
ATOM     72  C   UNL A   1      41.493  28.533  31.052  1.00  0.00     0.049 A 
ATOM     73  C   UNL A   1      41.088  32.059  35.375  1.00  0.00     0.074 A 
ATOM     74  C   UNL A   1      42.555  27.646  31.068  1.00  0.00    -0.036 A 
ATOM     75  N   UNL A   1      41.583  29.283  32.217  1.00  0.00    -0.354 N 
ATOM     76  N   UNL A   1      41.321  31.176  34.435  1.00  0.00    -0.248 NA
ATOM     77  C   UNL A   1      42.019  31.987  36.510  1.00  0.00    -0.034 C 
ATOM     78  C   UNL A   1      43.260  27.826  32.265  1.00  0.00    -0.036 A 
ATOM     79  H   UNL A   1      42.788  26.968  30.326  1.00  0.00     0.065 H 
ATOM     80  C   UNL A   1      42.668  28.861  32.970  1.00  0.00     0.049 A 
ATOM     81  H   UNL A   1      40.968  30.009  32.470  1.00  0.00     0.167 HD
ATOM     82  C   UNL A   1      42.433  30.458  34.853  1.00  0.00     0.074 A 
ATOM     83  C   UNL A   1      42.840  31.019  36.124  1.00  0.00    -0.034 C 
ATOM     84  H   UNL A   1      42.032  32.544  37.379  1.00  0.00     0.065 H 
ATOM     85  H   UNL A   1      44.081  27.280  32.569  1.00  0.00     0.065 H 
ATOM     86  C   UNL A   1      43.059  29.425  34.237  1.00  0.00     0.037 A 
ATOM     87  H   UNL A   1      43.663  30.707  36.662  1.00  0.00     0.065 H 
BRANCH  68  88
ATOM     88  C   UNL A   1      40.443  27.724  28.902  1.00  0.00     0.064 A 
ATOM     89  C   UNL A   1      41.204  27.943  27.742  1.00  0.00     0.173 A 
ATOM     90  C   UNL A   1      39.665  26.557  28.964  1.00  0.00     0.173 A 
ATOM     91  F   UNL A   1      41.958  29.046  27.628  1.00  0.00    -0.203 F 
ATOM     92  C   UNL A   1      41.154  27.053  26.673  1.00  0.00     0.198 A 
ATOM     93  C   UNL A   1      39.644  25.653  27.905  1.00  0.00     0.198 A 
ATOM     94  F   UNL A   1      38.925  26.293  30.051  1.00  0.00    -0.203 F 
ATOM     95  F   UNL A   1      41.842  27.314  25.553  1.00  0.00    -0.200 F 
ATOM     96  C   UNL A   1      40.379  25.905  26.756  1.00  0.00     0.200 A 
ATOM     97  F   UNL A   1      38.905  24.538  27.993  1.00  0.00    -0.200 F 
ATOM     98  F   UNL A   1      40.332  25.049  25.727  1.00  0.00    -0.200 F 
ENDBRANCH  68  88
BRANCH  71  99
ATOM     99  C   UNL A   1      39.897  34.010  36.621  1.00  0.00     0.064 A 
ATOM    100  C   UNL A   1      39.064  33.677  37.697  1.00  0.00     0.173 A 
ATOM    101  C   UNL A   1      40.629  35.204  36.705  1.00  0.00     0.173 A 
ATOM    102  F   UNL A   1      38.330  32.555  37.652  1.00  0.00    -0.203 F 
ATOM    103  C   UNL A   1      38.958  34.509  38.809  1.00  0.00     0.198 A 
ATOM    104  C   UNL A   1      40.543  36.022  37.829  1.00  0.00     0.198 A 
ATOM    105  F   UNL A   1      41.444  35.564  35.704  1.00  0.00    -0.203 F 
ATOM    106  F   UNL A   1      38.127  34.186  39.809  1.00  0.00    -0.200 F 
ATOM    107  C   UNL A   1      39.703  35.677  38.878  1.00  0.00     0.200 A 
ATOM    108  F   UNL A   1      41.276  37.142  37.898  1.00  0.00    -0.200 F 
ATOM    109  F   UNL A   1      39.609  36.472  39.952  1.00  0.00    -0.200 F 
ENDBRANCH  71  99
BRANCH  86 110
ATOM    110  C   UNL A   1      44.266  28.845  34.919  1.00  0.00     0.064 A 
ATOM    111  C   UNL A   1      45.550  29.369  34.709  1.00  0.00     0.173 A 
ATOM    112  C   UNL A   1      44.130  27.781  35.823  1.00  0.00     0.173 A 
ATOM    113  F   UNL A   1      45.735  30.376  33.843  1.00  0.00    -0.203 F 
ATOM    114  C   UNL A   1      46.657  28.833  35.362  1.00  0.00     0.198 A 
ATOM    115  C   UNL A   1      45.235  27.267  36.497  1.00  0.00     0.198 A 
ATOM    116  F   UNL A   1      42.923  27.248  36.064  1.00  0.00    -0.203 F 
ATOM    117  F   UNL A   1      47.880  29.319  35.112  1.00  0.00    -0.200 F 
ATOM    118  C   UNL A   1      46.498  27.788  36.260  1.00  0.00     0.200 A 
ATOM    119  F   UNL A   1      45.076  26.266  37.373  1.00  0.00    -0.200 F 
ATOM    120  F   UNL A   1      47.563  27.279  36.893  1.00  0.00    -0.200 F 
ENDBRANCH  86 110
ENDBRANCH  51  54
ENDBRANCH  41  44
ENDBRANCH  37  40
ENDBRANCH  34  37
ENDBRANCH  31  34
ENDBRANCH   1  31
TORSDOF 16
ENDMDL
