MODEL 1
REMARK VINA RESULT:     -12.2      0.000      0.000
REMARK SMILES Cc1cccc(Nc2ccccc2C(=O)NCCCCCCNC(=O)c2ccc(-c3c4nc(c(-c5c(F)c(F)c(F)c(F)c5F)c5ccc([nH]5)c(-c5c(F)c(F)c(F)c(F)c5F)c5nc(c(-c6c(F)c(F)c(F)c(F)c6F)c6ccc3[nH]6)C=C5)C=C4)cc2)c1C
REMARK SMILES IDX 19 1 18 4 17 7 16 10 14 11 15 12 13 14 8 15 9 16 10 17 12 19
REMARK SMILES IDX 11 20 7 24 6 26 2 27 3 28 89 29 4 30 5 32 1 35 90 39 20 43
REMARK SMILES IDX 21 46 22 49 23 52 24 53 25 55 26 56 27 57 88 58 28 59 87 61
REMARK SMILES IDX 29 63 30 66 31 67 81 68 32 69 86 70 80 71 82 72 33 73 85 74
REMARK SMILES IDX 79 76 78 78 34 80 66 83 46 84 65 85 47 86 50 87 64 88 83 89
REMARK SMILES IDX 48 90 49 92 63 94 84 95 51 98 35 100 36 101 44 102 37 103
REMARK SMILES IDX 38 104 42 105 45 106 39 107 40 108 43 109 41 110 67 111
REMARK SMILES IDX 68 112 76 113 69 114 70 115 74 116 77 117 71 118 72 119
REMARK SMILES IDX 75 120 73 121 52 122 53 123 61 124 54 125 55 126 59 127
REMARK SMILES IDX 62 128 56 129 57 130 60 131 58 132
REMARK H PARENT 19 2 19 3 18 5 18 6 17 8 17 9 16 13 9 18 10 21 12 22 11 23
REMARK H PARENT 7 25 3 31 4 33 5 34 1 36 1 37 1 38 90 40 90 41 90 42 20 44
REMARK H PARENT 20 45 21 47 21 48 22 50 22 51 23 54 27 60 88 62 28 64 87 65
REMARK H PARENT 86 75 80 77 82 79 85 81 79 82 47 91 50 93 83 96 48 97 84 99
REMARK Flexibility Score: inf
ROOT
ATOM      1  C   UNL A   1      32.294  29.960  26.805  1.00  0.00    -0.052 C 
ATOM      2  H   UNL A   1      33.129  29.733  26.175  1.00  0.00     0.027 H 
ATOM      3  H   UNL A   1      32.527  30.502  27.699  1.00  0.00     0.027 H 
ENDROOT
BRANCH   1   4
ATOM      4  C   UNL A   1      31.716  28.626  27.299  1.00  0.00    -0.036 C 
ATOM      5  H   UNL A   1      31.924  28.548  28.346  1.00  0.00     0.028 H 
ATOM      6  H   UNL A   1      30.675  28.661  27.053  1.00  0.00     0.028 H 
BRANCH   4   7
ATOM      7  C   UNL A   1      32.245  27.361  26.627  1.00  0.00     0.018 C 
ATOM      8  H   UNL A   1      32.214  27.507  25.568  1.00  0.00     0.049 H 
ATOM      9  H   UNL A   1      33.237  27.211  27.001  1.00  0.00     0.049 H 
BRANCH   7  10
ATOM     10  N   UNL A   1      31.505  26.164  26.940  1.00  0.00    -0.352 N 
ATOM     11  C   UNL A   1      31.744  24.858  26.586  1.00  0.00     0.253 C 
ATOM     12  O   UNL A   1      31.005  24.003  27.083  1.00  0.00    -0.269 OA
ATOM     13  H   UNL A   1      30.703  26.304  27.492  1.00  0.00     0.163 HD
BRANCH  11  14
ATOM     14  C   UNL A   1      32.741  24.424  25.557  1.00  0.00     0.063 A 
ATOM     15  C   UNL A   1      32.664  24.527  24.153  1.00  0.00     0.051 A 
ATOM     16  C   UNL A   1      33.728  23.986  23.386  1.00  0.00    -0.038 A 
ATOM     17  C   UNL A   1      34.865  23.430  23.970  1.00  0.00    -0.060 A 
ATOM     18  H   UNL A   1      33.658  24.005  22.357  1.00  0.00     0.064 H 
ATOM     19  C   UNL A   1      33.915  23.872  26.129  1.00  0.00    -0.047 A 
ATOM     20  C   UNL A   1      34.969  23.392  25.350  1.00  0.00    -0.061 A 
ATOM     21  H   UNL A   1      35.622  23.051  23.381  1.00  0.00     0.062 H 
ATOM     22  H   UNL A   1      33.993  23.822  27.158  1.00  0.00     0.063 H 
ATOM     23  H   UNL A   1      35.818  23.012  25.798  1.00  0.00     0.062 H 
BRANCH  15  24
ATOM     24  N   UNL A   1      31.708  25.232  23.392  1.00  0.00    -0.355 N 
ATOM     25  H   UNL A   1      31.179  24.644  22.806  1.00  0.00     0.167 HD
BRANCH  24  26
ATOM     26  C   UNL A   1      31.340  26.588  23.284  1.00  0.00     0.042 A 
ATOM     27  C   UNL A   1      29.769  28.431  22.992  1.00  0.00    -0.046 A 
ATOM     28  C   UNL A   1      30.826  29.275  22.620  1.00  0.00    -0.059 A 
ATOM     29  C   UNL A   1      30.030  27.095  23.395  1.00  0.00    -0.025 A 
ATOM     30  C   UNL A   1      32.132  28.811  22.629  1.00  0.00    -0.060 A 
ATOM     31  H   UNL A   1      30.630  30.248  22.337  1.00  0.00     0.063 H 
ATOM     32  C   UNL A   1      32.380  27.480  22.948  1.00  0.00    -0.038 A 
ATOM     33  H   UNL A   1      32.913  29.446  22.402  1.00  0.00     0.062 H 
ATOM     34  H   UNL A   1      33.353  27.135  22.937  1.00  0.00     0.064 H 
BRANCH  27  35
ATOM     35  C   UNL A   1      28.369  28.987  22.974  1.00  0.00    -0.039 C 
ATOM     36  H   UNL A   1      27.891  28.719  22.056  1.00  0.00     0.028 H 
ATOM     37  H   UNL A   1      28.408  30.052  23.060  1.00  0.00     0.028 H 
ATOM     38  H   UNL A   1      27.815  28.583  23.796  1.00  0.00     0.028 H 
ENDBRANCH  27  35
BRANCH  29  39
ATOM     39  C   UNL A   1      28.905  26.287  23.991  1.00  0.00    -0.037 C 
ATOM     40  H   UNL A   1      29.146  25.246  23.939  1.00  0.00     0.028 H 
ATOM     41  H   UNL A   1      28.003  26.473  23.445  1.00  0.00     0.028 H 
ATOM     42  H   UNL A   1      28.767  26.569  25.014  1.00  0.00     0.028 H 
ENDBRANCH  29  39
ENDBRANCH  24  26
ENDBRANCH  15  24
ENDBRANCH  11  14
ENDBRANCH   7  10
ENDBRANCH   4   7
ENDBRANCH   1   4
BRANCH   1  43
ATOM     43  C   UNL A   1      31.365  30.893  26.017  1.00  0.00    -0.052 C 
ATOM     44  H   UNL A   1      30.384  30.467  26.042  1.00  0.00     0.027 H 
ATOM     45  H   UNL A   1      31.804  30.963  25.043  1.00  0.00     0.027 H 
BRANCH  43  46
ATOM     46  C   UNL A   1      31.254  32.337  26.508  1.00  0.00    -0.036 C 
ATOM     47  H   UNL A   1      30.424  32.388  27.181  1.00  0.00     0.028 H 
ATOM     48  H   UNL A   1      31.146  32.930  25.624  1.00  0.00     0.028 H 
BRANCH  46  49
ATOM     49  C   UNL A   1      32.470  32.904  27.229  1.00  0.00     0.018 C 
ATOM     50  H   UNL A   1      33.307  32.869  26.562  1.00  0.00     0.049 H 
ATOM     51  H   UNL A   1      32.629  32.308  28.102  1.00  0.00     0.049 H 
BRANCH  49  52
ATOM     52  N   UNL A   1      32.286  34.276  27.667  1.00  0.00    -0.352 N 
ATOM     53  C   UNL A   1      32.958  35.000  28.622  1.00  0.00     0.251 C 
ATOM     54  H   UNL A   1      31.565  34.764  27.209  1.00  0.00     0.163 HD
ATOM     55  O   UNL A   1      32.554  36.117  28.934  1.00  0.00    -0.269 OA
BRANCH  53  56
ATOM     56  C   UNL A   1      34.154  34.446  29.302  1.00  0.00     0.039 A 
ATOM     57  C   UNL A   1      33.981  33.761  30.511  1.00  0.00    -0.049 A 
ATOM     58  C   UNL A   1      35.440  34.626  28.790  1.00  0.00    -0.049 A 
ATOM     59  C   UNL A   1      35.085  33.209  31.170  1.00  0.00    -0.053 A 
ATOM     60  H   UNL A   1      33.037  33.664  30.917  1.00  0.00     0.063 H 
ATOM     61  C   UNL A   1      36.530  34.012  29.406  1.00  0.00    -0.053 A 
ATOM     62  H   UNL A   1      35.585  35.216  27.955  1.00  0.00     0.063 H 
ATOM     63  C   UNL A   1      36.365  33.303  30.607  1.00  0.00    -0.014 A 
ATOM     64  H   UNL A   1      34.956  32.730  32.075  1.00  0.00     0.063 H 
ATOM     65  H   UNL A   1      37.465  34.077  28.974  1.00  0.00     0.063 H 
BRANCH  63  66
ATOM     66  C   UNL A   1      37.554  32.695  31.261  1.00  0.00     0.031 A 
ATOM     67  C   UNL A   1      38.282  31.563  30.590  1.00  0.00     0.074 A 
ATOM     68  C   UNL A   1      37.926  33.097  32.491  1.00  0.00     0.049 A 
ATOM     69  N   UNL A   1      39.248  30.807  31.050  1.00  0.00    -0.248 NA
ATOM     70  C   UNL A   1      37.841  31.210  29.232  1.00  0.00    -0.034 C 
ATOM     71  C   UNL A   1      37.280  34.157  33.266  1.00  0.00    -0.036 A 
ATOM     72  N   UNL A   1      38.927  32.645  33.316  1.00  0.00    -0.354 N 
ATOM     73  C   UNL A   1      39.504  29.874  30.054  1.00  0.00     0.074 A 
ATOM     74  C   UNL A   1      38.565  30.130  28.982  1.00  0.00    -0.034 C 
ATOM     75  H   UNL A   1      37.147  31.682  28.631  1.00  0.00     0.065 H 
ATOM     76  C   UNL A   1      37.904  34.278  34.449  1.00  0.00    -0.036 A 
ATOM     77  H   UNL A   1      36.475  34.720  32.953  1.00  0.00     0.065 H 
ATOM     78  C   UNL A   1      38.966  33.280  34.534  1.00  0.00     0.049 A 
ATOM     79  H   UNL A   1      39.556  31.932  33.060  1.00  0.00     0.167 HD
ATOM     80  C   UNL A   1      40.447  28.902  30.027  1.00  0.00     0.037 A 
ATOM     81  H   UNL A   1      38.472  29.547  28.136  1.00  0.00     0.065 H 
ATOM     82  H   UNL A   1      37.669  34.967  35.182  1.00  0.00     0.065 H 
ATOM     83  C   UNL A   1      39.758  33.072  35.603  1.00  0.00     0.037 A 
ATOM     84  C   UNL A   1      41.410  28.681  31.073  1.00  0.00     0.049 A 
ATOM     85  C   UNL A   1      40.812  31.999  35.544  1.00  0.00     0.074 A 
ATOM     86  C   UNL A   1      42.458  27.777  31.104  1.00  0.00    -0.036 A 
ATOM     87  N   UNL A   1      41.443  29.373  32.274  1.00  0.00    -0.354 N 
ATOM     88  N   UNL A   1      41.084  31.162  34.573  1.00  0.00    -0.248 NA
ATOM     89  C   UNL A   1      41.670  31.843  36.727  1.00  0.00    -0.034 C 
ATOM     90  C   UNL A   1      43.099  27.894  32.342  1.00  0.00    -0.036 A 
ATOM     91  H   UNL A   1      42.722  27.130  30.345  1.00  0.00     0.065 H 
ATOM     92  C   UNL A   1      42.480  28.902  33.063  1.00  0.00     0.049 A 
ATOM     93  H   UNL A   1      40.821  30.094  32.528  1.00  0.00     0.167 HD
ATOM     94  C   UNL A   1      42.158  30.401  35.014  1.00  0.00     0.074 A 
ATOM     95  C   UNL A   1      42.493  30.880  36.338  1.00  0.00    -0.034 C 
ATOM     96  H   UNL A   1      41.638  32.351  37.625  1.00  0.00     0.065 H 
ATOM     97  H   UNL A   1      43.898  27.325  32.663  1.00  0.00     0.065 H 
ATOM     98  C   UNL A   1      42.807  29.397  34.376  1.00  0.00     0.037 A 
ATOM     99  H   UNL A   1      43.274  30.516  36.908  1.00  0.00     0.065 H 
BRANCH  80 100
ATOM    100  C   UNL A   1      40.482  28.000  28.827  1.00  0.00     0.064 A 
ATOM    101  C   UNL A   1      41.245  28.310  27.691  1.00  0.00     0.173 A 
ATOM    102  C   UNL A   1      39.764  26.795  28.824  1.00  0.00     0.173 A 
ATOM    103  F   UNL A   1      41.943  29.454  27.639  1.00  0.00    -0.203 F 
ATOM    104  C   UNL A   1      41.259  27.465  26.584  1.00  0.00     0.198 A 
ATOM    105  C   UNL A   1      39.804  25.937  27.728  1.00  0.00     0.198 A 
ATOM    106  F   UNL A   1      39.023  26.446  29.887  1.00  0.00    -0.203 F 
ATOM    107  F   UNL A   1      41.951  27.810  25.489  1.00  0.00    -0.200 F 
ATOM    108  C   UNL A   1      40.544  26.278  26.605  1.00  0.00     0.200 A 
ATOM    109  F   UNL A   1      39.123  24.784  27.756  1.00  0.00    -0.200 F 
ATOM    110  F   UNL A   1      40.560  25.464  25.541  1.00  0.00    -0.200 F 
ENDBRANCH  80 100
BRANCH  83 111
ATOM    111  C   UNL A   1      39.592  33.914  36.816  1.00  0.00     0.064 A 
ATOM    112  C   UNL A   1      40.224  35.161  36.916  1.00  0.00     0.173 A 
ATOM    113  C   UNL A   1      38.790  33.500  37.888  1.00  0.00     0.173 A 
ATOM    114  F   UNL A   1      41.019  35.590  35.926  1.00  0.00    -0.203 F 
ATOM    115  C   UNL A   1      40.067  35.957  38.049  1.00  0.00     0.198 A 
ATOM    116  C   UNL A   1      38.612  34.309  39.009  1.00  0.00     0.198 A 
ATOM    117  F   UNL A   1      38.160  32.316  37.838  1.00  0.00    -0.203 F 
ATOM    118  F   UNL A   1      40.710  37.131  38.134  1.00  0.00    -0.200 F 
ATOM    119  C   UNL A   1      39.256  35.535  39.091  1.00  0.00     0.200 A 
ATOM    120  F   UNL A   1      37.817  33.902  40.007  1.00  0.00    -0.200 F 
ATOM    121  F   UNL A   1      39.098  36.306  40.175  1.00  0.00    -0.200 F 
ENDBRANCH  83 111
BRANCH  98 122
ATOM    122  C   UNL A   1      43.972  28.766  35.082  1.00  0.00     0.064 A 
ATOM    123  C   UNL A   1      45.273  29.265  34.940  1.00  0.00     0.173 A 
ATOM    124  C   UNL A   1      43.768  27.691  35.961  1.00  0.00     0.173 A 
ATOM    125  F   UNL A   1      45.520  30.281  34.101  1.00  0.00    -0.203 F 
ATOM    126  C   UNL A   1      46.333  28.703  35.646  1.00  0.00     0.198 A 
ATOM    127  C   UNL A   1      44.826  27.149  36.684  1.00  0.00     0.198 A 
ATOM    128  F   UNL A   1      42.540  27.183  36.134  1.00  0.00    -0.203 F 
ATOM    129  F   UNL A   1      47.576  29.174  35.474  1.00  0.00    -0.200 F 
ATOM    130  C   UNL A   1      46.108  27.652  36.524  1.00  0.00     0.200 A 
ATOM    131  F   UNL A   1      44.604  26.143  37.541  1.00  0.00    -0.200 F 
ATOM    132  F   UNL A   1      47.127  27.123  37.214  1.00  0.00    -0.200 F 
ENDBRANCH  98 122
ENDBRANCH  63  66
ENDBRANCH  53  56
ENDBRANCH  49  52
ENDBRANCH  46  49
ENDBRANCH  43  46
ENDBRANCH   1  43
TORSDOF 17
ENDMDL
MODEL 2
REMARK VINA RESULT:     -12.1      0.184      1.594
REMARK SMILES Cc1cccc(Nc2ccccc2C(=O)NCCCCCCNC(=O)c2ccc(-c3c4nc(c(-c5c(F)c(F)c(F)c(F)c5F)c5ccc([nH]5)c(-c5c(F)c(F)c(F)c(F)c5F)c5nc(c(-c6c(F)c(F)c(F)c(F)c6F)c6ccc3[nH]6)C=C5)C=C4)cc2)c1C
REMARK SMILES IDX 19 1 18 4 17 7 16 10 14 11 15 12 13 14 8 15 9 16 10 17 12 19
REMARK SMILES IDX 11 20 7 24 6 26 2 27 3 28 89 29 4 30 5 32 1 35 90 39 20 43
REMARK SMILES IDX 21 46 22 49 23 52 24 53 25 55 26 56 27 57 88 58 28 59 87 61
REMARK SMILES IDX 29 63 30 66 31 67 81 68 32 69 86 70 80 71 82 72 33 73 85 74
REMARK SMILES IDX 79 76 78 78 34 80 66 83 46 84 65 85 47 86 50 87 64 88 83 89
REMARK SMILES IDX 48 90 49 92 63 94 84 95 51 98 35 100 36 101 44 102 37 103
REMARK SMILES IDX 38 104 42 105 45 106 39 107 40 108 43 109 41 110 67 111
REMARK SMILES IDX 68 112 76 113 69 114 70 115 74 116 77 117 71 118 72 119
REMARK SMILES IDX 75 120 73 121 52 122 53 123 61 124 54 125 55 126 59 127
REMARK SMILES IDX 62 128 56 129 57 130 60 131 58 132
REMARK H PARENT 19 2 19 3 18 5 18 6 17 8 17 9 16 13 9 18 10 21 12 22 11 23
REMARK H PARENT 7 25 3 31 4 33 5 34 1 36 1 37 1 38 90 40 90 41 90 42 20 44
REMARK H PARENT 20 45 21 47 21 48 22 50 22 51 23 54 27 60 88 62 28 64 87 65
REMARK H PARENT 86 75 80 77 82 79 85 81 79 82 47 91 50 93 83 96 48 97 84 99
REMARK Flexibility Score: inf
ROOT
ATOM      1  C   UNL A   1      32.351  29.900  26.747  1.00  0.00    -0.052 C 
ATOM      2  H   UNL A   1      33.161  29.659  26.089  1.00  0.00     0.027 H 
ATOM      3  H   UNL A   1      32.620  30.447  27.627  1.00  0.00     0.027 H 
ENDROOT
BRANCH   1   4
ATOM      4  C   UNL A   1      31.779  28.575  27.273  1.00  0.00    -0.036 C 
ATOM      5  H   UNL A   1      32.056  28.486  28.302  1.00  0.00     0.028 H 
ATOM      6  H   UNL A   1      30.724  28.635  27.098  1.00  0.00     0.028 H 
BRANCH   4   7
ATOM      7  C   UNL A   1      32.232  27.304  26.560  1.00  0.00     0.018 C 
ATOM      8  H   UNL A   1      32.171  27.471  25.505  1.00  0.00     0.049 H 
ATOM      9  H   UNL A   1      33.229  27.106  26.896  1.00  0.00     0.049 H 
BRANCH   7  10
ATOM     10  N   UNL A   1      31.455  26.131  26.876  1.00  0.00    -0.352 N 
ATOM     11  C   UNL A   1      31.634  24.822  26.500  1.00  0.00     0.253 C 
ATOM     12  O   UNL A   1      30.875  23.990  27.005  1.00  0.00    -0.269 OA
ATOM     13  H   UNL A   1      30.673  26.295  27.450  1.00  0.00     0.163 HD
BRANCH  11  14
ATOM     14  C   UNL A   1      32.587  24.364  25.439  1.00  0.00     0.063 A 
ATOM     15  C   UNL A   1      32.479  24.491  24.040  1.00  0.00     0.051 A 
ATOM     16  C   UNL A   1      33.502  23.920  23.238  1.00  0.00    -0.038 A 
ATOM     17  C   UNL A   1      34.630  23.312  23.785  1.00  0.00    -0.060 A 
ATOM     18  H   UNL A   1      33.407  23.957  22.212  1.00  0.00     0.064 H 
ATOM     19  C   UNL A   1      33.753  23.759  25.974  1.00  0.00    -0.047 A 
ATOM     20  C   UNL A   1      34.767  23.250  25.161  1.00  0.00    -0.061 A 
ATOM     21  H   UNL A   1      35.356  22.912  23.171  1.00  0.00     0.062 H 
ATOM     22  H   UNL A   1      33.854  23.691  26.999  1.00  0.00     0.063 H 
ATOM     23  H   UNL A   1      35.611  22.831  25.582  1.00  0.00     0.062 H 
BRANCH  15  24
ATOM     24  N   UNL A   1      31.533  25.244  23.313  1.00  0.00    -0.355 N 
ATOM     25  H   UNL A   1      30.991  24.691  22.705  1.00  0.00     0.167 HD
BRANCH  24  26
ATOM     26  C   UNL A   1      31.188  26.610  23.264  1.00  0.00     0.042 A 
ATOM     27  C   UNL A   1      29.645  28.490  23.083  1.00  0.00    -0.046 A 
ATOM     28  C   UNL A   1      30.707  29.328  22.710  1.00  0.00    -0.059 A 
ATOM     29  C   UNL A   1      29.892  27.136  23.431  1.00  0.00    -0.025 A 
ATOM     30  C   UNL A   1      32.004  28.839  22.664  1.00  0.00    -0.060 A 
ATOM     31  H   UNL A   1      30.522  30.313  22.467  1.00  0.00     0.063 H 
ATOM     32  C   UNL A   1      32.235  27.494  22.928  1.00  0.00    -0.038 A 
ATOM     33  H   UNL A   1      32.790  29.468  22.436  1.00  0.00     0.062 H 
ATOM     34  H   UNL A   1      33.201  27.132  22.877  1.00  0.00     0.064 H 
BRANCH  27  35
ATOM     35  C   UNL A   1      28.257  29.072  23.126  1.00  0.00    -0.039 C 
ATOM     36  H   UNL A   1      28.128  29.620  24.035  1.00  0.00     0.028 H 
ATOM     37  H   UNL A   1      27.538  28.281  23.080  1.00  0.00     0.028 H 
ATOM     38  H   UNL A   1      28.119  29.728  22.291  1.00  0.00     0.028 H 
ENDBRANCH  27  35
BRANCH  29  39
ATOM     39  C   UNL A   1      28.769  26.328  24.031  1.00  0.00    -0.037 C 
ATOM     40  H   UNL A   1      28.418  26.809  24.921  1.00  0.00     0.028 H 
ATOM     41  H   UNL A   1      29.123  25.347  24.271  1.00  0.00     0.028 H 
ATOM     42  H   UNL A   1      27.967  26.255  23.326  1.00  0.00     0.028 H 
ENDBRANCH  29  39
ENDBRANCH  24  26
ENDBRANCH  15  24
ENDBRANCH  11  14
ENDBRANCH   7  10
ENDBRANCH   4   7
ENDBRANCH   1   4
BRANCH   1  43
ATOM     43  C   UNL A   1      31.404  30.834  25.984  1.00  0.00    -0.052 C 
ATOM     44  H   UNL A   1      30.428  30.396  26.011  1.00  0.00     0.027 H 
ATOM     45  H   UNL A   1      31.831  30.927  25.007  1.00  0.00     0.027 H 
BRANCH  43  46
ATOM     46  C   UNL A   1      31.280  32.269  26.501  1.00  0.00    -0.036 C 
ATOM     47  H   UNL A   1      30.457  32.298  27.183  1.00  0.00     0.028 H 
ATOM     48  H   UNL A   1      31.155  32.875  25.628  1.00  0.00     0.028 H 
BRANCH  46  49
ATOM     49  C   UNL A   1      32.497  32.838  27.218  1.00  0.00     0.018 C 
ATOM     50  H   UNL A   1      33.333  32.802  26.550  1.00  0.00     0.049 H 
ATOM     51  H   UNL A   1      32.657  32.246  28.093  1.00  0.00     0.049 H 
BRANCH  49  52
ATOM     52  N   UNL A   1      32.313  34.211  27.652  1.00  0.00    -0.352 N 
ATOM     53  C   UNL A   1      32.976  34.935  28.614  1.00  0.00     0.251 C 
ATOM     54  H   UNL A   1      31.600  34.703  27.183  1.00  0.00     0.163 HD
ATOM     55  O   UNL A   1      32.573  36.053  28.920  1.00  0.00    -0.269 OA
BRANCH  53  56
ATOM     56  C   UNL A   1      34.160  34.376  29.311  1.00  0.00     0.039 A 
ATOM     57  C   UNL A   1      33.970  33.708  30.526  1.00  0.00    -0.049 A 
ATOM     58  C   UNL A   1      35.452  34.537  28.807  1.00  0.00    -0.049 A 
ATOM     59  C   UNL A   1      35.063  33.152  31.201  1.00  0.00    -0.053 A 
ATOM     60  H   UNL A   1      33.022  33.625  30.926  1.00  0.00     0.063 H 
ATOM     61  C   UNL A   1      36.530  33.918  29.439  1.00  0.00    -0.053 A 
ATOM     62  H   UNL A   1      35.610  35.115  27.967  1.00  0.00     0.063 H 
ATOM     63  C   UNL A   1      36.349  33.225  30.647  1.00  0.00    -0.014 A 
ATOM     64  H   UNL A   1      34.921  32.685  32.111  1.00  0.00     0.063 H 
ATOM     65  H   UNL A   1      37.470  33.968  29.015  1.00  0.00     0.063 H 
BRANCH  63  66
ATOM     66  C   UNL A   1      37.525  32.614  31.318  1.00  0.00     0.031 A 
ATOM     67  C   UNL A   1      38.240  31.458  30.673  1.00  0.00     0.074 A 
ATOM     68  C   UNL A   1      37.897  33.033  32.543  1.00  0.00     0.049 A 
ATOM     69  N   UNL A   1      39.193  30.698  31.151  1.00  0.00    -0.248 NA
ATOM     70  C   UNL A   1      37.799  31.086  29.320  1.00  0.00    -0.034 C 
ATOM     71  C   UNL A   1      37.264  34.117  33.294  1.00  0.00    -0.036 A 
ATOM     72  N   UNL A   1      38.889  32.583  33.381  1.00  0.00    -0.354 N 
ATOM     73  C   UNL A   1      39.439  29.742  30.174  1.00  0.00     0.074 A 
ATOM     74  C   UNL A   1      38.509  29.991  29.094  1.00  0.00    -0.034 C 
ATOM     75  H   UNL A   1      37.115  31.556  28.706  1.00  0.00     0.065 H 
ATOM     76  C   UNL A   1      37.884  34.252  34.478  1.00  0.00    -0.036 A 
ATOM     77  H   UNL A   1      36.469  34.686  32.967  1.00  0.00     0.065 H 
ATOM     78  C   UNL A   1      38.932  33.241  34.586  1.00  0.00     0.049 A 
ATOM     79  H   UNL A   1      39.508  31.856  33.141  1.00  0.00     0.167 HD
ATOM     80  C   UNL A   1      40.368  28.756  30.170  1.00  0.00     0.037 A 
ATOM     81  H   UNL A   1      38.412  29.394  28.258  1.00  0.00     0.065 H 
ATOM     82  H   UNL A   1      37.656  34.958  35.196  1.00  0.00     0.065 H 
ATOM     83  C   UNL A   1      39.716  33.041  35.663  1.00  0.00     0.037 A 
ATOM     84  C   UNL A   1      41.323  28.541  31.225  1.00  0.00     0.049 A 
ATOM     85  C   UNL A   1      40.754  31.953  35.629  1.00  0.00     0.074 A 
ATOM     86  C   UNL A   1      42.359  27.623  31.278  1.00  0.00    -0.036 A 
ATOM     87  N   UNL A   1      41.361  29.256  32.412  1.00  0.00    -0.354 N 
ATOM     88  N   UNL A   1      41.018  31.093  34.676  1.00  0.00    -0.248 NA
ATOM     89  C   UNL A   1      41.604  31.807  36.819  1.00  0.00    -0.034 C 
ATOM     90  C   UNL A   1      42.996  27.755  32.517  1.00  0.00    -0.036 A 
ATOM     91  H   UNL A   1      42.616  26.958  30.532  1.00  0.00     0.065 H 
ATOM     92  C   UNL A   1      42.388  28.785  33.215  1.00  0.00     0.049 A 
ATOM     93  H   UNL A   1      40.749  29.990  32.650  1.00  0.00     0.167 HD
ATOM     94  C   UNL A   1      42.079  30.326  35.136  1.00  0.00     0.074 A 
ATOM     95  C   UNL A   1      42.415  30.825  36.452  1.00  0.00    -0.034 C 
ATOM     96  H   UNL A   1      41.577  32.332  37.707  1.00  0.00     0.065 H 
ATOM     97  H   UNL A   1      43.785  27.181  32.852  1.00  0.00     0.065 H 
ATOM     98  C   UNL A   1      42.717  29.300  34.520  1.00  0.00     0.037 A 
ATOM     99  H   UNL A   1      43.189  30.461  37.032  1.00  0.00     0.065 H 
BRANCH  80 100
ATOM    100  C   UNL A   1      40.396  27.831  28.988  1.00  0.00     0.064 A 
ATOM    101  C   UNL A   1      41.172  28.106  27.852  1.00  0.00     0.173 A 
ATOM    102  C   UNL A   1      39.657  26.639  29.003  1.00  0.00     0.173 A 
ATOM    103  F   UNL A   1      41.889  29.237  27.783  1.00  0.00    -0.203 F 
ATOM    104  C   UNL A   1      41.178  27.240  26.761  1.00  0.00     0.198 A 
ATOM    105  C   UNL A   1      39.689  25.759  27.924  1.00  0.00     0.198 A 
ATOM    106  F   UNL A   1      38.903  26.323  30.067  1.00  0.00    -0.203 F 
ATOM    107  F   UNL A   1      41.883  27.552  25.665  1.00  0.00    -0.200 F 
ATOM    108  C   UNL A   1      40.442  26.066  26.800  1.00  0.00     0.200 A 
ATOM    109  F   UNL A   1      38.988  24.619  27.968  1.00  0.00    -0.200 F 
ATOM    110  F   UNL A   1      40.452  25.232  25.751  1.00  0.00    -0.200 F 
ENDBRANCH  80 100
BRANCH  83 111
ATOM    111  C   UNL A   1      39.557  33.909  36.859  1.00  0.00     0.064 A 
ATOM    112  C   UNL A   1      38.783  33.492  37.951  1.00  0.00     0.173 A 
ATOM    113  C   UNL A   1      40.185  35.159  36.942  1.00  0.00     0.173 A 
ATOM    114  F   UNL A   1      38.145  32.314  37.908  1.00  0.00    -0.203 F 
ATOM    115  C   UNL A   1      38.635  34.300  39.076  1.00  0.00     0.198 A 
ATOM    116  C   UNL A   1      40.058  35.955  38.079  1.00  0.00     0.198 A 
ATOM    117  F   UNL A   1      40.940  35.601  35.925  1.00  0.00    -0.203 F 
ATOM    118  F   UNL A   1      37.861  33.893  40.093  1.00  0.00    -0.200 F 
ATOM    119  C   UNL A   1      39.278  35.527  39.144  1.00  0.00     0.200 A 
ATOM    120  F   UNL A   1      40.692  37.133  38.145  1.00  0.00    -0.200 F 
ATOM    121  F   UNL A   1      39.143  36.298  40.231  1.00  0.00    -0.200 F 
ENDBRANCH  83 111
BRANCH  98 122
ATOM    122  C   UNL A   1      43.869  28.666  35.243  1.00  0.00     0.064 A 
ATOM    123  C   UNL A   1      43.682  27.581  36.110  1.00  0.00     0.173 A 
ATOM    124  C   UNL A   1      45.180  29.109  35.012  1.00  0.00     0.173 A 
ATOM    125  F   UNL A   1      42.447  27.131  36.374  1.00  0.00    -0.203 F 
ATOM    126  C   UNL A   1      44.768  26.968  36.730  1.00  0.00     0.198 A 
ATOM    127  C   UNL A   1      46.264  28.478  35.613  1.00  0.00     0.198 A 
ATOM    128  F   UNL A   1      45.409  30.140  34.187  1.00  0.00    -0.203 F 
ATOM    129  F   UNL A   1      44.567  25.952  37.580  1.00  0.00    -0.200 F 
ATOM    130  C   UNL A   1      46.059  27.410  36.474  1.00  0.00     0.200 A 
ATOM    131  F   UNL A   1      47.510  28.898  35.354  1.00  0.00    -0.200 F 
ATOM    132  F   UNL A   1      47.103  26.810  37.059  1.00  0.00    -0.200 F 
ENDBRANCH  98 122
ENDBRANCH  63  66
ENDBRANCH  53  56
ENDBRANCH  49  52
ENDBRANCH  46  49
ENDBRANCH  43  46
ENDBRANCH   1  43
TORSDOF 17
ENDMDL
MODEL 3
REMARK VINA RESULT:     -11.9      2.412      3.981
REMARK SMILES Cc1cccc(Nc2ccccc2C(=O)NCCCCCCNC(=O)c2ccc(-c3c4nc(c(-c5c(F)c(F)c(F)c(F)c5F)c5ccc([nH]5)c(-c5c(F)c(F)c(F)c(F)c5F)c5nc(c(-c6c(F)c(F)c(F)c(F)c6F)c6ccc3[nH]6)C=C5)C=C4)cc2)c1C
REMARK SMILES IDX 19 1 18 4 17 7 16 10 14 11 15 12 13 14 8 15 9 16 10 17 12 19
REMARK SMILES IDX 11 20 7 24 6 26 2 27 3 28 89 29 4 30 5 32 1 35 90 39 20 43
REMARK SMILES IDX 21 46 22 49 23 52 24 53 25 55 26 56 27 57 88 58 28 59 87 61
REMARK SMILES IDX 29 63 30 66 31 67 81 68 32 69 86 70 80 71 82 72 33 73 85 74
REMARK SMILES IDX 79 76 78 78 34 80 66 83 46 84 65 85 47 86 50 87 64 88 83 89
REMARK SMILES IDX 48 90 49 92 63 94 84 95 51 98 35 100 36 101 44 102 37 103
REMARK SMILES IDX 38 104 42 105 45 106 39 107 40 108 43 109 41 110 67 111
REMARK SMILES IDX 68 112 76 113 69 114 70 115 74 116 77 117 71 118 72 119
REMARK SMILES IDX 75 120 73 121 52 122 53 123 61 124 54 125 55 126 59 127
REMARK SMILES IDX 62 128 56 129 57 130 60 131 58 132
REMARK H PARENT 19 2 19 3 18 5 18 6 17 8 17 9 16 13 9 18 10 21 12 22 11 23
REMARK H PARENT 7 25 3 31 4 33 5 34 1 36 1 37 1 38 90 40 90 41 90 42 20 44
REMARK H PARENT 20 45 21 47 21 48 22 50 22 51 23 54 27 60 88 62 28 64 87 65
REMARK H PARENT 86 75 80 77 82 79 85 81 79 82 47 91 50 93 83 96 48 97 84 99
REMARK Flexibility Score: inf
ROOT
ATOM      1  C   UNL A   1      30.192  26.849  24.001  1.00  0.00    -0.052 C 
ATOM      2  H   UNL A   1      29.907  26.425  24.942  1.00  0.00     0.027 H 
ATOM      3  H   UNL A   1      29.383  27.174  23.379  1.00  0.00     0.027 H 
ENDROOT
BRANCH   1   4
ATOM      4  C   UNL A   1      30.885  25.743  23.192  1.00  0.00    -0.036 C 
ATOM      5  H   UNL A   1      30.544  25.817  22.181  1.00  0.00     0.028 H 
ATOM      6  H   UNL A   1      31.934  25.913  23.322  1.00  0.00     0.028 H 
BRANCH   4   7
ATOM      7  C   UNL A   1      30.651  24.308  23.655  1.00  0.00     0.018 C 
ATOM      8  H   UNL A   1      29.835  23.903  23.094  1.00  0.00     0.049 H 
ATOM      9  H   UNL A   1      31.571  23.784  23.496  1.00  0.00     0.049 H 
BRANCH   7  10
ATOM     10  N   UNL A   1      30.343  24.175  25.058  1.00  0.00    -0.352 N 
ATOM     11  C   UNL A   1      31.175  23.963  26.130  1.00  0.00     0.253 C 
ATOM     12  O   UNL A   1      30.657  23.997  27.251  1.00  0.00    -0.269 OA
ATOM     13  H   UNL A   1      29.388  24.245  25.281  1.00  0.00     0.163 HD
BRANCH  11  14
ATOM     14  C   UNL A   1      32.617  23.574  26.026  1.00  0.00     0.063 A 
ATOM     15  C   UNL A   1      33.186  22.285  26.028  1.00  0.00     0.051 A 
ATOM     16  C   UNL A   1      34.601  22.181  25.971  1.00  0.00    -0.038 A 
ATOM     17  C   UNL A   1      35.428  23.295  25.840  1.00  0.00    -0.060 A 
ATOM     18  H   UNL A   1      35.033  21.246  26.027  1.00  0.00     0.064 H 
ATOM     19  C   UNL A   1      33.477  24.691  25.873  1.00  0.00    -0.047 A 
ATOM     20  C   UNL A   1      34.861  24.556  25.769  1.00  0.00    -0.061 A 
ATOM     21  H   UNL A   1      36.453  23.181  25.795  1.00  0.00     0.062 H 
ATOM     22  H   UNL A   1      33.064  25.637  25.838  1.00  0.00     0.063 H 
ATOM     23  H   UNL A   1      35.458  25.388  25.640  1.00  0.00     0.062 H 
BRANCH  15  24
ATOM     24  N   UNL A   1      32.517  21.046  25.944  1.00  0.00    -0.355 N 
ATOM     25  H   UNL A   1      31.774  20.970  26.586  1.00  0.00     0.167 HD
BRANCH  24  26
ATOM     26  C   UNL A   1      32.670  19.894  25.147  1.00  0.00     0.042 A 
ATOM     27  C   UNL A   1      32.433  18.573  23.111  1.00  0.00    -0.046 A 
ATOM     28  C   UNL A   1      32.624  17.396  23.849  1.00  0.00    -0.059 A 
ATOM     29  C   UNL A   1      32.524  19.839  23.747  1.00  0.00    -0.025 A 
ATOM     30  C   UNL A   1      32.891  17.456  25.209  1.00  0.00    -0.060 A 
ATOM     31  H   UNL A   1      32.566  16.480  23.379  1.00  0.00     0.063 H 
ATOM     32  C   UNL A   1      32.902  18.692  25.847  1.00  0.00    -0.038 A 
ATOM     33  H   UNL A   1      33.079  16.593  25.741  1.00  0.00     0.062 H 
ATOM     34  H   UNL A   1      33.085  18.729  26.862  1.00  0.00     0.064 H 
BRANCH  27  35
ATOM     35  C   UNL A   1      32.155  18.454  21.635  1.00  0.00    -0.039 C 
ATOM     36  H   UNL A   1      31.646  19.331  21.296  1.00  0.00     0.028 H 
ATOM     37  H   UNL A   1      31.544  17.594  21.456  1.00  0.00     0.028 H 
ATOM     38  H   UNL A   1      33.080  18.350  21.105  1.00  0.00     0.028 H 
ENDBRANCH  27  35
BRANCH  29  39
ATOM     39  C   UNL A   1      32.528  21.080  22.890  1.00  0.00    -0.037 C 
ATOM     40  H   UNL A   1      31.540  21.262  22.519  1.00  0.00     0.028 H 
ATOM     41  H   UNL A   1      33.199  20.944  22.067  1.00  0.00     0.028 H 
ATOM     42  H   UNL A   1      32.847  21.917  23.477  1.00  0.00     0.028 H 
ENDBRANCH  29  39
ENDBRANCH  24  26
ENDBRANCH  15  24
ENDBRANCH  11  14
ENDBRANCH   7  10
ENDBRANCH   4   7
ENDBRANCH   1   4
BRANCH   1  43
ATOM     43  C   UNL A   1      30.991  28.125  24.296  1.00  0.00    -0.052 C 
ATOM     44  H   UNL A   1      30.330  28.817  24.775  1.00  0.00     0.027 H 
ATOM     45  H   UNL A   1      31.367  28.443  23.346  1.00  0.00     0.027 H 
BRANCH  43  46
ATOM     46  C   UNL A   1      32.228  27.979  25.184  1.00  0.00    -0.036 C 
ATOM     47  H   UNL A   1      32.760  27.110  24.859  1.00  0.00     0.028 H 
ATOM     48  H   UNL A   1      31.853  27.921  26.185  1.00  0.00     0.028 H 
BRANCH  46  49
ATOM     49  C   UNL A   1      33.204  29.148  25.185  1.00  0.00     0.018 C 
ATOM     50  H   UNL A   1      33.505  29.340  24.176  1.00  0.00     0.049 H 
ATOM     51  H   UNL A   1      34.030  28.872  25.805  1.00  0.00     0.049 H 
BRANCH  49  52
ATOM     52  N   UNL A   1      32.636  30.365  25.736  1.00  0.00    -0.352 N 
ATOM     53  C   UNL A   1      33.037  31.127  26.807  1.00  0.00     0.251 C 
ATOM     54  H   UNL A   1      31.836  30.698  25.269  1.00  0.00     0.163 HD
ATOM     55  O   UNL A   1      32.334  32.056  27.190  1.00  0.00    -0.269 OA
BRANCH  53  56
ATOM     56  C   UNL A   1      34.300  30.829  27.526  1.00  0.00     0.039 A 
ATOM     57  C   UNL A   1      35.237  31.856  27.691  1.00  0.00    -0.049 A 
ATOM     58  C   UNL A   1      34.590  29.549  28.002  1.00  0.00    -0.049 A 
ATOM     59  C   UNL A   1      36.430  31.616  28.381  1.00  0.00    -0.053 A 
ATOM     60  H   UNL A   1      35.047  32.794  27.302  1.00  0.00     0.063 H 
ATOM     61  C   UNL A   1      35.743  29.328  28.755  1.00  0.00    -0.053 A 
ATOM     62  H   UNL A   1      33.951  28.765  27.795  1.00  0.00     0.063 H 
ATOM     63  C   UNL A   1      36.679  30.357  28.946  1.00  0.00    -0.014 A 
ATOM     64  H   UNL A   1      37.130  32.369  28.475  1.00  0.00     0.063 H 
ATOM     65  H   UNL A   1      35.909  28.401  29.177  1.00  0.00     0.063 H 
BRANCH  63  66
ATOM     66  C   UNL A   1      37.918  30.078  29.718  1.00  0.00     0.031 A 
ATOM     67  C   UNL A   1      38.949  29.132  29.164  1.00  0.00     0.074 A 
ATOM     68  C   UNL A   1      38.079  30.599  30.949  1.00  0.00     0.049 A 
ATOM     69  N   UNL A   1      40.025  28.649  29.732  1.00  0.00    -0.248 NA
ATOM     70  C   UNL A   1      38.721  28.638  27.798  1.00  0.00    -0.034 C 
ATOM     71  C   UNL A   1      37.136  31.498  31.616  1.00  0.00    -0.036 A 
ATOM     72  N   UNL A   1      39.086  30.431  31.868  1.00  0.00    -0.354 N 
ATOM     73  C   UNL A   1      40.579  27.772  28.809  1.00  0.00     0.074 A 
ATOM     74  C   UNL A   1      39.700  27.757  27.659  1.00  0.00    -0.034 C 
ATOM     75  H   UNL A   1      37.988  28.907  27.122  1.00  0.00     0.065 H 
ATOM     76  C   UNL A   1      37.611  31.806  32.834  1.00  0.00    -0.036 A 
ATOM     77  H   UNL A   1      36.250  31.838  31.216  1.00  0.00     0.065 H 
ATOM     78  C   UNL A   1      38.870  31.098  33.050  1.00  0.00     0.049 A 
ATOM     79  H   UNL A   1      39.886  29.883  31.697  1.00  0.00     0.167 HD
ATOM     80  C   UNL A   1      41.725  27.056  28.904  1.00  0.00     0.037 A 
ATOM     81  H   UNL A   1      39.820  27.140  26.841  1.00  0.00     0.065 H 
ATOM     82  H   UNL A   1      37.159  32.442  33.509  1.00  0.00     0.065 H 
ATOM     83  C   UNL A   1      39.596  31.123  34.184  1.00  0.00     0.037 A 
ATOM     84  C   UNL A   1      42.621  27.110  30.028  1.00  0.00     0.049 A 
ATOM     85  C   UNL A   1      40.876  30.336  34.260  1.00  0.00     0.074 A 
ATOM     86  C   UNL A   1      43.848  26.488  30.185  1.00  0.00    -0.036 A 
ATOM     87  N   UNL A   1      42.387  27.830  31.190  1.00  0.00    -0.354 N 
ATOM     88  N   UNL A   1      41.420  29.556  33.358  1.00  0.00    -0.248 NA
ATOM     89  C   UNL A   1      41.643  30.432  35.510  1.00  0.00    -0.034 C 
ATOM     90  C   UNL A   1      44.336  26.799  31.459  1.00  0.00    -0.036 A 
ATOM     91  H   UNL A   1      44.321  25.898  29.482  1.00  0.00     0.065 H 
ATOM     92  C   UNL A   1      43.436  27.651  32.077  1.00  0.00     0.049 A 
ATOM     93  H   UNL A   1      41.593  28.387  31.359  1.00  0.00     0.167 HD
ATOM     94  C   UNL A   1      42.603  29.093  33.916  1.00  0.00     0.074 A 
ATOM     95  C   UNL A   1      42.702  29.684  35.234  1.00  0.00    -0.034 C 
ATOM     96  H   UNL A   1      41.416  30.948  36.374  1.00  0.00     0.065 H 
ATOM     97  H   UNL A   1      45.218  26.451  31.867  1.00  0.00     0.065 H 
ATOM     98  C   UNL A   1      43.524  28.254  33.382  1.00  0.00     0.037 A 
ATOM     99  H   UNL A   1      43.497  29.539  35.879  1.00  0.00     0.065 H 
BRANCH  80 100
ATOM    100  C   UNL A   1      42.075  26.149  27.760  1.00  0.00     0.064 A 
ATOM    101  C   UNL A   1      42.931  26.559  26.726  1.00  0.00     0.173 A 
ATOM    102  C   UNL A   1      41.568  24.842  27.710  1.00  0.00     0.173 A 
ATOM    103  F   UNL A   1      43.435  27.802  26.722  1.00  0.00    -0.203 F 
ATOM    104  C   UNL A   1      43.238  25.707  25.668  1.00  0.00     0.198 A 
ATOM    105  C   UNL A   1      41.902  23.981  26.668  1.00  0.00     0.198 A 
ATOM    106  F   UNL A   1      40.751  24.396  28.676  1.00  0.00    -0.203 F 
ATOM    107  F   UNL A   1      44.013  26.140  24.665  1.00  0.00    -0.200 F 
ATOM    108  C   UNL A   1      42.728  24.418  25.642  1.00  0.00     0.200 A 
ATOM    109  F   UNL A   1      41.418  22.731  26.651  1.00  0.00    -0.200 F 
ATOM    110  F   UNL A   1      43.026  23.598  24.626  1.00  0.00    -0.200 F 
ENDBRANCH  80 100
BRANCH  83 111
ATOM    111  C   UNL A   1      39.133  31.942  35.335  1.00  0.00     0.064 A 
ATOM    112  C   UNL A   1      39.424  33.311  35.406  1.00  0.00     0.173 A 
ATOM    113  C   UNL A   1      38.378  31.379  36.374  1.00  0.00     0.173 A 
ATOM    114  F   UNL A   1      40.161  33.889  34.447  1.00  0.00    -0.203 F 
ATOM    115  C   UNL A   1      38.987  34.083  36.480  1.00  0.00     0.198 A 
ATOM    116  C   UNL A   1      37.920  32.158  37.434  1.00  0.00     0.198 A 
ATOM    117  F   UNL A   1      38.069  30.073  36.349  1.00  0.00    -0.203 F 
ATOM    118  F   UNL A   1      39.309  35.383  36.542  1.00  0.00    -0.200 F 
ATOM    119  C   UNL A   1      38.229  33.509  37.489  1.00  0.00     0.200 A 
ATOM    120  F   UNL A   1      37.176  31.602  38.400  1.00  0.00    -0.200 F 
ATOM    121  F   UNL A   1      37.801  34.255  38.516  1.00  0.00    -0.200 F 
ENDBRANCH  83 111
BRANCH  98 122
ATOM    122  C   UNL A   1      44.742  27.948  34.205  1.00  0.00     0.064 A 
ATOM    123  C   UNL A   1      45.884  28.758  34.153  1.00  0.00     0.173 A 
ATOM    124  C   UNL A   1      44.736  26.869  35.102  1.00  0.00     0.173 A 
ATOM    125  F   UNL A   1      45.943  29.791  33.301  1.00  0.00    -0.203 F 
ATOM    126  C   UNL A   1      46.984  28.491  34.964  1.00  0.00     0.198 A 
ATOM    127  C   UNL A   1      45.827  26.622  35.929  1.00  0.00     0.198 A 
ATOM    128  F   UNL A   1      43.664  26.069  35.191  1.00  0.00    -0.203 F 
ATOM    129  F   UNL A   1      48.080  29.258  34.879  1.00  0.00    -0.200 F 
ATOM    130  C   UNL A   1      46.952  27.430  35.858  1.00  0.00     0.200 A 
ATOM    131  F   UNL A   1      45.788  25.605  36.801  1.00  0.00    -0.200 F 
ATOM    132  F   UNL A   1      48.005  27.185  36.649  1.00  0.00    -0.200 F 
ENDBRANCH  98 122
ENDBRANCH  63  66
ENDBRANCH  53  56
ENDBRANCH  49  52
ENDBRANCH  46  49
ENDBRANCH  43  46
ENDBRANCH   1  43
TORSDOF 17
ENDMDL
MODEL 4
REMARK VINA RESULT:     -11.8      4.135     11.163
REMARK SMILES Cc1cccc(Nc2ccccc2C(=O)NCCCCCCNC(=O)c2ccc(-c3c4nc(c(-c5c(F)c(F)c(F)c(F)c5F)c5ccc([nH]5)c(-c5c(F)c(F)c(F)c(F)c5F)c5nc(c(-c6c(F)c(F)c(F)c(F)c6F)c6ccc3[nH]6)C=C5)C=C4)cc2)c1C
REMARK SMILES IDX 19 1 18 4 17 7 16 10 14 11 15 12 13 14 8 15 9 16 10 17 12 19
REMARK SMILES IDX 11 20 7 24 6 26 2 27 3 28 89 29 4 30 5 32 1 35 90 39 20 43
REMARK SMILES IDX 21 46 22 49 23 52 24 53 25 55 26 56 27 57 88 58 28 59 87 61
REMARK SMILES IDX 29 63 30 66 31 67 81 68 32 69 86 70 80 71 82 72 33 73 85 74
REMARK SMILES IDX 79 76 78 78 34 80 66 83 46 84 65 85 47 86 50 87 64 88 83 89
REMARK SMILES IDX 48 90 49 92 63 94 84 95 51 98 35 100 36 101 44 102 37 103
REMARK SMILES IDX 38 104 42 105 45 106 39 107 40 108 43 109 41 110 67 111
REMARK SMILES IDX 68 112 76 113 69 114 70 115 74 116 77 117 71 118 72 119
REMARK SMILES IDX 75 120 73 121 52 122 53 123 61 124 54 125 55 126 59 127
REMARK SMILES IDX 62 128 56 129 57 130 60 131 58 132
REMARK H PARENT 19 2 19 3 18 5 18 6 17 8 17 9 16 13 9 18 10 21 12 22 11 23
REMARK H PARENT 7 25 3 31 4 33 5 34 1 36 1 37 1 38 90 40 90 41 90 42 20 44
REMARK H PARENT 20 45 21 47 21 48 22 50 22 51 23 54 27 60 88 62 28 64 87 65
REMARK H PARENT 86 75 80 77 82 79 85 81 79 82 47 91 50 93 83 96 48 97 84 99
REMARK Flexibility Score: inf
ROOT
ATOM      1  C   UNL A   1      37.504  33.297  29.245  1.00  0.00    -0.052 C 
ATOM      2  H   UNL A   1      37.093  33.099  30.214  1.00  0.00     0.027 H 
ATOM      3  H   UNL A   1      37.942  32.455  28.751  1.00  0.00     0.027 H 
ENDROOT
BRANCH   1   4
ATOM      4  C   UNL A   1      38.664  34.285  29.433  1.00  0.00    -0.036 C 
ATOM      5  H   UNL A   1      39.512  33.894  28.911  1.00  0.00     0.028 H 
ATOM      6  H   UNL A   1      38.302  35.220  29.058  1.00  0.00     0.028 H 
BRANCH   4   7
ATOM      7  C   UNL A   1      39.096  34.568  30.870  1.00  0.00     0.018 C 
ATOM      8  H   UNL A   1      39.514  33.671  31.277  1.00  0.00     0.049 H 
ATOM      9  H   UNL A   1      39.797  35.375  30.822  1.00  0.00     0.049 H 
BRANCH   7  10
ATOM     10  N   UNL A   1      38.031  35.004  31.739  1.00  0.00    -0.352 N 
ATOM     11  C   UNL A   1      37.477  34.389  32.836  1.00  0.00     0.253 C 
ATOM     12  O   UNL A   1      36.640  35.037  33.472  1.00  0.00    -0.269 OA
ATOM     13  H   UNL A   1      37.640  35.877  31.511  1.00  0.00     0.163 HD
BRANCH  11  14
ATOM     14  C   UNL A   1      37.720  32.965  33.228  1.00  0.00     0.063 A 
ATOM     15  C   UNL A   1      38.640  32.451  34.164  1.00  0.00     0.051 A 
ATOM     16  C   UNL A   1      38.718  31.043  34.318  1.00  0.00    -0.038 A 
ATOM     17  C   UNL A   1      37.874  30.167  33.636  1.00  0.00    -0.060 A 
ATOM     18  H   UNL A   1      39.425  30.651  34.958  1.00  0.00     0.064 H 
ATOM     19  C   UNL A   1      36.859  32.057  32.560  1.00  0.00    -0.047 A 
ATOM     20  C   UNL A   1      36.924  30.679  32.768  1.00  0.00    -0.061 A 
ATOM     21  H   UNL A   1      37.955  29.149  33.777  1.00  0.00     0.062 H 
ATOM     22  H   UNL A   1      36.160  32.429  31.897  1.00  0.00     0.063 H 
ATOM     23  H   UNL A   1      36.271  30.047  32.280  1.00  0.00     0.062 H 
BRANCH  15  24
ATOM     24  N   UNL A   1      39.424  33.173  35.088  1.00  0.00    -0.355 N 
ATOM     25  H   UNL A   1      40.369  33.239  34.819  1.00  0.00     0.167 HD
BRANCH  24  26
ATOM     26  C   UNL A   1      39.156  33.825  36.310  1.00  0.00     0.042 A 
ATOM     27  C   UNL A   1      39.492  35.532  38.019  1.00  0.00    -0.046 A 
ATOM     28  C   UNL A   1      38.835  34.723  38.958  1.00  0.00    -0.059 A 
ATOM     29  C   UNL A   1      39.596  35.115  36.665  1.00  0.00    -0.025 A 
ATOM     30  C   UNL A   1      38.293  33.505  38.578  1.00  0.00    -0.060 A 
ATOM     31  H   UNL A   1      38.754  35.037  39.938  1.00  0.00     0.063 H 
ATOM     32  C   UNL A   1      38.463  33.060  37.272  1.00  0.00    -0.038 A 
ATOM     33  H   UNL A   1      37.768  32.933  39.259  1.00  0.00     0.062 H 
ATOM     34  H   UNL A   1      38.072  32.145  36.999  1.00  0.00     0.064 H 
BRANCH  27  35
ATOM     35  C   UNL A   1      40.055  36.851  38.480  1.00  0.00    -0.039 C 
ATOM     36  H   UNL A   1      41.071  36.718  38.785  1.00  0.00     0.028 H 
ATOM     37  H   UNL A   1      39.478  37.215  39.304  1.00  0.00     0.028 H 
ATOM     38  H   UNL A   1      40.012  37.557  37.676  1.00  0.00     0.028 H 
ENDBRANCH  27  35
BRANCH  29  39
ATOM     39  C   UNL A   1      40.113  36.097  35.644  1.00  0.00    -0.037 C 
ATOM     40  H   UNL A   1      39.589  35.963  34.721  1.00  0.00     0.028 H 
ATOM     41  H   UNL A   1      41.159  35.932  35.488  1.00  0.00     0.028 H 
ATOM     42  H   UNL A   1      39.958  37.095  36.000  1.00  0.00     0.028 H 
ENDBRANCH  29  39
ENDBRANCH  24  26
ENDBRANCH  15  24
ENDBRANCH  11  14
ENDBRANCH   7  10
ENDBRANCH   4   7
ENDBRANCH   1   4
BRANCH   1  43
ATOM     43  C   UNL A   1      36.345  33.721  28.334  1.00  0.00    -0.052 C 
ATOM     44  H   UNL A   1      36.330  33.053  27.499  1.00  0.00     0.027 H 
ATOM     45  H   UNL A   1      36.544  34.745  28.090  1.00  0.00     0.027 H 
BRANCH  43  46
ATOM     46  C   UNL A   1      34.945  33.725  28.948  1.00  0.00    -0.036 C 
ATOM     47  H   UNL A   1      34.260  34.051  28.194  1.00  0.00     0.028 H 
ATOM     48  H   UNL A   1      35.009  34.371  29.799  1.00  0.00     0.028 H 
BRANCH  46  49
ATOM     49  C   UNL A   1      34.439  32.394  29.490  1.00  0.00     0.018 C 
ATOM     50  H   UNL A   1      33.645  32.587  30.181  1.00  0.00     0.049 H 
ATOM     51  H   UNL A   1      35.267  31.905  29.957  1.00  0.00     0.049 H 
BRANCH  49  52
ATOM     52  N   UNL A   1      33.943  31.507  28.452  1.00  0.00    -0.352 N 
ATOM     53  C   UNL A   1      34.561  30.467  27.802  1.00  0.00     0.251 C 
ATOM     54  H   UNL A   1      33.015  31.679  28.170  1.00  0.00     0.163 HD
ATOM     55  O   UNL A   1      34.002  29.924  26.854  1.00  0.00    -0.269 OA
BRANCH  53  56
ATOM     56  C   UNL A   1      35.909  30.003  28.211  1.00  0.00     0.039 A 
ATOM     57  C   UNL A   1      36.977  30.175  27.322  1.00  0.00    -0.049 A 
ATOM     58  C   UNL A   1      36.128  29.367  29.435  1.00  0.00    -0.049 A 
ATOM     59  C   UNL A   1      38.265  29.766  27.682  1.00  0.00    -0.053 A 
ATOM     60  H   UNL A   1      36.813  30.604  26.397  1.00  0.00     0.063 H 
ATOM     61  C   UNL A   1      37.423  29.029  29.825  1.00  0.00    -0.053 A 
ATOM     62  H   UNL A   1      35.330  29.146  30.050  1.00  0.00     0.063 H 
ATOM     63  C   UNL A   1      38.505  29.218  28.950  1.00  0.00    -0.014 A 
ATOM     64  H   UNL A   1      39.044  29.869  27.011  1.00  0.00     0.063 H 
ATOM     65  H   UNL A   1      37.589  28.639  30.766  1.00  0.00     0.063 H 
BRANCH  63  66
ATOM     66  C   UNL A   1      39.867  28.808  29.380  1.00  0.00     0.031 A 
ATOM     67  C   UNL A   1      40.684  29.719  30.256  1.00  0.00     0.074 A 
ATOM     68  C   UNL A   1      40.406  27.665  28.915  1.00  0.00     0.049 A 
ATOM     69  N   UNL A   1      41.936  29.615  30.626  1.00  0.00    -0.248 NA
ATOM     70  C   UNL A   1      40.011  30.928  30.754  1.00  0.00    -0.034 C 
ATOM     71  C   UNL A   1      39.735  26.713  28.029  1.00  0.00    -0.036 A 
ATOM     72  N   UNL A   1      41.652  27.118  29.108  1.00  0.00    -0.354 N 
ATOM     73  C   UNL A   1      42.206  30.756  31.369  1.00  0.00     0.074 A 
ATOM     74  C   UNL A   1      41.002  31.561  31.363  1.00  0.00    -0.034 C 
ATOM     75  H   UNL A   1      39.023  31.210  30.655  1.00  0.00     0.065 H 
ATOM     76  C   UNL A   1      40.573  25.698  27.759  1.00  0.00    -0.036 A 
ATOM     77  H   UNL A   1      38.774  26.807  27.669  1.00  0.00     0.065 H 
ATOM     78  C   UNL A   1      41.852  25.946  28.420  1.00  0.00     0.049 A 
ATOM     79  H   UNL A   1      42.338  27.529  29.683  1.00  0.00     0.167 HD
ATOM     80  C   UNL A   1      43.348  31.097  32.012  1.00  0.00     0.037 A 
ATOM     81  H   UNL A   1      40.928  32.502  31.777  1.00  0.00     0.065 H 
ATOM     82  H   UNL A   1      40.348  24.875  27.178  1.00  0.00     0.065 H 
ATOM     83  C   UNL A   1      42.946  25.167  28.320  1.00  0.00     0.037 A 
ATOM     84  C   UNL A   1      44.527  30.273  32.056  1.00  0.00     0.049 A 
ATOM     85  C   UNL A   1      44.198  25.554  29.059  1.00  0.00     0.074 A 
ATOM     86  C   UNL A   1      45.706  30.489  32.749  1.00  0.00    -0.036 A 
ATOM     87  N   UNL A   1      44.676  29.072  31.380  1.00  0.00    -0.354 N 
ATOM     88  N   UNL A   1      44.424  26.606  29.807  1.00  0.00    -0.248 NA
ATOM     89  C   UNL A   1      45.348  24.646  28.941  1.00  0.00    -0.034 C 
ATOM     90  C   UNL A   1      46.583  29.439  32.457  1.00  0.00    -0.036 A 
ATOM     91  H   UNL A   1      45.903  31.287  33.374  1.00  0.00     0.065 H 
ATOM     92  C   UNL A   1      45.935  28.545  31.621  1.00  0.00     0.049 A 
ATOM     93  H   UNL A   1      43.988  28.654  30.812  1.00  0.00     0.167 HD
ATOM     94  C   UNL A   1      45.725  26.474  30.271  1.00  0.00     0.074 A 
ATOM     95  C   UNL A   1      46.239  25.236  29.725  1.00  0.00    -0.034 C 
ATOM     96  H   UNL A   1      45.437  23.777  28.392  1.00  0.00     0.065 H 
ATOM     97  H   UNL A   1      47.550  29.347  32.807  1.00  0.00     0.065 H 
ATOM     98  C   UNL A   1      46.428  27.306  31.078  1.00  0.00     0.037 A 
ATOM     99  H   UNL A   1      47.181  24.860  29.922  1.00  0.00     0.065 H 
BRANCH  80 100
ATOM    100  C   UNL A   1      43.381  32.420  32.720  1.00  0.00     0.064 A 
ATOM    101  C   UNL A   1      42.988  32.552  34.060  1.00  0.00     0.173 A 
ATOM    102  C   UNL A   1      43.836  33.569  32.055  1.00  0.00     0.173 A 
ATOM    103  F   UNL A   1      42.536  31.486  34.738  1.00  0.00    -0.203 F 
ATOM    104  C   UNL A   1      43.016  33.790  34.698  1.00  0.00     0.198 A 
ATOM    105  C   UNL A   1      43.893  34.800  32.705  1.00  0.00     0.198 A 
ATOM    106  F   UNL A   1      44.230  33.499  30.775  1.00  0.00    -0.203 F 
ATOM    107  F   UNL A   1      42.584  33.900  35.962  1.00  0.00    -0.200 F 
ATOM    108  C   UNL A   1      43.473  34.911  34.022  1.00  0.00     0.200 A 
ATOM    109  F   UNL A   1      44.347  35.879  32.054  1.00  0.00    -0.200 F 
ATOM    110  F   UNL A   1      43.503  36.100  34.638  1.00  0.00    -0.200 F 
ENDBRANCH  80 100
BRANCH  83 111
ATOM    111  C   UNL A   1      42.895  23.930  27.498  1.00  0.00     0.064 A 
ATOM    112  C   UNL A   1      43.270  23.948  26.148  1.00  0.00     0.173 A 
ATOM    113  C   UNL A   1      42.487  22.706  28.047  1.00  0.00     0.173 A 
ATOM    114  F   UNL A   1      43.646  25.099  25.574  1.00  0.00    -0.203 F 
ATOM    115  C   UNL A   1      43.229  22.789  25.375  1.00  0.00     0.198 A 
ATOM    116  C   UNL A   1      42.471  21.542  27.279  1.00  0.00     0.198 A 
ATOM    117  F   UNL A   1      42.122  22.635  29.336  1.00  0.00    -0.203 F 
ATOM    118  F   UNL A   1      43.560  22.841  24.077  1.00  0.00    -0.200 F 
ATOM    119  C   UNL A   1      42.837  21.586  25.942  1.00  0.00     0.200 A 
ATOM    120  F   UNL A   1      42.105  20.380  27.836  1.00  0.00    -0.200 F 
ATOM    121  F   UNL A   1      42.807  20.471  25.201  1.00  0.00    -0.200 F 
ENDBRANCH  83 111
BRANCH  98 122
ATOM    122  C   UNL A   1      47.821  26.892  31.454  1.00  0.00     0.064 A 
ATOM    123  C   UNL A   1      48.064  26.025  32.528  1.00  0.00     0.173 A 
ATOM    124  C   UNL A   1      48.917  27.317  30.687  1.00  0.00     0.173 A 
ATOM    125  F   UNL A   1      47.051  25.604  33.298  1.00  0.00    -0.203 F 
ATOM    126  C   UNL A   1      49.357  25.607  32.828  1.00  0.00     0.198 A 
ATOM    127  C   UNL A   1      50.204  26.877  30.975  1.00  0.00     0.198 A 
ATOM    128  F   UNL A   1      48.734  28.142  29.647  1.00  0.00    -0.203 F 
ATOM    129  F   UNL A   1      49.573  24.803  33.879  1.00  0.00    -0.200 F 
ATOM    130  C   UNL A   1      50.425  26.025  32.047  1.00  0.00     0.200 A 
ATOM    131  F   UNL A   1      51.232  27.271  30.211  1.00  0.00    -0.200 F 
ATOM    132  F   UNL A   1      51.667  25.609  32.328  1.00  0.00    -0.200 F 
ENDBRANCH  98 122
ENDBRANCH  63  66
ENDBRANCH  53  56
ENDBRANCH  49  52
ENDBRANCH  46  49
ENDBRANCH  43  46
ENDBRANCH   1  43
TORSDOF 17
ENDMDL
MODEL 5
REMARK VINA RESULT:     -11.8      1.057      3.117
REMARK SMILES Cc1cccc(Nc2ccccc2C(=O)NCCCCCCNC(=O)c2ccc(-c3c4nc(c(-c5c(F)c(F)c(F)c(F)c5F)c5ccc([nH]5)c(-c5c(F)c(F)c(F)c(F)c5F)c5nc(c(-c6c(F)c(F)c(F)c(F)c6F)c6ccc3[nH]6)C=C5)C=C4)cc2)c1C
REMARK SMILES IDX 19 1 18 4 17 7 16 10 14 11 15 12 13 14 8 15 9 16 10 17 12 19
REMARK SMILES IDX 11 20 7 24 6 26 2 27 3 28 89 29 4 30 5 32 1 35 90 39 20 43
REMARK SMILES IDX 21 46 22 49 23 52 24 53 25 55 26 56 27 57 88 58 28 59 87 61
REMARK SMILES IDX 29 63 30 66 31 67 81 68 32 69 86 70 80 71 82 72 33 73 85 74
REMARK SMILES IDX 79 76 78 78 34 80 66 83 46 84 65 85 47 86 50 87 64 88 83 89
REMARK SMILES IDX 48 90 49 92 63 94 84 95 51 98 35 100 36 101 44 102 37 103
REMARK SMILES IDX 38 104 42 105 45 106 39 107 40 108 43 109 41 110 67 111
REMARK SMILES IDX 68 112 76 113 69 114 70 115 74 116 77 117 71 118 72 119
REMARK SMILES IDX 75 120 73 121 52 122 53 123 61 124 54 125 55 126 59 127
REMARK SMILES IDX 62 128 56 129 57 130 60 131 58 132
REMARK H PARENT 19 2 19 3 18 5 18 6 17 8 17 9 16 13 9 18 10 21 12 22 11 23
REMARK H PARENT 7 25 3 31 4 33 5 34 1 36 1 37 1 38 90 40 90 41 90 42 20 44
REMARK H PARENT 20 45 21 47 21 48 22 50 22 51 23 54 27 60 88 62 28 64 87 65
REMARK H PARENT 86 75 80 77 82 79 85 81 79 82 47 91 50 93 83 96 48 97 84 99
REMARK Flexibility Score: inf
ROOT
ATOM      1  C   UNL A   1      31.953  29.414  26.519  1.00  0.00    -0.052 C 
ATOM      2  H   UNL A   1      32.174  29.754  27.510  1.00  0.00     0.027 H 
ATOM      3  H   UNL A   1      31.187  28.670  26.447  1.00  0.00     0.027 H 
ENDROOT
BRANCH   1   4
ATOM      4  C   UNL A   1      33.215  28.725  25.979  1.00  0.00    -0.036 C 
ATOM      5  H   UNL A   1      33.954  28.748  26.752  1.00  0.00     0.028 H 
ATOM      6  H   UNL A   1      32.900  27.743  25.693  1.00  0.00     0.028 H 
BRANCH   4   7
ATOM      7  C   UNL A   1      33.840  29.328  24.724  1.00  0.00     0.018 C 
ATOM      8  H   UNL A   1      33.195  30.104  24.369  1.00  0.00     0.049 H 
ATOM      9  H   UNL A   1      34.808  29.684  25.008  1.00  0.00     0.049 H 
BRANCH   7  10
ATOM     10  N   UNL A   1      34.049  28.389  23.650  1.00  0.00    -0.352 N 
ATOM     11  C   UNL A   1      33.142  27.784  22.814  1.00  0.00     0.253 C 
ATOM     12  O   UNL A   1      33.603  27.096  21.898  1.00  0.00    -0.269 OA
ATOM     13  H   UNL A   1      34.988  28.143  23.491  1.00  0.00     0.163 HD
BRANCH  11  14
ATOM     14  C   UNL A   1      31.658  27.798  23.015  1.00  0.00     0.063 A 
ATOM     15  C   UNL A   1      30.849  26.859  23.686  1.00  0.00     0.051 A 
ATOM     16  C   UNL A   1      29.445  27.073  23.691  1.00  0.00    -0.038 A 
ATOM     17  C   UNL A   1      28.858  28.204  23.126  1.00  0.00    -0.060 A 
ATOM     18  H   UNL A   1      28.837  26.365  24.131  1.00  0.00     0.064 H 
ATOM     19  C   UNL A   1      31.041  28.950  22.464  1.00  0.00    -0.047 A 
ATOM     20  C   UNL A   1      29.663  29.159  22.528  1.00  0.00    -0.061 A 
ATOM     21  H   UNL A   1      27.835  28.329  23.154  1.00  0.00     0.062 H 
ATOM     22  H   UNL A   1      31.632  29.658  21.999  1.00  0.00     0.063 H 
ATOM     23  H   UNL A   1      29.247  30.016  22.133  1.00  0.00     0.062 H 
BRANCH  15  24
ATOM     24  N   UNL A   1      31.267  25.776  24.487  1.00  0.00    -0.355 N 
ATOM     25  H   UNL A   1      31.028  25.888  25.435  1.00  0.00     0.167 HD
BRANCH  24  26
ATOM     26  C   UNL A   1      31.948  24.568  24.233  1.00  0.00     0.042 A 
ATOM     27  C   UNL A   1      33.924  23.172  23.926  1.00  0.00    -0.046 A 
ATOM     28  C   UNL A   1      33.147  22.216  23.257  1.00  0.00    -0.059 A 
ATOM     29  C   UNL A   1      33.314  24.328  24.482  1.00  0.00    -0.025 A 
ATOM     30  C   UNL A   1      31.779  22.394  23.121  1.00  0.00    -0.060 A 
ATOM     31  H   UNL A   1      33.595  21.374  22.865  1.00  0.00     0.063 H 
ATOM     32  C   UNL A   1      31.193  23.562  23.595  1.00  0.00    -0.038 A 
ATOM     33  H   UNL A   1      31.201  21.666  22.671  1.00  0.00     0.062 H 
ATOM     34  H   UNL A   1      30.176  23.697  23.475  1.00  0.00     0.064 H 
BRANCH  27  35
ATOM     35  C   UNL A   1      35.405  22.927  24.056  1.00  0.00    -0.039 C 
ATOM     36  H   UNL A   1      35.933  23.560  23.375  1.00  0.00     0.028 H 
ATOM     37  H   UNL A   1      35.617  21.903  23.831  1.00  0.00     0.028 H 
ATOM     38  H   UNL A   1      35.715  23.143  25.058  1.00  0.00     0.028 H 
ENDBRANCH  27  35
BRANCH  29  39
ATOM     39  C   UNL A   1      34.137  25.222  25.374  1.00  0.00    -0.037 C 
ATOM     40  H   UNL A   1      34.725  25.884  24.773  1.00  0.00     0.028 H 
ATOM     41  H   UNL A   1      34.783  24.623  25.983  1.00  0.00     0.028 H 
ATOM     42  H   UNL A   1      33.486  25.795  26.002  1.00  0.00     0.028 H 
ENDBRANCH  29  39
ENDBRANCH  24  26
ENDBRANCH  15  24
ENDBRANCH  11  14
ENDBRANCH   7  10
ENDBRANCH   4   7
ENDBRANCH   1   4
BRANCH   1  43
ATOM     43  C   UNL A   1      31.403  30.613  25.735  1.00  0.00    -0.052 C 
ATOM     44  H   UNL A   1      30.448  30.332  25.344  1.00  0.00     0.027 H 
ATOM     45  H   UNL A   1      32.148  30.827  24.997  1.00  0.00     0.027 H 
BRANCH  43  46
ATOM     46  C   UNL A   1      31.220  31.921  26.507  1.00  0.00    -0.036 C 
ATOM     47  H   UNL A   1      30.567  31.723  27.331  1.00  0.00     0.028 H 
ATOM     48  H   UNL A   1      30.836  32.620  25.794  1.00  0.00     0.028 H 
BRANCH  46  49
ATOM     49  C   UNL A   1      32.485  32.563  27.061  1.00  0.00     0.018 C 
ATOM     50  H   UNL A   1      33.236  32.549  26.299  1.00  0.00     0.049 H 
ATOM     51  H   UNL A   1      32.777  31.999  27.922  1.00  0.00     0.049 H 
BRANCH  49  52
ATOM     52  N   UNL A   1      32.287  33.936  27.490  1.00  0.00    -0.352 N 
ATOM     53  C   UNL A   1      32.942  34.669  28.450  1.00  0.00     0.251 C 
ATOM     54  H   UNL A   1      31.570  34.418  27.019  1.00  0.00     0.163 HD
ATOM     55  O   UNL A   1      32.528  35.785  28.751  1.00  0.00    -0.269 OA
BRANCH  53  56
ATOM     56  C   UNL A   1      34.131  34.125  29.150  1.00  0.00     0.039 A 
ATOM     57  C   UNL A   1      33.935  33.316  30.276  1.00  0.00    -0.049 A 
ATOM     58  C   UNL A   1      35.430  34.432  28.740  1.00  0.00    -0.049 A 
ATOM     59  C   UNL A   1      35.033  32.771  30.950  1.00  0.00    -0.053 A 
ATOM     60  H   UNL A   1      32.978  33.122  30.610  1.00  0.00     0.063 H 
ATOM     61  C   UNL A   1      36.521  33.828  29.364  1.00  0.00    -0.053 A 
ATOM     62  H   UNL A   1      35.582  35.108  27.976  1.00  0.00     0.063 H 
ATOM     63  C   UNL A   1      36.335  32.996  30.480  1.00  0.00    -0.014 A 
ATOM     64  H   UNL A   1      34.884  32.198  31.796  1.00  0.00     0.063 H 
ATOM     65  H   UNL A   1      37.473  33.992  29.001  1.00  0.00     0.063 H 
BRANCH  63  66
ATOM     66  C   UNL A   1      37.522  32.402  31.149  1.00  0.00     0.031 A 
ATOM     67  C   UNL A   1      38.248  31.253  30.504  1.00  0.00     0.074 A 
ATOM     68  C   UNL A   1      37.893  32.830  32.371  1.00  0.00     0.049 A 
ATOM     69  N   UNL A   1      39.212  30.506  30.982  1.00  0.00    -0.248 NA
ATOM     70  C   UNL A   1      37.807  30.871  29.154  1.00  0.00    -0.034 C 
ATOM     71  C   UNL A   1      37.249  33.909  33.121  1.00  0.00    -0.036 A 
ATOM     72  N   UNL A   1      38.893  32.395  33.206  1.00  0.00    -0.354 N 
ATOM     73  C   UNL A   1      39.467  29.550  30.007  1.00  0.00     0.074 A 
ATOM     74  C   UNL A   1      38.530  29.784  28.929  1.00  0.00    -0.034 C 
ATOM     75  H   UNL A   1      37.115  31.330  28.542  1.00  0.00     0.065 H 
ATOM     76  C   UNL A   1      37.872  34.055  34.302  1.00  0.00    -0.036 A 
ATOM     77  H   UNL A   1      36.445  34.466  32.795  1.00  0.00     0.065 H 
ATOM     78  C   UNL A   1      38.932  33.057  34.410  1.00  0.00     0.049 A 
ATOM     79  H   UNL A   1      39.521  31.675  32.967  1.00  0.00     0.167 HD
ATOM     80  C   UNL A   1      40.408  28.576  30.003  1.00  0.00     0.037 A 
ATOM     81  H   UNL A   1      38.437  29.183  28.096  1.00  0.00     0.065 H 
ATOM     82  H   UNL A   1      37.638  34.760  35.018  1.00  0.00     0.065 H 
ATOM     83  C   UNL A   1      39.723  32.871  35.484  1.00  0.00     0.037 A 
ATOM     84  C   UNL A   1      41.370  28.376  31.054  1.00  0.00     0.049 A 
ATOM     85  C   UNL A   1      40.774  31.795  35.449  1.00  0.00     0.074 A 
ATOM     86  C   UNL A   1      42.417  27.472  31.107  1.00  0.00    -0.036 A 
ATOM     87  N   UNL A   1      41.403  29.096  32.240  1.00  0.00    -0.354 N 
ATOM     88  N   UNL A   1      41.046  30.936  34.498  1.00  0.00    -0.248 NA
ATOM     89  C   UNL A   1      41.631  31.664  36.637  1.00  0.00    -0.034 C 
ATOM     90  C   UNL A   1      43.057  27.615  32.343  1.00  0.00    -0.036 A 
ATOM     91  H   UNL A   1      42.680  26.807  30.363  1.00  0.00     0.065 H 
ATOM     92  C   UNL A   1      42.439  28.641  33.040  1.00  0.00     0.049 A 
ATOM     93  H   UNL A   1      40.783  29.823  32.477  1.00  0.00     0.167 HD
ATOM     94  C   UNL A   1      42.118  30.183  34.957  1.00  0.00     0.074 A 
ATOM     95  C   UNL A   1      42.453  30.691  36.270  1.00  0.00    -0.034 C 
ATOM     96  H   UNL A   1      41.600  32.192  37.523  1.00  0.00     0.065 H 
ATOM     97  H   UNL A   1      43.854  27.052  32.677  1.00  0.00     0.065 H 
ATOM     98  C   UNL A   1      42.766  29.164  34.342  1.00  0.00     0.037 A 
ATOM     99  H   UNL A   1      43.233  30.339  36.849  1.00  0.00     0.065 H 
BRANCH  80 100
ATOM    100  C   UNL A   1      40.443  27.647  28.824  1.00  0.00     0.064 A 
ATOM    101  C   UNL A   1      41.246  27.906  27.702  1.00  0.00     0.173 A 
ATOM    102  C   UNL A   1      39.683  26.468  28.827  1.00  0.00     0.173 A 
ATOM    103  F   UNL A   1      41.984  29.024  27.645  1.00  0.00    -0.203 F 
ATOM    104  C   UNL A   1      41.259  27.037  26.614  1.00  0.00     0.198 A 
ATOM    105  C   UNL A   1      39.722  25.585  27.751  1.00  0.00     0.198 A 
ATOM    106  F   UNL A   1      38.903  26.168  29.877  1.00  0.00    -0.203 F 
ATOM    107  F   UNL A   1      41.991  27.334  25.531  1.00  0.00    -0.200 F 
ATOM    108  C   UNL A   1      40.502  25.876  26.641  1.00  0.00     0.200 A 
ATOM    109  F   UNL A   1      39.000  24.457  27.784  1.00  0.00    -0.200 F 
ATOM    110  F   UNL A   1      40.517  25.039  25.595  1.00  0.00    -0.200 F 
ENDBRANCH  80 100
BRANCH  83 111
ATOM    111  C   UNL A   1      39.557  33.741  36.677  1.00  0.00     0.064 A 
ATOM    112  C   UNL A   1      38.745  33.343  37.749  1.00  0.00     0.173 A 
ATOM    113  C   UNL A   1      40.217  34.973  36.779  1.00  0.00     0.173 A 
ATOM    114  F   UNL A   1      38.078  32.183  37.687  1.00  0.00    -0.203 F 
ATOM    115  C   UNL A   1      38.592  34.153  38.872  1.00  0.00     0.198 A 
ATOM    116  C   UNL A   1      40.083  35.770  37.915  1.00  0.00     0.198 A 
ATOM    117  F   UNL A   1      41.009  35.396  35.782  1.00  0.00    -0.203 F 
ATOM    118  F   UNL A   1      37.782  33.765  39.868  1.00  0.00    -0.200 F 
ATOM    119  C   UNL A   1      39.265  35.362  38.958  1.00  0.00     0.200 A 
ATOM    120  F   UNL A   1      40.747  36.931  37.999  1.00  0.00    -0.200 F 
ATOM    121  F   UNL A   1      39.124  36.134  40.043  1.00  0.00    -0.200 F 
ENDBRANCH  83 111
BRANCH  98 122
ATOM    122  C   UNL A   1      43.928  28.546  35.063  1.00  0.00     0.064 A 
ATOM    123  C   UNL A   1      43.765  27.435  35.901  1.00  0.00     0.173 A 
ATOM    124  C   UNL A   1      45.228  29.033  34.858  1.00  0.00     0.173 A 
ATOM    125  F   UNL A   1      42.541  26.942  36.139  1.00  0.00    -0.203 F 
ATOM    126  C   UNL A   1      44.862  26.840  36.518  1.00  0.00     0.198 A 
ATOM    127  C   UNL A   1      46.324  28.420  35.456  1.00  0.00     0.198 A 
ATOM    128  F   UNL A   1      45.435  30.091  34.061  1.00  0.00    -0.203 F 
ATOM    129  F   UNL A   1      44.682  25.797  37.341  1.00  0.00    -0.200 F 
ATOM    130  C   UNL A   1      46.141  27.327  36.288  1.00  0.00     0.200 A 
ATOM    131  F   UNL A   1      47.560  28.884  35.222  1.00  0.00    -0.200 F 
ATOM    132  F   UNL A   1      47.197  26.743  36.871  1.00  0.00    -0.200 F 
ENDBRANCH  98 122
ENDBRANCH  63  66
ENDBRANCH  53  56
ENDBRANCH  49  52
ENDBRANCH  46  49
ENDBRANCH  43  46
ENDBRANCH   1  43
TORSDOF 17
ENDMDL
MODEL 6
REMARK VINA RESULT:     -11.8      5.600     11.143
REMARK SMILES Cc1cccc(Nc2ccccc2C(=O)NCCCCCCNC(=O)c2ccc(-c3c4nc(c(-c5c(F)c(F)c(F)c(F)c5F)c5ccc([nH]5)c(-c5c(F)c(F)c(F)c(F)c5F)c5nc(c(-c6c(F)c(F)c(F)c(F)c6F)c6ccc3[nH]6)C=C5)C=C4)cc2)c1C
REMARK SMILES IDX 19 1 18 4 17 7 16 10 14 11 15 12 13 14 8 15 9 16 10 17 12 19
REMARK SMILES IDX 11 20 7 24 6 26 2 27 3 28 89 29 4 30 5 32 1 35 90 39 20 43
REMARK SMILES IDX 21 46 22 49 23 52 24 53 25 55 26 56 27 57 88 58 28 59 87 61
REMARK SMILES IDX 29 63 30 66 31 67 81 68 32 69 86 70 80 71 82 72 33 73 85 74
REMARK SMILES IDX 79 76 78 78 34 80 66 83 46 84 65 85 47 86 50 87 64 88 83 89
REMARK SMILES IDX 48 90 49 92 63 94 84 95 51 98 35 100 36 101 44 102 37 103
REMARK SMILES IDX 38 104 42 105 45 106 39 107 40 108 43 109 41 110 67 111
REMARK SMILES IDX 68 112 76 113 69 114 70 115 74 116 77 117 71 118 72 119
REMARK SMILES IDX 75 120 73 121 52 122 53 123 61 124 54 125 55 126 59 127
REMARK SMILES IDX 62 128 56 129 57 130 60 131 58 132
REMARK H PARENT 19 2 19 3 18 5 18 6 17 8 17 9 16 13 9 18 10 21 12 22 11 23
REMARK H PARENT 7 25 3 31 4 33 5 34 1 36 1 37 1 38 90 40 90 41 90 42 20 44
REMARK H PARENT 20 45 21 47 21 48 22 50 22 51 23 54 27 60 88 62 28 64 87 65
REMARK H PARENT 86 75 80 77 82 79 85 81 79 82 47 91 50 93 83 96 48 97 84 99
REMARK Flexibility Score: inf
ROOT
ATOM      1  C   UNL A   1      36.720  21.847  24.864  1.00  0.00    -0.052 C 
ATOM      2  H   UNL A   1      36.502  22.263  25.826  1.00  0.00     0.027 H 
ATOM      3  H   UNL A   1      37.701  22.050  24.486  1.00  0.00     0.027 H 
ENDROOT
BRANCH   1   4
ATOM      4  C   UNL A   1      35.770  22.508  23.854  1.00  0.00    -0.036 C 
ATOM      5  H   UNL A   1      36.248  22.490  22.897  1.00  0.00     0.028 H 
ATOM      6  H   UNL A   1      34.862  21.942  23.910  1.00  0.00     0.028 H 
BRANCH   4   7
ATOM      7  C   UNL A   1      35.362  23.950  24.142  1.00  0.00     0.018 C 
ATOM      8  H   UNL A   1      34.805  23.965  25.054  1.00  0.00     0.049 H 
ATOM      9  H   UNL A   1      36.269  24.517  24.194  1.00  0.00     0.049 H 
BRANCH   7  10
ATOM     10  N   UNL A   1      34.558  24.561  23.112  1.00  0.00    -0.352 N 
ATOM     11  C   UNL A   1      33.652  25.590  23.191  1.00  0.00     0.253 C 
ATOM     12  O   UNL A   1      33.176  25.995  22.126  1.00  0.00    -0.269 OA
ATOM     13  H   UNL A   1      34.677  24.181  22.213  1.00  0.00     0.163 HD
BRANCH  11  14
ATOM     14  C   UNL A   1      33.116  26.156  24.470  1.00  0.00     0.063 A 
ATOM     15  C   UNL A   1      32.205  25.580  25.378  1.00  0.00     0.051 A 
ATOM     16  C   UNL A   1      31.808  26.349  26.502  1.00  0.00    -0.038 A 
ATOM     17  C   UNL A   1      32.338  27.610  26.772  1.00  0.00    -0.060 A 
ATOM     18  H   UNL A   1      31.100  25.961  27.144  1.00  0.00     0.064 H 
ATOM     19  C   UNL A   1      33.657  27.431  24.775  1.00  0.00    -0.047 A 
ATOM     20  C   UNL A   1      33.285  28.145  25.914  1.00  0.00    -0.061 A 
ATOM     21  H   UNL A   1      32.030  28.139  27.602  1.00  0.00     0.062 H 
ATOM     22  H   UNL A   1      34.349  27.846  24.130  1.00  0.00     0.063 H 
ATOM     23  H   UNL A   1      33.710  29.063  26.117  1.00  0.00     0.062 H 
BRANCH  15  24
ATOM     24  N   UNL A   1      31.723  24.254  25.391  1.00  0.00    -0.355 N 
ATOM     25  H   UNL A   1      30.743  24.204  25.307  1.00  0.00     0.167 HD
BRANCH  24  26
ATOM     26  C   UNL A   1      32.329  22.985  25.493  1.00  0.00     0.042 A 
ATOM     27  C   UNL A   1      32.681  20.653  24.876  1.00  0.00    -0.046 A 
ATOM     28  C   UNL A   1      33.276  20.411  26.123  1.00  0.00    -0.059 A 
ATOM     29  C   UNL A   1      32.265  21.964  24.526  1.00  0.00    -0.025 A 
ATOM     30  C   UNL A   1      33.452  21.445  27.030  1.00  0.00    -0.060 A 
ATOM     31  H   UNL A   1      33.586  19.457  26.368  1.00  0.00     0.063 H 
ATOM     32  C   UNL A   1      32.973  22.713  26.719  1.00  0.00    -0.038 A 
ATOM     33  H   UNL A   1      33.934  21.275  27.927  1.00  0.00     0.062 H 
ATOM     34  H   UNL A   1      33.092  23.475  27.404  1.00  0.00     0.064 H 
BRANCH  27  35
ATOM     35  C   UNL A   1      32.522  19.497  23.924  1.00  0.00    -0.039 C 
ATOM     36  H   UNL A   1      31.640  18.947  24.173  1.00  0.00     0.028 H 
ATOM     37  H   UNL A   1      33.375  18.856  23.996  1.00  0.00     0.028 H 
ATOM     38  H   UNL A   1      32.440  19.868  22.923  1.00  0.00     0.028 H 
ENDBRANCH  27  35
BRANCH  29  39
ATOM     39  C   UNL A   1      31.830  22.229  23.106  1.00  0.00    -0.037 C 
ATOM     40  H   UNL A   1      32.050  23.244  22.848  1.00  0.00     0.028 H 
ATOM     41  H   UNL A   1      30.777  22.058  23.017  1.00  0.00     0.028 H 
ATOM     42  H   UNL A   1      32.355  21.571  22.445  1.00  0.00     0.028 H 
ENDBRANCH  29  39
ENDBRANCH  24  26
ENDBRANCH  15  24
ENDBRANCH  11  14
ENDBRANCH   7  10
ENDBRANCH   4   7
ENDBRANCH   1   4
BRANCH   1  43
ATOM     43  C   UNL A   1      36.666  20.320  25.001  1.00  0.00    -0.052 C 
ATOM     44  H   UNL A   1      36.007  19.951  24.244  1.00  0.00     0.027 H 
ATOM     45  H   UNL A   1      36.344  20.143  26.007  1.00  0.00     0.027 H 
BRANCH  43  46
ATOM     46  C   UNL A   1      37.990  19.565  24.870  1.00  0.00    -0.036 C 
ATOM     47  H   UNL A   1      38.325  19.671  23.859  1.00  0.00     0.028 H 
ATOM     48  H   UNL A   1      37.773  18.559  25.162  1.00  0.00     0.028 H 
BRANCH  46  49
ATOM     49  C   UNL A   1      39.121  20.016  25.784  1.00  0.00     0.018 C 
ATOM     50  H   UNL A   1      38.723  20.180  26.763  1.00  0.00     0.049 H 
ATOM     51  H   UNL A   1      39.533  20.909  25.364  1.00  0.00     0.049 H 
BRANCH  49  52
ATOM     52  N   UNL A   1      40.198  19.047  25.880  1.00  0.00    -0.352 N 
ATOM     53  C   UNL A   1      41.542  19.232  26.099  1.00  0.00     0.251 C 
ATOM     54  H   UNL A   1      39.922  18.108  25.773  1.00  0.00     0.163 HD
ATOM     55  O   UNL A   1      42.309  18.277  26.013  1.00  0.00    -0.269 OA
BRANCH  53  56
ATOM     56  C   UNL A   1      42.089  20.574  26.413  1.00  0.00     0.039 A 
ATOM     57  C   UNL A   1      42.465  21.410  25.355  1.00  0.00    -0.049 A 
ATOM     58  C   UNL A   1      42.274  21.003  27.728  1.00  0.00    -0.049 A 
ATOM     59  C   UNL A   1      42.967  22.690  25.614  1.00  0.00    -0.053 A 
ATOM     60  H   UNL A   1      42.373  21.081  24.380  1.00  0.00     0.063 H 
ATOM     61  C   UNL A   1      42.701  22.305  27.986  1.00  0.00    -0.053 A 
ATOM     62  H   UNL A   1      42.094  20.355  28.512  1.00  0.00     0.063 H 
ATOM     63  C   UNL A   1      43.060  23.160  26.931  1.00  0.00    -0.014 A 
ATOM     64  H   UNL A   1      43.270  23.292  24.831  1.00  0.00     0.063 H 
ATOM     65  H   UNL A   1      42.753  22.644  28.959  1.00  0.00     0.063 H 
BRANCH  63  66
ATOM     66  C   UNL A   1      43.553  24.528  27.241  1.00  0.00     0.031 A 
ATOM     67  C   UNL A   1      42.601  25.567  27.767  1.00  0.00     0.074 A 
ATOM     68  C   UNL A   1      44.828  24.863  26.967  1.00  0.00     0.049 A 
ATOM     69  N   UNL A   1      42.794  26.847  27.967  1.00  0.00    -0.248 NA
ATOM     70  C   UNL A   1      41.237  25.112  28.077  1.00  0.00    -0.034 C 
ATOM     71  C   UNL A   1      45.841  23.961  26.419  1.00  0.00    -0.036 A 
ATOM     72  N   UNL A   1      45.486  26.063  27.095  1.00  0.00    -0.354 N 
ATOM     73  C   UNL A   1      41.573  27.351  28.392  1.00  0.00     0.074 A 
ATOM     74  C   UNL A   1      40.633  26.250  28.382  1.00  0.00    -0.034 C 
ATOM     75  H   UNL A   1      40.852  24.155  28.061  1.00  0.00     0.065 H 
ATOM     76  C   UNL A   1      46.992  24.636  26.263  1.00  0.00    -0.036 A 
ATOM     77  H   UNL A   1      45.695  22.967  26.189  1.00  0.00     0.065 H 
ATOM     78  C   UNL A   1      46.789  26.026  26.661  1.00  0.00     0.049 A 
ATOM     79  H   UNL A   1      45.063  26.874  27.461  1.00  0.00     0.167 HD
ATOM     80  C   UNL A   1      41.265  28.614  28.774  1.00  0.00     0.037 A 
ATOM     81  H   UNL A   1      39.626  26.341  28.585  1.00  0.00     0.065 H 
ATOM     82  H   UNL A   1      47.878  24.235  25.916  1.00  0.00     0.065 H 
ATOM     83  C   UNL A   1      47.711  27.004  26.580  1.00  0.00     0.037 A 
ATOM     84  C   UNL A   1      42.213  29.695  28.829  1.00  0.00     0.049 A 
ATOM     85  C   UNL A   1      47.353  28.395  27.027  1.00  0.00     0.074 A 
ATOM     86  C   UNL A   1      42.021  30.990  29.280  1.00  0.00    -0.036 A 
ATOM     87  N   UNL A   1      43.535  29.607  28.420  1.00  0.00    -0.354 N 
ATOM     88  N   UNL A   1      46.211  28.848  27.484  1.00  0.00    -0.248 NA
ATOM     89  C   UNL A   1      48.412  29.412  26.949  1.00  0.00    -0.034 C 
ATOM     90  C   UNL A   1      43.215  31.696  29.104  1.00  0.00    -0.036 A 
ATOM     91  H   UNL A   1      41.146  31.368  29.678  1.00  0.00     0.065 H 
ATOM     92  C   UNL A   1      44.165  30.830  28.588  1.00  0.00     0.049 A 
ATOM     93  H   UNL A   1      43.963  28.795  28.064  1.00  0.00     0.167 HD
ATOM     94  C   UNL A   1      46.419  30.189  27.774  1.00  0.00     0.074 A 
ATOM     95  C   UNL A   1      47.800  30.477  27.447  1.00  0.00    -0.034 C 
ATOM     96  H   UNL A   1      49.378  29.320  26.598  1.00  0.00     0.065 H 
ATOM     97  H   UNL A   1      43.363  32.694  29.323  1.00  0.00     0.065 H 
ATOM     98  C   UNL A   1      45.543  31.098  28.267  1.00  0.00     0.037 A 
ATOM     99  H   UNL A   1      48.250  31.397  27.584  1.00  0.00     0.065 H 
BRANCH  80 100
ATOM    100  C   UNL A   1      39.842  28.897  29.159  1.00  0.00     0.064 A 
ATOM    101  C   UNL A   1      39.398  28.778  30.485  1.00  0.00     0.173 A 
ATOM    102  C   UNL A   1      38.916  29.319  28.194  1.00  0.00     0.173 A 
ATOM    103  F   UNL A   1      40.240  28.369  31.444  1.00  0.00    -0.203 F 
ATOM    104  C   UNL A   1      38.071  29.037  30.823  1.00  0.00     0.198 A 
ATOM    105  C   UNL A   1      37.598  29.608  28.540  1.00  0.00     0.198 A 
ATOM    106  F   UNL A   1      39.289  29.457  26.912  1.00  0.00    -0.203 F 
ATOM    107  F   UNL A   1      37.658  28.862  32.085  1.00  0.00    -0.200 F 
ATOM    108  C   UNL A   1      37.175  29.456  29.852  1.00  0.00     0.200 A 
ATOM    109  F   UNL A   1      36.736  30.026  27.603  1.00  0.00    -0.200 F 
ATOM    110  F   UNL A   1      35.900  29.708  30.178  1.00  0.00    -0.200 F 
ENDBRANCH  80 100
BRANCH  83 111
ATOM    111  C   UNL A   1      49.071  26.691  26.068  1.00  0.00     0.064 A 
ATOM    112  C   UNL A   1      49.414  26.954  24.735  1.00  0.00     0.173 A 
ATOM    113  C   UNL A   1      50.055  26.142  26.900  1.00  0.00     0.173 A 
ATOM    114  F   UNL A   1      48.499  27.459  23.895  1.00  0.00    -0.203 F 
ATOM    115  C   UNL A   1      50.689  26.668  24.252  1.00  0.00     0.198 A 
ATOM    116  C   UNL A   1      51.338  25.880  26.423  1.00  0.00     0.198 A 
ATOM    117  F   UNL A   1      49.777  25.876  28.186  1.00  0.00    -0.203 F 
ATOM    118  F   UNL A   1      50.982  26.896  22.964  1.00  0.00    -0.200 F 
ATOM    119  C   UNL A   1      51.653  26.138  25.097  1.00  0.00     0.200 A 
ATOM    120  F   UNL A   1      52.269  25.381  27.247  1.00  0.00    -0.200 F 
ATOM    121  F   UNL A   1      52.881  25.873  24.634  1.00  0.00    -0.200 F 
ENDBRANCH  83 111
BRANCH  98 122
ATOM    122  C   UNL A   1      46.055  32.486  28.521  1.00  0.00     0.064 A 
ATOM    123  C   UNL A   1      45.963  33.490  27.548  1.00  0.00     0.173 A 
ATOM    124  C   UNL A   1      46.580  32.828  29.776  1.00  0.00     0.173 A 
ATOM    125  F   UNL A   1      45.481  33.208  26.329  1.00  0.00    -0.203 F 
ATOM    126  C   UNL A   1      46.391  34.787  27.820  1.00  0.00     0.198 A 
ATOM    127  C   UNL A   1      46.983  34.131  30.052  1.00  0.00     0.198 A 
ATOM    128  F   UNL A   1      46.683  31.903  30.741  1.00  0.00    -0.203 F 
ATOM    129  F   UNL A   1      46.324  35.727  26.866  1.00  0.00    -0.200 F 
ATOM    130  C   UNL A   1      46.892  35.109  29.073  1.00  0.00     0.200 A 
ATOM    131  F   UNL A   1      47.453  34.443  31.267  1.00  0.00    -0.200 F 
ATOM    132  F   UNL A   1      47.288  36.361  29.337  1.00  0.00    -0.200 F 
ENDBRANCH  98 122
ENDBRANCH  63  66
ENDBRANCH  53  56
ENDBRANCH  49  52
ENDBRANCH  46  49
ENDBRANCH  43  46
ENDBRANCH   1  43
TORSDOF 17
ENDMDL
MODEL 7
REMARK VINA RESULT:     -11.8      5.612     11.140
REMARK SMILES Cc1cccc(Nc2ccccc2C(=O)NCCCCCCNC(=O)c2ccc(-c3c4nc(c(-c5c(F)c(F)c(F)c(F)c5F)c5ccc([nH]5)c(-c5c(F)c(F)c(F)c(F)c5F)c5nc(c(-c6c(F)c(F)c(F)c(F)c6F)c6ccc3[nH]6)C=C5)C=C4)cc2)c1C
REMARK SMILES IDX 19 1 18 4 17 7 16 10 14 11 15 12 13 14 8 15 9 16 10 17 12 19
REMARK SMILES IDX 11 20 7 24 6 26 2 27 3 28 89 29 4 30 5 32 1 35 90 39 20 43
REMARK SMILES IDX 21 46 22 49 23 52 24 53 25 55 26 56 27 57 88 58 28 59 87 61
REMARK SMILES IDX 29 63 30 66 31 67 81 68 32 69 86 70 80 71 82 72 33 73 85 74
REMARK SMILES IDX 79 76 78 78 34 80 66 83 46 84 65 85 47 86 50 87 64 88 83 89
REMARK SMILES IDX 48 90 49 92 63 94 84 95 51 98 35 100 36 101 44 102 37 103
REMARK SMILES IDX 38 104 42 105 45 106 39 107 40 108 43 109 41 110 67 111
REMARK SMILES IDX 68 112 76 113 69 114 70 115 74 116 77 117 71 118 72 119
REMARK SMILES IDX 75 120 73 121 52 122 53 123 61 124 54 125 55 126 59 127
REMARK SMILES IDX 62 128 56 129 57 130 60 131 58 132
REMARK H PARENT 19 2 19 3 18 5 18 6 17 8 17 9 16 13 9 18 10 21 12 22 11 23
REMARK H PARENT 7 25 3 31 4 33 5 34 1 36 1 37 1 38 90 40 90 41 90 42 20 44
REMARK H PARENT 20 45 21 47 21 48 22 50 22 51 23 54 27 60 88 62 28 64 87 65
REMARK H PARENT 86 75 80 77 82 79 85 81 79 82 47 91 50 93 83 96 48 97 84 99
REMARK Flexibility Score: inf
ROOT
ATOM      1  C   UNL A   1      36.849  21.866  24.927  1.00  0.00    -0.052 C 
ATOM      2  H   UNL A   1      36.502  22.279  25.852  1.00  0.00     0.027 H 
ATOM      3  H   UNL A   1      37.893  21.995  24.728  1.00  0.00     0.027 H 
ENDROOT
BRANCH   1   4
ATOM      4  C   UNL A   1      36.141  22.624  23.794  1.00  0.00    -0.036 C 
ATOM      5  H   UNL A   1      36.878  22.877  23.062  1.00  0.00     0.028 H 
ATOM      6  H   UNL A   1      35.376  21.960  23.445  1.00  0.00     0.028 H 
BRANCH   4   7
ATOM      7  C   UNL A   1      35.413  23.908  24.181  1.00  0.00     0.018 C 
ATOM      8  H   UNL A   1      34.799  23.701  25.032  1.00  0.00     0.049 H 
ATOM      9  H   UNL A   1      36.170  24.639  24.377  1.00  0.00     0.049 H 
BRANCH   7  10
ATOM     10  N   UNL A   1      34.575  24.456  23.144  1.00  0.00    -0.352 N 
ATOM     11  C   UNL A   1      33.643  25.464  23.199  1.00  0.00     0.253 C 
ATOM     12  O   UNL A   1      33.138  25.813  22.128  1.00  0.00    -0.269 OA
ATOM     13  H   UNL A   1      34.687  24.043  22.258  1.00  0.00     0.163 HD
BRANCH  11  14
ATOM     14  C   UNL A   1      33.116  26.068  24.464  1.00  0.00     0.063 A 
ATOM     15  C   UNL A   1      32.216  25.516  25.398  1.00  0.00     0.051 A 
ATOM     16  C   UNL A   1      31.825  26.319  26.501  1.00  0.00    -0.038 A 
ATOM     17  C   UNL A   1      32.352  27.590  26.726  1.00  0.00    -0.060 A 
ATOM     18  H   UNL A   1      31.125  25.948  27.161  1.00  0.00     0.064 H 
ATOM     19  C   UNL A   1      33.653  27.354  24.723  1.00  0.00    -0.047 A 
ATOM     20  C   UNL A   1      33.288  28.102  25.843  1.00  0.00    -0.061 A 
ATOM     21  H   UNL A   1      32.048  28.143  27.542  1.00  0.00     0.062 H 
ATOM     22  H   UNL A   1      34.337  27.752  24.060  1.00  0.00     0.063 H 
ATOM     23  H   UNL A   1      33.710  29.028  26.012  1.00  0.00     0.062 H 
BRANCH  15  24
ATOM     24  N   UNL A   1      31.741  24.189  25.457  1.00  0.00    -0.355 N 
ATOM     25  H   UNL A   1      30.757  24.136  25.452  1.00  0.00     0.167 HD
BRANCH  24  26
ATOM     26  C   UNL A   1      32.357  22.923  25.518  1.00  0.00     0.042 A 
ATOM     27  C   UNL A   1      32.706  20.605  24.846  1.00  0.00    -0.046 A 
ATOM     28  C   UNL A   1      33.337  20.343  26.071  1.00  0.00    -0.059 A 
ATOM     29  C   UNL A   1      32.272  21.920  24.533  1.00  0.00    -0.025 A 
ATOM     30  C   UNL A   1      33.532  21.361  26.993  1.00  0.00    -0.060 A 
ATOM     31  H   UNL A   1      33.659  19.387  26.289  1.00  0.00     0.063 H 
ATOM     32  C   UNL A   1      33.036  22.631  26.720  1.00  0.00    -0.038 A 
ATOM     33  H   UNL A   1      34.039  21.177  27.873  1.00  0.00     0.062 H 
ATOM     34  H   UNL A   1      33.169  23.381  27.416  1.00  0.00     0.064 H 
BRANCH  27  35
ATOM     35  C   UNL A   1      32.528  19.466  23.876  1.00  0.00    -0.039 C 
ATOM     36  H   UNL A   1      32.984  18.584  24.273  1.00  0.00     0.028 H 
ATOM     37  H   UNL A   1      32.988  19.718  22.944  1.00  0.00     0.028 H 
ATOM     38  H   UNL A   1      31.484  19.290  23.722  1.00  0.00     0.028 H 
ENDBRANCH  27  35
BRANCH  29  39
ATOM     39  C   UNL A   1      31.797  22.209  23.131  1.00  0.00    -0.037 C 
ATOM     40  H   UNL A   1      32.341  21.604  22.437  1.00  0.00     0.028 H 
ATOM     41  H   UNL A   1      31.957  23.243  22.906  1.00  0.00     0.028 H 
ATOM     42  H   UNL A   1      30.752  21.985  23.057  1.00  0.00     0.028 H 
ENDBRANCH  29  39
ENDBRANCH  24  26
ENDBRANCH  15  24
ENDBRANCH  11  14
ENDBRANCH   7  10
ENDBRANCH   4   7
ENDBRANCH   1   4
BRANCH   1  43
ATOM     43  C   UNL A   1      36.652  20.347  25.001  1.00  0.00    -0.052 C 
ATOM     44  H   UNL A   1      36.049  20.058  24.166  1.00  0.00     0.027 H 
ATOM     45  H   UNL A   1      36.211  20.170  25.960  1.00  0.00     0.027 H 
BRANCH  43  46
ATOM     46  C   UNL A   1      37.914  19.482  24.980  1.00  0.00    -0.036 C 
ATOM     47  H   UNL A   1      38.210  19.365  23.958  1.00  0.00     0.028 H 
ATOM     48  H   UNL A   1      37.643  18.571  25.471  1.00  0.00     0.028 H 
BRANCH  46  49
ATOM     49  C   UNL A   1      39.114  20.016  25.751  1.00  0.00     0.018 C 
ATOM     50  H   UNL A   1      38.790  20.298  26.731  1.00  0.00     0.049 H 
ATOM     51  H   UNL A   1      39.502  20.847  25.202  1.00  0.00     0.049 H 
BRANCH  49  52
ATOM     52  N   UNL A   1      40.187  19.046  25.881  1.00  0.00    -0.352 N 
ATOM     53  C   UNL A   1      41.526  19.230  26.126  1.00  0.00     0.251 C 
ATOM     54  H   UNL A   1      39.911  18.106  25.778  1.00  0.00     0.163 HD
ATOM     55  O   UNL A   1      42.293  18.273  26.066  1.00  0.00    -0.269 OA
BRANCH  53  56
ATOM     56  C   UNL A   1      42.069  20.575  26.436  1.00  0.00     0.039 A 
ATOM     57  C   UNL A   1      42.417  21.420  25.376  1.00  0.00    -0.049 A 
ATOM     58  C   UNL A   1      42.278  20.997  27.751  1.00  0.00    -0.049 A 
ATOM     59  C   UNL A   1      42.914  22.702  25.633  1.00  0.00    -0.053 A 
ATOM     60  H   UNL A   1      42.306  21.096  24.402  1.00  0.00     0.063 H 
ATOM     61  C   UNL A   1      42.701  22.301  28.007  1.00  0.00    -0.053 A 
ATOM     62  H   UNL A   1      42.120  20.343  28.533  1.00  0.00     0.063 H 
ATOM     63  C   UNL A   1      43.031  23.165  26.951  1.00  0.00    -0.014 A 
ATOM     64  H   UNL A   1      43.195  23.311  24.848  1.00  0.00     0.063 H 
ATOM     65  H   UNL A   1      42.771  22.634  28.981  1.00  0.00     0.063 H 
BRANCH  63  66
ATOM     66  C   UNL A   1      43.520  24.535  27.258  1.00  0.00     0.031 A 
ATOM     67  C   UNL A   1      42.569  25.566  27.802  1.00  0.00     0.074 A 
ATOM     68  C   UNL A   1      44.789  24.880  26.968  1.00  0.00     0.049 A 
ATOM     69  N   UNL A   1      42.757  26.846  28.005  1.00  0.00    -0.248 NA
ATOM     70  C   UNL A   1      41.213  25.101  28.131  1.00  0.00    -0.034 C 
ATOM     71  C   UNL A   1      45.799  23.986  26.401  1.00  0.00    -0.036 A 
ATOM     72  N   UNL A   1      45.440  26.083  27.090  1.00  0.00    -0.354 N 
ATOM     73  C   UNL A   1      41.538  27.341  28.450  1.00  0.00     0.074 A 
ATOM     74  C   UNL A   1      40.606  26.234  28.449  1.00  0.00    -0.034 C 
ATOM     75  H   UNL A   1      40.833  24.141  28.117  1.00  0.00     0.065 H 
ATOM     76  C   UNL A   1      46.943  24.668  26.231  1.00  0.00    -0.036 A 
ATOM     77  H   UNL A   1      45.655  22.992  26.170  1.00  0.00     0.065 H 
ATOM     78  C   UNL A   1      46.737  26.055  26.638  1.00  0.00     0.049 A 
ATOM     79  H   UNL A   1      45.017  26.889  27.465  1.00  0.00     0.167 HD
ATOM     80  C   UNL A   1      41.228  28.600  28.841  1.00  0.00     0.037 A 
ATOM     81  H   UNL A   1      39.601  26.318  28.667  1.00  0.00     0.065 H 
ATOM     82  H   UNL A   1      47.826  24.275  25.869  1.00  0.00     0.065 H 
ATOM     83  C   UNL A   1      47.652  27.040  26.546  1.00  0.00     0.037 A 
ATOM     84  C   UNL A   1      42.170  29.688  28.886  1.00  0.00     0.049 A 
ATOM     85  C   UNL A   1      47.291  28.427  27.004  1.00  0.00     0.074 A 
ATOM     86  C   UNL A   1      41.976  30.979  29.345  1.00  0.00    -0.036 A 
ATOM     87  N   UNL A   1      43.487  29.609  28.458  1.00  0.00    -0.354 N 
ATOM     88  N   UNL A   1      46.154  28.871  27.479  1.00  0.00    -0.248 NA
ATOM     89  C   UNL A   1      48.342  29.451  26.915  1.00  0.00    -0.034 C 
ATOM     90  C   UNL A   1      43.164  31.694  29.155  1.00  0.00    -0.036 A 
ATOM     91  H   UNL A   1      41.106  31.350  29.758  1.00  0.00     0.065 H 
ATOM     92  C   UNL A   1      44.111  30.835  28.621  1.00  0.00     0.049 A 
ATOM     93  H   UNL A   1      43.915  28.801  28.092  1.00  0.00     0.167 HD
ATOM     94  C   UNL A   1      46.357  30.212  27.772  1.00  0.00     0.074 A 
ATOM     95  C   UNL A   1      47.731  30.510  27.426  1.00  0.00    -0.034 C 
ATOM     96  H   UNL A   1      49.304  29.367  26.549  1.00  0.00     0.065 H 
ATOM     97  H   UNL A   1      43.308  32.691  29.375  1.00  0.00     0.065 H 
ATOM     98  C   UNL A   1      45.483  31.113  28.282  1.00  0.00     0.037 A 
ATOM     99  H   UNL A   1      48.178  31.432  27.560  1.00  0.00     0.065 H 
BRANCH  80 100
ATOM    100  C   UNL A   1      39.810  28.873  29.249  1.00  0.00     0.064 A 
ATOM    101  C   UNL A   1      38.846  29.308  28.326  1.00  0.00     0.173 A 
ATOM    102  C   UNL A   1      39.402  28.672  30.576  1.00  0.00     0.173 A 
ATOM    103  F   UNL A   1      39.187  29.525  27.047  1.00  0.00    -0.203 F 
ATOM    104  C   UNL A   1      37.536  29.565  28.724  1.00  0.00     0.198 A 
ATOM    105  C   UNL A   1      38.084  28.899  30.965  1.00  0.00     0.198 A 
ATOM    106  F   UNL A   1      40.280  28.250  31.498  1.00  0.00    -0.203 F 
ATOM    107  F   UNL A   1      36.648  30.033  27.837  1.00  0.00    -0.200 F 
ATOM    108  C   UNL A   1      37.155  29.356  30.041  1.00  0.00     0.200 A 
ATOM    109  F   UNL A   1      37.714  28.684  32.234  1.00  0.00    -0.200 F 
ATOM    110  F   UNL A   1      35.894  29.600  30.422  1.00  0.00    -0.200 F 
ENDBRANCH  80 100
BRANCH  83 111
ATOM    111  C   UNL A   1      49.006  26.738  26.014  1.00  0.00     0.064 A 
ATOM    112  C   UNL A   1      49.318  26.979  24.668  1.00  0.00     0.173 A 
ATOM    113  C   UNL A   1      50.015  26.220  26.837  1.00  0.00     0.173 A 
ATOM    114  F   UNL A   1      48.379  27.453  23.838  1.00  0.00    -0.203 F 
ATOM    115  C   UNL A   1      50.588  26.703  24.166  1.00  0.00     0.198 A 
ATOM    116  C   UNL A   1      51.292  25.969  26.338  1.00  0.00     0.198 A 
ATOM    117  F   UNL A   1      49.767  25.977  28.133  1.00  0.00    -0.203 F 
ATOM    118  F   UNL A   1      50.851  26.910  22.867  1.00  0.00    -0.200 F 
ATOM    119  C   UNL A   1      51.576  26.205  25.002  1.00  0.00     0.200 A 
ATOM    120  F   UNL A   1      52.247  25.502  27.153  1.00  0.00    -0.200 F 
ATOM    121  F   UNL A   1      52.799  25.950  24.519  1.00  0.00    -0.200 F 
ENDBRANCH  83 111
BRANCH  98 122
ATOM    122  C   UNL A   1      45.989  32.504  28.534  1.00  0.00     0.064 A 
ATOM    123  C   UNL A   1      46.617  32.849  29.738  1.00  0.00     0.173 A 
ATOM    124  C   UNL A   1      45.903  33.481  27.530  1.00  0.00     0.173 A 
ATOM    125  F   UNL A   1      46.710  31.954  30.732  1.00  0.00    -0.203 F 
ATOM    126  C   UNL A   1      47.131  34.128  29.933  1.00  0.00     0.198 A 
ATOM    127  C   UNL A   1      46.440  34.750  27.720  1.00  0.00     0.198 A 
ATOM    128  F   UNL A   1      45.316  33.197  26.359  1.00  0.00    -0.203 F 
ATOM    129  F   UNL A   1      47.700  34.448  31.104  1.00  0.00    -0.200 F 
ATOM    130  C   UNL A   1      47.051  35.075  28.922  1.00  0.00     0.200 A 
ATOM    131  F   UNL A   1      46.374  35.658  26.737  1.00  0.00    -0.200 F 
ATOM    132  F   UNL A   1      47.560  36.300  29.107  1.00  0.00    -0.200 F 
ENDBRANCH  98 122
ENDBRANCH  63  66
ENDBRANCH  53  56
ENDBRANCH  49  52
ENDBRANCH  46  49
ENDBRANCH  43  46
ENDBRANCH   1  43
TORSDOF 17
ENDMDL
MODEL 8
REMARK VINA RESULT:     -11.8      0.732      7.294
REMARK SMILES Cc1cccc(Nc2ccccc2C(=O)NCCCCCCNC(=O)c2ccc(-c3c4nc(c(-c5c(F)c(F)c(F)c(F)c5F)c5ccc([nH]5)c(-c5c(F)c(F)c(F)c(F)c5F)c5nc(c(-c6c(F)c(F)c(F)c(F)c6F)c6ccc3[nH]6)C=C5)C=C4)cc2)c1C
REMARK SMILES IDX 19 1 18 4 17 7 16 10 14 11 15 12 13 14 8 15 9 16 10 17 12 19
REMARK SMILES IDX 11 20 7 24 6 26 2 27 3 28 89 29 4 30 5 32 1 35 90 39 20 43
REMARK SMILES IDX 21 46 22 49 23 52 24 53 25 55 26 56 27 57 88 58 28 59 87 61
REMARK SMILES IDX 29 63 30 66 31 67 81 68 32 69 86 70 80 71 82 72 33 73 85 74
REMARK SMILES IDX 79 76 78 78 34 80 66 83 46 84 65 85 47 86 50 87 64 88 83 89
REMARK SMILES IDX 48 90 49 92 63 94 84 95 51 98 35 100 36 101 44 102 37 103
REMARK SMILES IDX 38 104 42 105 45 106 39 107 40 108 43 109 41 110 67 111
REMARK SMILES IDX 68 112 76 113 69 114 70 115 74 116 77 117 71 118 72 119
REMARK SMILES IDX 75 120 73 121 52 122 53 123 61 124 54 125 55 126 59 127
REMARK SMILES IDX 62 128 56 129 57 130 60 131 58 132
REMARK H PARENT 19 2 19 3 18 5 18 6 17 8 17 9 16 13 9 18 10 21 12 22 11 23
REMARK H PARENT 7 25 3 31 4 33 5 34 1 36 1 37 1 38 90 40 90 41 90 42 20 44
REMARK H PARENT 20 45 21 47 21 48 22 50 22 51 23 54 27 60 88 62 28 64 87 65
REMARK H PARENT 86 75 80 77 82 79 85 81 79 82 47 91 50 93 83 96 48 97 84 99
REMARK Flexibility Score: inf
ROOT
ATOM      1  C   UNL A   1      32.134  29.881  26.396  1.00  0.00    -0.052 C 
ATOM      2  H   UNL A   1      32.888  29.649  25.673  1.00  0.00     0.027 H 
ATOM      3  H   UNL A   1      32.491  30.292  27.318  1.00  0.00     0.027 H 
ENDROOT
BRANCH   1   4
ATOM      4  C   UNL A   1      31.460  28.559  26.795  1.00  0.00    -0.036 C 
ATOM      5  H   UNL A   1      31.147  28.648  27.814  1.00  0.00     0.028 H 
ATOM      6  H   UNL A   1      30.662  28.427  26.093  1.00  0.00     0.028 H 
BRANCH   4   7
ATOM      7  C   UNL A   1      32.310  27.297  26.680  1.00  0.00     0.018 C 
ATOM      8  H   UNL A   1      32.675  27.230  25.677  1.00  0.00     0.049 H 
ATOM      9  H   UNL A   1      33.091  27.389  27.406  1.00  0.00     0.049 H 
BRANCH   7  10
ATOM     10  N   UNL A   1      31.610  26.074  26.987  1.00  0.00    -0.352 N 
ATOM     11  C   UNL A   1      31.910  24.775  26.658  1.00  0.00     0.253 C 
ATOM     12  O   UNL A   1      31.192  23.897  27.145  1.00  0.00    -0.269 OA
ATOM     13  H   UNL A   1      30.788  26.189  27.515  1.00  0.00     0.163 HD
BRANCH  11  14
ATOM     14  C   UNL A   1      32.952  24.369  25.662  1.00  0.00     0.063 A 
ATOM     15  C   UNL A   1      32.924  24.484  24.257  1.00  0.00     0.051 A 
ATOM     16  C   UNL A   1      34.026  23.970  23.525  1.00  0.00    -0.038 A 
ATOM     17  C   UNL A   1      35.151  23.429  24.146  1.00  0.00    -0.060 A 
ATOM     18  H   UNL A   1      33.993  23.997  22.494  1.00  0.00     0.064 H 
ATOM     19  C   UNL A   1      34.115  23.834  26.272  1.00  0.00    -0.047 A 
ATOM     20  C   UNL A   1      35.205  23.381  25.528  1.00  0.00    -0.061 A 
ATOM     21  H   UNL A   1      35.936  23.070  23.581  1.00  0.00     0.062 H 
ATOM     22  H   UNL A   1      34.156  23.776  27.302  1.00  0.00     0.063 H 
ATOM     23  H   UNL A   1      36.044  23.013  26.003  1.00  0.00     0.062 H 
BRANCH  15  24
ATOM     24  N   UNL A   1      31.984  25.178  23.468  1.00  0.00    -0.355 N 
ATOM     25  H   UNL A   1      31.465  24.582  22.880  1.00  0.00     0.167 HD
BRANCH  24  26
ATOM     26  C   UNL A   1      31.618  26.533  23.333  1.00  0.00     0.042 A 
ATOM     27  C   UNL A   1      30.053  28.373  23.001  1.00  0.00    -0.046 A 
ATOM     28  C   UNL A   1      31.112  29.207  22.616  1.00  0.00    -0.059 A 
ATOM     29  C   UNL A   1      30.309  27.044  23.431  1.00  0.00    -0.025 A 
ATOM     30  C   UNL A   1      32.417  28.740  22.637  1.00  0.00    -0.060 A 
ATOM     31  H   UNL A   1      30.919  30.175  22.314  1.00  0.00     0.063 H 
ATOM     32  C   UNL A   1      32.662  27.415  22.982  1.00  0.00    -0.038 A 
ATOM     33  H   UNL A   1      33.200  29.370  22.400  1.00  0.00     0.062 H 
ATOM     34  H   UNL A   1      33.634  27.069  22.980  1.00  0.00     0.064 H 
BRANCH  27  35
ATOM     35  C   UNL A   1      28.654  28.931  22.969  1.00  0.00    -0.039 C 
ATOM     36  H   UNL A   1      28.067  28.468  23.733  1.00  0.00     0.028 H 
ATOM     37  H   UNL A   1      28.215  28.737  22.013  1.00  0.00     0.028 H 
ATOM     38  H   UNL A   1      28.688  29.988  23.137  1.00  0.00     0.028 H 
ENDBRANCH  27  35
BRANCH  29  39
ATOM     39  C   UNL A   1      29.181  26.250  24.039  1.00  0.00    -0.037 C 
ATOM     40  H   UNL A   1      29.271  26.261  25.105  1.00  0.00     0.028 H 
ATOM     41  H   UNL A   1      29.224  25.240  23.687  1.00  0.00     0.028 H 
ATOM     42  H   UNL A   1      28.245  26.687  23.756  1.00  0.00     0.028 H 
ENDBRANCH  29  39
ENDBRANCH  24  26
ENDBRANCH  15  24
ENDBRANCH  11  14
ENDBRANCH   7  10
ENDBRANCH   4   7
ENDBRANCH   1   4
BRANCH   1  43
ATOM     43  C   UNL A   1      31.248  30.981  25.798  1.00  0.00    -0.052 C 
ATOM     44  H   UNL A   1      30.243  30.615  25.784  1.00  0.00     0.027 H 
ATOM     45  H   UNL A   1      31.669  31.184  24.835  1.00  0.00     0.027 H 
BRANCH  43  46
ATOM     46  C   UNL A   1      31.237  32.330  26.519  1.00  0.00    -0.036 C 
ATOM     47  H   UNL A   1      30.497  32.281  27.289  1.00  0.00     0.028 H 
ATOM     48  H   UNL A   1      31.039  33.057  25.759  1.00  0.00     0.028 H 
BRANCH  46  49
ATOM     49  C   UNL A   1      32.547  32.765  27.163  1.00  0.00     0.018 C 
ATOM     50  H   UNL A   1      33.332  32.658  26.443  1.00  0.00     0.049 H 
ATOM     51  H   UNL A   1      32.702  32.146  28.020  1.00  0.00     0.049 H 
BRANCH  49  52
ATOM     52  N   UNL A   1      32.528  34.143  27.622  1.00  0.00    -0.352 N 
ATOM     53  C   UNL A   1      33.287  34.770  28.581  1.00  0.00     0.251 C 
ATOM     54  H   UNL A   1      31.866  34.719  27.176  1.00  0.00     0.163 HD
ATOM     55  O   UNL A   1      33.019  35.921  28.912  1.00  0.00    -0.269 OA
BRANCH  53  56
ATOM     56  C   UNL A   1      34.414  34.069  29.243  1.00  0.00     0.039 A 
ATOM     57  C   UNL A   1      34.127  33.131  30.242  1.00  0.00    -0.049 A 
ATOM     58  C   UNL A   1      35.744  34.352  28.925  1.00  0.00    -0.049 A 
ATOM     59  C   UNL A   1      35.165  32.438  30.875  1.00  0.00    -0.053 A 
ATOM     60  H   UNL A   1      33.147  32.950  30.513  1.00  0.00     0.063 H 
ATOM     61  C   UNL A   1      36.773  33.608  29.500  1.00  0.00    -0.053 A 
ATOM     62  H   UNL A   1      35.965  35.113  28.264  1.00  0.00     0.063 H 
ATOM     63  C   UNL A   1      36.496  32.648  30.487  1.00  0.00    -0.014 A 
ATOM     64  H   UNL A   1      34.950  31.768  31.630  1.00  0.00     0.063 H 
ATOM     65  H   UNL A   1      37.747  33.763  29.196  1.00  0.00     0.063 H 
BRANCH  63  66
ATOM     66  C   UNL A   1      37.619  31.902  31.111  1.00  0.00     0.031 A 
ATOM     67  C   UNL A   1      38.082  32.264  32.496  1.00  0.00     0.074 A 
ATOM     68  C   UNL A   1      38.281  30.964  30.406  1.00  0.00     0.049 A 
ATOM     69  N   UNL A   1      39.125  31.836  33.163  1.00  0.00    -0.248 NA
ATOM     70  C   UNL A   1      37.284  33.269  33.214  1.00  0.00    -0.034 C 
ATOM     71  C   UNL A   1      37.958  30.548  29.041  1.00  0.00    -0.036 A 
ATOM     72  N   UNL A   1      39.378  30.205  30.735  1.00  0.00    -0.354 N 
ATOM     73  C   UNL A   1      39.124  32.541  34.359  1.00  0.00     0.074 A 
ATOM     74  C   UNL A   1      38.002  33.456  34.310  1.00  0.00    -0.034 C 
ATOM     75  H   UNL A   1      36.394  33.713  32.936  1.00  0.00     0.065 H 
ATOM     76  C   UNL A   1      38.832  29.605  28.651  1.00  0.00    -0.036 A 
ATOM     77  H   UNL A   1      37.184  30.919  28.471  1.00  0.00     0.065 H 
ATOM     78  C   UNL A   1      39.800  29.379  29.721  1.00  0.00     0.049 A 
ATOM     79  H   UNL A   1      39.821  30.249  31.613  1.00  0.00     0.167 HD
ATOM     80  C   UNL A   1      39.970  32.426  35.410  1.00  0.00     0.037 A 
ATOM     81  H   UNL A   1      37.792  34.160  35.034  1.00  0.00     0.065 H 
ATOM     82  H   UNL A   1      38.821  29.119  27.741  1.00  0.00     0.065 H 
ATOM     83  C   UNL A   1      40.856  28.545  29.655  1.00  0.00     0.037 A 
ATOM     84  C   UNL A   1      41.055  31.483  35.475  1.00  0.00     0.049 A 
ATOM     85  C   UNL A   1      41.772  28.420  30.842  1.00  0.00     0.074 A 
ATOM     86  C   UNL A   1      41.918  31.231  36.527  1.00  0.00    -0.036 A 
ATOM     87  N   UNL A   1      41.425  30.634  34.442  1.00  0.00    -0.354 N 
ATOM     88  N   UNL A   1      41.727  29.049  31.991  1.00  0.00    -0.248 NA
ATOM     89  C   UNL A   1      42.886  27.467  30.725  1.00  0.00    -0.034 C 
ATOM     90  C   UNL A   1      42.837  30.259  36.116  1.00  0.00    -0.036 A 
ATOM     91  H   UNL A   1      41.888  31.681  37.456  1.00  0.00     0.065 H 
ATOM     92  C   UNL A   1      42.518  29.872  34.825  1.00  0.00     0.049 A 
ATOM     93  H   UNL A   1      40.977  30.581  33.567  1.00  0.00     0.167 HD
ATOM     94  C   UNL A   1      42.782  28.551  32.742  1.00  0.00     0.074 A 
ATOM     95  C   UNL A   1      43.449  27.562  31.921  1.00  0.00    -0.034 C 
ATOM     96  H   UNL A   1      43.157  26.879  29.921  1.00  0.00     0.065 H 
ATOM     97  H   UNL A   1      43.619  29.893  36.681  1.00  0.00     0.065 H 
ATOM     98  C   UNL A   1      43.163  28.884  33.999  1.00  0.00     0.037 A 
ATOM     99  H   UNL A   1      44.260  27.002  32.229  1.00  0.00     0.065 H 
BRANCH  80 100
ATOM    100  C   UNL A   1      39.760  33.347  36.577  1.00  0.00     0.064 A 
ATOM    101  C   UNL A   1      40.416  34.584  36.671  1.00  0.00     0.173 A 
ATOM    102  C   UNL A   1      38.869  32.998  37.604  1.00  0.00     0.173 A 
ATOM    103  F   UNL A   1      41.285  34.960  35.721  1.00  0.00    -0.203 F 
ATOM    104  C   UNL A   1      40.215  35.421  37.766  1.00  0.00     0.198 A 
ATOM    105  C   UNL A   1      38.646  33.851  38.682  1.00  0.00     0.198 A 
ATOM    106  F   UNL A   1      38.210  31.830  37.561  1.00  0.00    -0.203 F 
ATOM    107  F   UNL A   1      40.895  36.572  37.860  1.00  0.00    -0.200 F 
ATOM    108  C   UNL A   1      39.327  35.057  38.767  1.00  0.00     0.200 A 
ATOM    109  F   UNL A   1      37.778  33.504  39.642  1.00  0.00    -0.200 F 
ATOM    110  F   UNL A   1      39.132  35.864  39.818  1.00  0.00    -0.200 F 
ENDBRANCH  80 100
BRANCH  83 111
ATOM    111  C   UNL A   1      41.089  27.751  28.422  1.00  0.00     0.064 A 
ATOM    112  C   UNL A   1      41.947  28.219  27.417  1.00  0.00     0.173 A 
ATOM    113  C   UNL A   1      40.475  26.506  28.228  1.00  0.00     0.173 A 
ATOM    114  F   UNL A   1      42.540  29.414  27.548  1.00  0.00    -0.203 F 
ATOM    115  C   UNL A   1      42.174  27.475  26.261  1.00  0.00     0.198 A 
ATOM    116  C   UNL A   1      40.722  25.751  27.083  1.00  0.00     0.198 A 
ATOM    117  F   UNL A   1      39.648  26.012  29.163  1.00  0.00    -0.203 F 
ATOM    118  F   UNL A   1      42.972  27.961  25.300  1.00  0.00    -0.200 F 
ATOM    119  C   UNL A   1      41.567  26.239  26.098  1.00  0.00     0.200 A 
ATOM    120  F   UNL A   1      40.145  24.551  26.937  1.00  0.00    -0.200 F 
ATOM    121  F   UNL A   1      41.793  25.520  24.990  1.00  0.00    -0.200 F 
ENDBRANCH  83 111
BRANCH  98 122
ATOM    122  C   UNL A   1      44.334  28.152  34.586  1.00  0.00     0.064 A 
ATOM    123  C   UNL A   1      44.175  26.931  35.256  1.00  0.00     0.173 A 
ATOM    124  C   UNL A   1      45.636  28.646  34.415  1.00  0.00     0.173 A 
ATOM    125  F   UNL A   1      42.949  26.426  35.457  1.00  0.00    -0.203 F 
ATOM    126  C   UNL A   1      45.278  26.237  35.746  1.00  0.00     0.198 A 
ATOM    127  C   UNL A   1      46.738  27.937  34.883  1.00  0.00     0.198 A 
ATOM    128  F   UNL A   1      45.840  29.807  33.776  1.00  0.00    -0.203 F 
ATOM    129  F   UNL A   1      45.103  25.087  36.412  1.00  0.00    -0.200 F 
ATOM    130  C   UNL A   1      46.559  26.735  35.551  1.00  0.00     0.200 A 
ATOM    131  F   UNL A   1      47.974  28.413  34.682  1.00  0.00    -0.200 F 
ATOM    132  F   UNL A   1      47.619  26.057  36.009  1.00  0.00    -0.200 F 
ENDBRANCH  98 122
ENDBRANCH  63  66
ENDBRANCH  53  56
ENDBRANCH  49  52
ENDBRANCH  46  49
ENDBRANCH  43  46
ENDBRANCH   1  43
TORSDOF 17
ENDMDL
MODEL 9
REMARK VINA RESULT:     -11.8      1.651      7.923
REMARK SMILES Cc1cccc(Nc2ccccc2C(=O)NCCCCCCNC(=O)c2ccc(-c3c4nc(c(-c5c(F)c(F)c(F)c(F)c5F)c5ccc([nH]5)c(-c5c(F)c(F)c(F)c(F)c5F)c5nc(c(-c6c(F)c(F)c(F)c(F)c6F)c6ccc3[nH]6)C=C5)C=C4)cc2)c1C
REMARK SMILES IDX 19 1 18 4 17 7 16 10 14 11 15 12 13 14 8 15 9 16 10 17 12 19
REMARK SMILES IDX 11 20 7 24 6 26 2 27 3 28 89 29 4 30 5 32 1 35 90 39 20 43
REMARK SMILES IDX 21 46 22 49 23 52 24 53 25 55 26 56 27 57 88 58 28 59 87 61
REMARK SMILES IDX 29 63 30 66 31 67 81 68 32 69 86 70 80 71 82 72 33 73 85 74
REMARK SMILES IDX 79 76 78 78 34 80 66 83 46 84 65 85 47 86 50 87 64 88 83 89
REMARK SMILES IDX 48 90 49 92 63 94 84 95 51 98 35 100 36 101 44 102 37 103
REMARK SMILES IDX 38 104 42 105 45 106 39 107 40 108 43 109 41 110 67 111
REMARK SMILES IDX 68 112 76 113 69 114 70 115 74 116 77 117 71 118 72 119
REMARK SMILES IDX 75 120 73 121 52 122 53 123 61 124 54 125 55 126 59 127
REMARK SMILES IDX 62 128 56 129 57 130 60 131 58 132
REMARK H PARENT 19 2 19 3 18 5 18 6 17 8 17 9 16 13 9 18 10 21 12 22 11 23
REMARK H PARENT 7 25 3 31 4 33 5 34 1 36 1 37 1 38 90 40 90 41 90 42 20 44
REMARK H PARENT 20 45 21 47 21 48 22 50 22 51 23 54 27 60 88 62 28 64 87 65
REMARK H PARENT 86 75 80 77 82 79 85 81 79 82 47 91 50 93 83 96 48 97 84 99
REMARK Flexibility Score: inf
ROOT
ATOM      1  C   UNL A   1      34.408  32.262  29.101  1.00  0.00    -0.052 C 
ATOM      2  H   UNL A   1      35.007  32.116  29.976  1.00  0.00     0.027 H 
ATOM      3  H   UNL A   1      33.361  32.075  29.223  1.00  0.00     0.027 H 
ENDROOT
BRANCH   1   4
ATOM      4  C   UNL A   1      34.867  31.235  28.055  1.00  0.00    -0.036 C 
ATOM      5  H   UNL A   1      35.633  31.692  27.464  1.00  0.00     0.028 H 
ATOM      6  H   UNL A   1      35.188  30.383  28.618  1.00  0.00     0.028 H 
BRANCH   4   7
ATOM      7  C   UNL A   1      33.799  30.707  27.101  1.00  0.00     0.018 C 
ATOM      8  H   UNL A   1      33.249  31.541  26.719  1.00  0.00     0.049 H 
ATOM      9  H   UNL A   1      34.316  30.160  26.340  1.00  0.00     0.049 H 
BRANCH   7  10
ATOM     10  N   UNL A   1      32.864  29.787  27.700  1.00  0.00    -0.352 N 
ATOM     11  C   UNL A   1      32.234  28.690  27.163  1.00  0.00     0.253 C 
ATOM     12  O   UNL A   1      31.557  28.005  27.935  1.00  0.00    -0.269 OA
ATOM     13  H   UNL A   1      32.642  29.974  28.639  1.00  0.00     0.163 HD
BRANCH  11  14
ATOM     14  C   UNL A   1      32.210  28.352  25.704  1.00  0.00     0.063 A 
ATOM     15  C   UNL A   1      32.935  27.358  25.017  1.00  0.00     0.051 A 
ATOM     16  C   UNL A   1      32.775  27.271  23.609  1.00  0.00    -0.038 A 
ATOM     17  C   UNL A   1      31.882  28.078  22.905  1.00  0.00    -0.060 A 
ATOM     18  H   UNL A   1      33.341  26.585  23.086  1.00  0.00     0.064 H 
ATOM     19  C   UNL A   1      31.293  29.148  24.971  1.00  0.00    -0.047 A 
ATOM     20  C   UNL A   1      31.121  29.007  23.594  1.00  0.00    -0.061 A 
ATOM     21  H   UNL A   1      31.788  27.983  21.882  1.00  0.00     0.062 H 
ATOM     22  H   UNL A   1      30.736  29.857  25.474  1.00  0.00     0.063 H 
ATOM     23  H   UNL A   1      30.433  29.590  23.092  1.00  0.00     0.062 H 
BRANCH  15  24
ATOM     24  N   UNL A   1      33.718  26.324  25.570  1.00  0.00    -0.355 N 
ATOM     25  H   UNL A   1      34.662  26.580  25.688  1.00  0.00     0.167 HD
BRANCH  24  26
ATOM     26  C   UNL A   1      33.453  25.006  25.995  1.00  0.00     0.042 A 
ATOM     27  C   UNL A   1      33.832  22.598  26.083  1.00  0.00    -0.046 A 
ATOM     28  C   UNL A   1      32.522  22.407  26.546  1.00  0.00    -0.059 A 
ATOM     29  C   UNL A   1      34.330  23.910  25.869  1.00  0.00    -0.025 A 
ATOM     30  C   UNL A   1      31.697  23.495  26.788  1.00  0.00    -0.060 A 
ATOM     31  H   UNL A   1      32.170  21.451  26.709  1.00  0.00     0.063 H 
ATOM     32  C   UNL A   1      32.158  24.776  26.504  1.00  0.00    -0.038 A 
ATOM     33  H   UNL A   1      30.751  23.355  27.175  1.00  0.00     0.062 H 
ATOM     34  H   UNL A   1      31.533  25.581  26.670  1.00  0.00     0.064 H 
BRANCH  27  35
ATOM     35  C   UNL A   1      34.691  21.384  25.845  1.00  0.00    -0.039 C 
ATOM     36  H   UNL A   1      35.052  21.013  26.781  1.00  0.00     0.028 H 
ATOM     37  H   UNL A   1      35.519  21.650  25.222  1.00  0.00     0.028 H 
ATOM     38  H   UNL A   1      34.110  20.626  25.361  1.00  0.00     0.028 H 
ENDBRANCH  27  35
BRANCH  29  39
ATOM     39  C   UNL A   1      35.800  24.088  25.580  1.00  0.00    -0.037 C 
ATOM     40  H   UNL A   1      35.977  25.082  25.228  1.00  0.00     0.028 H 
ATOM     41  H   UNL A   1      36.105  23.384  24.834  1.00  0.00     0.028 H 
ATOM     42  H   UNL A   1      36.361  23.923  26.477  1.00  0.00     0.028 H 
ENDBRANCH  29  39
ENDBRANCH  24  26
ENDBRANCH  15  24
ENDBRANCH  11  14
ENDBRANCH   7  10
ENDBRANCH   4   7
ENDBRANCH   1   4
BRANCH   1  43
ATOM     43  C   UNL A   1      34.495  33.748  28.728  1.00  0.00    -0.052 C 
ATOM     44  H   UNL A   1      34.830  33.807  27.714  1.00  0.00     0.027 H 
ATOM     45  H   UNL A   1      35.159  34.176  29.450  1.00  0.00     0.027 H 
BRANCH  43  46
ATOM     46  C   UNL A   1      33.207  34.566  28.838  1.00  0.00    -0.036 C 
ATOM     47  H   UNL A   1      32.549  34.048  29.502  1.00  0.00     0.028 H 
ATOM     48  H   UNL A   1      32.844  34.660  27.836  1.00  0.00     0.028 H 
BRANCH  46  49
ATOM     49  C   UNL A   1      33.353  35.993  29.350  1.00  0.00     0.018 C 
ATOM     50  H   UNL A   1      33.078  36.666  28.565  1.00  0.00     0.049 H 
ATOM     51  H   UNL A   1      34.372  36.122  29.649  1.00  0.00     0.049 H 
BRANCH  49  52
ATOM     52  N   UNL A   1      32.524  36.272  30.509  1.00  0.00    -0.352 N 
ATOM     53  C   UNL A   1      32.653  35.859  31.813  1.00  0.00     0.251 C 
ATOM     54  H   UNL A   1      31.745  36.848  30.333  1.00  0.00     0.163 HD
ATOM     55  O   UNL A   1      31.760  36.102  32.619  1.00  0.00    -0.269 OA
BRANCH  53  56
ATOM     56  C   UNL A   1      33.845  35.099  32.260  1.00  0.00     0.039 A 
ATOM     57  C   UNL A   1      33.670  33.794  32.737  1.00  0.00    -0.049 A 
ATOM     58  C   UNL A   1      35.121  35.665  32.256  1.00  0.00    -0.049 A 
ATOM     59  C   UNL A   1      34.775  33.042  33.150  1.00  0.00    -0.053 A 
ATOM     60  H   UNL A   1      32.723  33.386  32.785  1.00  0.00     0.063 H 
ATOM     61  C   UNL A   1      36.231  34.891  32.595  1.00  0.00    -0.053 A 
ATOM     62  H   UNL A   1      35.244  36.658  32.003  1.00  0.00     0.063 H 
ATOM     63  C   UNL A   1      36.069  33.573  33.053  1.00  0.00    -0.014 A 
ATOM     64  H   UNL A   1      34.637  32.091  33.527  1.00  0.00     0.063 H 
ATOM     65  H   UNL A   1      37.179  35.289  32.507  1.00  0.00     0.063 H 
BRANCH  63  66
ATOM     66  C   UNL A   1      37.268  32.789  33.447  1.00  0.00     0.031 A 
ATOM     67  C   UNL A   1      37.970  33.091  34.743  1.00  0.00     0.074 A 
ATOM     68  C   UNL A   1      37.779  31.869  32.605  1.00  0.00     0.049 A 
ATOM     69  N   UNL A   1      39.103  32.623  35.204  1.00  0.00    -0.248 NA
ATOM     70  C   UNL A   1      37.327  34.078  35.623  1.00  0.00    -0.034 C 
ATOM     71  C   UNL A   1      37.218  31.510  31.303  1.00  0.00    -0.036 A 
ATOM     72  N   UNL A   1      38.901  31.083  32.713  1.00  0.00    -0.354 N 
ATOM     73  C   UNL A   1      39.322  33.283  36.406  1.00  0.00     0.074 A 
ATOM     74  C   UNL A   1      38.228  34.213  36.584  1.00  0.00    -0.034 C 
ATOM     75  H   UNL A   1      36.412  34.545  35.519  1.00  0.00     0.065 H 
ATOM     76  C   UNL A   1      37.992  30.571  30.735  1.00  0.00    -0.036 A 
ATOM     77  H   UNL A   1      36.365  31.913  30.888  1.00  0.00     0.065 H 
ATOM     78  C   UNL A   1      39.125  30.291  31.613  1.00  0.00     0.049 A 
ATOM     79  H   UNL A   1      39.489  31.088  33.502  1.00  0.00     0.167 HD
ATOM     80  C   UNL A   1      40.334  33.116  37.290  1.00  0.00     0.037 A 
ATOM     81  H   UNL A   1      38.159  34.892  37.358  1.00  0.00     0.065 H 
ATOM     82  H   UNL A   1      37.815  30.120  29.824  1.00  0.00     0.065 H 
ATOM     83  C   UNL A   1      40.137  29.446  31.336  1.00  0.00     0.037 A 
ATOM     84  C   UNL A   1      41.395  32.156  37.133  1.00  0.00     0.049 A 
ATOM     85  C   UNL A   1      41.241  29.262  32.341  1.00  0.00     0.074 A 
ATOM     86  C   UNL A   1      42.421  31.852  38.011  1.00  0.00    -0.036 A 
ATOM     87  N   UNL A   1      41.564  31.342  36.023  1.00  0.00    -0.354 N 
ATOM     88  N   UNL A   1      41.407  29.847  33.502  1.00  0.00    -0.248 NA
ATOM     89  C   UNL A   1      42.299  28.300  32.000  1.00  0.00    -0.034 C 
ATOM     90  C   UNL A   1      43.236  30.884  37.413  1.00  0.00    -0.036 A 
ATOM     91  H   UNL A   1      42.560  32.267  38.946  1.00  0.00     0.065 H 
ATOM     92  C   UNL A   1      42.691  30.551  36.184  1.00  0.00     0.049 A 
ATOM     93  H   UNL A   1      40.972  31.328  35.237  1.00  0.00     0.167 HD
ATOM     94  C   UNL A   1      42.566  29.307  34.041  1.00  0.00     0.074 A 
ATOM     95  C   UNL A   1      43.061  28.341  33.083  1.00  0.00    -0.034 C 
ATOM     96  H   UNL A   1      42.416  27.739  31.141  1.00  0.00     0.065 H 
ATOM     97  H   UNL A   1      44.096  30.486  37.821  1.00  0.00     0.065 H 
ATOM     98  C   UNL A   1      43.165  29.587  35.225  1.00  0.00     0.037 A 
ATOM     99  H   UNL A   1      43.902  27.758  33.226  1.00  0.00     0.065 H 
BRANCH  80 100
ATOM    100  C   UNL A   1      40.347  33.994  38.508  1.00  0.00     0.064 A 
ATOM    101  C   UNL A   1      41.042  35.213  38.534  1.00  0.00     0.173 A 
ATOM    102  C   UNL A   1      39.632  33.623  39.657  1.00  0.00     0.173 A 
ATOM    103  F   UNL A   1      41.749  35.608  37.465  1.00  0.00    -0.203 F 
ATOM    104  C   UNL A   1      41.049  36.010  39.676  1.00  0.00     0.198 A 
ATOM    105  C   UNL A   1      39.615  34.437  40.787  1.00  0.00     0.198 A 
ATOM    106  F   UNL A   1      38.944  32.471  39.684  1.00  0.00    -0.203 F 
ATOM    107  F   UNL A   1      41.765  37.142  39.695  1.00  0.00    -0.200 F 
ATOM    108  C   UNL A   1      40.332  35.625  40.798  1.00  0.00     0.200 A 
ATOM    109  F   UNL A   1      38.911  34.070  41.866  1.00  0.00    -0.200 F 
ATOM    110  F   UNL A   1      40.337  36.394  41.895  1.00  0.00    -0.200 F 
ENDBRANCH  80 100
BRANCH  83 111
ATOM    111  C   UNL A   1      40.138  28.696  30.053  1.00  0.00     0.064 A 
ATOM    112  C   UNL A   1      39.498  27.453  29.947  1.00  0.00     0.173 A 
ATOM    113  C   UNL A   1      40.761  29.210  28.908  1.00  0.00     0.173 A 
ATOM    114  F   UNL A   1      38.907  26.912  31.022  1.00  0.00    -0.203 F 
ATOM    115  C   UNL A   1      39.491  26.749  28.745  1.00  0.00     0.198 A 
ATOM    116  C   UNL A   1      40.732  28.516  27.699  1.00  0.00     0.198 A 
ATOM    117  F   UNL A   1      41.384  30.398  28.957  1.00  0.00    -0.203 F 
ATOM    118  F   UNL A   1      38.902  25.547  28.680  1.00  0.00    -0.200 F 
ATOM    119  C   UNL A   1      40.101  27.283  27.620  1.00  0.00     0.200 A 
ATOM    120  F   UNL A   1      41.311  29.043  26.612  1.00  0.00    -0.200 F 
ATOM    121  F   UNL A   1      40.085  26.610  26.463  1.00  0.00    -0.200 F 
ENDBRANCH  83 111
BRANCH  98 122
ATOM    122  C   UNL A   1      44.404  28.816  35.574  1.00  0.00     0.064 A 
ATOM    123  C   UNL A   1      45.680  29.286  35.233  1.00  0.00     0.173 A 
ATOM    124  C   UNL A   1      44.314  27.629  36.317  1.00  0.00     0.173 A 
ATOM    125  F   UNL A   1      45.816  30.408  34.511  1.00  0.00    -0.203 F 
ATOM    126  C   UNL A   1      46.822  28.587  35.613  1.00  0.00     0.198 A 
ATOM    127  C   UNL A   1      45.459  26.948  36.717  1.00  0.00     0.198 A 
ATOM    128  F   UNL A   1      43.116  27.143  36.671  1.00  0.00    -0.203 F 
ATOM    129  F   UNL A   1      48.032  29.035  35.251  1.00  0.00    -0.200 F 
ATOM    130  C   UNL A   1      46.712  27.424  36.363  1.00  0.00     0.200 A 
ATOM    131  F   UNL A   1      45.350  25.833  37.452  1.00  0.00    -0.200 F 
ATOM    132  F   UNL A   1      47.813  26.762  36.741  1.00  0.00    -0.200 F 
ENDBRANCH  98 122
ENDBRANCH  63  66
ENDBRANCH  53  56
ENDBRANCH  49  52
ENDBRANCH  46  49
ENDBRANCH  43  46
ENDBRANCH   1  43
TORSDOF 17
ENDMDL
MODEL 10
REMARK VINA RESULT:     -11.8      0.921      3.011
REMARK SMILES Cc1cccc(Nc2ccccc2C(=O)NCCCCCCNC(=O)c2ccc(-c3c4nc(c(-c5c(F)c(F)c(F)c(F)c5F)c5ccc([nH]5)c(-c5c(F)c(F)c(F)c(F)c5F)c5nc(c(-c6c(F)c(F)c(F)c(F)c6F)c6ccc3[nH]6)C=C5)C=C4)cc2)c1C
REMARK SMILES IDX 19 1 18 4 17 7 16 10 14 11 15 12 13 14 8 15 9 16 10 17 12 19
REMARK SMILES IDX 11 20 7 24 6 26 2 27 3 28 89 29 4 30 5 32 1 35 90 39 20 43
REMARK SMILES IDX 21 46 22 49 23 52 24 53 25 55 26 56 27 57 88 58 28 59 87 61
REMARK SMILES IDX 29 63 30 66 31 67 81 68 32 69 86 70 80 71 82 72 33 73 85 74
REMARK SMILES IDX 79 76 78 78 34 80 66 83 46 84 65 85 47 86 50 87 64 88 83 89
REMARK SMILES IDX 48 90 49 92 63 94 84 95 51 98 35 100 36 101 44 102 37 103
REMARK SMILES IDX 38 104 42 105 45 106 39 107 40 108 43 109 41 110 67 111
REMARK SMILES IDX 68 112 76 113 69 114 70 115 74 116 77 117 71 118 72 119
REMARK SMILES IDX 75 120 73 121 52 122 53 123 61 124 54 125 55 126 59 127
REMARK SMILES IDX 62 128 56 129 57 130 60 131 58 132
REMARK H PARENT 19 2 19 3 18 5 18 6 17 8 17 9 16 13 9 18 10 21 12 22 11 23
REMARK H PARENT 7 25 3 31 4 33 5 34 1 36 1 37 1 38 90 40 90 41 90 42 20 44
REMARK H PARENT 20 45 21 47 21 48 22 50 22 51 23 54 27 60 88 62 28 64 87 65
REMARK H PARENT 86 75 80 77 82 79 85 81 79 82 47 91 50 93 83 96 48 97 84 99
REMARK Flexibility Score: inf
ROOT
ATOM      1  C   UNL A   1      31.918  29.735  26.893  1.00  0.00    -0.052 C 
ATOM      2  H   UNL A   1      32.106  30.191  27.843  1.00  0.00     0.027 H 
ATOM      3  H   UNL A   1      31.126  29.016  26.876  1.00  0.00     0.027 H 
ENDROOT
BRANCH   1   4
ATOM      4  C   UNL A   1      33.175  28.939  26.510  1.00  0.00    -0.036 C 
ATOM      5  H   UNL A   1      33.502  29.287  25.553  1.00  0.00     0.028 H 
ATOM      6  H   UNL A   1      33.870  29.109  27.307  1.00  0.00     0.028 H 
BRANCH   4   7
ATOM      7  C   UNL A   1      33.024  27.423  26.425  1.00  0.00     0.018 C 
ATOM      8  H   UNL A   1      33.609  26.984  27.205  1.00  0.00     0.049 H 
ATOM      9  H   UNL A   1      31.978  27.216  26.518  1.00  0.00     0.049 H 
BRANCH   7  10
ATOM     10  N   UNL A   1      33.443  26.849  25.170  1.00  0.00    -0.352 N 
ATOM     11  C   UNL A   1      32.759  26.712  23.987  1.00  0.00     0.253 C 
ATOM     12  O   UNL A   1      33.396  26.277  23.023  1.00  0.00    -0.269 OA
ATOM     13  H   UNL A   1      34.363  26.501  25.160  1.00  0.00     0.163 HD
BRANCH  11  14
ATOM     14  C   UNL A   1      31.286  26.929  23.826  1.00  0.00     0.063 A 
ATOM     15  C   UNL A   1      30.233  26.010  24.006  1.00  0.00     0.051 A 
ATOM     16  C   UNL A   1      28.911  26.450  23.735  1.00  0.00    -0.038 A 
ATOM     17  C   UNL A   1      28.619  27.764  23.374  1.00  0.00    -0.060 A 
ATOM     18  H   UNL A   1      28.137  25.772  23.810  1.00  0.00     0.064 H 
ATOM     19  C   UNL A   1      30.963  28.265  23.476  1.00  0.00    -0.047 A 
ATOM     20  C   UNL A   1      29.649  28.682  23.264  1.00  0.00    -0.061 A 
ATOM     21  H   UNL A   1      27.644  28.050  23.190  1.00  0.00     0.062 H 
ATOM     22  H   UNL A   1      31.727  28.952  23.373  1.00  0.00     0.063 H 
ATOM     23  H   UNL A   1      29.446  29.666  23.028  1.00  0.00     0.062 H 
BRANCH  15  24
ATOM     24  N   UNL A   1      30.304  24.715  24.560  1.00  0.00    -0.355 N 
ATOM     25  H   UNL A   1      29.510  24.484  25.095  1.00  0.00     0.167 HD
BRANCH  24  26
ATOM     26  C   UNL A   1      31.256  23.675  24.519  1.00  0.00     0.042 A 
ATOM     27  C   UNL A   1      33.202  22.434  25.305  1.00  0.00    -0.046 A 
ATOM     28  C   UNL A   1      33.340  21.845  24.039  1.00  0.00    -0.059 A 
ATOM     29  C   UNL A   1      32.113  23.304  25.573  1.00  0.00    -0.025 A 
ATOM     30  C   UNL A   1      32.423  22.116  23.035  1.00  0.00    -0.060 A 
ATOM     31  H   UNL A   1      34.129  21.206  23.853  1.00  0.00     0.063 H 
ATOM     32  C   UNL A   1      31.401  23.029  23.273  1.00  0.00    -0.038 A 
ATOM     33  H   UNL A   1      32.498  21.645  22.120  1.00  0.00     0.062 H 
ATOM     34  H   UNL A   1      30.731  23.240  22.517  1.00  0.00     0.064 H 
BRANCH  27  35
ATOM     35  C   UNL A   1      34.220  22.099  26.364  1.00  0.00    -0.039 C 
ATOM     36  H   UNL A   1      35.138  22.602  26.148  1.00  0.00     0.028 H 
ATOM     37  H   UNL A   1      34.385  21.042  26.377  1.00  0.00     0.028 H 
ATOM     38  H   UNL A   1      33.856  22.414  27.320  1.00  0.00     0.028 H 
ENDBRANCH  27  35
BRANCH  29  39
ATOM     39  C   UNL A   1      31.874  23.746  26.995  1.00  0.00    -0.037 C 
ATOM     40  H   UNL A   1      30.948  24.279  27.053  1.00  0.00     0.028 H 
ATOM     41  H   UNL A   1      32.674  24.383  27.310  1.00  0.00     0.028 H 
ATOM     42  H   UNL A   1      31.831  22.886  27.632  1.00  0.00     0.028 H 
ENDBRANCH  29  39
ENDBRANCH  24  26
ENDBRANCH  15  24
ENDBRANCH  11  14
ENDBRANCH   7  10
ENDBRANCH   4   7
ENDBRANCH   1   4
BRANCH   1  43
ATOM     43  C   UNL A   1      31.456  30.842  25.937  1.00  0.00    -0.052 C 
ATOM     44  H   UNL A   1      30.509  30.548  25.536  1.00  0.00     0.027 H 
ATOM     45  H   UNL A   1      32.243  30.934  25.217  1.00  0.00     0.027 H 
BRANCH  43  46
ATOM     46  C   UNL A   1      31.292  32.244  26.527  1.00  0.00    -0.036 C 
ATOM     47  H   UNL A   1      30.506  32.201  27.252  1.00  0.00     0.028 H 
ATOM     48  H   UNL A   1      31.092  32.882  25.692  1.00  0.00     0.028 H 
BRANCH  46  49
ATOM     49  C   UNL A   1      32.518  32.841  27.206  1.00  0.00     0.018 C 
ATOM     50  H   UNL A   1      33.334  32.820  26.515  1.00  0.00     0.049 H 
ATOM     51  H   UNL A   1      32.715  32.254  28.078  1.00  0.00     0.049 H 
BRANCH  49  52
ATOM     52  N   UNL A   1      32.318  34.211  27.643  1.00  0.00    -0.352 N 
ATOM     53  C   UNL A   1      32.976  34.942  28.602  1.00  0.00     0.251 C 
ATOM     54  H   UNL A   1      31.596  34.693  27.178  1.00  0.00     0.163 HD
ATOM     55  O   UNL A   1      32.560  36.055  28.911  1.00  0.00    -0.269 OA
BRANCH  53  56
ATOM     56  C   UNL A   1      34.171  34.399  29.292  1.00  0.00     0.039 A 
ATOM     57  C   UNL A   1      34.004  33.778  30.536  1.00  0.00    -0.049 A 
ATOM     58  C   UNL A   1      35.453  34.529  28.754  1.00  0.00    -0.049 A 
ATOM     59  C   UNL A   1      35.107  33.238  31.206  1.00  0.00    -0.053 A 
ATOM     60  H   UNL A   1      33.065  33.719  30.960  1.00  0.00     0.063 H 
ATOM     61  C   UNL A   1      36.540  33.924  29.383  1.00  0.00    -0.053 A 
ATOM     62  H   UNL A   1      35.596  35.074  27.889  1.00  0.00     0.063 H 
ATOM     63  C   UNL A   1      36.381  33.278  30.620  1.00  0.00    -0.014 A 
ATOM     64  H   UNL A   1      34.983  32.806  32.135  1.00  0.00     0.063 H 
ATOM     65  H   UNL A   1      37.470  33.949  28.936  1.00  0.00     0.063 H 
BRANCH  63  66
ATOM     66  C   UNL A   1      37.567  32.681  31.287  1.00  0.00     0.031 A 
ATOM     67  C   UNL A   1      38.302  31.543  30.631  1.00  0.00     0.074 A 
ATOM     68  C   UNL A   1      37.931  33.095  32.515  1.00  0.00     0.049 A 
ATOM     69  N   UNL A   1      39.268  30.795  31.103  1.00  0.00    -0.248 NA
ATOM     70  C   UNL A   1      37.869  31.176  29.275  1.00  0.00    -0.034 C 
ATOM     71  C   UNL A   1      37.279  34.162  33.276  1.00  0.00    -0.036 A 
ATOM     72  N   UNL A   1      38.929  32.655  33.350  1.00  0.00    -0.354 N 
ATOM     73  C   UNL A   1      39.531  29.853  30.118  1.00  0.00     0.074 A 
ATOM     74  C   UNL A   1      38.597  30.096  29.039  1.00  0.00    -0.034 C 
ATOM     75  H   UNL A   1      37.177  31.640  28.665  1.00  0.00     0.065 H 
ATOM     76  C   UNL A   1      37.895  34.296  34.461  1.00  0.00    -0.036 A 
ATOM     77  H   UNL A   1      36.474  34.719  32.953  1.00  0.00     0.065 H 
ATOM     78  C   UNL A   1      38.960  33.302  34.562  1.00  0.00     0.049 A 
ATOM     79  H   UNL A   1      39.562  31.941  33.104  1.00  0.00     0.167 HD
ATOM     80  C   UNL A   1      40.477  28.884  30.106  1.00  0.00     0.037 A 
ATOM     81  H   UNL A   1      38.511  29.504  28.198  1.00  0.00     0.065 H 
ATOM     82  H   UNL A   1      37.655  34.992  35.185  1.00  0.00     0.065 H 
ATOM     83  C   UNL A   1      39.747  33.106  35.637  1.00  0.00     0.037 A 
ATOM     84  C   UNL A   1      41.435  28.675  31.159  1.00  0.00     0.049 A 
ATOM     85  C   UNL A   1      40.804  32.036  35.594  1.00  0.00     0.074 A 
ATOM     86  C   UNL A   1      42.486  27.775  31.205  1.00  0.00    -0.036 A 
ATOM     87  N   UNL A   1      41.460  29.380  32.353  1.00  0.00    -0.354 N 
ATOM     88  N   UNL A   1      41.084  31.190  34.633  1.00  0.00    -0.248 NA
ATOM     89  C   UNL A   1      41.656  31.894  36.783  1.00  0.00    -0.034 C 
ATOM     90  C   UNL A   1      43.120  27.906  32.446  1.00  0.00    -0.036 A 
ATOM     91  H   UNL A   1      42.755  27.121  30.454  1.00  0.00     0.065 H 
ATOM     92  C   UNL A   1      42.494  28.920  33.153  1.00  0.00     0.049 A 
ATOM     93  H   UNL A   1      40.835  30.101  32.597  1.00  0.00     0.167 HD
ATOM     94  C   UNL A   1      42.157  30.437  35.087  1.00  0.00     0.074 A 
ATOM     95  C   UNL A   1      42.484  30.930  36.408  1.00  0.00    -0.034 C 
ATOM     96  H   UNL A   1      41.618  32.411  37.676  1.00  0.00     0.065 H 
ATOM     97  H   UNL A   1      43.918  27.343  32.776  1.00  0.00     0.065 H 
ATOM     98  C   UNL A   1      42.813  29.428  34.462  1.00  0.00     0.037 A 
ATOM     99  H   UNL A   1      43.263  30.574  36.986  1.00  0.00     0.065 H 
BRANCH  80 100
ATOM    100  C   UNL A   1      40.522  27.970  28.916  1.00  0.00     0.064 A 
ATOM    101  C   UNL A   1      39.785  26.776  28.872  1.00  0.00     0.173 A 
ATOM    102  C   UNL A   1      41.292  28.305  27.792  1.00  0.00     0.173 A 
ATOM    103  F   UNL A   1      39.040  26.405  29.924  1.00  0.00    -0.203 F 
ATOM    104  C   UNL A   1      39.845  25.936  27.763  1.00  0.00     0.198 A 
ATOM    105  C   UNL A   1      41.326  27.479  26.672  1.00  0.00     0.198 A 
ATOM    106  F   UNL A   1      42.011  29.438  27.778  1.00  0.00    -0.203 F 
ATOM    107  F   UNL A   1      39.176  24.775  27.767  1.00  0.00    -0.200 F 
ATOM    108  C   UNL A   1      40.611  26.290  26.662  1.00  0.00     0.200 A 
ATOM    109  F   UNL A   1      42.056  27.828  25.604  1.00  0.00    -0.200 F 
ATOM    110  F   UNL A   1      40.666  25.483  25.595  1.00  0.00    -0.200 F 
ENDBRANCH  80 100
BRANCH  83 111
ATOM    111  C   UNL A   1      39.572  33.961  36.840  1.00  0.00     0.064 A 
ATOM    112  C   UNL A   1      38.813  33.517  37.932  1.00  0.00     0.173 A 
ATOM    113  C   UNL A   1      40.171  35.225  36.932  1.00  0.00     0.173 A 
ATOM    114  F   UNL A   1      38.203  32.324  37.882  1.00  0.00    -0.203 F 
ATOM    115  C   UNL A   1      38.651  34.311  39.065  1.00  0.00     0.198 A 
ATOM    116  C   UNL A   1      40.030  36.008  38.076  1.00  0.00     0.198 A 
ATOM    117  F   UNL A   1      40.912  35.692  35.915  1.00  0.00    -0.203 F 
ATOM    118  F   UNL A   1      37.891  33.878  40.080  1.00  0.00    -0.200 F 
ATOM    119  C   UNL A   1      39.265  35.553  39.139  1.00  0.00     0.200 A 
ATOM    120  F   UNL A   1      40.636  37.200  38.148  1.00  0.00    -0.200 F 
ATOM    121  F   UNL A   1      39.116  36.312  40.233  1.00  0.00    -0.200 F 
ENDBRANCH  83 111
BRANCH  98 122
ATOM    122  C   UNL A   1      43.975  28.807  35.181  1.00  0.00     0.064 A 
ATOM    123  C   UNL A   1      45.283  29.280  35.005  1.00  0.00     0.173 A 
ATOM    124  C   UNL A   1      43.765  27.773  36.105  1.00  0.00     0.173 A 
ATOM    125  F   UNL A   1      45.535  30.257  34.123  1.00  0.00    -0.203 F 
ATOM    126  C   UNL A   1      46.342  28.729  35.722  1.00  0.00     0.198 A 
ATOM    127  C   UNL A   1      44.822  27.243  36.838  1.00  0.00     0.198 A 
ATOM    128  F   UNL A   1      42.531  27.291  36.311  1.00  0.00    -0.203 F 
ATOM    129  F   UNL A   1      47.590  29.173  35.517  1.00  0.00    -0.200 F 
ATOM    130  C   UNL A   1      46.110  27.718  36.644  1.00  0.00     0.200 A 
ATOM    131  F   UNL A   1      44.594  26.276  37.737  1.00  0.00    -0.200 F 
ATOM    132  F   UNL A   1      47.129  27.201  37.344  1.00  0.00    -0.200 F 
ENDBRANCH  98 122
ENDBRANCH  63  66
ENDBRANCH  53  56
ENDBRANCH  49  52
ENDBRANCH  46  49
ENDBRANCH  43  46
ENDBRANCH   1  43
TORSDOF 17
ENDMDL
