MODEL 1
REMARK VINA RESULT:     -12.3      0.000      0.000
REMARK SMILES C[C@@H](C(=O)NCCCCCCNC(=O)c1ccc(-c2c3nc(c(-c4c(F)c(F)c(F)c(F)c4F)c4ccc([nH]4)c(-c4c(F)c(F)c(F)c(F)c4F)c4nc(c(-c5c(F)c(F)c(F)c(F)c5F)c5ccc2[nH]5)C=C4)C=C3)cc1)c1ccc(C[C@H]2CCCC2=O)cc1-c1ccccc1
REMARK SMILES IDX 8 1 7 4 6 7 5 10 3 11 4 12 2 14 1 16 78 20 79 21 90 22 80 23
REMARK SMILES IDX 89 25 81 26 91 29 92 30 96 31 93 32 95 34 94 36 82 40 83 43
REMARK SMILES IDX 84 44 87 45 85 47 86 50 88 51 9 56 10 59 11 62 12 65 13 66
REMARK SMILES IDX 14 68 15 69 16 70 77 71 17 72 76 74 18 76 19 79 20 80 70 81
REMARK SMILES IDX 21 82 75 83 69 84 71 85 22 86 74 87 68 89 67 91 23 93 55 96
REMARK SMILES IDX 35 97 54 98 36 99 39 100 53 101 72 102 37 103 38 105 52 107
REMARK SMILES IDX 73 108 40 111 24 113 25 114 33 115 26 116 27 117 31 118
REMARK SMILES IDX 34 119 28 120 29 121 32 122 30 123 56 124 57 125 65 126
REMARK SMILES IDX 58 127 59 128 63 129 66 130 60 131 61 132 64 133 62 134
REMARK SMILES IDX 41 135 42 136 50 137 43 138 44 139 48 140 51 141 45 142
REMARK SMILES IDX 46 143 49 144 47 145
REMARK H PARENT 8 2 8 3 7 5 7 6 6 8 6 9 5 13 2 15 1 17 1 18 1 19 79 24 80 27
REMARK H PARENT 89 28 92 33 96 35 93 37 95 38 94 39 82 41 82 42 83 46 84 48
REMARK H PARENT 84 49 85 52 85 53 86 54 86 55 9 57 9 58 10 60 10 61 11 63
REMARK H PARENT 11 64 12 67 16 73 77 75 17 77 76 78 75 88 69 90 71 92 74 94
REMARK H PARENT 68 95 36 104 39 106 72 109 37 110 73 112
REMARK Flexibility Score: inf
ROOT
ATOM      1  C   UNL A   1      29.915  30.723  24.260  1.00  0.00    -0.052 C 
ATOM      2  H   UNL A   1      29.007  30.460  24.762  1.00  0.00     0.027 H 
ATOM      3  H   UNL A   1      29.866  31.669  23.763  1.00  0.00     0.027 H 
ENDROOT
BRANCH   1   4
ATOM      4  C   UNL A   1      30.177  29.677  23.169  1.00  0.00    -0.036 C 
ATOM      5  H   UNL A   1      29.485  29.846  22.371  1.00  0.00     0.028 H 
ATOM      6  H   UNL A   1      31.197  29.798  22.871  1.00  0.00     0.028 H 
BRANCH   4   7
ATOM      7  C   UNL A   1      30.028  28.227  23.633  1.00  0.00     0.017 C 
ATOM      8  H   UNL A   1      30.698  28.047  24.447  1.00  0.00     0.049 H 
ATOM      9  H   UNL A   1      29.017  28.065  23.942  1.00  0.00     0.049 H 
BRANCH   7  10
ATOM     10  N   UNL A   1      30.336  27.313  22.556  1.00  0.00    -0.356 N 
ATOM     11  C   UNL A   1      31.528  26.803  22.133  1.00  0.00     0.227 C 
ATOM     12  O   UNL A   1      31.466  26.144  21.094  1.00  0.00    -0.274 OA
ATOM     13  H   UNL A   1      29.554  27.007  22.042  1.00  0.00     0.163 HD
BRANCH  11  14
ATOM     14  C   UNL A   1      32.810  27.040  22.963  1.00  0.00     0.061 C 
ATOM     15  H   UNL A   1      32.450  27.654  23.763  1.00  0.00     0.045 H 
BRANCH  14  16
ATOM     16  C   UNL A   1      33.891  27.767  22.163  1.00  0.00    -0.049 C 
ATOM     17  H   UNL A   1      34.559  28.264  22.835  1.00  0.00     0.024 H 
ATOM     18  H   UNL A   1      33.432  28.487  21.518  1.00  0.00     0.024 H 
ATOM     19  H   UNL A   1      34.437  27.059  21.576  1.00  0.00     0.024 H 
ENDBRANCH  14  16
BRANCH  14  20
ATOM     20  C   UNL A   1      33.433  25.801  23.627  1.00  0.00    -0.028 A 
ATOM     21  C   UNL A   1      34.036  24.805  22.834  1.00  0.00    -0.057 A 
ATOM     22  C   UNL A   1      33.533  25.676  25.039  1.00  0.00    -0.014 A 
ATOM     23  C   UNL A   1      34.632  23.677  23.391  1.00  0.00    -0.059 A 
ATOM     24  H   UNL A   1      34.036  24.915  21.808  1.00  0.00     0.063 H 
ATOM     25  C   UNL A   1      34.123  24.510  25.581  1.00  0.00    -0.051 A 
ATOM     26  C   UNL A   1      34.655  23.499  24.771  1.00  0.00    -0.047 A 
ATOM     27  H   UNL A   1      35.059  22.968  22.776  1.00  0.00     0.063 H 
ATOM     28  H   UNL A   1      34.160  24.400  26.607  1.00  0.00     0.063 H 
BRANCH  22  29
ATOM     29  C   UNL A   1      33.167  26.760  25.975  1.00  0.00    -0.018 A 
ATOM     30  C   UNL A   1      34.106  27.769  26.269  1.00  0.00    -0.054 A 
ATOM     31  C   UNL A   1      31.902  26.846  26.572  1.00  0.00    -0.054 A 
ATOM     32  C   UNL A   1      33.781  28.842  27.100  1.00  0.00    -0.062 A 
ATOM     33  H   UNL A   1      35.053  27.712  25.862  1.00  0.00     0.063 H 
ATOM     34  C   UNL A   1      31.570  27.929  27.393  1.00  0.00    -0.062 A 
ATOM     35  H   UNL A   1      31.207  26.102  26.403  1.00  0.00     0.063 H 
ATOM     36  C   UNL A   1      32.507  28.927  27.654  1.00  0.00    -0.062 A 
ATOM     37  H   UNL A   1      34.483  29.570  27.303  1.00  0.00     0.062 H 
ATOM     38  H   UNL A   1      30.626  27.989  27.808  1.00  0.00     0.062 H 
ATOM     39  H   UNL A   1      32.257  29.728  28.255  1.00  0.00     0.062 H 
ENDBRANCH  22  29
BRANCH  26  40
ATOM     40  C   UNL A   1      35.271  22.258  25.364  1.00  0.00    -0.018 C 
ATOM     41  H   UNL A   1      35.847  22.554  26.215  1.00  0.00     0.032 H 
ATOM     42  H   UNL A   1      35.845  21.817  24.574  1.00  0.00     0.032 H 
BRANCH  40  43
ATOM     43  C   UNL A   1      34.294  21.168  25.817  1.00  0.00     0.022 C 
ATOM     44  C   UNL A   1      32.817  21.566  25.867  1.00  0.00    -0.043 C 
ATOM     45  C   UNL A   1      34.269  19.974  24.890  1.00  0.00     0.136 C 
ATOM     46  H   UNL A   1      34.677  20.963  26.795  1.00  0.00     0.039 H 
ATOM     47  C   UNL A   1      32.193  21.070  24.568  1.00  0.00    -0.046 C 
ATOM     48  H   UNL A   1      32.723  22.629  25.940  1.00  0.00     0.027 H 
ATOM     49  H   UNL A   1      32.328  21.140  26.719  1.00  0.00     0.027 H 
ATOM     50  C   UNL A   1      32.937  19.790  24.211  1.00  0.00     0.006 C 
ATOM     51  O   UNL A   1      35.225  19.225  24.721  1.00  0.00    -0.299 OA
ATOM     52  H   UNL A   1      32.315  21.799  23.794  1.00  0.00     0.027 H 
ATOM     53  H   UNL A   1      31.143  20.898  24.676  1.00  0.00     0.027 H 
ATOM     54  H   UNL A   1      33.054  19.696  23.153  1.00  0.00     0.035 H 
ATOM     55  H   UNL A   1      32.424  18.904  24.523  1.00  0.00     0.035 H 
ENDBRANCH  40  43
ENDBRANCH  26  40
ENDBRANCH  14  20
ENDBRANCH  11  14
ENDBRANCH   7  10
ENDBRANCH   4   7
ENDBRANCH   1   4
BRANCH   1  56
ATOM     56  C   UNL A   1      31.018  30.852  25.315  1.00  0.00    -0.052 C 
ATOM     57  H   UNL A   1      31.962  30.844  24.812  1.00  0.00     0.027 H 
ATOM     58  H   UNL A   1      30.891  30.030  25.987  1.00  0.00     0.027 H 
BRANCH  56  59
ATOM     59  C   UNL A   1      30.942  32.121  26.163  1.00  0.00    -0.036 C 
ATOM     60  H   UNL A   1      30.162  31.996  26.884  1.00  0.00     0.028 H 
ATOM     61  H   UNL A   1      30.760  32.931  25.488  1.00  0.00     0.028 H 
BRANCH  59  62
ATOM     62  C   UNL A   1      32.229  32.456  26.908  1.00  0.00     0.018 C 
ATOM     63  H   UNL A   1      33.061  32.270  26.260  1.00  0.00     0.049 H 
ATOM     64  H   UNL A   1      32.274  31.840  27.782  1.00  0.00     0.049 H 
BRANCH  62  65
ATOM     65  N   UNL A   1      32.267  33.844  27.336  1.00  0.00    -0.352 N 
ATOM     66  C   UNL A   1      33.094  34.440  28.252  1.00  0.00     0.251 C 
ATOM     67  H   UNL A   1      31.609  34.438  26.907  1.00  0.00     0.163 HD
ATOM     68  O   UNL A   1      32.864  35.581  28.651  1.00  0.00    -0.269 OA
BRANCH  66  69
ATOM     69  C   UNL A   1      34.256  33.696  28.778  1.00  0.00     0.039 A 
ATOM     70  C   UNL A   1      35.535  34.231  28.613  1.00  0.00    -0.049 A 
ATOM     71  C   UNL A   1      34.080  32.478  29.441  1.00  0.00    -0.049 A 
ATOM     72  C   UNL A   1      36.634  33.571  29.165  1.00  0.00    -0.053 A 
ATOM     73  H   UNL A   1      35.666  35.109  28.086  1.00  0.00     0.063 H 
ATOM     74  C   UNL A   1      35.165  31.864  30.059  1.00  0.00    -0.053 A 
ATOM     75  H   UNL A   1      33.148  32.035  29.473  1.00  0.00     0.063 H 
ATOM     76  C   UNL A   1      36.454  32.401  29.922  1.00  0.00    -0.014 A 
ATOM     77  H   UNL A   1      37.584  33.946  29.017  1.00  0.00     0.063 H 
ATOM     78  H   UNL A   1      35.021  31.009  30.619  1.00  0.00     0.063 H 
BRANCH  76  79
ATOM     79  C   UNL A   1      37.604  31.725  30.575  1.00  0.00     0.031 A 
ATOM     80  C   UNL A   1      38.013  32.112  31.969  1.00  0.00     0.074 A 
ATOM     81  C   UNL A   1      38.313  30.807  29.891  1.00  0.00     0.049 A 
ATOM     82  N   UNL A   1      39.023  31.685  32.685  1.00  0.00    -0.248 NA
ATOM     83  C   UNL A   1      37.193  33.132  32.642  1.00  0.00    -0.034 C 
ATOM     84  C   UNL A   1      38.043  30.381  28.517  1.00  0.00    -0.036 A 
ATOM     85  N   UNL A   1      39.415  30.073  30.255  1.00  0.00    -0.354 N 
ATOM     86  C   UNL A   1      38.966  32.392  33.879  1.00  0.00     0.074 A 
ATOM     87  C   UNL A   1      37.858  33.314  33.773  1.00  0.00    -0.034 C 
ATOM     88  H   UNL A   1      36.325  33.588  32.317  1.00  0.00     0.065 H 
ATOM     89  C   UNL A   1      38.937  29.445  28.162  1.00  0.00    -0.036 A 
ATOM     90  H   UNL A   1      37.285  30.741  27.917  1.00  0.00     0.065 H 
ATOM     91  C   UNL A   1      39.871  29.236  29.265  1.00  0.00     0.049 A 
ATOM     92  H   UNL A   1      39.840  30.141  31.141  1.00  0.00     0.167 HD
ATOM     93  C   UNL A   1      39.752  32.263  34.974  1.00  0.00     0.037 A 
ATOM     94  H   UNL A   1      37.617  34.021  34.484  1.00  0.00     0.065 H 
ATOM     95  H   UNL A   1      38.962  28.952  27.256  1.00  0.00     0.065 H 
ATOM     96  C   UNL A   1      40.928  28.402  29.246  1.00  0.00     0.037 A 
ATOM     97  C   UNL A   1      40.841  31.327  35.082  1.00  0.00     0.049 A 
ATOM     98  C   UNL A   1      41.796  28.293  30.472  1.00  0.00     0.074 A 
ATOM     99  C   UNL A   1      41.661  31.081  36.169  1.00  0.00    -0.036 A 
ATOM    100  N   UNL A   1      41.264  30.486  34.063  1.00  0.00    -0.354 N 
ATOM    101  N   UNL A   1      41.689  28.915  31.621  1.00  0.00    -0.248 NA
ATOM    102  C   UNL A   1      42.929  27.361  30.400  1.00  0.00    -0.034 C 
ATOM    103  C   UNL A   1      42.617  30.132  35.790  1.00  0.00    -0.036 A 
ATOM    104  H   UNL A   1      41.581  31.521  37.099  1.00  0.00     0.065 H 
ATOM    105  C   UNL A   1      42.352  29.739  34.489  1.00  0.00     0.049 A 
ATOM    106  H   UNL A   1      40.853  30.429  33.170  1.00  0.00     0.167 HD
ATOM    107  C   UNL A   1      42.715  28.424  32.418  1.00  0.00     0.074 A 
ATOM    108  C   UNL A   1      43.426  27.442  31.625  1.00  0.00    -0.034 C 
ATOM    109  H   UNL A   1      43.254  26.790  29.603  1.00  0.00     0.065 H 
ATOM    110  H   UNL A   1      43.388  29.785  36.380  1.00  0.00     0.065 H 
ATOM    111  C   UNL A   1      43.039  28.756  33.692  1.00  0.00     0.037 A 
ATOM    112  H   UNL A   1      44.217  26.878  31.971  1.00  0.00     0.065 H 
BRANCH  93 113
ATOM    113  C   UNL A   1      39.465  33.154  36.149  1.00  0.00     0.064 A 
ATOM    114  C   UNL A   1      38.598  32.759  37.179  1.00  0.00     0.173 A 
ATOM    115  C   UNL A   1      40.104  34.397  36.272  1.00  0.00     0.173 A 
ATOM    116  F   UNL A   1      37.952  31.586  37.107  1.00  0.00    -0.203 F 
ATOM    117  C   UNL A   1      38.360  33.587  38.273  1.00  0.00     0.198 A 
ATOM    118  C   UNL A   1      39.890  35.207  37.384  1.00  0.00     0.198 A 
ATOM    119  F   UNL A   1      40.948  34.822  35.319  1.00  0.00    -0.203 F 
ATOM    120  F   UNL A   1      37.491  33.209  39.221  1.00  0.00    -0.200 F 
ATOM    121  C   UNL A   1      39.014  34.805  38.380  1.00  0.00     0.200 A 
ATOM    122  F   UNL A   1      40.535  36.377  37.493  1.00  0.00    -0.200 F 
ATOM    123  F   UNL A   1      38.794  35.594  39.441  1.00  0.00    -0.200 F 
ENDBRANCH  93 113
BRANCH  96 124
ATOM    124  C   UNL A   1      41.221  27.593  28.033  1.00  0.00     0.064 A 
ATOM    125  C   UNL A   1      40.739  26.282  27.906  1.00  0.00     0.173 A 
ATOM    126  C   UNL A   1      42.005  28.103  26.987  1.00  0.00     0.173 A 
ATOM    127  F   UNL A   1      40.001  25.742  28.888  1.00  0.00    -0.203 F 
ATOM    128  C   UNL A   1      41.053  25.503  26.794  1.00  0.00     0.198 A 
ATOM    129  C   UNL A   1      42.290  27.334  25.860  1.00  0.00     0.198 A 
ATOM    130  F   UNL A   1      42.486  29.352  27.054  1.00  0.00    -0.203 F 
ATOM    131  F   UNL A   1      40.627  24.235  26.727  1.00  0.00    -0.200 F 
ATOM    132  C   UNL A   1      41.824  26.032  25.770  1.00  0.00     0.200 A 
ATOM    133  F   UNL A   1      43.021  27.854  24.865  1.00  0.00    -0.200 F 
ATOM    134  F   UNL A   1      42.126  25.282  24.702  1.00  0.00    -0.200 F 
ENDBRANCH  96 124
BRANCH 111 135
ATOM    135  C   UNL A   1      44.184  28.019  34.328  1.00  0.00     0.064 A 
ATOM    136  C   UNL A   1      45.495  28.516  34.294  1.00  0.00     0.173 A 
ATOM    137  C   UNL A   1      43.955  26.818  35.018  1.00  0.00     0.173 A 
ATOM    138  F   UNL A   1      45.770  29.652  33.635  1.00  0.00    -0.203 F 
ATOM    139  C   UNL A   1      46.539  27.823  34.902  1.00  0.00     0.198 A 
ATOM    140  C   UNL A   1      44.995  26.148  35.655  1.00  0.00     0.198 A 
ATOM    141  F   UNL A   1      42.718  26.304  35.089  1.00  0.00    -0.203 F 
ATOM    142  F   UNL A   1      47.792  28.289  34.810  1.00  0.00    -0.200 F 
ATOM    143  C   UNL A   1      46.287  26.645  35.589  1.00  0.00     0.200 A 
ATOM    144  F   UNL A   1      44.746  25.019  36.333  1.00  0.00    -0.200 F 
ATOM    145  F   UNL A   1      47.291  25.985  36.182  1.00  0.00    -0.200 F 
ENDBRANCH 111 135
ENDBRANCH  76  79
ENDBRANCH  66  69
ENDBRANCH  62  65
ENDBRANCH  59  62
ENDBRANCH  56  59
ENDBRANCH   1  56
TORSDOF 18
ENDMDL
MODEL 2
REMARK VINA RESULT:     -12.3      4.935      9.419
REMARK SMILES C[C@@H](C(=O)NCCCCCCNC(=O)c1ccc(-c2c3nc(c(-c4c(F)c(F)c(F)c(F)c4F)c4ccc([nH]4)c(-c4c(F)c(F)c(F)c(F)c4F)c4nc(c(-c5c(F)c(F)c(F)c(F)c5F)c5ccc2[nH]5)C=C4)C=C3)cc1)c1ccc(C[C@H]2CCCC2=O)cc1-c1ccccc1
REMARK SMILES IDX 8 1 7 4 6 7 5 10 3 11 4 12 2 14 1 16 78 20 79 21 90 22 80 23
REMARK SMILES IDX 89 25 81 26 91 29 92 30 96 31 93 32 95 34 94 36 82 40 83 43
REMARK SMILES IDX 84 44 87 45 85 47 86 50 88 51 9 56 10 59 11 62 12 65 13 66
REMARK SMILES IDX 14 68 15 69 16 70 77 71 17 72 76 74 18 76 19 79 20 80 70 81
REMARK SMILES IDX 21 82 75 83 69 84 71 85 22 86 74 87 68 89 67 91 23 93 55 96
REMARK SMILES IDX 35 97 54 98 36 99 39 100 53 101 72 102 37 103 38 105 52 107
REMARK SMILES IDX 73 108 40 111 24 113 25 114 33 115 26 116 27 117 31 118
REMARK SMILES IDX 34 119 28 120 29 121 32 122 30 123 56 124 57 125 65 126
REMARK SMILES IDX 58 127 59 128 63 129 66 130 60 131 61 132 64 133 62 134
REMARK SMILES IDX 41 135 42 136 50 137 43 138 44 139 48 140 51 141 45 142
REMARK SMILES IDX 46 143 49 144 47 145
REMARK H PARENT 8 2 8 3 7 5 7 6 6 8 6 9 5 13 2 15 1 17 1 18 1 19 79 24 80 27
REMARK H PARENT 89 28 92 33 96 35 93 37 95 38 94 39 82 41 82 42 83 46 84 48
REMARK H PARENT 84 49 85 52 85 53 86 54 86 55 9 57 9 58 10 60 10 61 11 63
REMARK H PARENT 11 64 12 67 16 73 77 75 17 77 76 78 75 88 69 90 71 92 74 94
REMARK H PARENT 68 95 36 104 39 106 72 109 37 110 73 112
REMARK Flexibility Score: inf
ROOT
ATOM      1  C   UNL A   1      35.671  20.381  25.107  1.00  0.00    -0.052 C 
ATOM      2  H   UNL A   1      35.583  20.672  26.132  1.00  0.00     0.027 H 
ATOM      3  H   UNL A   1      35.949  21.185  24.459  1.00  0.00     0.027 H 
ENDROOT
BRANCH   1   4
ATOM      4  C   UNL A   1      34.294  19.902  24.628  1.00  0.00    -0.036 C 
ATOM      5  H   UNL A   1      33.930  20.599  23.903  1.00  0.00     0.028 H 
ATOM      6  H   UNL A   1      34.437  18.919  24.228  1.00  0.00     0.028 H 
BRANCH   4   7
ATOM      7  C   UNL A   1      33.248  19.772  25.737  1.00  0.00     0.017 C 
ATOM      8  H   UNL A   1      32.967  18.745  25.837  1.00  0.00     0.049 H 
ATOM      9  H   UNL A   1      33.668  20.133  26.651  1.00  0.00     0.049 H 
BRANCH   7  10
ATOM     10  N   UNL A   1      32.074  20.556  25.424  1.00  0.00    -0.356 N 
ATOM     11  C   UNL A   1      31.749  21.842  25.744  1.00  0.00     0.227 C 
ATOM     12  O   UNL A   1      30.605  22.176  25.433  1.00  0.00    -0.274 OA
ATOM     13  H   UNL A   1      31.395  20.083  24.891  1.00  0.00     0.163 HD
BRANCH  11  14
ATOM     14  C   UNL A   1      32.799  22.763  26.406  1.00  0.00     0.061 C 
ATOM     15  H   UNL A   1      33.712  22.419  25.965  1.00  0.00     0.045 H 
BRANCH  14  16
ATOM     16  C   UNL A   1      32.834  22.600  27.926  1.00  0.00    -0.049 C 
ATOM     17  H   UNL A   1      32.093  23.231  28.370  1.00  0.00     0.024 H 
ATOM     18  H   UNL A   1      33.801  22.874  28.291  1.00  0.00     0.024 H 
ATOM     19  H   UNL A   1      32.632  21.580  28.179  1.00  0.00     0.024 H 
ENDBRANCH  14  16
BRANCH  14  20
ATOM     20  C   UNL A   1      32.703  24.260  26.070  1.00  0.00    -0.028 A 
ATOM     21  C   UNL A   1      31.643  25.031  26.586  1.00  0.00    -0.057 A 
ATOM     22  C   UNL A   1      33.724  24.934  25.347  1.00  0.00    -0.014 A 
ATOM     23  C   UNL A   1      31.527  26.394  26.327  1.00  0.00    -0.059 A 
ATOM     24  H   UNL A   1      30.931  24.572  27.174  1.00  0.00     0.063 H 
ATOM     25  C   UNL A   1      33.572  26.315  25.077  1.00  0.00    -0.051 A 
ATOM     26  C   UNL A   1      32.473  27.047  25.542  1.00  0.00    -0.047 A 
ATOM     27  H   UNL A   1      30.734  26.924  26.719  1.00  0.00     0.063 H 
ATOM     28  H   UNL A   1      34.294  26.797  24.518  1.00  0.00     0.063 H 
BRANCH  22  29
ATOM     29  C   UNL A   1      35.002  24.296  24.968  1.00  0.00    -0.018 A 
ATOM     30  C   UNL A   1      35.160  23.779  23.667  1.00  0.00    -0.054 A 
ATOM     31  C   UNL A   1      36.089  24.202  25.848  1.00  0.00    -0.054 A 
ATOM     32  C   UNL A   1      36.370  23.222  23.249  1.00  0.00    -0.062 A 
ATOM     33  H   UNL A   1      34.365  23.814  23.009  1.00  0.00     0.063 H 
ATOM     34  C   UNL A   1      37.307  23.657  25.427  1.00  0.00    -0.062 A 
ATOM     35  H   UNL A   1      35.990  24.538  26.819  1.00  0.00     0.063 H 
ATOM     36  C   UNL A   1      37.448  23.172  24.128  1.00  0.00    -0.062 A 
ATOM     37  H   UNL A   1      36.465  22.849  22.292  1.00  0.00     0.062 H 
ATOM     38  H   UNL A   1      38.105  23.616  26.081  1.00  0.00     0.062 H 
ATOM     39  H   UNL A   1      38.349  22.776  23.818  1.00  0.00     0.062 H 
ENDBRANCH  22  29
BRANCH  26  40
ATOM     40  C   UNL A   1      32.321  28.516  25.238  1.00  0.00    -0.018 C 
ATOM     41  H   UNL A   1      33.271  28.982  25.395  1.00  0.00     0.032 H 
ATOM     42  H   UNL A   1      31.545  28.865  25.889  1.00  0.00     0.032 H 
BRANCH  40  43
ATOM     43  C   UNL A   1      31.855  28.869  23.821  1.00  0.00     0.022 C 
ATOM     44  C   UNL A   1      31.765  27.703  22.832  1.00  0.00    -0.043 C 
ATOM     45  C   UNL A   1      30.450  29.426  23.782  1.00  0.00     0.136 C 
ATOM     46  H   UNL A   1      32.618  29.564  23.537  1.00  0.00     0.039 H 
ATOM     47  C   UNL A   1      30.304  27.271  22.809  1.00  0.00    -0.046 C 
ATOM     48  H   UNL A   1      32.385  26.894  23.157  1.00  0.00     0.027 H 
ATOM     49  H   UNL A   1      32.099  27.994  21.858  1.00  0.00     0.027 H 
ATOM     50  C   UNL A   1      29.492  28.539  23.034  1.00  0.00     0.006 C 
ATOM     51  O   UNL A   1      30.130  30.495  24.290  1.00  0.00    -0.299 OA
ATOM     52  H   UNL A   1      30.112  26.563  23.588  1.00  0.00     0.027 H 
ATOM     53  H   UNL A   1      30.048  26.798  21.884  1.00  0.00     0.027 H 
ATOM     54  H   UNL A   1      28.618  28.337  23.617  1.00  0.00     0.035 H 
ATOM     55  H   UNL A   1      29.134  28.977  22.125  1.00  0.00     0.035 H 
ENDBRANCH  40  43
ENDBRANCH  26  40
ENDBRANCH  14  20
ENDBRANCH  11  14
ENDBRANCH   7  10
ENDBRANCH   4   7
ENDBRANCH   1   4
BRANCH   1  56
ATOM     56  C   UNL A   1      36.792  19.342  25.004  1.00  0.00    -0.052 C 
ATOM     57  H   UNL A   1      36.517  18.628  24.257  1.00  0.00     0.027 H 
ATOM     58  H   UNL A   1      36.896  18.914  25.978  1.00  0.00     0.027 H 
BRANCH  56  59
ATOM     59  C   UNL A   1      38.159  19.916  24.634  1.00  0.00    -0.036 C 
ATOM     60  H   UNL A   1      38.008  20.856  24.146  1.00  0.00     0.028 H 
ATOM     61  H   UNL A   1      38.634  19.192  24.005  1.00  0.00     0.028 H 
BRANCH  59  62
ATOM     62  C   UNL A   1      39.088  20.139  25.820  1.00  0.00     0.018 C 
ATOM     63  H   UNL A   1      38.505  20.159  26.718  1.00  0.00     0.049 H 
ATOM     64  H   UNL A   1      39.599  21.067  25.669  1.00  0.00     0.049 H 
BRANCH  62  65
ATOM     65  N   UNL A   1      40.089  19.091  25.935  1.00  0.00    -0.352 N 
ATOM     66  C   UNL A   1      41.446  19.210  26.092  1.00  0.00     0.251 C 
ATOM     67  H   UNL A   1      39.745  18.169  25.894  1.00  0.00     0.163 HD
ATOM     68  O   UNL A   1      42.177  18.229  25.968  1.00  0.00    -0.269 OA
BRANCH  66  69
ATOM     69  C   UNL A   1      42.032  20.532  26.391  1.00  0.00     0.039 A 
ATOM     70  C   UNL A   1      42.352  21.386  25.334  1.00  0.00    -0.049 A 
ATOM     71  C   UNL A   1      42.255  20.930  27.712  1.00  0.00    -0.049 A 
ATOM     72  C   UNL A   1      42.843  22.664  25.605  1.00  0.00    -0.053 A 
ATOM     73  H   UNL A   1      42.227  21.073  24.358  1.00  0.00     0.063 H 
ATOM     74  C   UNL A   1      42.668  22.230  27.982  1.00  0.00    -0.053 A 
ATOM     75  H   UNL A   1      42.114  20.261  28.486  1.00  0.00     0.063 H 
ATOM     76  C   UNL A   1      42.972  23.109  26.931  1.00  0.00    -0.014 A 
ATOM     77  H   UNL A   1      43.113  23.285  24.826  1.00  0.00     0.063 H 
ATOM     78  H   UNL A   1      42.752  22.550  28.960  1.00  0.00     0.063 H 
BRANCH  76  79
ATOM     79  C   UNL A   1      43.426  24.489  27.237  1.00  0.00     0.031 A 
ATOM     80  C   UNL A   1      42.453  25.501  27.775  1.00  0.00     0.074 A 
ATOM     81  C   UNL A   1      44.698  24.846  26.975  1.00  0.00     0.049 A 
ATOM     82  N   UNL A   1      42.639  26.769  28.043  1.00  0.00    -0.248 NA
ATOM     83  C   UNL A   1      41.079  25.034  28.021  1.00  0.00    -0.034 C 
ATOM     84  C   UNL A   1      45.724  23.967  26.411  1.00  0.00    -0.036 A 
ATOM     85  N   UNL A   1      45.344  26.046  27.139  1.00  0.00    -0.354 N 
ATOM     86  C   UNL A   1      41.410  27.250  28.474  1.00  0.00     0.074 A 
ATOM     87  C   UNL A   1      40.470  26.154  28.379  1.00  0.00    -0.034 C 
ATOM     88  H   UNL A   1      40.691  24.082  27.935  1.00  0.00     0.065 H 
ATOM     89  C   UNL A   1      46.874  24.649  26.298  1.00  0.00    -0.036 A 
ATOM     90  H   UNL A   1      45.585  22.980  26.143  1.00  0.00     0.065 H 
ATOM     91  C   UNL A   1      46.659  26.024  26.739  1.00  0.00     0.049 A 
ATOM     92  H   UNL A   1      44.907  26.848  27.508  1.00  0.00     0.167 HD
ATOM     93  C   UNL A   1      41.100  28.486  28.932  1.00  0.00     0.037 A 
ATOM     94  H   UNL A   1      39.459  26.236  28.566  1.00  0.00     0.065 H 
ATOM     95  H   UNL A   1      47.768  24.264  25.955  1.00  0.00     0.065 H 
ATOM     96  C   UNL A   1      47.582  27.004  26.721  1.00  0.00     0.037 A 
ATOM     97  C   UNL A   1      42.045  29.566  29.044  1.00  0.00     0.049 A 
ATOM     98  C   UNL A   1      47.204  28.374  27.219  1.00  0.00     0.074 A 
ATOM     99  C   UNL A   1      41.842  30.839  29.548  1.00  0.00    -0.036 A 
ATOM    100  N   UNL A   1      43.371  29.501  28.641  1.00  0.00    -0.354 N 
ATOM    101  N   UNL A   1      46.057  28.797  27.691  1.00  0.00    -0.248 NA
ATOM    102  C   UNL A   1      48.253  29.403  27.187  1.00  0.00    -0.034 C 
ATOM    103  C   UNL A   1      43.030  31.563  29.398  1.00  0.00    -0.036 A 
ATOM    104  H   UNL A   1      40.967  31.194  29.963  1.00  0.00     0.065 H 
ATOM    105  C   UNL A   1      43.991  30.722  28.861  1.00  0.00     0.049 A 
ATOM    106  H   UNL A   1      43.807  28.707  28.256  1.00  0.00     0.167 HD
ATOM    107  C   UNL A   1      46.255  30.125  28.044  1.00  0.00     0.074 A 
ATOM    108  C   UNL A   1      47.638  30.434  27.745  1.00  0.00    -0.034 C 
ATOM    109  H   UNL A   1      49.218  29.338  26.825  1.00  0.00     0.065 H 
ATOM    110  H   UNL A   1      43.167  32.555  29.645  1.00  0.00     0.065 H 
ATOM    111  C   UNL A   1      45.373  31.009  28.570  1.00  0.00     0.037 A 
ATOM    112  H   UNL A   1      48.087  31.342  27.942  1.00  0.00     0.065 H 
BRANCH  93 113
ATOM    113  C   UNL A   1      39.680  28.742  29.348  1.00  0.00     0.064 A 
ATOM    114  C   UNL A   1      39.243  28.503  30.661  1.00  0.00     0.173 A 
ATOM    115  C   UNL A   1      38.756  29.278  28.439  1.00  0.00     0.173 A 
ATOM    116  F   UNL A   1      40.081  27.981  31.568  1.00  0.00    -0.203 F 
ATOM    117  C   UNL A   1      37.928  28.768  31.038  1.00  0.00     0.198 A 
ATOM    118  C   UNL A   1      37.453  29.572  28.828  1.00  0.00     0.198 A 
ATOM    119  F   UNL A   1      39.122  29.531  27.172  1.00  0.00    -0.203 F 
ATOM    120  F   UNL A   1      37.522  28.487  32.284  1.00  0.00    -0.200 F 
ATOM    121  C   UNL A   1      37.038  29.311  30.125  1.00  0.00     0.200 A 
ATOM    122  F   UNL A   1      36.597  30.112  27.949  1.00  0.00    -0.200 F 
ATOM    123  F   UNL A   1      35.777  29.576  30.494  1.00  0.00    -0.200 F 
ENDBRANCH  93 113
BRANCH  96 124
ATOM    124  C   UNL A   1      48.958  26.727  26.229  1.00  0.00     0.064 A 
ATOM    125  C   UNL A   1      49.320  27.004  24.902  1.00  0.00     0.173 A 
ATOM    126  C   UNL A   1      49.932  26.161  27.064  1.00  0.00     0.173 A 
ATOM    127  F   UNL A   1      48.418  27.527  24.058  1.00  0.00    -0.203 F 
ATOM    128  C   UNL A   1      50.592  26.699  24.423  1.00  0.00     0.198 A 
ATOM    129  C   UNL A   1      51.214  25.888  26.593  1.00  0.00     0.198 A 
ATOM    130  F   UNL A   1      49.641  25.882  28.343  1.00  0.00    -0.203 F 
ATOM    131  F   UNL A   1      50.891  26.921  23.136  1.00  0.00    -0.200 F 
ATOM    132  C   UNL A   1      51.540  26.145  25.271  1.00  0.00     0.200 A 
ATOM    133  F   UNL A   1      52.133  25.369  27.420  1.00  0.00    -0.200 F 
ATOM    134  F   UNL A   1      52.763  25.852  24.809  1.00  0.00    -0.200 F 
ENDBRANCH  96 124
BRANCH 111 135
ATOM    135  C   UNL A   1      45.884  32.383  28.901  1.00  0.00     0.064 A 
ATOM    136  C   UNL A   1      46.469  32.676  30.142  1.00  0.00     0.173 A 
ATOM    137  C   UNL A   1      45.826  33.408  27.944  1.00  0.00     0.173 A 
ATOM    138  F   UNL A   1      46.537  31.736  31.096  1.00  0.00    -0.203 F 
ATOM    139  C   UNL A   1      46.949  33.953  30.422  1.00  0.00     0.198 A 
ATOM    140  C   UNL A   1      46.339  34.673  28.216  1.00  0.00     0.198 A 
ATOM    141  F   UNL A   1      45.285  33.179  26.738  1.00  0.00    -0.203 F 
ATOM    142  F   UNL A   1      47.454  34.225  31.633  1.00  0.00    -0.200 F 
ATOM    143  C   UNL A   1      46.892  34.948  29.457  1.00  0.00     0.200 A 
ATOM    144  F   UNL A   1      46.298  35.626  27.275  1.00  0.00    -0.200 F 
ATOM    145  F   UNL A   1      47.363  36.173  29.725  1.00  0.00    -0.200 F 
ENDBRANCH 111 135
ENDBRANCH  76  79
ENDBRANCH  66  69
ENDBRANCH  62  65
ENDBRANCH  59  62
ENDBRANCH  56  59
ENDBRANCH   1  56
TORSDOF 18
ENDMDL
MODEL 3
REMARK VINA RESULT:     -12.2      0.556      7.063
REMARK SMILES C[C@@H](C(=O)NCCCCCCNC(=O)c1ccc(-c2c3nc(c(-c4c(F)c(F)c(F)c(F)c4F)c4ccc([nH]4)c(-c4c(F)c(F)c(F)c(F)c4F)c4nc(c(-c5c(F)c(F)c(F)c(F)c5F)c5ccc2[nH]5)C=C4)C=C3)cc1)c1ccc(C[C@H]2CCCC2=O)cc1-c1ccccc1
REMARK SMILES IDX 8 1 7 4 6 7 5 10 3 11 4 12 2 14 1 16 78 20 79 21 90 22 80 23
REMARK SMILES IDX 89 25 81 26 91 29 92 30 96 31 93 32 95 34 94 36 82 40 83 43
REMARK SMILES IDX 84 44 87 45 85 47 86 50 88 51 9 56 10 59 11 62 12 65 13 66
REMARK SMILES IDX 14 68 15 69 16 70 77 71 17 72 76 74 18 76 19 79 20 80 70 81
REMARK SMILES IDX 21 82 75 83 69 84 71 85 22 86 74 87 68 89 67 91 23 93 55 96
REMARK SMILES IDX 35 97 54 98 36 99 39 100 53 101 72 102 37 103 38 105 52 107
REMARK SMILES IDX 73 108 40 111 24 113 25 114 33 115 26 116 27 117 31 118
REMARK SMILES IDX 34 119 28 120 29 121 32 122 30 123 56 124 57 125 65 126
REMARK SMILES IDX 58 127 59 128 63 129 66 130 60 131 61 132 64 133 62 134
REMARK SMILES IDX 41 135 42 136 50 137 43 138 44 139 48 140 51 141 45 142
REMARK SMILES IDX 46 143 49 144 47 145
REMARK H PARENT 8 2 8 3 7 5 7 6 6 8 6 9 5 13 2 15 1 17 1 18 1 19 79 24 80 27
REMARK H PARENT 89 28 92 33 96 35 93 37 95 38 94 39 82 41 82 42 83 46 84 48
REMARK H PARENT 84 49 85 52 85 53 86 54 86 55 9 57 9 58 10 60 10 61 11 63
REMARK H PARENT 11 64 12 67 16 73 77 75 17 77 76 78 75 88 69 90 71 92 74 94
REMARK H PARENT 68 95 36 104 39 106 72 109 37 110 73 112
REMARK Flexibility Score: inf
ROOT
ATOM      1  C   UNL A   1      29.902  30.786  24.322  1.00  0.00    -0.052 C 
ATOM      2  H   UNL A   1      29.047  30.485  24.891  1.00  0.00     0.027 H 
ATOM      3  H   UNL A   1      29.756  31.702  23.788  1.00  0.00     0.027 H 
ENDROOT
BRANCH   1   4
ATOM      4  C   UNL A   1      30.171  29.711  23.262  1.00  0.00    -0.036 C 
ATOM      5  H   UNL A   1      29.446  29.819  22.483  1.00  0.00     0.028 H 
ATOM      6  H   UNL A   1      31.174  29.862  22.923  1.00  0.00     0.028 H 
BRANCH   4   7
ATOM      7  C   UNL A   1      30.100  28.274  23.784  1.00  0.00     0.017 C 
ATOM      8  H   UNL A   1      30.797  28.157  24.587  1.00  0.00     0.049 H 
ATOM      9  H   UNL A   1      29.105  28.080  24.126  1.00  0.00     0.049 H 
BRANCH   7  10
ATOM     10  N   UNL A   1      30.422  27.334  22.736  1.00  0.00    -0.356 N 
ATOM     11  C   UNL A   1      31.624  26.848  22.311  1.00  0.00     0.227 C 
ATOM     12  O   UNL A   1      31.569  26.150  21.298  1.00  0.00    -0.274 OA
ATOM     13  H   UNL A   1      29.643  26.984  22.244  1.00  0.00     0.163 HD
BRANCH  11  14
ATOM     14  C   UNL A   1      32.909  27.155  23.113  1.00  0.00     0.061 C 
ATOM     15  H   UNL A   1      32.547  27.813  23.876  1.00  0.00     0.045 H 
BRANCH  14  16
ATOM     16  C   UNL A   1      33.972  27.847  22.258  1.00  0.00    -0.049 C 
ATOM     17  H   UNL A   1      33.562  28.739  21.833  1.00  0.00     0.024 H 
ATOM     18  H   UNL A   1      34.282  27.189  21.474  1.00  0.00     0.024 H 
ATOM     19  H   UNL A   1      34.814  28.097  22.869  1.00  0.00     0.024 H 
ENDBRANCH  14  16
BRANCH  14  20
ATOM     20  C   UNL A   1      33.558  25.970  23.846  1.00  0.00    -0.028 A 
ATOM     21  C   UNL A   1      34.105  24.901  23.111  1.00  0.00    -0.057 A 
ATOM     22  C   UNL A   1      33.737  25.967  25.256  1.00  0.00    -0.014 A 
ATOM     23  C   UNL A   1      34.721  23.817  23.730  1.00  0.00    -0.059 A 
ATOM     24  H   UNL A   1      34.048  24.921  22.081  1.00  0.00     0.063 H 
ATOM     25  C   UNL A   1      34.345  24.844  25.865  1.00  0.00    -0.051 A 
ATOM     26  C   UNL A   1      34.821  23.759  25.117  1.00  0.00    -0.047 A 
ATOM     27  H   UNL A   1      35.106  23.051  23.157  1.00  0.00     0.063 H 
ATOM     28  H   UNL A   1      34.440  24.823  26.892  1.00  0.00     0.063 H 
BRANCH  22  29
ATOM     29  C   UNL A   1      33.435  27.133  26.112  1.00  0.00    -0.018 A 
ATOM     30  C   UNL A   1      34.393  28.156  26.253  1.00  0.00    -0.054 A 
ATOM     31  C   UNL A   1      32.211  27.282  26.780  1.00  0.00    -0.054 A 
ATOM     32  C   UNL A   1      34.125  29.302  27.004  1.00  0.00    -0.062 A 
ATOM     33  H   UNL A   1      35.311  28.056  25.792  1.00  0.00     0.063 H 
ATOM     34  C   UNL A   1      31.936  28.437  27.521  1.00  0.00    -0.062 A 
ATOM     35  H   UNL A   1      31.505  26.532  26.724  1.00  0.00     0.063 H 
ATOM     36  C   UNL A   1      32.890  29.447  27.629  1.00  0.00    -0.062 A 
ATOM     37  H   UNL A   1      34.841  30.041  27.095  1.00  0.00     0.062 H 
ATOM     38  H   UNL A   1      31.021  28.541  27.988  1.00  0.00     0.062 H 
ATOM     39  H   UNL A   1      32.682  30.300  28.171  1.00  0.00     0.062 H 
ENDBRANCH  22  29
BRANCH  26  40
ATOM     40  C   UNL A   1      35.458  22.565  25.781  1.00  0.00    -0.018 C 
ATOM     41  H   UNL A   1      36.031  22.921  26.612  1.00  0.00     0.032 H 
ATOM     42  H   UNL A   1      36.038  22.088  25.018  1.00  0.00     0.032 H 
BRANCH  40  43
ATOM     43  C   UNL A   1      34.500  21.488  26.301  1.00  0.00     0.022 C 
ATOM     44  C   UNL A   1      33.178  21.990  26.889  1.00  0.00    -0.043 C 
ATOM     45  C   UNL A   1      34.027  20.545  25.218  1.00  0.00     0.136 C 
ATOM     46  H   UNL A   1      35.113  21.033  27.051  1.00  0.00     0.039 H 
ATOM     47  C   UNL A   1      32.138  21.860  25.781  1.00  0.00    -0.046 C 
ATOM     48  H   UNL A   1      33.272  23.011  27.190  1.00  0.00     0.027 H 
ATOM     49  H   UNL A   1      32.897  21.423  27.752  1.00  0.00     0.027 H 
ATOM     50  C   UNL A   1      32.545  20.637  24.971  1.00  0.00     0.006 C 
ATOM     51  O   UNL A   1      34.768  19.776  24.616  1.00  0.00    -0.299 OA
ATOM     52  H   UNL A   1      32.141  22.734  25.164  1.00  0.00     0.027 H 
ATOM     53  H   UNL A   1      31.151  21.758  26.180  1.00  0.00     0.027 H 
ATOM     54  H   UNL A   1      32.335  20.778  23.932  1.00  0.00     0.035 H 
ATOM     55  H   UNL A   1      32.015  19.750  25.252  1.00  0.00     0.035 H 
ENDBRANCH  40  43
ENDBRANCH  26  40
ENDBRANCH  14  20
ENDBRANCH  11  14
ENDBRANCH   7  10
ENDBRANCH   4   7
ENDBRANCH   1   4
BRANCH   1  56
ATOM     56  C   UNL A   1      31.055  31.040  25.297  1.00  0.00    -0.052 C 
ATOM     57  H   UNL A   1      31.960  31.106  24.731  1.00  0.00     0.027 H 
ATOM     58  H   UNL A   1      31.049  30.225  25.989  1.00  0.00     0.027 H 
BRANCH  56  59
ATOM     59  C   UNL A   1      30.918  32.316  26.127  1.00  0.00    -0.036 C 
ATOM     60  H   UNL A   1      30.118  32.178  26.824  1.00  0.00     0.028 H 
ATOM     61  H   UNL A   1      30.735  33.112  25.436  1.00  0.00     0.028 H 
BRANCH  59  62
ATOM     62  C   UNL A   1      32.171  32.695  26.907  1.00  0.00     0.018 C 
ATOM     63  H   UNL A   1      33.025  32.553  26.278  1.00  0.00     0.049 H 
ATOM     64  H   UNL A   1      32.220  32.071  27.776  1.00  0.00     0.049 H 
BRANCH  62  65
ATOM     65  N   UNL A   1      32.140  34.078  27.352  1.00  0.00    -0.352 N 
ATOM     66  C   UNL A   1      32.904  34.692  28.310  1.00  0.00     0.251 C 
ATOM     67  H   UNL A   1      31.479  34.654  26.902  1.00  0.00     0.163 HD
ATOM     68  O   UNL A   1      32.615  35.818  28.712  1.00  0.00    -0.269 OA
BRANCH  66  69
ATOM     69  C   UNL A   1      34.068  33.982  28.879  1.00  0.00     0.039 A 
ATOM     70  C   UNL A   1      35.351  34.461  28.608  1.00  0.00    -0.049 A 
ATOM     71  C   UNL A   1      33.890  32.855  29.685  1.00  0.00    -0.049 A 
ATOM     72  C   UNL A   1      36.455  33.841  29.195  1.00  0.00    -0.053 A 
ATOM     73  H   UNL A   1      35.482  35.268  27.979  1.00  0.00     0.063 H 
ATOM     74  C   UNL A   1      34.984  32.287  30.331  1.00  0.00    -0.053 A 
ATOM     75  H   UNL A   1      32.950  32.443  29.800  1.00  0.00     0.063 H 
ATOM     76  C   UNL A   1      36.278  32.771  30.088  1.00  0.00    -0.014 A 
ATOM     77  H   UNL A   1      37.407  34.170  28.970  1.00  0.00     0.063 H 
ATOM     78  H   UNL A   1      34.842  31.507  30.992  1.00  0.00     0.063 H 
BRANCH  76  79
ATOM     79  C   UNL A   1      37.436  32.145  30.775  1.00  0.00     0.031 A 
ATOM     80  C   UNL A   1      38.203  31.038  30.105  1.00  0.00     0.074 A 
ATOM     81  C   UNL A   1      37.759  32.532  32.024  1.00  0.00     0.049 A 
ATOM     82  N   UNL A   1      39.199  30.324  30.565  1.00  0.00    -0.248 NA
ATOM     83  C   UNL A   1      37.778  30.665  28.747  1.00  0.00    -0.034 C 
ATOM     84  C   UNL A   1      37.063  33.563  32.796  1.00  0.00    -0.036 A 
ATOM     85  N   UNL A   1      38.750  32.098  32.870  1.00  0.00    -0.354 N 
ATOM     86  C   UNL A   1      39.509  29.416  29.562  1.00  0.00     0.074 A 
ATOM     87  C   UNL A   1      38.560  29.628  28.491  1.00  0.00    -0.034 C 
ATOM     88  H   UNL A   1      37.056  31.099  28.149  1.00  0.00     0.065 H 
ATOM     89  C   UNL A   1      37.662  33.698  33.990  1.00  0.00    -0.036 A 
ATOM     90  H   UNL A   1      36.243  34.101  32.474  1.00  0.00     0.065 H 
ATOM     91  C   UNL A   1      38.755  32.735  34.087  1.00  0.00     0.049 A 
ATOM     92  H   UNL A   1      39.396  31.395  32.627  1.00  0.00     0.167 HD
ATOM     93  C   UNL A   1      40.510  28.504  29.527  1.00  0.00     0.037 A 
ATOM     94  H   UNL A   1      38.501  29.047  27.641  1.00  0.00     0.065 H 
ATOM     95  H   UNL A   1      37.393  34.374  34.722  1.00  0.00     0.065 H 
ATOM     96  C   UNL A   1      39.545  32.556  35.162  1.00  0.00     0.037 A 
ATOM     97  C   UNL A   1      41.465  28.312  30.587  1.00  0.00     0.049 A 
ATOM     98  C   UNL A   1      40.638  31.522  35.102  1.00  0.00     0.074 A 
ATOM     99  C   UNL A   1      42.550  27.454  30.625  1.00  0.00    -0.036 A 
ATOM    100  N   UNL A   1      41.445  28.986  31.800  1.00  0.00    -0.354 N 
ATOM    101  N   UNL A   1      40.966  30.718  34.121  1.00  0.00    -0.248 NA
ATOM    102  C   UNL A   1      41.478  31.376  36.300  1.00  0.00    -0.034 C 
ATOM    103  C   UNL A   1      43.153  27.567  31.882  1.00  0.00    -0.036 A 
ATOM    104  H   UNL A   1      42.861  26.838  29.858  1.00  0.00     0.065 H 
ATOM    105  C   UNL A   1      42.485  28.542  32.603  1.00  0.00     0.049 A 
ATOM    106  H   UNL A   1      40.791  29.677  32.053  1.00  0.00     0.167 HD
ATOM    107  C   UNL A   1      42.067  29.998  34.566  1.00  0.00     0.074 A 
ATOM    108  C   UNL A   1      42.360  30.472  35.903  1.00  0.00    -0.034 C 
ATOM    109  H   UNL A   1      41.400  31.854  37.212  1.00  0.00     0.065 H 
ATOM    110  H   UNL A   1      43.960  27.017  32.216  1.00  0.00     0.065 H 
ATOM    111  C   UNL A   1      42.772  29.034  33.927  1.00  0.00     0.037 A 
ATOM    112  H   UNL A   1      43.156  30.147  36.474  1.00  0.00     0.065 H 
BRANCH  93 113
ATOM    113  C   UNL A   1      40.629  27.643  28.303  1.00  0.00     0.064 A 
ATOM    114  C   UNL A   1      41.398  28.035  27.197  1.00  0.00     0.173 A 
ATOM    115  C   UNL A   1      40.007  26.386  28.254  1.00  0.00     0.173 A 
ATOM    116  F   UNL A   1      42.005  29.232  27.186  1.00  0.00    -0.203 F 
ATOM    117  C   UNL A   1      41.518  27.214  26.078  1.00  0.00     0.198 A 
ATOM    118  C   UNL A   1      40.156  25.554  27.148  1.00  0.00     0.198 A 
ATOM    119  F   UNL A   1      39.264  25.957  29.286  1.00  0.00    -0.203 F 
ATOM    120  F   UNL A   1      42.219  27.633  25.015  1.00  0.00    -0.200 F 
ATOM    121  C   UNL A   1      40.906  25.971  26.058  1.00  0.00     0.200 A 
ATOM    122  F   UNL A   1      39.577  24.345  27.137  1.00  0.00    -0.200 F 
ATOM    123  F   UNL A   1      41.033  25.177  24.986  1.00  0.00    -0.200 F 
ENDBRANCH  93 113
BRANCH  96 124
ATOM    124  C   UNL A   1      39.344  33.380  36.384  1.00  0.00     0.064 A 
ATOM    125  C   UNL A   1      38.496  32.949  37.415  1.00  0.00     0.173 A 
ATOM    126  C   UNL A   1      39.976  34.623  36.538  1.00  0.00     0.173 A 
ATOM    127  F   UNL A   1      37.853  31.776  37.306  1.00  0.00    -0.203 F 
ATOM    128  C   UNL A   1      38.266  33.741  38.538  1.00  0.00     0.198 A 
ATOM    129  C   UNL A   1      39.771  35.398  37.677  1.00  0.00     0.198 A 
ATOM    130  F   UNL A   1      40.801  35.080  35.586  1.00  0.00    -0.203 F 
ATOM    131  F   UNL A   1      37.406  33.329  39.479  1.00  0.00    -0.200 F 
ATOM    132  C   UNL A   1      38.907  34.963  38.670  1.00  0.00     0.200 A 
ATOM    133  F   UNL A   1      40.406  36.572  37.809  1.00  0.00    -0.200 F 
ATOM    134  F   UNL A   1      38.685  35.725  39.750  1.00  0.00    -0.200 F 
ENDBRANCH  96 124
BRANCH 111 135
ATOM    135  C   UNL A   1      43.960  28.456  34.643  1.00  0.00     0.064 A 
ATOM    136  C   UNL A   1      45.234  29.034  34.549  1.00  0.00     0.173 A 
ATOM    137  C   UNL A   1      43.808  27.331  35.470  1.00  0.00     0.173 A 
ATOM    138  F   UNL A   1      45.436  30.101  33.762  1.00  0.00    -0.203 F 
ATOM    139  C   UNL A   1      46.318  28.489  35.233  1.00  0.00     0.198 A 
ATOM    140  C   UNL A   1      44.886  26.812  36.179  1.00  0.00     0.198 A 
ATOM    141  F   UNL A   1      42.608  26.745  35.602  1.00  0.00    -0.203 F 
ATOM    142  F   UNL A   1      47.538  29.025  35.085  1.00  0.00    -0.200 F 
ATOM    143  C   UNL A   1      46.142  27.385  36.054  1.00  0.00     0.200 A 
ATOM    144  F   UNL A   1      44.710  25.756  36.985  1.00  0.00    -0.200 F 
ATOM    145  F   UNL A   1      47.185  26.869  36.718  1.00  0.00    -0.200 F 
ENDBRANCH 111 135
ENDBRANCH  76  79
ENDBRANCH  66  69
ENDBRANCH  62  65
ENDBRANCH  59  62
ENDBRANCH  56  59
ENDBRANCH   1  56
TORSDOF 18
ENDMDL
MODEL 4
REMARK VINA RESULT:     -12.1      4.695     10.542
REMARK SMILES C[C@@H](C(=O)NCCCCCCNC(=O)c1ccc(-c2c3nc(c(-c4c(F)c(F)c(F)c(F)c4F)c4ccc([nH]4)c(-c4c(F)c(F)c(F)c(F)c4F)c4nc(c(-c5c(F)c(F)c(F)c(F)c5F)c5ccc2[nH]5)C=C4)C=C3)cc1)c1ccc(C[C@H]2CCCC2=O)cc1-c1ccccc1
REMARK SMILES IDX 8 1 7 4 6 7 5 10 3 11 4 12 2 14 1 16 78 20 79 21 90 22 80 23
REMARK SMILES IDX 89 25 81 26 91 29 92 30 96 31 93 32 95 34 94 36 82 40 83 43
REMARK SMILES IDX 84 44 87 45 85 47 86 50 88 51 9 56 10 59 11 62 12 65 13 66
REMARK SMILES IDX 14 68 15 69 16 70 77 71 17 72 76 74 18 76 19 79 20 80 70 81
REMARK SMILES IDX 21 82 75 83 69 84 71 85 22 86 74 87 68 89 67 91 23 93 55 96
REMARK SMILES IDX 35 97 54 98 36 99 39 100 53 101 72 102 37 103 38 105 52 107
REMARK SMILES IDX 73 108 40 111 24 113 25 114 33 115 26 116 27 117 31 118
REMARK SMILES IDX 34 119 28 120 29 121 32 122 30 123 56 124 57 125 65 126
REMARK SMILES IDX 58 127 59 128 63 129 66 130 60 131 61 132 64 133 62 134
REMARK SMILES IDX 41 135 42 136 50 137 43 138 44 139 48 140 51 141 45 142
REMARK SMILES IDX 46 143 49 144 47 145
REMARK H PARENT 8 2 8 3 7 5 7 6 6 8 6 9 5 13 2 15 1 17 1 18 1 19 79 24 80 27
REMARK H PARENT 89 28 92 33 96 35 93 37 95 38 94 39 82 41 82 42 83 46 84 48
REMARK H PARENT 84 49 85 52 85 53 86 54 86 55 9 57 9 58 10 60 10 61 11 63
REMARK H PARENT 11 64 12 67 16 73 77 75 17 77 76 78 75 88 69 90 71 92 74 94
REMARK H PARENT 68 95 36 104 39 106 72 109 37 110 73 112
REMARK Flexibility Score: inf
ROOT
ATOM      1  C   UNL A   1      35.686  20.206  25.163  1.00  0.00    -0.052 C 
ATOM      2  H   UNL A   1      35.594  20.417  26.208  1.00  0.00     0.027 H 
ATOM      3  H   UNL A   1      36.042  21.037  24.591  1.00  0.00     0.027 H 
ENDROOT
BRANCH   1   4
ATOM      4  C   UNL A   1      34.290  19.877  24.620  1.00  0.00    -0.036 C 
ATOM      5  H   UNL A   1      34.000  20.657  23.948  1.00  0.00     0.028 H 
ATOM      6  H   UNL A   1      34.367  18.922  24.142  1.00  0.00     0.028 H 
BRANCH   4   7
ATOM      7  C   UNL A   1      33.208  19.740  25.692  1.00  0.00     0.017 C 
ATOM      8  H   UNL A   1      32.877  18.724  25.731  1.00  0.00     0.049 H 
ATOM      9  H   UNL A   1      33.619  20.032  26.636  1.00  0.00     0.049 H 
BRANCH   7  10
ATOM     10  N   UNL A   1      32.082  20.594  25.392  1.00  0.00    -0.356 N 
ATOM     11  C   UNL A   1      31.816  21.882  25.755  1.00  0.00     0.227 C 
ATOM     12  O   UNL A   1      30.696  22.286  25.440  1.00  0.00    -0.274 OA
ATOM     13  H   UNL A   1      31.389  20.176  24.830  1.00  0.00     0.163 HD
BRANCH  11  14
ATOM     14  C   UNL A   1      32.899  22.723  26.469  1.00  0.00     0.061 C 
ATOM     15  H   UNL A   1      33.801  22.354  26.024  1.00  0.00     0.045 H 
BRANCH  14  16
ATOM     16  C   UNL A   1      32.905  22.494  27.981  1.00  0.00    -0.049 C 
ATOM     17  H   UNL A   1      32.705  23.418  28.482  1.00  0.00     0.024 H 
ATOM     18  H   UNL A   1      33.864  22.126  28.281  1.00  0.00     0.024 H 
ATOM     19  H   UNL A   1      32.152  21.779  28.236  1.00  0.00     0.024 H 
ENDBRANCH  14  16
BRANCH  14  20
ATOM     20  C   UNL A   1      32.880  24.236  26.196  1.00  0.00    -0.028 A 
ATOM     21  C   UNL A   1      31.825  25.027  26.691  1.00  0.00    -0.057 A 
ATOM     22  C   UNL A   1      33.963  24.897  25.556  1.00  0.00    -0.014 A 
ATOM     23  C   UNL A   1      31.776  26.404  26.488  1.00  0.00    -0.059 A 
ATOM     24  H   UNL A   1      31.066  24.573  27.222  1.00  0.00     0.063 H 
ATOM     25  C   UNL A   1      33.879  26.293  25.340  1.00  0.00    -0.051 A 
ATOM     26  C   UNL A   1      32.787  27.050  25.782  1.00  0.00    -0.047 A 
ATOM     27  H   UNL A   1      30.985  26.948  26.863  1.00  0.00     0.063 H 
ATOM     28  H   UNL A   1      34.647  26.768  24.840  1.00  0.00     0.063 H 
BRANCH  22  29
ATOM     29  C   UNL A   1      35.233  24.223  25.214  1.00  0.00    -0.018 A 
ATOM     30  C   UNL A   1      35.425  23.727  23.909  1.00  0.00    -0.054 A 
ATOM     31  C   UNL A   1      36.280  24.075  26.133  1.00  0.00    -0.054 A 
ATOM     32  C   UNL A   1      36.631  23.137  23.528  1.00  0.00    -0.062 A 
ATOM     33  H   UNL A   1      34.658  23.801  23.222  1.00  0.00     0.063 H 
ATOM     34  C   UNL A   1      37.496  23.498  25.748  1.00  0.00    -0.062 A 
ATOM     35  H   UNL A   1      36.154  24.396  27.106  1.00  0.00     0.063 H 
ATOM     36  C   UNL A   1      37.672  23.034  24.446  1.00  0.00    -0.062 A 
ATOM     37  H   UNL A   1      36.752  22.780  22.567  1.00  0.00     0.062 H 
ATOM     38  H   UNL A   1      38.265  23.417  26.432  1.00  0.00     0.062 H 
ATOM     39  H   UNL A   1      38.571  22.614  24.163  1.00  0.00     0.062 H 
ENDBRANCH  22  29
BRANCH  26  40
ATOM     40  C   UNL A   1      32.708  28.535  25.536  1.00  0.00    -0.018 C 
ATOM     41  H   UNL A   1      33.659  28.958  25.784  1.00  0.00     0.032 H 
ATOM     42  H   UNL A   1      31.898  28.884  26.144  1.00  0.00     0.032 H 
BRANCH  40  43
ATOM     43  C   UNL A   1      32.362  28.967  24.107  1.00  0.00     0.022 C 
ATOM     44  C   UNL A   1      33.489  28.848  23.077  1.00  0.00    -0.043 C 
ATOM     45  C   UNL A   1      31.272  28.126  23.483  1.00  0.00     0.136 C 
ATOM     46  H   UNL A   1      32.094  29.989  24.277  1.00  0.00     0.039 H 
ATOM     47  C   UNL A   1      33.261  27.532  22.342  1.00  0.00    -0.046 C 
ATOM     48  H   UNL A   1      34.439  28.838  23.567  1.00  0.00     0.027 H 
ATOM     49  H   UNL A   1      33.484  29.676  22.399  1.00  0.00     0.027 H 
ATOM     50  C   UNL A   1      31.752  27.338  22.294  1.00  0.00     0.006 C 
ATOM     51  O   UNL A   1      30.116  28.102  23.891  1.00  0.00    -0.299 OA
ATOM     52  H   UNL A   1      33.724  26.725  22.871  1.00  0.00     0.027 H 
ATOM     53  H   UNL A   1      33.687  27.552  21.361  1.00  0.00     0.027 H 
ATOM     54  H   UNL A   1      31.494  26.305  22.387  1.00  0.00     0.035 H 
ATOM     55  H   UNL A   1      31.315  27.660  21.371  1.00  0.00     0.035 H 
ENDBRANCH  40  43
ENDBRANCH  26  40
ENDBRANCH  14  20
ENDBRANCH  11  14
ENDBRANCH   7  10
ENDBRANCH   4   7
ENDBRANCH   1   4
BRANCH   1  56
ATOM     56  C   UNL A   1      36.727  19.096  24.995  1.00  0.00    -0.052 C 
ATOM     57  H   UNL A   1      36.430  18.482  24.171  1.00  0.00     0.027 H 
ATOM     58  H   UNL A   1      36.758  18.567  25.925  1.00  0.00     0.027 H 
BRANCH  56  59
ATOM     59  C   UNL A   1      38.149  19.590  24.730  1.00  0.00    -0.036 C 
ATOM     60  H   UNL A   1      38.093  20.442  24.086  1.00  0.00     0.028 H 
ATOM     61  H   UNL A   1      38.681  18.771  24.293  1.00  0.00     0.028 H 
BRANCH  59  62
ATOM     62  C   UNL A   1      38.918  19.990  25.984  1.00  0.00     0.018 C 
ATOM     63  H   UNL A   1      38.283  19.858  26.836  1.00  0.00     0.049 H 
ATOM     64  H   UNL A   1      39.216  21.013  25.876  1.00  0.00     0.049 H 
BRANCH  62  65
ATOM     65  N   UNL A   1      40.119  19.192  26.166  1.00  0.00    -0.352 N 
ATOM     66  C   UNL A   1      41.407  19.610  26.381  1.00  0.00     0.251 C 
ATOM     67  H   UNL A   1      39.989  18.216  26.129  1.00  0.00     0.163 HD
ATOM     68  O   UNL A   1      42.342  18.814  26.311  1.00  0.00    -0.269 OA
BRANCH  66  69
ATOM     69  C   UNL A   1      41.671  21.033  26.677  1.00  0.00     0.039 A 
ATOM     70  C   UNL A   1      42.259  21.373  27.897  1.00  0.00    -0.049 A 
ATOM     71  C   UNL A   1      41.347  22.025  25.748  1.00  0.00    -0.049 A 
ATOM     72  C   UNL A   1      42.576  22.706  28.161  1.00  0.00    -0.053 A 
ATOM     73  H   UNL A   1      42.458  20.643  28.599  1.00  0.00     0.063 H 
ATOM     74  C   UNL A   1      41.735  23.341  25.979  1.00  0.00    -0.053 A 
ATOM     75  H   UNL A   1      40.820  21.784  24.894  1.00  0.00     0.063 H 
ATOM     76  C   UNL A   1      42.349  23.696  27.190  1.00  0.00    -0.014 A 
ATOM     77  H   UNL A   1      42.980  22.965  29.074  1.00  0.00     0.063 H 
ATOM     78  H   UNL A   1      41.571  24.060  25.256  1.00  0.00     0.063 H 
BRANCH  76  79
ATOM     79  C   UNL A   1      42.744  25.108  27.426  1.00  0.00     0.031 A 
ATOM     80  C   UNL A   1      44.134  25.569  27.085  1.00  0.00     0.074 A 
ATOM     81  C   UNL A   1      41.871  25.957  28.001  1.00  0.00     0.049 A 
ATOM     82  N   UNL A   1      44.689  26.739  27.275  1.00  0.00    -0.248 NA
ATOM     83  C   UNL A   1      45.030  24.575  26.473  1.00  0.00    -0.034 C 
ATOM     84  C   UNL A   1      40.510  25.617  28.418  1.00  0.00    -0.036 A 
ATOM     85  N   UNL A   1      42.001  27.280  28.344  1.00  0.00    -0.354 N 
ATOM     86  C   UNL A   1      45.995  26.618  26.819  1.00  0.00     0.074 A 
ATOM     87  C   UNL A   1      46.169  25.246  26.395  1.00  0.00    -0.034 C 
ATOM     88  H   UNL A   1      44.825  23.606  26.180  1.00  0.00     0.065 H 
ATOM     89  C   UNL A   1      39.923  26.706  28.938  1.00  0.00    -0.036 A 
ATOM     90  H   UNL A   1      40.071  24.687  28.327  1.00  0.00     0.065 H 
ATOM     91  C   UNL A   1      40.878  27.811  28.932  1.00  0.00     0.049 A 
ATOM     92  H   UNL A   1      42.822  27.801  28.184  1.00  0.00     0.167 HD
ATOM     93  C   UNL A   1      46.953  27.572  26.737  1.00  0.00     0.037 A 
ATOM     94  H   UNL A   1      47.064  24.844  26.075  1.00  0.00     0.065 H 
ATOM     95  H   UNL A   1      38.953  26.756  29.286  1.00  0.00     0.065 H 
ATOM     96  C   UNL A   1      40.650  29.044  29.421  1.00  0.00     0.037 A 
ATOM     97  C   UNL A   1      46.766  28.941  27.139  1.00  0.00     0.049 A 
ATOM     98  C   UNL A   1      41.739  30.079  29.334  1.00  0.00     0.074 A 
ATOM     99  C   UNL A   1      47.656  29.996  27.045  1.00  0.00    -0.036 A 
ATOM    100  N   UNL A   1      45.610  29.444  27.719  1.00  0.00    -0.354 N 
ATOM    101  N   UNL A   1      42.947  29.972  28.835  1.00  0.00    -0.248 NA
ATOM    102  C   UNL A   1      41.432  31.412  29.872  1.00  0.00    -0.034 C 
ATOM    103  C   UNL A   1      47.060  31.124  27.619  1.00  0.00    -0.036 A 
ATOM    104  H   UNL A   1      48.597  29.958  26.623  1.00  0.00     0.065 H 
ATOM    105  C   UNL A   1      45.775  30.789  28.012  1.00  0.00     0.049 A 
ATOM    106  H   UNL A   1      44.794  28.922  27.897  1.00  0.00     0.167 HD
ATOM    107  C   UNL A   1      43.528  31.226  28.966  1.00  0.00     0.074 A 
ATOM    108  C   UNL A   1      42.535  32.084  29.579  1.00  0.00    -0.034 C 
ATOM    109  H   UNL A   1      40.578  31.739  30.352  1.00  0.00     0.065 H 
ATOM    110  H   UNL A   1      47.503  32.049  27.731  1.00  0.00     0.065 H 
ATOM    111  C   UNL A   1      44.772  31.632  28.610  1.00  0.00     0.037 A 
ATOM    112  H   UNL A   1      42.670  33.090  29.764  1.00  0.00     0.065 H 
BRANCH  93 113
ATOM    113  C   UNL A   1      48.292  27.172  26.189  1.00  0.00     0.064 A 
ATOM    114  C   UNL A   1      49.316  26.693  27.022  1.00  0.00     0.173 A 
ATOM    115  C   UNL A   1      48.541  27.219  24.809  1.00  0.00     0.173 A 
ATOM    116  F   UNL A   1      49.137  26.637  28.350  1.00  0.00    -0.203 F 
ATOM    117  C   UNL A   1      50.546  26.304  26.496  1.00  0.00     0.198 A 
ATOM    118  C   UNL A   1      49.759  26.797  24.284  1.00  0.00     0.198 A 
ATOM    119  F   UNL A   1      47.595  27.662  23.966  1.00  0.00    -0.203 F 
ATOM    120  F   UNL A   1      51.524  25.896  27.316  1.00  0.00    -0.200 F 
ATOM    121  C   UNL A   1      50.762  26.346  25.127  1.00  0.00     0.200 A 
ATOM    122  F   UNL A   1      49.961  26.824  22.959  1.00  0.00    -0.200 F 
ATOM    123  F   UNL A   1      51.942  25.959  24.622  1.00  0.00    -0.200 F 
ENDBRANCH  93 113
BRANCH  96 124
ATOM    124  C   UNL A   1      39.332  29.377  30.025  1.00  0.00     0.064 A 
ATOM    125  C   UNL A   1      38.281  29.870  29.238  1.00  0.00     0.173 A 
ATOM    126  C   UNL A   1      39.101  29.230  31.401  1.00  0.00     0.173 A 
ATOM    127  F   UNL A   1      38.458  30.048  27.920  1.00  0.00    -0.203 F 
ATOM    128  C   UNL A   1      37.062  30.231  29.807  1.00  0.00     0.198 A 
ATOM    129  C   UNL A   1      37.870  29.559  31.963  1.00  0.00     0.198 A 
ATOM    130  F   UNL A   1      40.069  28.756  32.198  1.00  0.00    -0.203 F 
ATOM    131  F   UNL A   1      36.096  30.755  29.040  1.00  0.00    -0.200 F 
ATOM    132  C   UNL A   1      36.856  30.071  31.169  1.00  0.00     0.200 A 
ATOM    133  F   UNL A   1      37.669  29.386  33.277  1.00  0.00    -0.200 F 
ATOM    134  F   UNL A   1      35.683  30.418  31.716  1.00  0.00    -0.200 F 
ENDBRANCH  96 124
BRANCH 111 135
ATOM    135  C   UNL A   1      45.116  33.078  28.830  1.00  0.00     0.064 A 
ATOM    136  C   UNL A   1      45.755  33.517  29.999  1.00  0.00     0.173 A 
ATOM    137  C   UNL A   1      44.840  34.029  27.836  1.00  0.00     0.173 A 
ATOM    138  F   UNL A   1      46.028  32.652  30.986  1.00  0.00    -0.203 F 
ATOM    139  C   UNL A   1      46.077  34.861  30.175  1.00  0.00     0.198 A 
ATOM    140  C   UNL A   1      45.196  35.364  28.001  1.00  0.00     0.198 A 
ATOM    141  F   UNL A   1      44.238  33.661  26.694  1.00  0.00    -0.203 F 
ATOM    142  F   UNL A   1      46.638  35.267  31.323  1.00  0.00    -0.200 F 
ATOM    143  C   UNL A   1      45.806  35.781  29.174  1.00  0.00     0.200 A 
ATOM    144  F   UNL A   1      44.948  36.248  27.025  1.00  0.00    -0.200 F 
ATOM    145  F   UNL A   1      46.126  37.071  29.342  1.00  0.00    -0.200 F 
ENDBRANCH 111 135
ENDBRANCH  76  79
ENDBRANCH  66  69
ENDBRANCH  62  65
ENDBRANCH  59  62
ENDBRANCH  56  59
ENDBRANCH   1  56
TORSDOF 18
ENDMDL
MODEL 5
REMARK VINA RESULT:     -12.0      3.388      5.197
REMARK SMILES C[C@@H](C(=O)NCCCCCCNC(=O)c1ccc(-c2c3nc(c(-c4c(F)c(F)c(F)c(F)c4F)c4ccc([nH]4)c(-c4c(F)c(F)c(F)c(F)c4F)c4nc(c(-c5c(F)c(F)c(F)c(F)c5F)c5ccc2[nH]5)C=C4)C=C3)cc1)c1ccc(C[C@H]2CCCC2=O)cc1-c1ccccc1
REMARK SMILES IDX 8 1 7 4 6 7 5 10 3 11 4 12 2 14 1 16 78 20 79 21 90 22 80 23
REMARK SMILES IDX 89 25 81 26 91 29 92 30 96 31 93 32 95 34 94 36 82 40 83 43
REMARK SMILES IDX 84 44 87 45 85 47 86 50 88 51 9 56 10 59 11 62 12 65 13 66
REMARK SMILES IDX 14 68 15 69 16 70 77 71 17 72 76 74 18 76 19 79 20 80 70 81
REMARK SMILES IDX 21 82 75 83 69 84 71 85 22 86 74 87 68 89 67 91 23 93 55 96
REMARK SMILES IDX 35 97 54 98 36 99 39 100 53 101 72 102 37 103 38 105 52 107
REMARK SMILES IDX 73 108 40 111 24 113 25 114 33 115 26 116 27 117 31 118
REMARK SMILES IDX 34 119 28 120 29 121 32 122 30 123 56 124 57 125 65 126
REMARK SMILES IDX 58 127 59 128 63 129 66 130 60 131 61 132 64 133 62 134
REMARK SMILES IDX 41 135 42 136 50 137 43 138 44 139 48 140 51 141 45 142
REMARK SMILES IDX 46 143 49 144 47 145
REMARK H PARENT 8 2 8 3 7 5 7 6 6 8 6 9 5 13 2 15 1 17 1 18 1 19 79 24 80 27
REMARK H PARENT 89 28 92 33 96 35 93 37 95 38 94 39 82 41 82 42 83 46 84 48
REMARK H PARENT 84 49 85 52 85 53 86 54 86 55 9 57 9 58 10 60 10 61 11 63
REMARK H PARENT 11 64 12 67 16 73 77 75 17 77 76 78 75 88 69 90 71 92 74 94
REMARK H PARENT 68 95 36 104 39 106 72 109 37 110 73 112
REMARK Flexibility Score: inf
ROOT
ATOM      1  C   UNL A   1      33.425  25.683  26.076  1.00  0.00    -0.052 C 
ATOM      2  H   UNL A   1      33.777  24.754  25.677  1.00  0.00     0.027 H 
ATOM      3  H   UNL A   1      33.965  26.005  26.941  1.00  0.00     0.027 H 
ENDROOT
BRANCH   1   4
ATOM      4  C   UNL A   1      31.972  25.487  26.527  1.00  0.00    -0.036 C 
ATOM      5  H   UNL A   1      31.906  25.741  27.564  1.00  0.00     0.028 H 
ATOM      6  H   UNL A   1      31.373  26.116  25.903  1.00  0.00     0.028 H 
BRANCH   4   7
ATOM      7  C   UNL A   1      31.439  24.064  26.348  1.00  0.00     0.017 C 
ATOM      8  H   UNL A   1      32.262  23.381  26.317  1.00  0.00     0.049 H 
ATOM      9  H   UNL A   1      30.795  23.831  27.170  1.00  0.00     0.049 H 
BRANCH   7  10
ATOM     10  N   UNL A   1      30.685  23.952  25.121  1.00  0.00    -0.356 N 
ATOM     11  C   UNL A   1      31.092  23.702  23.843  1.00  0.00     0.227 C 
ATOM     12  O   UNL A   1      30.207  23.800  22.992  1.00  0.00    -0.274 OA
ATOM     13  H   UNL A   1      29.713  24.077  25.224  1.00  0.00     0.163 HD
BRANCH  11  14
ATOM     14  C   UNL A   1      32.556  23.293  23.563  1.00  0.00     0.061 C 
ATOM     15  H   UNL A   1      33.080  23.768  24.367  1.00  0.00     0.045 H 
BRANCH  14  16
ATOM     16  C   UNL A   1      33.051  23.808  22.211  1.00  0.00    -0.049 C 
ATOM     17  H   UNL A   1      32.406  24.590  21.869  1.00  0.00     0.024 H 
ATOM     18  H   UNL A   1      33.048  23.007  21.502  1.00  0.00     0.024 H 
ATOM     19  H   UNL A   1      34.046  24.187  22.317  1.00  0.00     0.024 H 
ENDBRANCH  14  16
BRANCH  14  20
ATOM     20  C   UNL A   1      32.879  21.794  23.672  1.00  0.00    -0.028 A 
ATOM     21  C   UNL A   1      32.075  20.849  23.007  1.00  0.00    -0.057 A 
ATOM     22  C   UNL A   1      34.048  21.325  24.330  1.00  0.00    -0.014 A 
ATOM     23  C   UNL A   1      32.342  19.484  23.059  1.00  0.00    -0.059 A 
ATOM     24  H   UNL A   1      31.262  21.179  22.463  1.00  0.00     0.063 H 
ATOM     25  C   UNL A   1      34.286  19.931  24.390  1.00  0.00    -0.051 A 
ATOM     26  C   UNL A   1      33.433  19.005  23.777  1.00  0.00    -0.047 A 
ATOM     27  H   UNL A   1      31.725  18.823  22.561  1.00  0.00     0.063 H 
ATOM     28  H   UNL A   1      35.113  19.587  24.901  1.00  0.00     0.063 H 
BRANCH  22  29
ATOM     29  C   UNL A   1      35.100  22.224  24.851  1.00  0.00    -0.018 A 
ATOM     30  C   UNL A   1      35.083  22.597  26.209  1.00  0.00    -0.054 A 
ATOM     31  C   UNL A   1      36.142  22.709  24.049  1.00  0.00    -0.054 A 
ATOM     32  C   UNL A   1      36.090  23.396  26.754  1.00  0.00    -0.062 A 
ATOM     33  H   UNL A   1      34.311  22.273  26.813  1.00  0.00     0.063 H 
ATOM     34  C   UNL A   1      37.160  23.498  24.597  1.00  0.00    -0.062 A 
ATOM     35  H   UNL A   1      36.159  22.482  23.043  1.00  0.00     0.063 H 
ATOM     36  C   UNL A   1      37.136  23.837  25.949  1.00  0.00    -0.062 A 
ATOM     37  H   UNL A   1      36.059  23.658  27.752  1.00  0.00     0.062 H 
ATOM     38  H   UNL A   1      37.932  23.829  23.998  1.00  0.00     0.062 H 
ATOM     39  H   UNL A   1      37.890  24.414  26.352  1.00  0.00     0.062 H 
ENDBRANCH  22  29
BRANCH  26  40
ATOM     40  C   UNL A   1      33.694  17.522  23.857  1.00  0.00    -0.018 C 
ATOM     41  H   UNL A   1      34.669  17.340  23.455  1.00  0.00     0.032 H 
ATOM     42  H   UNL A   1      32.897  17.061  23.310  1.00  0.00     0.032 H 
BRANCH  40  43
ATOM     43  C   UNL A   1      33.643  16.900  25.257  1.00  0.00     0.022 C 
ATOM     44  C   UNL A   1      32.252  16.765  25.883  1.00  0.00    -0.043 C 
ATOM     45  C   UNL A   1      34.144  15.474  25.289  1.00  0.00     0.136 C 
ATOM     46  H   UNL A   1      34.249  17.597  25.798  1.00  0.00     0.039 H 
ATOM     47  C   UNL A   1      31.804  15.330  25.630  1.00  0.00    -0.046 C 
ATOM     48  H   UNL A   1      31.572  17.451  25.424  1.00  0.00     0.027 H 
ATOM     49  H   UNL A   1      32.275  16.985  26.930  1.00  0.00     0.027 H 
ATOM     50  C   UNL A   1      33.071  14.487  25.664  1.00  0.00     0.006 C 
ATOM     51  O   UNL A   1      35.305  15.157  25.052  1.00  0.00    -0.299 OA
ATOM     52  H   UNL A   1      31.329  15.251  24.674  1.00  0.00     0.027 H 
ATOM     53  H   UNL A   1      31.095  15.005  26.362  1.00  0.00     0.027 H 
ATOM     54  H   UNL A   1      33.019  13.687  24.956  1.00  0.00     0.035 H 
ATOM     55  H   UNL A   1      33.241  14.019  26.612  1.00  0.00     0.035 H 
ENDBRANCH  40  43
ENDBRANCH  26  40
ENDBRANCH  14  20
ENDBRANCH  11  14
ENDBRANCH   7  10
ENDBRANCH   4   7
ENDBRANCH   1   4
BRANCH   1  56
ATOM     56  C   UNL A   1      33.636  26.765  25.014  1.00  0.00    -0.052 C 
ATOM     57  H   UNL A   1      32.917  26.613  24.237  1.00  0.00     0.027 H 
ATOM     58  H   UNL A   1      34.646  26.667  24.679  1.00  0.00     0.027 H 
BRANCH  56  59
ATOM     59  C   UNL A   1      33.486  28.197  25.526  1.00  0.00    -0.036 C 
ATOM     60  H   UNL A   1      32.461  28.484  25.426  1.00  0.00     0.028 H 
ATOM     61  H   UNL A   1      34.148  28.802  24.941  1.00  0.00     0.028 H 
BRANCH  59  62
ATOM     62  C   UNL A   1      33.895  28.389  26.982  1.00  0.00     0.018 C 
ATOM     63  H   UNL A   1      34.911  28.075  27.100  1.00  0.00     0.049 H 
ATOM     64  H   UNL A   1      33.235  27.804  27.589  1.00  0.00     0.049 H 
BRANCH  62  65
ATOM     65  N   UNL A   1      33.779  29.775  27.404  1.00  0.00    -0.352 N 
ATOM     66  C   UNL A   1      34.662  30.531  28.130  1.00  0.00     0.251 C 
ATOM     67  H   UNL A   1      32.952  30.234  27.129  1.00  0.00     0.163 HD
ATOM     68  O   UNL A   1      34.325  31.626  28.579  1.00  0.00    -0.269 OA
BRANCH  66  69
ATOM     69  C   UNL A   1      36.020  30.013  28.393  1.00  0.00     0.039 A 
ATOM     70  C   UNL A   1      37.006  30.171  27.417  1.00  0.00    -0.049 A 
ATOM     71  C   UNL A   1      36.319  29.383  29.604  1.00  0.00    -0.049 A 
ATOM     72  C   UNL A   1      38.309  29.747  27.679  1.00  0.00    -0.053 A 
ATOM     73  H   UNL A   1      36.772  30.598  26.507  1.00  0.00     0.063 H 
ATOM     74  C   UNL A   1      37.635  29.034  29.894  1.00  0.00    -0.053 A 
ATOM     75  H   UNL A   1      35.568  29.176  30.280  1.00  0.00     0.063 H 
ATOM     76  C   UNL A   1      38.642  29.207  28.933  1.00  0.00    -0.014 A 
ATOM     77  H   UNL A   1      39.033  29.832  26.948  1.00  0.00     0.063 H 
ATOM     78  H   UNL A   1      37.870  28.645  30.821  1.00  0.00     0.063 H 
BRANCH  76  79
ATOM     79  C   UNL A   1      40.038  28.816  29.254  1.00  0.00     0.031 A 
ATOM     80  C   UNL A   1      40.918  29.744  30.046  1.00  0.00     0.074 A 
ATOM     81  C   UNL A   1      40.529  27.654  28.784  1.00  0.00     0.049 A 
ATOM     82  N   UNL A   1      42.179  29.612  30.372  1.00  0.00    -0.248 NA
ATOM     83  C   UNL A   1      40.308  31.000  30.511  1.00  0.00    -0.034 C 
ATOM     84  C   UNL A   1      39.789  26.692  27.967  1.00  0.00    -0.036 A 
ATOM     85  N   UNL A   1      41.774  27.088  28.916  1.00  0.00    -0.354 N 
ATOM     86  C   UNL A   1      42.513  30.768  31.066  1.00  0.00     0.074 A 
ATOM     87  C   UNL A   1      41.340  31.615  31.066  1.00  0.00    -0.034 C 
ATOM     88  H   UNL A   1      39.329  31.318  30.426  1.00  0.00     0.065 H 
ATOM     89  C   UNL A   1      40.583  25.645  27.691  1.00  0.00    -0.036 A 
ATOM     90  H   UNL A   1      38.812  26.799  27.653  1.00  0.00     0.065 H 
ATOM     91  C   UNL A   1      41.901  25.881  28.272  1.00  0.00     0.049 A 
ATOM     92  H   UNL A   1      42.506  27.508  29.423  1.00  0.00     0.167 HD
ATOM     93  C   UNL A   1      43.683  31.081  31.671  1.00  0.00     0.037 A 
ATOM     94  H   UNL A   1      41.314  32.573  31.449  1.00  0.00     0.065 H 
ATOM     95  H   UNL A   1      40.307  24.808  27.154  1.00  0.00     0.065 H 
ATOM     96  C   UNL A   1      42.964  25.062  28.156  1.00  0.00     0.037 A 
ATOM     97  C   UNL A   1      44.839  30.224  31.686  1.00  0.00     0.049 A 
ATOM     98  C   UNL A   1      44.259  25.445  28.823  1.00  0.00     0.074 A 
ATOM     99  C   UNL A   1      46.054  30.426  32.318  1.00  0.00    -0.036 A 
ATOM    100  N   UNL A   1      44.926  29.002  31.034  1.00  0.00    -0.354 N 
ATOM    101  N   UNL A   1      44.541  26.508  29.537  1.00  0.00    -0.248 NA
ATOM    102  C   UNL A   1      45.383  24.510  28.673  1.00  0.00    -0.034 C 
ATOM    103  C   UNL A   1      46.895  29.354  32.002  1.00  0.00    -0.036 A 
ATOM    104  H   UNL A   1      46.297  31.229  32.920  1.00  0.00     0.065 H 
ATOM    105  C   UNL A   1      46.184  28.452  31.228  1.00  0.00     0.049 A 
ATOM    106  H   UNL A   1      44.202  28.587  30.512  1.00  0.00     0.167 HD
ATOM    107  C   UNL A   1      45.857  26.353  29.950  1.00  0.00     0.074 A 
ATOM    108  C   UNL A   1      46.315  25.085  29.418  1.00  0.00    -0.034 C 
ATOM    109  H   UNL A   1      45.432  23.634  28.130  1.00  0.00     0.065 H 
ATOM    110  H   UNL A   1      47.879  29.253  32.296  1.00  0.00     0.065 H 
ATOM    111  C   UNL A   1      46.619  27.183  30.702  1.00  0.00     0.037 A 
ATOM    112  H   UNL A   1      47.247  24.682  29.596  1.00  0.00     0.065 H 
BRANCH  93 113
ATOM    113  C   UNL A   1      43.776  32.407  32.370  1.00  0.00     0.064 A 
ATOM    114  C   UNL A   1      43.440  32.552  33.725  1.00  0.00     0.173 A 
ATOM    115  C   UNL A   1      44.254  33.538  31.691  1.00  0.00     0.173 A 
ATOM    116  F   UNL A   1      42.967  31.506  34.419  1.00  0.00    -0.203 F 
ATOM    117  C   UNL A   1      43.553  33.783  34.365  1.00  0.00     0.198 A 
ATOM    118  C   UNL A   1      44.399  34.759  32.343  1.00  0.00     0.198 A 
ATOM    119  F   UNL A   1      44.596  33.456  30.395  1.00  0.00    -0.203 F 
ATOM    120  F   UNL A   1      43.181  33.907  35.646  1.00  0.00    -0.200 F 
ATOM    121  C   UNL A   1      44.042  34.883  33.677  1.00  0.00     0.200 A 
ATOM    122  F   UNL A   1      44.886  35.818  31.680  1.00  0.00    -0.200 F 
ATOM    123  F   UNL A   1      44.163  36.064  34.298  1.00  0.00    -0.200 F 
ENDBRANCH  93 113
BRANCH  96 124
ATOM    124  C   UNL A   1      42.850  23.793  27.390  1.00  0.00     0.064 A 
ATOM    125  C   UNL A   1      42.364  22.625  27.995  1.00  0.00     0.173 A 
ATOM    126  C   UNL A   1      43.243  23.713  26.045  1.00  0.00     0.173 A 
ATOM    127  F   UNL A   1      41.993  22.644  29.285  1.00  0.00    -0.203 F 
ATOM    128  C   UNL A   1      42.303  21.421  27.296  1.00  0.00     0.198 A 
ATOM    129  C   UNL A   1      43.150  22.517  25.338  1.00  0.00     0.198 A 
ATOM    130  F   UNL A   1      43.710  24.801  25.416  1.00  0.00    -0.203 F 
ATOM    131  F   UNL A   1      41.889  20.309  27.917  1.00  0.00    -0.200 F 
ATOM    132  C   UNL A   1      42.692  21.370  25.966  1.00  0.00     0.200 A 
ATOM    133  F   UNL A   1      43.511  22.475  24.047  1.00  0.00    -0.200 F 
ATOM    134  F   UNL A   1      42.634  20.212  25.294  1.00  0.00    -0.200 F 
ENDBRANCH  96 124
BRANCH 111 135
ATOM    135  C   UNL A   1      48.013  26.730  31.037  1.00  0.00     0.064 A 
ATOM    136  C   UNL A   1      48.278  25.907  32.141  1.00  0.00     0.173 A 
ATOM    137  C   UNL A   1      49.090  27.092  30.213  1.00  0.00     0.173 A 
ATOM    138  F   UNL A   1      47.287  25.545  32.968  1.00  0.00    -0.203 F 
ATOM    139  C   UNL A   1      49.576  25.488  32.425  1.00  0.00     0.198 A 
ATOM    140  C   UNL A   1      50.379  26.641  30.480  1.00  0.00     0.198 A 
ATOM    141  F   UNL A   1      48.890  27.870  29.139  1.00  0.00    -0.203 F 
ATOM    142  F   UNL A   1      49.814  24.747  33.516  1.00  0.00    -0.200 F 
ATOM    143  C   UNL A   1      50.624  25.848  31.590  1.00  0.00     0.200 A 
ATOM    144  F   UNL A   1      51.386  26.976  29.661  1.00  0.00    -0.200 F 
ATOM    145  F   UNL A   1      51.869  25.435  31.859  1.00  0.00    -0.200 F 
ENDBRANCH 111 135
ENDBRANCH  76  79
ENDBRANCH  66  69
ENDBRANCH  62  65
ENDBRANCH  59  62
ENDBRANCH  56  59
ENDBRANCH   1  56
TORSDOF 18
ENDMDL
MODEL 6
REMARK VINA RESULT:     -12.0      1.583      7.489
REMARK SMILES C[C@@H](C(=O)NCCCCCCNC(=O)c1ccc(-c2c3nc(c(-c4c(F)c(F)c(F)c(F)c4F)c4ccc([nH]4)c(-c4c(F)c(F)c(F)c(F)c4F)c4nc(c(-c5c(F)c(F)c(F)c(F)c5F)c5ccc2[nH]5)C=C4)C=C3)cc1)c1ccc(C[C@H]2CCCC2=O)cc1-c1ccccc1
REMARK SMILES IDX 8 1 7 4 6 7 5 10 3 11 4 12 2 14 1 16 78 20 79 21 90 22 80 23
REMARK SMILES IDX 89 25 81 26 91 29 92 30 96 31 93 32 95 34 94 36 82 40 83 43
REMARK SMILES IDX 84 44 87 45 85 47 86 50 88 51 9 56 10 59 11 62 12 65 13 66
REMARK SMILES IDX 14 68 15 69 16 70 77 71 17 72 76 74 18 76 19 79 20 80 70 81
REMARK SMILES IDX 21 82 75 83 69 84 71 85 22 86 74 87 68 89 67 91 23 93 55 96
REMARK SMILES IDX 35 97 54 98 36 99 39 100 53 101 72 102 37 103 38 105 52 107
REMARK SMILES IDX 73 108 40 111 24 113 25 114 33 115 26 116 27 117 31 118
REMARK SMILES IDX 34 119 28 120 29 121 32 122 30 123 56 124 57 125 65 126
REMARK SMILES IDX 58 127 59 128 63 129 66 130 60 131 61 132 64 133 62 134
REMARK SMILES IDX 41 135 42 136 50 137 43 138 44 139 48 140 51 141 45 142
REMARK SMILES IDX 46 143 49 144 47 145
REMARK H PARENT 8 2 8 3 7 5 7 6 6 8 6 9 5 13 2 15 1 17 1 18 1 19 79 24 80 27
REMARK H PARENT 89 28 92 33 96 35 93 37 95 38 94 39 82 41 82 42 83 46 84 48
REMARK H PARENT 84 49 85 52 85 53 86 54 86 55 9 57 9 58 10 60 10 61 11 63
REMARK H PARENT 11 64 12 67 16 73 77 75 17 77 76 78 75 88 69 90 71 92 74 94
REMARK H PARENT 68 95 36 104 39 106 72 109 37 110 73 112
REMARK Flexibility Score: inf
ROOT
ATOM      1  C   UNL A   1      32.367  29.889  27.238  1.00  0.00    -0.052 C 
ATOM      2  H   UNL A   1      33.367  29.764  26.877  1.00  0.00     0.027 H 
ATOM      3  H   UNL A   1      32.311  30.447  28.149  1.00  0.00     0.027 H 
ENDROOT
BRANCH   1   4
ATOM      4  C   UNL A   1      31.798  28.499  27.552  1.00  0.00    -0.036 C 
ATOM      5  H   UNL A   1      32.589  27.893  27.941  1.00  0.00     0.028 H 
ATOM      6  H   UNL A   1      31.002  28.648  28.252  1.00  0.00     0.028 H 
BRANCH   4   7
ATOM      7  C   UNL A   1      31.189  27.777  26.348  1.00  0.00     0.017 C 
ATOM      8  H   UNL A   1      30.397  28.372  25.944  1.00  0.00     0.049 H 
ATOM      9  H   UNL A   1      31.952  27.628  25.614  1.00  0.00     0.049 H 
BRANCH   7  10
ATOM     10  N   UNL A   1      30.662  26.490  26.739  1.00  0.00    -0.356 N 
ATOM     11  C   UNL A   1      30.478  25.345  26.020  1.00  0.00     0.227 C 
ATOM     12  O   UNL A   1      29.881  24.451  26.619  1.00  0.00    -0.274 OA
ATOM     13  H   UNL A   1      30.389  26.428  27.683  1.00  0.00     0.163 HD
BRANCH  11  14
ATOM     14  C   UNL A   1      31.040  25.235  24.584  1.00  0.00     0.061 C 
ATOM     15  H   UNL A   1      31.341  26.243  24.382  1.00  0.00     0.045 H 
BRANCH  14  16
ATOM     16  C   UNL A   1      29.980  24.774  23.583  1.00  0.00    -0.049 C 
ATOM     17  H   UNL A   1      29.473  25.626  23.181  1.00  0.00     0.024 H 
ATOM     18  H   UNL A   1      29.274  24.141  24.078  1.00  0.00     0.024 H 
ATOM     19  H   UNL A   1      30.451  24.232  22.790  1.00  0.00     0.024 H 
ENDBRANCH  14  16
BRANCH  14  20
ATOM     20  C   UNL A   1      32.299  24.372  24.406  1.00  0.00    -0.028 A 
ATOM     21  C   UNL A   1      32.212  22.970  24.507  1.00  0.00    -0.057 A 
ATOM     22  C   UNL A   1      33.546  24.934  24.019  1.00  0.00    -0.014 A 
ATOM     23  C   UNL A   1      33.321  22.146  24.332  1.00  0.00    -0.059 A 
ATOM     24  H   UNL A   1      31.298  22.540  24.716  1.00  0.00     0.063 H 
ATOM     25  C   UNL A   1      34.664  24.079  23.870  1.00  0.00    -0.051 A 
ATOM     26  C   UNL A   1      34.567  22.693  24.043  1.00  0.00    -0.047 A 
ATOM     27  H   UNL A   1      33.217  21.124  24.418  1.00  0.00     0.063 H 
ATOM     28  H   UNL A   1      35.578  24.490  23.628  1.00  0.00     0.063 H 
BRANCH  22  29
ATOM     29  C   UNL A   1      33.711  26.353  23.640  1.00  0.00    -0.018 A 
ATOM     30  C   UNL A   1      33.576  26.729  22.289  1.00  0.00    -0.054 A 
ATOM     31  C   UNL A   1      33.974  27.359  24.579  1.00  0.00    -0.054 A 
ATOM     32  C   UNL A   1      33.665  28.066  21.896  1.00  0.00    -0.062 A 
ATOM     33  H   UNL A   1      33.409  26.002  21.576  1.00  0.00     0.063 H 
ATOM     34  C   UNL A   1      34.048  28.701  24.189  1.00  0.00    -0.062 A 
ATOM     35  H   UNL A   1      34.113  27.108  25.570  1.00  0.00     0.063 H 
ATOM     36  C   UNL A   1      33.890  29.054  22.850  1.00  0.00    -0.062 A 
ATOM     37  H   UNL A   1      33.564  28.321  20.901  1.00  0.00     0.062 H 
ATOM     38  H   UNL A   1      34.221  29.433  24.897  1.00  0.00     0.062 H 
ATOM     39  H   UNL A   1      33.940  30.044  22.566  1.00  0.00     0.062 H 
ENDBRANCH  22  29
BRANCH  26  40
ATOM     40  C   UNL A   1      35.770  21.795  23.890  1.00  0.00    -0.018 C 
ATOM     41  H   UNL A   1      36.531  22.353  23.385  1.00  0.00     0.032 H 
ATOM     42  H   UNL A   1      35.421  20.938  23.352  1.00  0.00     0.032 H 
BRANCH  40  43
ATOM     43  C   UNL A   1      36.374  21.247  25.187  1.00  0.00     0.022 C 
ATOM     44  C   UNL A   1      37.068  19.886  25.083  1.00  0.00    -0.043 C 
ATOM     45  C   UNL A   1      37.475  22.122  25.743  1.00  0.00     0.136 C 
ATOM     46  H   UNL A   1      35.497  21.193  25.798  1.00  0.00     0.039 H 
ATOM     47  C   UNL A   1      38.558  20.173  24.943  1.00  0.00    -0.046 C 
ATOM     48  H   UNL A   1      36.712  19.354  24.227  1.00  0.00     0.027 H 
ATOM     49  H   UNL A   1      36.869  19.282  25.944  1.00  0.00     0.027 H 
ATOM     50  C   UNL A   1      38.816  21.439  25.749  1.00  0.00     0.006 C 
ATOM     51  O   UNL A   1      37.291  23.260  26.160  1.00  0.00    -0.299 OA
ATOM     52  H   UNL A   1      38.813  20.328  23.915  1.00  0.00     0.027 H 
ATOM     53  H   UNL A   1      39.151  19.355  25.294  1.00  0.00     0.027 H 
ATOM     54  H   UNL A   1      39.561  22.047  25.281  1.00  0.00     0.035 H 
ATOM     55  H   UNL A   1      39.185  21.243  26.735  1.00  0.00     0.035 H 
ENDBRANCH  40  43
ENDBRANCH  26  40
ENDBRANCH  14  20
ENDBRANCH  11  14
ENDBRANCH   7  10
ENDBRANCH   4   7
ENDBRANCH   1   4
BRANCH   1  56
ATOM     56  C   UNL A   1      31.584  30.692  26.196  1.00  0.00    -0.052 C 
ATOM     57  H   UNL A   1      30.612  30.256  26.102  1.00  0.00     0.027 H 
ATOM     58  H   UNL A   1      32.153  30.649  25.292  1.00  0.00     0.027 H 
BRANCH  56  59
ATOM     59  C   UNL A   1      31.412  32.173  26.531  1.00  0.00    -0.036 C 
ATOM     60  H   UNL A   1      30.529  32.282  27.125  1.00  0.00     0.028 H 
ATOM     61  H   UNL A   1      31.353  32.693  25.597  1.00  0.00     0.028 H 
BRANCH  59  62
ATOM     62  C   UNL A   1      32.580  32.783  27.296  1.00  0.00     0.018 C 
ATOM     63  H   UNL A   1      33.465  32.699  26.700  1.00  0.00     0.049 H 
ATOM     64  H   UNL A   1      32.682  32.252  28.220  1.00  0.00     0.049 H 
BRANCH  62  65
ATOM     65  N   UNL A   1      32.356  34.185  27.609  1.00  0.00    -0.352 N 
ATOM     66  C   UNL A   1      32.953  34.959  28.569  1.00  0.00     0.251 C 
ATOM     67  H   UNL A   1      31.683  34.641  27.053  1.00  0.00     0.163 HD
ATOM     68  O   UNL A   1      32.506  36.073  28.840  1.00  0.00    -0.269 OA
BRANCH  66  69
ATOM     69  C   UNL A   1      34.128  34.440  29.297  1.00  0.00     0.039 A 
ATOM     70  C   UNL A   1      33.935  33.784  30.515  1.00  0.00    -0.049 A 
ATOM     71  C   UNL A   1      35.415  34.592  28.774  1.00  0.00    -0.049 A 
ATOM     72  C   UNL A   1      35.029  33.228  31.179  1.00  0.00    -0.053 A 
ATOM     73  H   UNL A   1      32.988  33.710  30.920  1.00  0.00     0.063 H 
ATOM     74  C   UNL A   1      36.492  33.970  29.397  1.00  0.00    -0.053 A 
ATOM     75  H   UNL A   1      35.566  35.164  27.928  1.00  0.00     0.063 H 
ATOM     76  C   UNL A   1      36.311  33.287  30.609  1.00  0.00    -0.014 A 
ATOM     77  H   UNL A   1      34.894  32.772  32.096  1.00  0.00     0.063 H 
ATOM     78  H   UNL A   1      37.429  34.011  28.965  1.00  0.00     0.063 H 
BRANCH  76  79
ATOM     79  C   UNL A   1      37.475  32.641  31.268  1.00  0.00     0.031 A 
ATOM     80  C   UNL A   1      38.196  31.511  30.586  1.00  0.00     0.074 A 
ATOM     81  C   UNL A   1      37.843  33.032  32.503  1.00  0.00     0.049 A 
ATOM     82  N   UNL A   1      39.190  30.779  31.023  1.00  0.00    -0.248 NA
ATOM     83  C   UNL A   1      37.723  31.137  29.244  1.00  0.00    -0.034 C 
ATOM     84  C   UNL A   1      37.193  34.084  33.285  1.00  0.00    -0.036 A 
ATOM     85  N   UNL A   1      38.848  32.582  33.323  1.00  0.00    -0.354 N 
ATOM     86  C   UNL A   1      39.449  29.855  30.020  1.00  0.00     0.074 A 
ATOM     87  C   UNL A   1      38.474  30.080  28.975  1.00  0.00    -0.034 C 
ATOM     88  H   UNL A   1      36.994  31.582  28.663  1.00  0.00     0.065 H 
ATOM     89  C   UNL A   1      37.830  34.216  34.460  1.00  0.00    -0.036 A 
ATOM     90  H   UNL A   1      36.377  34.638  32.983  1.00  0.00     0.065 H 
ATOM     91  C   UNL A   1      38.903  33.230  34.534  1.00  0.00     0.049 A 
ATOM     92  H   UNL A   1      39.471  31.863  33.068  1.00  0.00     0.167 HD
ATOM     93  C   UNL A   1      40.428  28.921  29.964  1.00  0.00     0.037 A 
ATOM     94  H   UNL A   1      38.377  29.493  28.132  1.00  0.00     0.065 H 
ATOM     95  H   UNL A   1      37.598  34.904  35.193  1.00  0.00     0.065 H 
ATOM     96  C   UNL A   1      39.720  33.041  35.587  1.00  0.00     0.037 A 
ATOM     97  C   UNL A   1      41.409  28.716  30.997  1.00  0.00     0.049 A 
ATOM     98  C   UNL A   1      40.788  31.983  35.505  1.00  0.00     0.074 A 
ATOM     99  C   UNL A   1      42.475  27.834  31.011  1.00  0.00    -0.036 A 
ATOM    100  N   UNL A   1      41.440  29.401  32.204  1.00  0.00    -0.354 N 
ATOM    101  N   UNL A   1      41.068  31.163  34.521  1.00  0.00    -0.248 NA
ATOM    102  C   UNL A   1      41.659  31.828  36.679  1.00  0.00    -0.034 C 
ATOM    103  C   UNL A   1      43.118  27.944  32.249  1.00  0.00    -0.036 A 
ATOM    104  H   UNL A   1      42.749  27.204  30.242  1.00  0.00     0.065 H 
ATOM    105  C   UNL A   1      42.493  28.940  32.981  1.00  0.00     0.049 A 
ATOM    106  H   UNL A   1      40.809  30.108  32.469  1.00  0.00     0.167 HD
ATOM    107  C   UNL A   1      42.165  30.422  34.941  1.00  0.00     0.074 A 
ATOM    108  C   UNL A   1      42.509  30.900  36.265  1.00  0.00    -0.034 C 
ATOM    109  H   UNL A   1      41.619  32.315  37.588  1.00  0.00     0.065 H 
ATOM    110  H   UNL A   1      43.921  27.378  32.564  1.00  0.00     0.065 H 
ATOM    111  C   UNL A   1      42.829  29.436  34.291  1.00  0.00     0.037 A 
ATOM    112  H   UNL A   1      43.314  30.562  36.815  1.00  0.00     0.065 H 
BRANCH  93 113
ATOM    113  C   UNL A   1      40.491  28.046  28.745  1.00  0.00     0.064 A 
ATOM    114  C   UNL A   1      41.225  28.418  27.608  1.00  0.00     0.173 A 
ATOM    115  C   UNL A   1      39.852  26.797  28.730  1.00  0.00     0.173 A 
ATOM    116  F   UNL A   1      41.847  29.606  27.564  1.00  0.00    -0.203 F 
ATOM    117  C   UNL A   1      41.293  27.585  26.494  1.00  0.00     0.198 A 
ATOM    118  C   UNL A   1      39.950  25.953  27.628  1.00  0.00     0.198 A 
ATOM    119  F   UNL A   1      39.140  26.388  29.793  1.00  0.00    -0.203 F 
ATOM    120  F   UNL A   1      41.961  27.984  25.402  1.00  0.00    -0.200 F 
ATOM    121  C   UNL A   1      40.665  26.350  26.508  1.00  0.00     0.200 A 
ATOM    122  F   UNL A   1      39.354  24.752  27.650  1.00  0.00    -0.200 F 
ATOM    123  F   UNL A   1      40.743  25.544  25.440  1.00  0.00    -0.200 F 
ENDBRANCH  93 113
BRANCH  96 124
ATOM    124  C   UNL A   1      39.574  33.880  36.806  1.00  0.00     0.064 A 
ATOM    125  C   UNL A   1      38.805  33.445  37.895  1.00  0.00     0.173 A 
ATOM    126  C   UNL A   1      40.181  35.142  36.902  1.00  0.00     0.173 A 
ATOM    127  F   UNL A   1      38.188  32.254  37.845  1.00  0.00    -0.203 F 
ATOM    128  C   UNL A   1      38.623  34.249  39.018  1.00  0.00     0.198 A 
ATOM    129  C   UNL A   1      40.027  35.931  38.040  1.00  0.00     0.198 A 
ATOM    130  F   UNL A   1      40.932  35.604  35.892  1.00  0.00    -0.203 F 
ATOM    131  F   UNL A   1      37.836  33.831  40.018  1.00  0.00    -0.200 F 
ATOM    132  C   UNL A   1      39.239  35.490  39.091  1.00  0.00     0.200 A 
ATOM    133  F   UNL A   1      40.637  37.122  38.114  1.00  0.00    -0.200 F 
ATOM    134  F   UNL A   1      39.064  36.263  40.172  1.00  0.00    -0.200 F 
ENDBRANCH  96 124
BRANCH 111 135
ATOM    135  C   UNL A   1      44.025  28.837  34.977  1.00  0.00     0.064 A 
ATOM    136  C   UNL A   1      43.910  27.735  35.836  1.00  0.00     0.173 A 
ATOM    137  C   UNL A   1      45.309  29.350  34.736  1.00  0.00     0.173 A 
ATOM    138  F   UNL A   1      42.704  27.216  36.112  1.00  0.00    -0.203 F 
ATOM    139  C   UNL A   1      45.033  27.188  36.451  1.00  0.00     0.198 A 
ATOM    140  C   UNL A   1      46.432  28.778  35.324  1.00  0.00     0.198 A 
ATOM    141  F   UNL A   1      45.476  30.398  33.915  1.00  0.00    -0.203 F 
ATOM    142  F   UNL A   1      44.893  26.169  37.311  1.00  0.00    -0.200 F 
ATOM    143  C   UNL A   1      46.294  27.703  36.188  1.00  0.00     0.200 A 
ATOM    144  F   UNL A   1      47.650  29.267  35.054  1.00  0.00    -0.200 F 
ATOM    145  F   UNL A   1      47.374  27.168  36.773  1.00  0.00    -0.200 F 
ENDBRANCH 111 135
ENDBRANCH  76  79
ENDBRANCH  66  69
ENDBRANCH  62  65
ENDBRANCH  59  62
ENDBRANCH  56  59
ENDBRANCH   1  56
TORSDOF 18
ENDMDL
MODEL 7
REMARK VINA RESULT:     -12.0      5.317      9.207
REMARK SMILES C[C@@H](C(=O)NCCCCCCNC(=O)c1ccc(-c2c3nc(c(-c4c(F)c(F)c(F)c(F)c4F)c4ccc([nH]4)c(-c4c(F)c(F)c(F)c(F)c4F)c4nc(c(-c5c(F)c(F)c(F)c(F)c5F)c5ccc2[nH]5)C=C4)C=C3)cc1)c1ccc(C[C@H]2CCCC2=O)cc1-c1ccccc1
REMARK SMILES IDX 8 1 7 4 6 7 5 10 3 11 4 12 2 14 1 16 78 20 79 21 90 22 80 23
REMARK SMILES IDX 89 25 81 26 91 29 92 30 96 31 93 32 95 34 94 36 82 40 83 43
REMARK SMILES IDX 84 44 87 45 85 47 86 50 88 51 9 56 10 59 11 62 12 65 13 66
REMARK SMILES IDX 14 68 15 69 16 70 77 71 17 72 76 74 18 76 19 79 20 80 70 81
REMARK SMILES IDX 21 82 75 83 69 84 71 85 22 86 74 87 68 89 67 91 23 93 55 96
REMARK SMILES IDX 35 97 54 98 36 99 39 100 53 101 72 102 37 103 38 105 52 107
REMARK SMILES IDX 73 108 40 111 24 113 25 114 33 115 26 116 27 117 31 118
REMARK SMILES IDX 34 119 28 120 29 121 32 122 30 123 56 124 57 125 65 126
REMARK SMILES IDX 58 127 59 128 63 129 66 130 60 131 61 132 64 133 62 134
REMARK SMILES IDX 41 135 42 136 50 137 43 138 44 139 48 140 51 141 45 142
REMARK SMILES IDX 46 143 49 144 47 145
REMARK H PARENT 8 2 8 3 7 5 7 6 6 8 6 9 5 13 2 15 1 17 1 18 1 19 79 24 80 27
REMARK H PARENT 89 28 92 33 96 35 93 37 95 38 94 39 82 41 82 42 83 46 84 48
REMARK H PARENT 84 49 85 52 85 53 86 54 86 55 9 57 9 58 10 60 10 61 11 63
REMARK H PARENT 11 64 12 67 16 73 77 75 17 77 76 78 75 88 69 90 71 92 74 94
REMARK H PARENT 68 95 36 104 39 106 72 109 37 110 73 112
REMARK Flexibility Score: inf
ROOT
ATOM      1  C   UNL A   1      37.641  21.795  24.924  1.00  0.00    -0.052 C 
ATOM      2  H   UNL A   1      37.654  21.954  25.982  1.00  0.00     0.027 H 
ATOM      3  H   UNL A   1      38.601  21.905  24.466  1.00  0.00     0.027 H 
ENDROOT
BRANCH   1   4
ATOM      4  C   UNL A   1      36.741  22.865  24.293  1.00  0.00    -0.036 C 
ATOM      5  H   UNL A   1      37.310  23.388  23.554  1.00  0.00     0.028 H 
ATOM      6  H   UNL A   1      35.897  22.350  23.884  1.00  0.00     0.028 H 
BRANCH   4   7
ATOM      7  C   UNL A   1      36.185  23.891  25.284  1.00  0.00     0.017 C 
ATOM      8  H   UNL A   1      36.911  24.662  25.435  1.00  0.00     0.049 H 
ATOM      9  H   UNL A   1      35.283  24.303  24.883  1.00  0.00     0.049 H 
BRANCH   7  10
ATOM     10  N   UNL A   1      35.887  23.265  26.552  1.00  0.00    -0.356 N 
ATOM     11  C   UNL A   1      34.702  22.851  27.085  1.00  0.00     0.227 C 
ATOM     12  O   UNL A   1      34.768  22.470  28.254  1.00  0.00    -0.274 OA
ATOM     13  H   UNL A   1      36.671  23.111  27.128  1.00  0.00     0.163 HD
BRANCH  11  14
ATOM     14  C   UNL A   1      33.421  22.850  26.219  1.00  0.00     0.061 C 
ATOM     15  H   UNL A   1      33.662  23.566  25.459  1.00  0.00     0.045 H 
BRANCH  14  16
ATOM     16  C   UNL A   1      32.188  23.290  27.009  1.00  0.00    -0.049 C 
ATOM     17  H   UNL A   1      31.422  22.550  26.916  1.00  0.00     0.024 H 
ATOM     18  H   UNL A   1      31.833  24.222  26.623  1.00  0.00     0.024 H 
ATOM     19  H   UNL A   1      32.449  23.406  28.040  1.00  0.00     0.024 H 
ENDBRANCH  14  16
BRANCH  14  20
ATOM     20  C   UNL A   1      33.097  21.541  25.481  1.00  0.00    -0.028 A 
ATOM     21  C   UNL A   1      33.072  20.322  26.186  1.00  0.00    -0.057 A 
ATOM     22  C   UNL A   1      32.696  21.528  24.118  1.00  0.00    -0.014 A 
ATOM     23  C   UNL A   1      32.762  19.115  25.565  1.00  0.00    -0.059 A 
ATOM     24  H   UNL A   1      33.291  20.324  27.195  1.00  0.00     0.063 H 
ATOM     25  C   UNL A   1      32.408  20.286  23.502  1.00  0.00    -0.051 A 
ATOM     26  C   UNL A   1      32.457  19.078  24.208  1.00  0.00    -0.047 A 
ATOM     27  H   UNL A   1      32.760  18.243  26.116  1.00  0.00     0.063 H 
ATOM     28  H   UNL A   1      32.155  20.271  22.502  1.00  0.00     0.063 H 
BRANCH  22  29
ATOM     29  C   UNL A   1      32.440  22.757  23.338  1.00  0.00    -0.018 A 
ATOM     30  C   UNL A   1      31.228  23.452  23.517  1.00  0.00    -0.054 A 
ATOM     31  C   UNL A   1      33.372  23.284  22.433  1.00  0.00    -0.054 A 
ATOM     32  C   UNL A   1      30.972  24.649  22.845  1.00  0.00    -0.062 A 
ATOM     33  H   UNL A   1      30.515  23.069  24.158  1.00  0.00     0.063 H 
ATOM     34  C   UNL A   1      33.123  24.491  21.770  1.00  0.00    -0.062 A 
ATOM     35  H   UNL A   1      34.252  22.776  22.254  1.00  0.00     0.063 H 
ATOM     36  C   UNL A   1      31.926  25.174  21.979  1.00  0.00    -0.062 A 
ATOM     37  H   UNL A   1      30.077  25.142  22.990  1.00  0.00     0.062 H 
ATOM     38  H   UNL A   1      33.829  24.877  21.123  1.00  0.00     0.062 H 
ATOM     39  H   UNL A   1      31.747  26.066  21.493  1.00  0.00     0.062 H 
ENDBRANCH  22  29
BRANCH  26  40
ATOM     40  C   UNL A   1      32.157  17.762  23.536  1.00  0.00    -0.018 C 
ATOM     41  H   UNL A   1      31.797  17.973  22.551  1.00  0.00     0.032 H 
ATOM     42  H   UNL A   1      31.447  17.272  24.170  1.00  0.00     0.032 H 
BRANCH  40  43
ATOM     43  C   UNL A   1      33.331  16.785  23.406  1.00  0.00     0.022 C 
ATOM     44  C   UNL A   1      34.724  17.415  23.316  1.00  0.00    -0.043 C 
ATOM     45  C   UNL A   1      33.474  15.870  24.601  1.00  0.00     0.136 C 
ATOM     46  H   UNL A   1      33.066  16.290  22.495  1.00  0.00     0.039 H 
ATOM     47  C   UNL A   1      35.312  17.360  24.721  1.00  0.00    -0.046 C 
ATOM     48  H   UNL A   1      34.650  18.429  22.985  1.00  0.00     0.027 H 
ATOM     49  H   UNL A   1      35.342  16.891  22.616  1.00  0.00     0.027 H 
ATOM     50  C   UNL A   1      34.758  16.091  25.354  1.00  0.00     0.006 C 
ATOM     51  O   UNL A   1      32.641  15.026  24.913  1.00  0.00    -0.299 OA
ATOM     52  H   UNL A   1      35.012  18.219  25.284  1.00  0.00     0.027 H 
ATOM     53  H   UNL A   1      36.381  17.355  24.699  1.00  0.00     0.027 H 
ATOM     54  H   UNL A   1      34.573  16.232  26.398  1.00  0.00     0.035 H 
ATOM     55  H   UNL A   1      35.432  15.261  25.293  1.00  0.00     0.035 H 
ENDBRANCH  40  43
ENDBRANCH  26  40
ENDBRANCH  14  20
ENDBRANCH  11  14
ENDBRANCH   7  10
ENDBRANCH   4   7
ENDBRANCH   1   4
BRANCH   1  56
ATOM     56  C   UNL A   1      37.208  20.349  24.668  1.00  0.00    -0.052 C 
ATOM     57  H   UNL A   1      36.946  20.258  23.635  1.00  0.00     0.027 H 
ATOM     58  H   UNL A   1      36.390  20.157  25.329  1.00  0.00     0.027 H 
BRANCH  56  59
ATOM     59  C   UNL A   1      38.275  19.300  24.982  1.00  0.00    -0.036 C 
ATOM     60  H   UNL A   1      38.785  19.059  24.073  1.00  0.00     0.028 H 
ATOM     61  H   UNL A   1      37.764  18.462  25.408  1.00  0.00     0.028 H 
BRANCH  59  62
ATOM     62  C   UNL A   1      39.311  19.746  26.006  1.00  0.00     0.018 C 
ATOM     63  H   UNL A   1      38.878  19.686  26.984  1.00  0.00     0.049 H 
ATOM     64  H   UNL A   1      39.598  20.750  25.770  1.00  0.00     0.049 H 
BRANCH  62  65
ATOM     65  N   UNL A   1      40.506  18.919  25.970  1.00  0.00    -0.352 N 
ATOM     66  C   UNL A   1      41.820  19.303  26.032  1.00  0.00     0.251 C 
ATOM     67  H   UNL A   1      40.349  17.950  25.891  1.00  0.00     0.163 HD
ATOM     68  O   UNL A   1      42.717  18.499  25.784  1.00  0.00    -0.269 OA
BRANCH  66  69
ATOM     69  C   UNL A   1      42.157  20.699  26.378  1.00  0.00     0.039 A 
ATOM     70  C   UNL A   1      42.402  21.026  27.713  1.00  0.00    -0.049 A 
ATOM     71  C   UNL A   1      42.239  21.678  25.384  1.00  0.00    -0.049 A 
ATOM     72  C   UNL A   1      42.788  22.325  28.044  1.00  0.00    -0.053 A 
ATOM     73  H   UNL A   1      42.300  20.310  28.450  1.00  0.00     0.063 H 
ATOM     74  C   UNL A   1      42.700  22.951  25.705  1.00  0.00    -0.053 A 
ATOM     75  H   UNL A   1      41.958  21.458  24.416  1.00  0.00     0.063 H 
ATOM     76  C   UNL A   1      42.973  23.289  27.039  1.00  0.00    -0.014 A 
ATOM     77  H   UNL A   1      42.937  22.579  29.033  1.00  0.00     0.063 H 
ATOM     78  H   UNL A   1      42.841  23.650  24.959  1.00  0.00     0.063 H 
BRANCH  76  79
ATOM     79  C   UNL A   1      43.451  24.657  27.366  1.00  0.00     0.031 A 
ATOM     80  C   UNL A   1      42.497  25.675  27.927  1.00  0.00     0.074 A 
ATOM     81  C   UNL A   1      44.727  24.998  27.102  1.00  0.00     0.049 A 
ATOM     82  N   UNL A   1      42.706  26.935  28.216  1.00  0.00    -0.248 NA
ATOM     83  C   UNL A   1      41.118  25.226  28.174  1.00  0.00    -0.034 C 
ATOM     84  C   UNL A   1      45.734  24.113  26.516  1.00  0.00    -0.036 A 
ATOM     85  N   UNL A   1      45.393  26.185  27.283  1.00  0.00    -0.354 N 
ATOM     86  C   UNL A   1      41.487  27.427  28.663  1.00  0.00     0.074 A 
ATOM     87  C   UNL A   1      40.529  26.349  28.556  1.00  0.00    -0.034 C 
ATOM     88  H   UNL A   1      40.713  24.281  28.074  1.00  0.00     0.065 H 
ATOM     89  C   UNL A   1      46.895  24.778  26.408  1.00  0.00    -0.036 A 
ATOM     90  H   UNL A   1      45.579  23.133  26.232  1.00  0.00     0.065 H 
ATOM     91  C   UNL A   1      46.705  26.148  26.874  1.00  0.00     0.049 A 
ATOM     92  H   UNL A   1      44.972  26.987  27.668  1.00  0.00     0.167 HD
ATOM     93  C   UNL A   1      41.199  28.660  29.145  1.00  0.00     0.037 A 
ATOM     94  H   UNL A   1      39.521  26.443  28.750  1.00  0.00     0.065 H 
ATOM     95  H   UNL A   1      47.781  24.385  26.052  1.00  0.00     0.065 H 
ATOM     96  C   UNL A   1      47.643  27.114  26.867  1.00  0.00     0.037 A 
ATOM     97  C   UNL A   1      42.162  29.723  29.270  1.00  0.00     0.049 A 
ATOM     98  C   UNL A   1      47.291  28.480  27.391  1.00  0.00     0.074 A 
ATOM     99  C   UNL A   1      41.984  30.990  29.797  1.00  0.00    -0.036 A 
ATOM    100  N   UNL A   1      43.485  29.644  28.858  1.00  0.00    -0.354 N 
ATOM    101  N   UNL A   1      46.153  28.914  27.878  1.00  0.00    -0.248 NA
ATOM    102  C   UNL A   1      48.356  29.493  27.371  1.00  0.00    -0.034 C 
ATOM    103  C   UNL A   1      43.182  31.697  29.652  1.00  0.00    -0.036 A 
ATOM    104  H   UNL A   1      41.117  31.351  30.224  1.00  0.00     0.065 H 
ATOM    105  C   UNL A   1      44.126  30.850  29.095  1.00  0.00     0.049 A 
ATOM    106  H   UNL A   1      43.905  28.849  28.456  1.00  0.00     0.167 HD
ATOM    107  C   UNL A   1      46.375  30.232  28.253  1.00  0.00     0.074 A 
ATOM    108  C   UNL A   1      47.761  30.524  27.951  1.00  0.00    -0.034 C 
ATOM    109  H   UNL A   1      49.317  29.419  27.001  1.00  0.00     0.065 H 
ATOM    110  H   UNL A   1      43.336  32.683  29.915  1.00  0.00     0.065 H 
ATOM    111  C   UNL A   1      45.510  31.121  28.800  1.00  0.00     0.037 A 
ATOM    112  H   UNL A   1      48.225  31.421  28.160  1.00  0.00     0.065 H 
BRANCH  93 113
ATOM    113  C   UNL A   1      39.787  28.931  29.575  1.00  0.00     0.064 A 
ATOM    114  C   UNL A   1      38.828  29.436  28.683  1.00  0.00     0.173 A 
ATOM    115  C   UNL A   1      39.371  28.635  30.882  1.00  0.00     0.173 A 
ATOM    116  F   UNL A   1      39.173  29.746  27.424  1.00  0.00    -0.203 F 
ATOM    117  C   UNL A   1      37.515  29.659  29.091  1.00  0.00     0.198 A 
ATOM    118  C   UNL A   1      38.050  28.828  31.277  1.00  0.00     0.198 A 
ATOM    119  F   UNL A   1      40.245  28.144  31.776  1.00  0.00    -0.203 F 
ATOM    120  F   UNL A   1      36.631  30.188  28.234  1.00  0.00    -0.200 F 
ATOM    121  C   UNL A   1      37.125  29.346  30.384  1.00  0.00     0.200 A 
ATOM    122  F   UNL A   1      37.671  28.510  32.523  1.00  0.00    -0.200 F 
ATOM    123  F   UNL A   1      35.858  29.550  30.771  1.00  0.00    -0.200 F 
ENDBRANCH  93 113
BRANCH  96 124
ATOM    124  C   UNL A   1      49.011  26.823  26.361  1.00  0.00     0.064 A 
ATOM    125  C   UNL A   1      49.372  27.124  25.039  1.00  0.00     0.173 A 
ATOM    126  C   UNL A   1      49.980  26.221  27.179  1.00  0.00     0.173 A 
ATOM    127  F   UNL A   1      48.475  27.682  24.212  1.00  0.00    -0.203 F 
ATOM    128  C   UNL A   1      50.636  26.807  24.546  1.00  0.00     0.198 A 
ATOM    129  C   UNL A   1      51.255  25.936  26.694  1.00  0.00     0.198 A 
ATOM    130  F   UNL A   1      49.690  25.919  28.452  1.00  0.00    -0.203 F 
ATOM    131  F   UNL A   1      50.932  27.052  23.263  1.00  0.00    -0.200 F 
ATOM    132  C   UNL A   1      51.578  26.217  25.376  1.00  0.00     0.200 A 
ATOM    133  F   UNL A   1      52.168  25.382  27.504  1.00  0.00    -0.200 F 
ATOM    134  F   UNL A   1      52.793  25.913  24.902  1.00  0.00    -0.200 F 
ENDBRANCH  96 124
BRANCH 111 135
ATOM    135  C   UNL A   1      46.046  32.480  29.152  1.00  0.00     0.064 A 
ATOM    136  C   UNL A   1      46.642  32.742  30.394  1.00  0.00     0.173 A 
ATOM    137  C   UNL A   1      45.999  33.522  28.213  1.00  0.00     0.173 A 
ATOM    138  F   UNL A   1      46.699  31.785  31.331  1.00  0.00    -0.203 F 
ATOM    139  C   UNL A   1      47.144  34.006  30.693  1.00  0.00     0.198 A 
ATOM    140  C   UNL A   1      46.534  34.774  28.503  1.00  0.00     0.198 A 
ATOM    141  F   UNL A   1      45.448  33.322  27.006  1.00  0.00    -0.203 F 
ATOM    142  F   UNL A   1      47.660  34.249  31.906  1.00  0.00    -0.200 F 
ATOM    143  C   UNL A   1      47.098  35.018  29.745  1.00  0.00     0.200 A 
ATOM    144  F   UNL A   1      46.504  35.744  27.579  1.00  0.00    -0.200 F 
ATOM    145  F   UNL A   1      47.591  36.230  30.032  1.00  0.00    -0.200 F 
ENDBRANCH 111 135
ENDBRANCH  76  79
ENDBRANCH  66  69
ENDBRANCH  62  65
ENDBRANCH  59  62
ENDBRANCH  56  59
ENDBRANCH   1  56
TORSDOF 18
ENDMDL
MODEL 8
REMARK VINA RESULT:     -12.0      4.740     10.529
REMARK SMILES C[C@@H](C(=O)NCCCCCCNC(=O)c1ccc(-c2c3nc(c(-c4c(F)c(F)c(F)c(F)c4F)c4ccc([nH]4)c(-c4c(F)c(F)c(F)c(F)c4F)c4nc(c(-c5c(F)c(F)c(F)c(F)c5F)c5ccc2[nH]5)C=C4)C=C3)cc1)c1ccc(C[C@H]2CCCC2=O)cc1-c1ccccc1
REMARK SMILES IDX 8 1 7 4 6 7 5 10 3 11 4 12 2 14 1 16 78 20 79 21 90 22 80 23
REMARK SMILES IDX 89 25 81 26 91 29 92 30 96 31 93 32 95 34 94 36 82 40 83 43
REMARK SMILES IDX 84 44 87 45 85 47 86 50 88 51 9 56 10 59 11 62 12 65 13 66
REMARK SMILES IDX 14 68 15 69 16 70 77 71 17 72 76 74 18 76 19 79 20 80 70 81
REMARK SMILES IDX 21 82 75 83 69 84 71 85 22 86 74 87 68 89 67 91 23 93 55 96
REMARK SMILES IDX 35 97 54 98 36 99 39 100 53 101 72 102 37 103 38 105 52 107
REMARK SMILES IDX 73 108 40 111 24 113 25 114 33 115 26 116 27 117 31 118
REMARK SMILES IDX 34 119 28 120 29 121 32 122 30 123 56 124 57 125 65 126
REMARK SMILES IDX 58 127 59 128 63 129 66 130 60 131 61 132 64 133 62 134
REMARK SMILES IDX 41 135 42 136 50 137 43 138 44 139 48 140 51 141 45 142
REMARK SMILES IDX 46 143 49 144 47 145
REMARK H PARENT 8 2 8 3 7 5 7 6 6 8 6 9 5 13 2 15 1 17 1 18 1 19 79 24 80 27
REMARK H PARENT 89 28 92 33 96 35 93 37 95 38 94 39 82 41 82 42 83 46 84 48
REMARK H PARENT 84 49 85 52 85 53 86 54 86 55 9 57 9 58 10 60 10 61 11 63
REMARK H PARENT 11 64 12 67 16 73 77 75 17 77 76 78 75 88 69 90 71 92 74 94
REMARK H PARENT 68 95 36 104 39 106 72 109 37 110 73 112
REMARK Flexibility Score: inf
ROOT
ATOM      1  C   UNL A   1      35.679  20.299  25.049  1.00  0.00    -0.052 C 
ATOM      2  H   UNL A   1      35.623  20.613  26.071  1.00  0.00     0.027 H 
ATOM      3  H   UNL A   1      36.062  21.053  24.394  1.00  0.00     0.027 H 
ENDROOT
BRANCH   1   4
ATOM      4  C   UNL A   1      34.255  19.994  24.566  1.00  0.00    -0.036 C 
ATOM      5  H   UNL A   1      33.945  20.786  23.917  1.00  0.00     0.028 H 
ATOM      6  H   UNL A   1      34.298  19.044  24.076  1.00  0.00     0.028 H 
BRANCH   4   7
ATOM      7  C   UNL A   1      33.221  19.860  25.686  1.00  0.00     0.017 C 
ATOM      8  H   UNL A   1      32.928  18.835  25.773  1.00  0.00     0.049 H 
ATOM      9  H   UNL A   1      33.658  20.200  26.601  1.00  0.00     0.049 H 
BRANCH   7  10
ATOM     10  N   UNL A   1      32.054  20.664  25.401  1.00  0.00    -0.356 N 
ATOM     11  C   UNL A   1      31.762  21.957  25.722  1.00  0.00     0.227 C 
ATOM     12  O   UNL A   1      30.617  22.312  25.442  1.00  0.00    -0.274 OA
ATOM     13  H   UNL A   1      31.352  20.201  24.890  1.00  0.00     0.163 HD
BRANCH  11  14
ATOM     14  C   UNL A   1      32.846  22.863  26.350  1.00  0.00     0.061 C 
ATOM     15  H   UNL A   1      33.741  22.495  25.891  1.00  0.00     0.045 H 
BRANCH  14  16
ATOM     16  C   UNL A   1      32.915  22.713  27.871  1.00  0.00    -0.049 C 
ATOM     17  H   UNL A   1      32.616  23.630  28.333  1.00  0.00     0.024 H 
ATOM     18  H   UNL A   1      33.918  22.478  28.160  1.00  0.00     0.024 H 
ATOM     19  H   UNL A   1      32.260  21.926  28.181  1.00  0.00     0.024 H 
ENDBRANCH  14  16
BRANCH  14  20
ATOM     20  C   UNL A   1      32.774  24.358  26.002  1.00  0.00    -0.028 A 
ATOM     21  C   UNL A   1      31.737  25.154  26.525  1.00  0.00    -0.057 A 
ATOM     22  C   UNL A   1      33.798  25.006  25.258  1.00  0.00    -0.014 A 
ATOM     23  C   UNL A   1      31.643  26.517  26.255  1.00  0.00    -0.059 A 
ATOM     24  H   UNL A   1      31.024  24.714  27.128  1.00  0.00     0.063 H 
ATOM     25  C   UNL A   1      33.668  26.387  24.977  1.00  0.00    -0.051 A 
ATOM     26  C   UNL A   1      32.590  27.144  25.451  1.00  0.00    -0.047 A 
ATOM     27  H   UNL A   1      30.866  27.065  26.654  1.00  0.00     0.063 H 
ATOM     28  H   UNL A   1      34.390  26.850  24.403  1.00  0.00     0.063 H 
BRANCH  22  29
ATOM     29  C   UNL A   1      35.058  24.340  24.866  1.00  0.00    -0.018 A 
ATOM     30  C   UNL A   1      36.117  24.263  25.792  1.00  0.00    -0.054 A 
ATOM     31  C   UNL A   1      35.241  23.751  23.608  1.00  0.00    -0.054 A 
ATOM     32  C   UNL A   1      37.302  23.591  25.484  1.00  0.00    -0.062 A 
ATOM     33  H   UNL A   1      36.016  24.712  26.715  1.00  0.00     0.063 H 
ATOM     34  C   UNL A   1      36.422  23.065  23.303  1.00  0.00    -0.062 A 
ATOM     35  H   UNL A   1      34.496  23.824  22.898  1.00  0.00     0.063 H 
ATOM     36  C   UNL A   1      37.449  22.982  24.241  1.00  0.00    -0.062 A 
ATOM     37  H   UNL A   1      38.066  23.547  26.176  1.00  0.00     0.062 H 
ATOM     38  H   UNL A   1      36.532  22.618  22.379  1.00  0.00     0.062 H 
ATOM     39  H   UNL A   1      38.316  22.471  24.016  1.00  0.00     0.062 H 
ENDBRANCH  22  29
BRANCH  26  40
ATOM     40  C   UNL A   1      32.461  28.613  25.135  1.00  0.00    -0.018 C 
ATOM     41  H   UNL A   1      33.431  29.055  25.235  1.00  0.00     0.032 H 
ATOM     42  H   UNL A   1      31.731  28.991  25.821  1.00  0.00     0.032 H 
BRANCH  40  43
ATOM     43  C   UNL A   1      31.930  28.961  23.740  1.00  0.00     0.022 C 
ATOM     44  C   UNL A   1      31.927  27.821  22.718  1.00  0.00    -0.043 C 
ATOM     45  C   UNL A   1      30.478  29.382  23.749  1.00  0.00     0.136 C 
ATOM     46  H   UNL A   1      32.617  29.733  23.462  1.00  0.00     0.039 H 
ATOM     47  C   UNL A   1      30.513  27.252  22.712  1.00  0.00    -0.046 C 
ATOM     48  H   UNL A   1      32.628  27.066  23.003  1.00  0.00     0.027 H 
ATOM     49  H   UNL A   1      32.208  28.171  21.746  1.00  0.00     0.027 H 
ATOM     50  C   UNL A   1      29.590  28.430  22.994  1.00  0.00     0.006 C 
ATOM     51  O   UNL A   1      30.070  30.401  24.297  1.00  0.00    -0.299 OA
ATOM     52  H   UNL A   1      30.408  26.507  23.472  1.00  0.00     0.027 H 
ATOM     53  H   UNL A   1      30.281  26.785  21.778  1.00  0.00     0.027 H 
ATOM     54  H   UNL A   1      28.754  28.129  23.589  1.00  0.00     0.035 H 
ATOM     55  H   UNL A   1      29.170  28.858  22.107  1.00  0.00     0.035 H 
ENDBRANCH  40  43
ENDBRANCH  26  40
ENDBRANCH  14  20
ENDBRANCH  11  14
ENDBRANCH   7  10
ENDBRANCH   4   7
ENDBRANCH   1   4
BRANCH   1  56
ATOM     56  C   UNL A   1      36.658  19.125  24.967  1.00  0.00    -0.052 C 
ATOM     57  H   UNL A   1      36.301  18.445  24.223  1.00  0.00     0.027 H 
ATOM     58  H   UNL A   1      36.697  18.696  25.946  1.00  0.00     0.027 H 
BRANCH  56  59
ATOM     59  C   UNL A   1      38.091  19.515  24.608  1.00  0.00    -0.036 C 
ATOM     60  H   UNL A   1      38.054  20.286  23.868  1.00  0.00     0.028 H 
ATOM     61  H   UNL A   1      38.572  18.625  24.258  1.00  0.00     0.028 H 
BRANCH  59  62
ATOM     62  C   UNL A   1      38.917  20.023  25.783  1.00  0.00     0.018 C 
ATOM     63  H   UNL A   1      38.300  20.039  26.658  1.00  0.00     0.049 H 
ATOM     64  H   UNL A   1      39.270  21.004  25.540  1.00  0.00     0.049 H 
BRANCH  62  65
ATOM     65  N   UNL A   1      40.076  19.183  26.041  1.00  0.00    -0.352 N 
ATOM     66  C   UNL A   1      41.362  19.557  26.333  1.00  0.00     0.251 C 
ATOM     67  H   UNL A   1      39.913  18.213  26.000  1.00  0.00     0.163 HD
ATOM     68  O   UNL A   1      42.270  18.727  26.322  1.00  0.00    -0.269 OA
BRANCH  66  69
ATOM     69  C   UNL A   1      41.659  20.970  26.640  1.00  0.00     0.039 A 
ATOM     70  C   UNL A   1      42.091  21.308  27.924  1.00  0.00    -0.049 A 
ATOM     71  C   UNL A   1      41.519  21.956  25.660  1.00  0.00    -0.049 A 
ATOM     72  C   UNL A   1      42.440  22.629  28.208  1.00  0.00    -0.053 A 
ATOM     73  H   UNL A   1      42.153  20.585  28.658  1.00  0.00     0.063 H 
ATOM     74  C   UNL A   1      41.942  23.255  25.921  1.00  0.00    -0.053 A 
ATOM     75  H   UNL A   1      41.103  21.722  24.745  1.00  0.00     0.063 H 
ATOM     76  C   UNL A   1      42.401  23.607  27.199  1.00  0.00    -0.014 A 
ATOM     77  H   UNL A   1      42.728  22.889  29.164  1.00  0.00     0.063 H 
ATOM     78  H   UNL A   1      41.917  23.965  25.171  1.00  0.00     0.063 H 
BRANCH  76  79
ATOM     79  C   UNL A   1      42.836  25.002  27.465  1.00  0.00     0.031 A 
ATOM     80  C   UNL A   1      44.248  25.422  27.165  1.00  0.00     0.074 A 
ATOM     81  C   UNL A   1      41.976  25.871  28.031  1.00  0.00     0.049 A 
ATOM     82  N   UNL A   1      44.835  26.572  27.384  1.00  0.00    -0.248 NA
ATOM     83  C   UNL A   1      45.127  24.409  26.559  1.00  0.00    -0.034 C 
ATOM     84  C   UNL A   1      40.596  25.569  28.410  1.00  0.00    -0.036 A 
ATOM     85  N   UNL A   1      42.140  27.184  28.396  1.00  0.00    -0.354 N 
ATOM     86  C   UNL A   1      46.147  26.415  26.958  1.00  0.00     0.074 A 
ATOM     87  C   UNL A   1      46.288  25.044  26.519  1.00  0.00    -0.034 C 
ATOM     88  H   UNL A   1      44.898  23.451  26.248  1.00  0.00     0.065 H 
ATOM     89  C   UNL A   1      40.031  26.670  28.931  1.00  0.00    -0.036 A 
ATOM     90  H   UNL A   1      40.129  24.656  28.295  1.00  0.00     0.065 H 
ATOM     91  C   UNL A   1      41.021  27.742  28.965  1.00  0.00     0.049 A 
ATOM     92  H   UNL A   1      42.981  27.680  28.263  1.00  0.00     0.167 HD
ATOM     93  C   UNL A   1      47.137  27.338  26.913  1.00  0.00     0.037 A 
ATOM     94  H   UNL A   1      47.177  24.617  26.215  1.00  0.00     0.065 H 
ATOM     95  H   UNL A   1      39.055  26.746  29.257  1.00  0.00     0.065 H 
ATOM     96  C   UNL A   1      40.820  28.976  29.466  1.00  0.00     0.037 A 
ATOM     97  C   UNL A   1      46.984  28.707  27.331  1.00  0.00     0.049 A 
ATOM     98  C   UNL A   1      41.944  29.977  29.420  1.00  0.00     0.074 A 
ATOM     99  C   UNL A   1      47.909  29.734  27.274  1.00  0.00    -0.036 A 
ATOM    100  N   UNL A   1      45.830  29.239  27.890  1.00  0.00    -0.354 N 
ATOM    101  N   UNL A   1      43.159  29.837  28.949  1.00  0.00    -0.248 NA
ATOM    102  C   UNL A   1      41.665  31.311  29.970  1.00  0.00    -0.034 C 
ATOM    103  C   UNL A   1      47.336  30.873  27.849  1.00  0.00    -0.036 A 
ATOM    104  H   UNL A   1      48.858  29.671  26.874  1.00  0.00     0.065 H 
ATOM    105  C   UNL A   1      46.031  30.574  28.206  1.00  0.00     0.049 A 
ATOM    106  H   UNL A   1      44.994  28.741  28.040  1.00  0.00     0.167 HD
ATOM    107  C   UNL A   1      43.777  31.070  29.112  1.00  0.00     0.074 A 
ATOM    108  C   UNL A   1      42.797  31.951  29.713  1.00  0.00    -0.034 C 
ATOM    109  H   UNL A   1      40.811  31.658  30.434  1.00  0.00     0.065 H 
ATOM    110  H   UNL A   1      47.805  31.781  27.986  1.00  0.00     0.065 H 
ATOM    111  C   UNL A   1      45.041  31.440  28.792  1.00  0.00     0.037 A 
ATOM    112  H   UNL A   1      42.959  32.949  29.915  1.00  0.00     0.065 H 
BRANCH  93 113
ATOM    113  C   UNL A   1      48.476  26.902  26.393  1.00  0.00     0.064 A 
ATOM    114  C   UNL A   1      48.821  27.041  25.039  1.00  0.00     0.173 A 
ATOM    115  C   UNL A   1      49.446  26.386  27.265  1.00  0.00     0.173 A 
ATOM    116  F   UNL A   1      47.929  27.519  24.159  1.00  0.00    -0.203 F 
ATOM    117  C   UNL A   1      50.076  26.653  24.576  1.00  0.00     0.198 A 
ATOM    118  C   UNL A   1      50.710  26.032  26.804  1.00  0.00     0.198 A 
ATOM    119  F   UNL A   1      49.171  26.237  28.571  1.00  0.00    -0.203 F 
ATOM    120  F   UNL A   1      50.365  26.751  23.271  1.00  0.00    -0.200 F 
ATOM    121  C   UNL A   1      51.023  26.159  25.460  1.00  0.00     0.200 A 
ATOM    122  F   UNL A   1      51.630  25.568  27.663  1.00  0.00    -0.200 F 
ATOM    123  F   UNL A   1      52.235  25.799  25.014  1.00  0.00    -0.200 F 
ENDBRANCH  93 113
BRANCH  96 124
ATOM    124  C   UNL A   1      39.499  29.343  30.042  1.00  0.00     0.064 A 
ATOM    125  C   UNL A   1      39.209  29.107  31.394  1.00  0.00     0.173 A 
ATOM    126  C   UNL A   1      38.491  29.916  29.252  1.00  0.00     0.173 A 
ATOM    127  F   UNL A   1      40.133  28.542  32.187  1.00  0.00    -0.203 F 
ATOM    128  C   UNL A   1      37.956  29.402  31.926  1.00  0.00     0.198 A 
ATOM    129  C   UNL A   1      37.249  30.242  29.793  1.00  0.00     0.198 A 
ATOM    130  F   UNL A   1      38.716  30.168  27.954  1.00  0.00    -0.203 F 
ATOM    131  F   UNL A   1      37.689  29.112  33.206  1.00  0.00    -0.200 F 
ATOM    132  C   UNL A   1      36.978  29.974  31.125  1.00  0.00     0.200 A 
ATOM    133  F   UNL A   1      36.313  30.811  29.020  1.00  0.00    -0.200 F 
ATOM    134  F   UNL A   1      35.773  30.258  31.637  1.00  0.00    -0.200 F 
ENDBRANCH  96 124
BRANCH 111 135
ATOM    135  C   UNL A   1      45.426  32.871  29.041  1.00  0.00     0.064 A 
ATOM    136  C   UNL A   1      45.186  33.878  28.095  1.00  0.00     0.173 A 
ATOM    137  C   UNL A   1      46.004  33.245  30.265  1.00  0.00     0.173 A 
ATOM    138  F   UNL A   1      44.649  33.573  26.904  1.00  0.00    -0.203 F 
ATOM    139  C   UNL A   1      45.539  35.200  28.352  1.00  0.00     0.198 A 
ATOM    140  C   UNL A   1      46.321  34.573  30.532  1.00  0.00     0.198 A 
ATOM    141  F   UNL A   1      46.245  32.323  31.209  1.00  0.00    -0.203 F 
ATOM    142  F   UNL A   1      45.350  36.137  27.412  1.00  0.00    -0.200 F 
ATOM    143  C   UNL A   1      46.097  35.549  29.574  1.00  0.00     0.200 A 
ATOM    144  F   UNL A   1      46.845  34.908  31.719  1.00  0.00    -0.200 F 
ATOM    145  F   UNL A   1      46.427  36.823  29.823  1.00  0.00    -0.200 F 
ENDBRANCH 111 135
ENDBRANCH  76  79
ENDBRANCH  66  69
ENDBRANCH  62  65
ENDBRANCH  59  62
ENDBRANCH  56  59
ENDBRANCH   1  56
TORSDOF 18
ENDMDL
MODEL 9
REMARK VINA RESULT:     -11.9      4.587      8.582
REMARK SMILES C[C@@H](C(=O)NCCCCCCNC(=O)c1ccc(-c2c3nc(c(-c4c(F)c(F)c(F)c(F)c4F)c4ccc([nH]4)c(-c4c(F)c(F)c(F)c(F)c4F)c4nc(c(-c5c(F)c(F)c(F)c(F)c5F)c5ccc2[nH]5)C=C4)C=C3)cc1)c1ccc(C[C@H]2CCCC2=O)cc1-c1ccccc1
REMARK SMILES IDX 8 1 7 4 6 7 5 10 3 11 4 12 2 14 1 16 78 20 79 21 90 22 80 23
REMARK SMILES IDX 89 25 81 26 91 29 92 30 96 31 93 32 95 34 94 36 82 40 83 43
REMARK SMILES IDX 84 44 87 45 85 47 86 50 88 51 9 56 10 59 11 62 12 65 13 66
REMARK SMILES IDX 14 68 15 69 16 70 77 71 17 72 76 74 18 76 19 79 20 80 70 81
REMARK SMILES IDX 21 82 75 83 69 84 71 85 22 86 74 87 68 89 67 91 23 93 55 96
REMARK SMILES IDX 35 97 54 98 36 99 39 100 53 101 72 102 37 103 38 105 52 107
REMARK SMILES IDX 73 108 40 111 24 113 25 114 33 115 26 116 27 117 31 118
REMARK SMILES IDX 34 119 28 120 29 121 32 122 30 123 56 124 57 125 65 126
REMARK SMILES IDX 58 127 59 128 63 129 66 130 60 131 61 132 64 133 62 134
REMARK SMILES IDX 41 135 42 136 50 137 43 138 44 139 48 140 51 141 45 142
REMARK SMILES IDX 46 143 49 144 47 145
REMARK H PARENT 8 2 8 3 7 5 7 6 6 8 6 9 5 13 2 15 1 17 1 18 1 19 79 24 80 27
REMARK H PARENT 89 28 92 33 96 35 93 37 95 38 94 39 82 41 82 42 83 46 84 48
REMARK H PARENT 84 49 85 52 85 53 86 54 86 55 9 57 9 58 10 60 10 61 11 63
REMARK H PARENT 11 64 12 67 16 73 77 75 17 77 76 78 75 88 69 90 71 92 74 94
REMARK H PARENT 68 95 36 104 39 106 72 109 37 110 73 112
REMARK Flexibility Score: inf
ROOT
ATOM      1  C   UNL A   1      36.741  34.277  31.632  1.00  0.00    -0.052 C 
ATOM      2  H   UNL A   1      37.231  33.394  31.278  1.00  0.00     0.027 H 
ATOM      3  H   UNL A   1      37.050  35.166  31.124  1.00  0.00     0.027 H 
ENDROOT
BRANCH   1   4
ATOM      4  C   UNL A   1      37.117  34.472  33.106  1.00  0.00    -0.036 C 
ATOM      5  H   UNL A   1      38.051  33.981  33.281  1.00  0.00     0.028 H 
ATOM      6  H   UNL A   1      37.163  35.529  33.270  1.00  0.00     0.028 H 
BRANCH   4   7
ATOM      7  C   UNL A   1      36.093  33.922  34.100  1.00  0.00     0.017 C 
ATOM      8  H   UNL A   1      35.596  34.738  34.581  1.00  0.00     0.049 H 
ATOM      9  H   UNL A   1      35.387  33.319  33.569  1.00  0.00     0.049 H 
BRANCH   7  10
ATOM     10  N   UNL A   1      36.741  33.105  35.101  1.00  0.00    -0.356 N 
ATOM     11  C   UNL A   1      37.461  31.953  34.982  1.00  0.00     0.227 C 
ATOM     12  O   UNL A   1      37.774  31.428  36.052  1.00  0.00    -0.274 OA
ATOM     13  H   UNL A   1      36.647  33.436  36.024  1.00  0.00     0.163 HD
BRANCH  11  14
ATOM     14  C   UNL A   1      37.855  31.427  33.583  1.00  0.00     0.061 C 
ATOM     15  H   UNL A   1      38.127  32.328  33.072  1.00  0.00     0.045 H 
BRANCH  14  16
ATOM     16  C   UNL A   1      36.689  30.733  32.877  1.00  0.00    -0.049 C 
ATOM     17  H   UNL A   1      36.844  29.675  32.888  1.00  0.00     0.024 H 
ATOM     18  H   UNL A   1      36.632  31.075  31.865  1.00  0.00     0.024 H 
ATOM     19  H   UNL A   1      35.776  30.966  33.385  1.00  0.00     0.024 H 
ENDBRANCH  14  16
BRANCH  14  20
ATOM     20  C   UNL A   1      39.089  30.513  33.518  1.00  0.00    -0.028 A 
ATOM     21  C   UNL A   1      38.979  29.219  32.973  1.00  0.00    -0.057 A 
ATOM     22  C   UNL A   1      40.384  30.972  33.883  1.00  0.00    -0.014 A 
ATOM     23  C   UNL A   1      40.073  28.364  32.874  1.00  0.00    -0.059 A 
ATOM     24  H   UNL A   1      38.059  28.895  32.636  1.00  0.00     0.063 H 
ATOM     25  C   UNL A   1      41.476  30.077  33.795  1.00  0.00    -0.051 A 
ATOM     26  C   UNL A   1      41.329  28.770  33.313  1.00  0.00    -0.047 A 
ATOM     27  H   UNL A   1      39.951  27.421  32.472  1.00  0.00     0.063 H 
ATOM     28  H   UNL A   1      42.410  30.397  34.096  1.00  0.00     0.063 H 
BRANCH  22  29
ATOM     29  C   UNL A   1      40.674  32.379  34.231  1.00  0.00    -0.018 A 
ATOM     30  C   UNL A   1      40.609  33.369  33.231  1.00  0.00    -0.054 A 
ATOM     31  C   UNL A   1      40.992  32.783  35.536  1.00  0.00    -0.054 A 
ATOM     32  C   UNL A   1      40.817  34.716  33.530  1.00  0.00    -0.062 A 
ATOM     33  H   UNL A   1      40.402  33.092  32.259  1.00  0.00     0.063 H 
ATOM     34  C   UNL A   1      41.187  34.135  35.839  1.00  0.00    -0.062 A 
ATOM     35  H   UNL A   1      41.083  32.075  36.281  1.00  0.00     0.063 H 
ATOM     36  C   UNL A   1      41.096  35.100  34.838  1.00  0.00    -0.062 A 
ATOM     37  H   UNL A   1      40.765  35.426  32.782  1.00  0.00     0.062 H 
ATOM     38  H   UNL A   1      41.399  34.418  36.809  1.00  0.00     0.062 H 
ATOM     39  H   UNL A   1      41.234  36.097  35.066  1.00  0.00     0.062 H 
ENDBRANCH  22  29
BRANCH  26  40
ATOM     40  C   UNL A   1      42.501  27.825  33.234  1.00  0.00    -0.018 C 
ATOM     41  H   UNL A   1      43.325  28.361  32.810  1.00  0.00     0.032 H 
ATOM     42  H   UNL A   1      42.163  26.997  32.644  1.00  0.00     0.032 H 
BRANCH  40  43
ATOM     43  C   UNL A   1      42.971  27.217  34.560  1.00  0.00     0.022 C 
ATOM     44  C   UNL A   1      41.893  27.018  35.629  1.00  0.00    -0.043 C 
ATOM     45  C   UNL A   1      43.526  25.819  34.406  1.00  0.00     0.136 C 
ATOM     46  H   UNL A   1      43.690  27.951  34.861  1.00  0.00     0.039 H 
ATOM     47  C   UNL A   1      41.460  25.560  35.537  1.00  0.00    -0.046 C 
ATOM     48  H   UNL A   1      41.062  27.663  35.439  1.00  0.00     0.027 H 
ATOM     49  H   UNL A   1      42.266  27.251  36.604  1.00  0.00     0.027 H 
ATOM     50  C   UNL A   1      42.702  24.783  35.123  1.00  0.00     0.006 C 
ATOM     51  O   UNL A   1      44.547  25.559  33.779  1.00  0.00    -0.299 OA
ATOM     52  H   UNL A   1      40.688  25.446  34.805  1.00  0.00     0.027 H 
ATOM     53  H   UNL A   1      41.067  25.207  36.467  1.00  0.00     0.027 H 
ATOM     54  H   UNL A   1      42.450  23.973  34.472  1.00  0.00     0.035 H 
ATOM     55  H   UNL A   1      43.214  24.335  35.950  1.00  0.00     0.035 H 
ENDBRANCH  40  43
ENDBRANCH  26  40
ENDBRANCH  14  20
ENDBRANCH  11  14
ENDBRANCH   7  10
ENDBRANCH   4   7
ENDBRANCH   1   4
BRANCH   1  56
ATOM     56  C   UNL A   1      35.242  34.128  31.358  1.00  0.00    -0.052 C 
ATOM     57  H   UNL A   1      34.949  34.902  30.681  1.00  0.00     0.027 H 
ATOM     58  H   UNL A   1      34.754  34.191  32.308  1.00  0.00     0.027 H 
BRANCH  56  59
ATOM     59  C   UNL A   1      34.836  32.786  30.751  1.00  0.00    -0.036 C 
ATOM     60  H   UNL A   1      33.775  32.685  30.839  1.00  0.00     0.028 H 
ATOM     61  H   UNL A   1      35.372  32.032  31.289  1.00  0.00     0.028 H 
BRANCH  59  62
ATOM     62  C   UNL A   1      35.210  32.622  29.283  1.00  0.00     0.018 C 
ATOM     63  H   UNL A   1      36.236  32.323  29.219  1.00  0.00     0.049 H 
ATOM     64  H   UNL A   1      35.049  33.561  28.794  1.00  0.00     0.049 H 
BRANCH  62  65
ATOM     65  N   UNL A   1      34.389  31.625  28.617  1.00  0.00    -0.352 N 
ATOM     66  C   UNL A   1      34.768  30.437  28.048  1.00  0.00     0.251 C 
ATOM     67  H   UNL A   1      33.427  31.831  28.569  1.00  0.00     0.163 HD
ATOM     68  O   UNL A   1      33.983  29.802  27.345  1.00  0.00    -0.269 OA
BRANCH  66  69
ATOM     69  C   UNL A   1      36.138  29.929  28.265  1.00  0.00     0.039 A 
ATOM     70  C   UNL A   1      37.081  30.070  27.246  1.00  0.00    -0.049 A 
ATOM     71  C   UNL A   1      36.490  29.326  29.475  1.00  0.00    -0.049 A 
ATOM     72  C   UNL A   1      38.396  29.657  27.462  1.00  0.00    -0.053 A 
ATOM     73  H   UNL A   1      36.808  30.477  26.338  1.00  0.00     0.063 H 
ATOM     74  C   UNL A   1      37.818  28.988  29.718  1.00  0.00    -0.053 A 
ATOM     75  H   UNL A   1      35.768  29.131  30.187  1.00  0.00     0.063 H 
ATOM     76  C   UNL A   1      38.783  29.144  28.712  1.00  0.00    -0.014 A 
ATOM     77  H   UNL A   1      39.088  29.728  26.700  1.00  0.00     0.063 H 
ATOM     78  H   UNL A   1      38.094  28.620  30.642  1.00  0.00     0.063 H 
BRANCH  76  79
ATOM     79  C   UNL A   1      40.193  28.766  28.983  1.00  0.00     0.031 A 
ATOM     80  C   UNL A   1      41.116  29.733  29.671  1.00  0.00     0.074 A 
ATOM     81  C   UNL A   1      40.657  27.575  28.557  1.00  0.00     0.049 A 
ATOM     82  N   UNL A   1      42.392  29.614  29.939  1.00  0.00    -0.248 NA
ATOM     83  C   UNL A   1      40.534  31.018  30.093  1.00  0.00    -0.034 C 
ATOM     84  C   UNL A   1      39.872  26.570  27.838  1.00  0.00    -0.036 A 
ATOM     85  N   UNL A   1      41.905  27.011  28.657  1.00  0.00    -0.354 N 
ATOM     86  C   UNL A   1      42.764  30.806  30.545  1.00  0.00     0.074 A 
ATOM     87  C   UNL A   1      41.596  31.659  30.556  1.00  0.00    -0.034 C 
ATOM     88  H   UNL A   1      39.553  31.336  30.040  1.00  0.00     0.065 H 
ATOM     89  C   UNL A   1      40.648  25.504  27.584  1.00  0.00    -0.036 A 
ATOM     90  H   UNL A   1      38.880  26.664  27.570  1.00  0.00     0.065 H 
ATOM     91  C   UNL A   1      41.996  25.767  28.081  1.00  0.00     0.049 A 
ATOM     92  H   UNL A   1      42.664  27.456  29.100  1.00  0.00     0.167 HD
ATOM     93  C   UNL A   1      43.965  31.149  31.069  1.00  0.00     0.037 A 
ATOM     94  H   UNL A   1      41.591  32.638  30.882  1.00  0.00     0.065 H 
ATOM     95  H   UNL A   1      40.342  24.639  27.113  1.00  0.00     0.065 H 
ATOM     96  C   UNL A   1      43.049  24.937  27.958  1.00  0.00     0.037 A 
ATOM     97  C   UNL A   1      45.119  30.287  31.074  1.00  0.00     0.049 A 
ATOM     98  C   UNL A   1      44.377  25.351  28.533  1.00  0.00     0.074 A 
ATOM     99  C   UNL A   1      46.365  30.520  31.629  1.00  0.00    -0.036 A 
ATOM    100  N   UNL A   1      45.168  29.029  30.492  1.00  0.00    -0.354 N 
ATOM    101  N   UNL A   1      44.699  26.452  29.167  1.00  0.00    -0.248 NA
ATOM    102  C   UNL A   1      45.490  24.403  28.380  1.00  0.00    -0.034 C 
ATOM    103  C   UNL A   1      47.186  29.426  31.334  1.00  0.00    -0.036 A 
ATOM    104  H   UNL A   1      46.641  31.355  32.168  1.00  0.00     0.065 H 
ATOM    105  C   UNL A   1      46.434  28.485  30.652  1.00  0.00     0.049 A 
ATOM    106  H   UNL A   1      44.417  28.588  30.033  1.00  0.00     0.167 HD
ATOM    107  C   UNL A   1      46.035  26.315  29.519  1.00  0.00     0.074 A 
ATOM    108  C   UNL A   1      46.461  25.016  29.040  1.00  0.00    -0.034 C 
ATOM    109  H   UNL A   1      45.509  23.496  27.888  1.00  0.00     0.065 H 
ATOM    110  H   UNL A   1      48.184  29.337  31.581  1.00  0.00     0.065 H 
ATOM    111  C   UNL A   1      46.837  27.184  30.181  1.00  0.00     0.037 A 
ATOM    112  H   UNL A   1      47.401  24.619  29.194  1.00  0.00     0.065 H 
BRANCH  93 113
ATOM    113  C   UNL A   1      44.098  32.513  31.682  1.00  0.00     0.064 A 
ATOM    114  C   UNL A   1      44.195  32.691  33.071  1.00  0.00     0.173 A 
ATOM    115  C   UNL A   1      44.179  33.654  30.869  1.00  0.00     0.173 A 
ATOM    116  F   UNL A   1      44.112  31.636  33.895  1.00  0.00    -0.203 F 
ATOM    117  C   UNL A   1      44.341  33.961  33.623  1.00  0.00     0.198 A 
ATOM    118  C   UNL A   1      44.359  34.919  31.423  1.00  0.00     0.198 A 
ATOM    119  F   UNL A   1      44.098  33.542  29.534  1.00  0.00    -0.203 F 
ATOM    120  F   UNL A   1      44.383  34.110  34.954  1.00  0.00    -0.200 F 
ATOM    121  C   UNL A   1      44.433  35.072  32.799  1.00  0.00     0.200 A 
ATOM    122  F   UNL A   1      44.463  35.990  30.624  1.00  0.00    -0.200 F 
ATOM    123  F   UNL A   1      44.587  36.292  33.332  1.00  0.00    -0.200 F 
ENDBRANCH  93 113
BRANCH  96 124
ATOM    124  C   UNL A   1      42.892  23.625  27.276  1.00  0.00     0.064 A 
ATOM    125  C   UNL A   1      42.320  22.529  27.939  1.00  0.00     0.173 A 
ATOM    126  C   UNL A   1      43.328  23.431  25.956  1.00  0.00     0.173 A 
ATOM    127  F   UNL A   1      41.906  22.658  29.208  1.00  0.00    -0.203 F 
ATOM    128  C   UNL A   1      42.218  21.285  27.321  1.00  0.00     0.198 A 
ATOM    129  C   UNL A   1      43.193  22.196  25.327  1.00  0.00     0.198 A 
ATOM    130  F   UNL A   1      43.876  24.447  25.273  1.00  0.00    -0.203 F 
ATOM    131  F   UNL A   1      41.721  20.242  27.998  1.00  0.00    -0.200 F 
ATOM    132  C   UNL A   1      42.651  21.121  26.013  1.00  0.00     0.200 A 
ATOM    133  F   UNL A   1      43.597  22.046  24.058  1.00  0.00    -0.200 F 
ATOM    134  F   UNL A   1      42.552  19.924  25.419  1.00  0.00    -0.200 F 
ENDBRANCH  96 124
BRANCH 111 135
ATOM    135  C   UNL A   1      48.245  26.744  30.469  1.00  0.00     0.064 A 
ATOM    136  C   UNL A   1      48.559  25.944  31.577  1.00  0.00     0.173 A 
ATOM    137  C   UNL A   1      49.287  27.094  29.596  1.00  0.00     0.173 A 
ATOM    138  F   UNL A   1      47.602  25.594  32.450  1.00  0.00    -0.203 F 
ATOM    139  C   UNL A   1      49.868  25.537  31.817  1.00  0.00     0.198 A 
ATOM    140  C   UNL A   1      50.589  26.654  29.820  1.00  0.00     0.198 A 
ATOM    141  F   UNL A   1      49.041  27.850  28.515  1.00  0.00    -0.203 F 
ATOM    142  F   UNL A   1      50.154  24.818  32.913  1.00  0.00    -0.200 F 
ATOM    143  C   UNL A   1      50.881  25.884  30.935  1.00  0.00     0.200 A 
ATOM    144  F   UNL A   1      51.561  26.977  28.956  1.00  0.00    -0.200 F 
ATOM    145  F   UNL A   1      52.138  25.482  31.162  1.00  0.00    -0.200 F 
ENDBRANCH 111 135
ENDBRANCH  76  79
ENDBRANCH  66  69
ENDBRANCH  62  65
ENDBRANCH  59  62
ENDBRANCH  56  59
ENDBRANCH   1  56
TORSDOF 18
ENDMDL
MODEL 10
REMARK VINA RESULT:     -11.9      1.697      3.012
REMARK SMILES C[C@@H](C(=O)NCCCCCCNC(=O)c1ccc(-c2c3nc(c(-c4c(F)c(F)c(F)c(F)c4F)c4ccc([nH]4)c(-c4c(F)c(F)c(F)c(F)c4F)c4nc(c(-c5c(F)c(F)c(F)c(F)c5F)c5ccc2[nH]5)C=C4)C=C3)cc1)c1ccc(C[C@H]2CCCC2=O)cc1-c1ccccc1
REMARK SMILES IDX 8 1 7 4 6 7 5 10 3 11 4 12 2 14 1 16 78 20 79 21 90 22 80 23
REMARK SMILES IDX 89 25 81 26 91 29 92 30 96 31 93 32 95 34 94 36 82 40 83 43
REMARK SMILES IDX 84 44 87 45 85 47 86 50 88 51 9 56 10 59 11 62 12 65 13 66
REMARK SMILES IDX 14 68 15 69 16 70 77 71 17 72 76 74 18 76 19 79 20 80 70 81
REMARK SMILES IDX 21 82 75 83 69 84 71 85 22 86 74 87 68 89 67 91 23 93 55 96
REMARK SMILES IDX 35 97 54 98 36 99 39 100 53 101 72 102 37 103 38 105 52 107
REMARK SMILES IDX 73 108 40 111 24 113 25 114 33 115 26 116 27 117 31 118
REMARK SMILES IDX 34 119 28 120 29 121 32 122 30 123 56 124 57 125 65 126
REMARK SMILES IDX 58 127 59 128 63 129 66 130 60 131 61 132 64 133 62 134
REMARK SMILES IDX 41 135 42 136 50 137 43 138 44 139 48 140 51 141 45 142
REMARK SMILES IDX 46 143 49 144 47 145
REMARK H PARENT 8 2 8 3 7 5 7 6 6 8 6 9 5 13 2 15 1 17 1 18 1 19 79 24 80 27
REMARK H PARENT 89 28 92 33 96 35 93 37 95 38 94 39 82 41 82 42 83 46 84 48
REMARK H PARENT 84 49 85 52 85 53 86 54 86 55 9 57 9 58 10 60 10 61 11 63
REMARK H PARENT 11 64 12 67 16 73 77 75 17 77 76 78 75 88 69 90 71 92 74 94
REMARK H PARENT 68 95 36 104 39 106 72 109 37 110 73 112
REMARK Flexibility Score: inf
ROOT
ATOM      1  C   UNL A   1      33.054  28.957  23.243  1.00  0.00    -0.052 C 
ATOM      2  H   UNL A   1      32.772  29.408  22.315  1.00  0.00     0.027 H 
ATOM      3  H   UNL A   1      33.582  29.620  23.894  1.00  0.00     0.027 H 
ENDROOT
BRANCH   1   4
ATOM      4  C   UNL A   1      34.016  27.801  22.938  1.00  0.00    -0.036 C 
ATOM      5  H   UNL A   1      34.018  27.637  21.881  1.00  0.00     0.028 H 
ATOM      6  H   UNL A   1      34.972  28.093  23.318  1.00  0.00     0.028 H 
BRANCH   4   7
ATOM      7  C   UNL A   1      33.659  26.481  23.626  1.00  0.00     0.017 C 
ATOM      8  H   UNL A   1      34.447  26.211  24.297  1.00  0.00     0.049 H 
ATOM      9  H   UNL A   1      32.742  26.608  24.161  1.00  0.00     0.049 H 
BRANCH   7  10
ATOM     10  N   UNL A   1      33.486  25.429  22.651  1.00  0.00    -0.356 N 
ATOM     11  C   UNL A   1      33.989  24.162  22.607  1.00  0.00     0.227 C 
ATOM     12  O   UNL A   1      33.754  23.550  21.564  1.00  0.00    -0.274 OA
ATOM     13  H   UNL A   1      32.907  25.666  21.890  1.00  0.00     0.163 HD
BRANCH  11  14
ATOM     14  C   UNL A   1      34.749  23.589  23.824  1.00  0.00     0.061 C 
ATOM     15  H   UNL A   1      34.560  24.327  24.577  1.00  0.00     0.045 H 
BRANCH  14  16
ATOM     16  C   UNL A   1      36.250  23.457  23.558  1.00  0.00    -0.049 C 
ATOM     17  H   UNL A   1      36.640  24.400  23.240  1.00  0.00     0.024 H 
ATOM     18  H   UNL A   1      36.413  22.727  22.794  1.00  0.00     0.024 H 
ATOM     19  H   UNL A   1      36.745  23.150  24.456  1.00  0.00     0.024 H 
ENDBRANCH  14  16
BRANCH  14  20
ATOM     20  C   UNL A   1      34.228  22.259  24.393  1.00  0.00    -0.028 A 
ATOM     21  C   UNL A   1      35.083  21.143  24.473  1.00  0.00    -0.057 A 
ATOM     22  C   UNL A   1      32.930  22.143  24.960  1.00  0.00    -0.014 A 
ATOM     23  C   UNL A   1      34.662  19.926  25.000  1.00  0.00    -0.059 A 
ATOM     24  H   UNL A   1      36.053  21.231  24.132  1.00  0.00     0.063 H 
ATOM     25  C   UNL A   1      32.516  20.889  25.468  1.00  0.00    -0.051 A 
ATOM     26  C   UNL A   1      33.362  19.774  25.475  1.00  0.00    -0.047 A 
ATOM     27  H   UNL A   1      35.317  19.130  25.038  1.00  0.00     0.063 H 
ATOM     28  H   UNL A   1      31.560  20.794  25.845  1.00  0.00     0.063 H 
BRANCH  22  29
ATOM     29  C   UNL A   1      32.030  23.298  25.163  1.00  0.00    -0.018 A 
ATOM     30  C   UNL A   1      32.192  24.112  26.301  1.00  0.00    -0.054 A 
ATOM     31  C   UNL A   1      31.023  23.640  24.249  1.00  0.00    -0.054 A 
ATOM     32  C   UNL A   1      31.403  25.246  26.500  1.00  0.00    -0.062 A 
ATOM     33  H   UNL A   1      32.909  23.865  27.001  1.00  0.00     0.063 H 
ATOM     34  C   UNL A   1      30.242  24.785  24.440  1.00  0.00    -0.062 A 
ATOM     35  H   UNL A   1      30.858  23.042  23.425  1.00  0.00     0.063 H 
ATOM     36  C   UNL A   1      30.434  25.589  25.562  1.00  0.00    -0.062 A 
ATOM     37  H   UNL A   1      31.538  25.829  27.342  1.00  0.00     0.062 H 
ATOM     38  H   UNL A   1      29.520  25.035  23.745  1.00  0.00     0.062 H 
ATOM     39  H   UNL A   1      29.860  26.435  25.698  1.00  0.00     0.062 H 
ENDBRANCH  22  29
BRANCH  26  40
ATOM     40  C   UNL A   1      32.904  18.442  26.012  1.00  0.00    -0.018 C 
ATOM     41  H   UNL A   1      32.063  18.619  26.651  1.00  0.00     0.032 H 
ATOM     42  H   UNL A   1      33.755  18.024  26.509  1.00  0.00     0.032 H 
BRANCH  40  43
ATOM     43  C   UNL A   1      32.487  17.399  24.969  1.00  0.00     0.022 C 
ATOM     44  C   UNL A   1      32.067  17.945  23.602  1.00  0.00    -0.043 C 
ATOM     45  C   UNL A   1      33.606  16.451  24.601  1.00  0.00     0.136 C 
ATOM     46  H   UNL A   1      31.664  16.940  25.477  1.00  0.00     0.039 H 
ATOM     47  C   UNL A   1      33.287  17.825  22.697  1.00  0.00    -0.046 C 
ATOM     48  H   UNL A   1      31.770  18.969  23.688  1.00  0.00     0.027 H 
ATOM     49  H   UNL A   1      31.235  17.401  23.206  1.00  0.00     0.027 H 
ATOM     50  C   UNL A   1      34.027  16.578  23.161  1.00  0.00     0.006 C 
ATOM     51  O   UNL A   1      34.105  15.652  25.386  1.00  0.00    -0.299 OA
ATOM     52  H   UNL A   1      33.912  18.688  22.797  1.00  0.00     0.027 H 
ATOM     53  H   UNL A   1      33.007  17.756  21.667  1.00  0.00     0.027 H 
ATOM     54  H   UNL A   1      35.086  16.707  23.080  1.00  0.00     0.035 H 
ATOM     55  H   UNL A   1      33.799  15.711  22.577  1.00  0.00     0.035 H 
ENDBRANCH  40  43
ENDBRANCH  26  40
ENDBRANCH  14  20
ENDBRANCH  11  14
ENDBRANCH   7  10
ENDBRANCH   4   7
ENDBRANCH   1   4
BRANCH   1  56
ATOM     56  C   UNL A   1      31.775  28.559  23.984  1.00  0.00    -0.052 C 
ATOM     57  H   UNL A   1      31.740  27.491  24.039  1.00  0.00     0.027 H 
ATOM     58  H   UNL A   1      30.962  28.978  23.430  1.00  0.00     0.027 H 
BRANCH  56  59
ATOM     59  C   UNL A   1      31.664  29.112  25.404  1.00  0.00    -0.036 C 
ATOM     60  H   UNL A   1      31.423  28.304  26.062  1.00  0.00     0.028 H 
ATOM     61  H   UNL A   1      30.907  29.869  25.379  1.00  0.00     0.028 H 
BRANCH  59  62
ATOM     62  C   UNL A   1      32.932  29.783  25.918  1.00  0.00     0.018 C 
ATOM     63  H   UNL A   1      33.673  29.759  25.145  1.00  0.00     0.049 H 
ATOM     64  H   UNL A   1      33.260  29.248  26.785  1.00  0.00     0.049 H 
BRANCH  62  65
ATOM     65  N   UNL A   1      32.701  31.164  26.306  1.00  0.00    -0.352 N 
ATOM     66  C   UNL A   1      33.343  31.909  27.261  1.00  0.00     0.251 C 
ATOM     67  H   UNL A   1      31.986  31.629  25.813  1.00  0.00     0.163 HD
ATOM     68  O   UNL A   1      32.893  33.000  27.608  1.00  0.00    -0.269 OA
BRANCH  66  69
ATOM     69  C   UNL A   1      34.571  31.384  27.892  1.00  0.00     0.039 A 
ATOM     70  C   UNL A   1      35.671  32.231  28.042  1.00  0.00    -0.049 A 
ATOM     71  C   UNL A   1      34.630  30.062  28.342  1.00  0.00    -0.049 A 
ATOM     72  C   UNL A   1      36.812  31.767  28.698  1.00  0.00    -0.053 A 
ATOM     73  H   UNL A   1      35.639  33.193  27.671  1.00  0.00     0.063 H 
ATOM     74  C   UNL A   1      35.736  29.628  29.065  1.00  0.00    -0.053 A 
ATOM     75  H   UNL A   1      33.856  29.410  28.140  1.00  0.00     0.063 H 
ATOM     76  C   UNL A   1      36.841  30.473  29.245  1.00  0.00    -0.014 A 
ATOM     77  H   UNL A   1      37.639  32.379  28.781  1.00  0.00     0.063 H 
ATOM     78  H   UNL A   1      35.745  28.678  29.470  1.00  0.00     0.063 H 
BRANCH  76  79
ATOM     79  C   UNL A   1      38.020  29.989  30.006  1.00  0.00     0.031 A 
ATOM     80  C   UNL A   1      38.260  30.468  31.411  1.00  0.00     0.074 A 
ATOM     81  C   UNL A   1      38.904  29.164  29.412  1.00  0.00     0.049 A 
ATOM     82  N   UNL A   1      39.262  30.212  32.214  1.00  0.00    -0.248 NA
ATOM     83  C   UNL A   1      37.254  31.377  31.982  1.00  0.00    -0.034 C 
ATOM     84  C   UNL A   1      38.805  28.666  28.039  1.00  0.00    -0.036 A 
ATOM     85  N   UNL A   1      40.068  28.607  29.883  1.00  0.00    -0.354 N 
ATOM     86  C   UNL A   1      39.012  30.935  33.373  1.00  0.00     0.074 A 
ATOM     87  C   UNL A   1      37.796  31.685  33.150  1.00  0.00    -0.034 C 
ATOM     88  H   UNL A   1      36.359  31.694  31.576  1.00  0.00     0.065 H 
ATOM     89  C   UNL A   1      39.848  27.859  27.787  1.00  0.00    -0.036 A 
ATOM     90  H   UNL A   1      38.053  28.897  27.371  1.00  0.00     0.065 H 
ATOM     91  C   UNL A   1      40.713  27.817  28.963  1.00  0.00     0.049 A 
ATOM     92  H   UNL A   1      40.407  28.759  30.795  1.00  0.00     0.167 HD
ATOM     93  C   UNL A   1      39.720  30.951  34.528  1.00  0.00     0.037 A 
ATOM     94  H   UNL A   1      37.403  32.369  33.815  1.00  0.00     0.065 H 
ATOM     95  H   UNL A   1      40.013  27.350  26.905  1.00  0.00     0.065 H 
ATOM     96  C   UNL A   1      41.876  27.145  29.053  1.00  0.00     0.037 A 
ATOM     97  C   UNL A   1      40.919  30.185  34.751  1.00  0.00     0.049 A 
ATOM     98  C   UNL A   1      42.652  27.196  30.343  1.00  0.00     0.074 A 
ATOM     99  C   UNL A   1      41.678  30.090  35.904  1.00  0.00    -0.036 A 
ATOM    100  N   UNL A   1      41.535  29.386  33.798  1.00  0.00    -0.354 N 
ATOM    101  N   UNL A   1      42.369  27.826  31.456  1.00  0.00    -0.248 NA
ATOM    102  C   UNL A   1      43.908  26.434  30.390  1.00  0.00    -0.034 C 
ATOM    103  C   UNL A   1      42.785  29.279  35.633  1.00  0.00    -0.036 A 
ATOM    104  H   UNL A   1      41.464  30.539  36.808  1.00  0.00     0.065 H 
ATOM    105  C   UNL A   1      42.681  28.816  34.331  1.00  0.00     0.049 A 
ATOM    106  H   UNL A   1      41.208  29.246  32.881  1.00  0.00     0.167 HD
ATOM    107  C   UNL A   1      43.388  27.511  32.345  1.00  0.00     0.074 A 
ATOM    108  C   UNL A   1      44.290  26.620  31.645  1.00  0.00    -0.034 C 
ATOM    109  H   UNL A   1      44.371  25.895  29.641  1.00  0.00     0.065 H 
ATOM    110  H   UNL A   1      43.550  29.062  36.291  1.00  0.00     0.065 H 
ATOM    111  C   UNL A   1      43.561  27.920  33.625  1.00  0.00     0.037 A 
ATOM    112  H   UNL A   1      45.124  26.185  32.069  1.00  0.00     0.065 H 
BRANCH  93 113
ATOM    113  C   UNL A   1      39.219  31.823  35.643  1.00  0.00     0.064 A 
ATOM    114  C   UNL A   1      38.340  31.335  36.622  1.00  0.00     0.173 A 
ATOM    115  C   UNL A   1      39.662  33.149  35.764  1.00  0.00     0.173 A 
ATOM    116  F   UNL A   1      37.877  30.078  36.549  1.00  0.00    -0.203 F 
ATOM    117  C   UNL A   1      37.903  32.150  37.664  1.00  0.00     0.198 A 
ATOM    118  C   UNL A   1      39.249  33.950  36.825  1.00  0.00     0.198 A 
ATOM    119  F   UNL A   1      40.507  33.666  34.858  1.00  0.00    -0.203 F 
ATOM    120  F   UNL A   1      37.026  31.675  38.560  1.00  0.00    -0.200 F 
ATOM    121  C   UNL A   1      38.365  33.452  37.770  1.00  0.00     0.200 A 
ATOM    122  F   UNL A   1      39.710  35.204  36.934  1.00  0.00    -0.200 F 
ATOM    123  F   UNL A   1      37.954  34.231  38.780  1.00  0.00    -0.200 F 
ENDBRANCH  93 113
BRANCH  96 124
ATOM    124  C   UNL A   1      42.374  26.353  27.897  1.00  0.00     0.064 A 
ATOM    125  C   UNL A   1      43.296  26.898  26.992  1.00  0.00     0.173 A 
ATOM    126  C   UNL A   1      41.926  25.045  27.660  1.00  0.00     0.173 A 
ATOM    127  F   UNL A   1      43.741  28.152  27.163  1.00  0.00    -0.203 F 
ATOM    128  C   UNL A   1      43.727  26.179  25.879  1.00  0.00     0.198 A 
ATOM    129  C   UNL A   1      42.383  24.314  26.566  1.00  0.00     0.198 A 
ATOM    130  F   UNL A   1      41.049  24.473  28.498  1.00  0.00    -0.203 F 
ATOM    131  F   UNL A   1      44.563  26.746  25.000  1.00  0.00    -0.200 F 
ATOM    132  C   UNL A   1      43.273  24.885  25.670  1.00  0.00     0.200 A 
ATOM    133  F   UNL A   1      41.955  23.058  26.377  1.00  0.00    -0.200 F 
ATOM    134  F   UNL A   1      43.687  24.193  24.600  1.00  0.00    -0.200 F 
ENDBRANCH  96 124
BRANCH 111 135
ATOM    135  C   UNL A   1      44.746  27.374  34.371  1.00  0.00     0.064 A 
ATOM    136  C   UNL A   1      44.682  26.165  35.079  1.00  0.00     0.173 A 
ATOM    137  C   UNL A   1      45.975  28.052  34.340  1.00  0.00     0.173 A 
ATOM    138  F   UNL A   1      43.528  25.485  35.151  1.00  0.00    -0.203 F 
ATOM    139  C   UNL A   1      45.796  25.670  35.752  1.00  0.00     0.198 A 
ATOM    140  C   UNL A   1      47.095  27.536  34.984  1.00  0.00     0.198 A 
ATOM    141  F   UNL A   1      46.093  29.209  33.671  1.00  0.00    -0.203 F 
ATOM    142  F   UNL A   1      45.697  24.540  36.466  1.00  0.00    -0.200 F 
ATOM    143  C   UNL A   1      47.004  26.351  35.697  1.00  0.00     0.200 A 
ATOM    144  F   UNL A   1      48.264  28.187  34.915  1.00  0.00    -0.200 F 
ATOM    145  F   UNL A   1      48.077  25.868  36.337  1.00  0.00    -0.200 F 
ENDBRANCH 111 135
ENDBRANCH  76  79
ENDBRANCH  66  69
ENDBRANCH  62  65
ENDBRANCH  59  62
ENDBRANCH  56  59
ENDBRANCH   1  56
TORSDOF 18
ENDMDL
