MODEL 1
REMARK VINA RESULT:     -13.4      0.000      0.000
REMARK SMILES Cc1c(-c2nn(-c3ccccc3)cc2/C=N/O)nnn1-c1ccc(C(=O)NCCCCCCNC(=O)c2ccc(-c3c4nc(c(-c5c(F)c(F)c(F)c(F)c5F)c5ccc([nH]5)c(-c5c(F)c(F)c(F)c(F)c5F)c5nc(c(-c6c(F)c(F)c(F)c(F)c6F)c6ccc3[nH]6)C=C5)C=C4)cc2)cc1
REMARK SMILES IDX 29 1 28 4 27 7 25 8 26 9 24 11 21 12 22 13 101 14 23 15
REMARK SMILES IDX 100 17 20 21 2 22 3 23 18 24 19 25 1 26 4 30 5 31 14 32 6 33
REMARK SMILES IDX 13 34 15 36 16 37 17 39 7 41 8 42 12 43 9 44 11 46 10 48
REMARK SMILES IDX 30 52 31 55 32 58 33 61 34 64 35 65 36 67 37 68 38 69 99 70
REMARK SMILES IDX 39 71 98 73 40 75 41 78 42 79 92 80 43 81 97 82 91 83 93 84
REMARK SMILES IDX 44 85 96 86 90 88 89 90 45 92 77 95 57 96 76 97 58 98 61 99
REMARK SMILES IDX 75 100 94 101 59 102 60 104 74 106 95 107 62 110 46 112
REMARK SMILES IDX 47 113 55 114 48 115 49 116 53 117 56 118 50 119 51 120
REMARK SMILES IDX 54 121 52 122 78 123 79 124 87 125 80 126 81 127 85 128
REMARK SMILES IDX 88 129 82 130 83 131 86 132 84 133 63 134 64 135 72 136
REMARK SMILES IDX 65 137 66 138 70 139 73 140 67 141 68 142 71 143 69 144
REMARK H PARENT 29 2 29 3 28 5 28 6 27 10 22 16 101 18 23 19 100 20 1 27 1 28
REMARK H PARENT 1 29 13 35 15 38 17 40 8 45 12 47 9 49 11 50 10 51 30 53 30 54
REMARK H PARENT 31 56 31 57 32 59 32 60 33 62 33 63 34 66 38 72 99 74 39 76
REMARK H PARENT 98 77 97 87 91 89 93 91 96 93 90 94 58 103 61 105 94 108
REMARK H PARENT 59 109 95 111
REMARK Flexibility Score: inf
ROOT
ATOM      1  C   UNL A   1      31.726  29.596  27.261  1.00  0.00    -0.036 C 
ATOM      2  H   UNL A   1      30.813  29.112  26.984  1.00  0.00     0.028 H 
ATOM      3  H   UNL A   1      31.710  29.934  28.277  1.00  0.00     0.028 H 
ENDROOT
BRANCH   1   4
ATOM      4  C   UNL A   1      31.912  30.830  26.375  1.00  0.00     0.018 C 
ATOM      5  H   UNL A   1      31.853  31.712  26.978  1.00  0.00     0.049 H 
ATOM      6  H   UNL A   1      32.870  30.780  25.900  1.00  0.00     0.049 H 
BRANCH   4   7
ATOM      7  N   UNL A   1      30.880  30.871  25.362  1.00  0.00    -0.352 N 
ATOM      8  C   UNL A   1      30.577  30.087  24.281  1.00  0.00     0.251 C 
ATOM      9  O   UNL A   1      29.626  30.448  23.586  1.00  0.00    -0.269 OA
ATOM     10  H   UNL A   1      30.259  31.627  25.474  1.00  0.00     0.163 HD
BRANCH   8  11
ATOM     11  C   UNL A   1      31.272  28.811  23.945  1.00  0.00     0.039 A 
ATOM     12  C   UNL A   1      32.453  26.292  23.553  1.00  0.00     0.067 A 
ATOM     13  C   UNL A   1      31.119  26.373  23.953  1.00  0.00    -0.036 A 
ATOM     14  C   UNL A   1      33.176  27.454  23.272  1.00  0.00    -0.036 A 
ATOM     15  C   UNL A   1      30.551  27.627  24.184  1.00  0.00    -0.047 A 
ATOM     16  H   UNL A   1      30.559  25.515  24.077  1.00  0.00     0.065 H 
ATOM     17  C   UNL A   1      32.559  28.703  23.408  1.00  0.00    -0.047 A 
ATOM     18  H   UNL A   1      34.160  27.392  22.967  1.00  0.00     0.065 H 
ATOM     19  H   UNL A   1      29.583  27.686  24.537  1.00  0.00     0.063 H 
ATOM     20  H   UNL A   1      33.059  29.554  23.109  1.00  0.00     0.063 H 
BRANCH  12  21
ATOM     21  N   UNL A   1      33.048  25.026  23.381  1.00  0.00    -0.217 N 
ATOM     22  C   UNL A   1      33.225  24.018  24.307  1.00  0.00     0.071 A 
ATOM     23  C   UNL A   1      34.040  23.126  23.639  1.00  0.00     0.137 A 
ATOM     24  N   UNL A   1      34.236  23.533  22.353  1.00  0.00    -0.128 NA
ATOM     25  N   UNL A   1      33.557  24.660  22.181  1.00  0.00    -0.061 NA
BRANCH  22  26
ATOM     26  C   UNL A   1      32.554  23.942  25.625  1.00  0.00    -0.020 C 
ATOM     27  H   UNL A   1      31.915  24.792  25.750  1.00  0.00     0.030 H 
ATOM     28  H   UNL A   1      33.291  23.936  26.401  1.00  0.00     0.030 H 
ATOM     29  H   UNL A   1      31.972  23.047  25.679  1.00  0.00     0.030 H 
ENDBRANCH  22  26
BRANCH  23  30
ATOM     30  C   UNL A   1      34.559  21.848  24.106  1.00  0.00     0.124 A 
ATOM     31  N   UNL A   1      33.849  20.722  23.991  1.00  0.00    -0.165 NA
ATOM     32  C   UNL A   1      35.808  21.644  24.734  1.00  0.00     0.044 A 
ATOM     33  N   UNL A   1      34.588  19.790  24.629  1.00  0.00    -0.240 N 
ATOM     34  C   UNL A   1      35.776  20.308  25.092  1.00  0.00     0.040 A 
ATOM     35  H   UNL A   1      36.507  19.796  25.611  1.00  0.00     0.085 H 
BRANCH  32  36
ATOM     36  C   UNL A   1      36.908  22.540  24.985  1.00  0.00     0.077 C 
ATOM     37  N   UNL A   1      37.922  22.144  25.681  1.00  0.00    -0.097 NA
ATOM     38  H   UNL A   1      36.887  23.500  24.607  1.00  0.00     0.088 H 
BRANCH  37  39
ATOM     39  O   UNL A   1      38.835  23.197  25.809  1.00  0.00    -0.411 OA
ATOM     40  H   UNL A   1      39.755  23.029  25.757  1.00  0.00     0.330 HD
ENDBRANCH  37  39
ENDBRANCH  32  36
BRANCH  33  41
ATOM     41  C   UNL A   1      34.098  18.475  24.793  1.00  0.00     0.065 A 
ATOM     42  C   UNL A   1      34.816  17.405  24.240  1.00  0.00    -0.036 A 
ATOM     43  C   UNL A   1      32.893  18.243  25.466  1.00  0.00    -0.036 A 
ATOM     44  C   UNL A   1      34.338  16.103  24.381  1.00  0.00    -0.060 A 
ATOM     45  H   UNL A   1      35.696  17.582  23.731  1.00  0.00     0.065 H 
ATOM     46  C   UNL A   1      32.397  16.942  25.557  1.00  0.00    -0.060 A 
ATOM     47  H   UNL A   1      32.376  19.029  25.892  1.00  0.00     0.065 H 
ATOM     48  C   UNL A   1      33.123  15.874  25.025  1.00  0.00    -0.062 A 
ATOM     49  H   UNL A   1      34.883  15.310  24.009  1.00  0.00     0.062 H 
ATOM     50  H   UNL A   1      31.491  16.768  26.018  1.00  0.00     0.062 H 
ATOM     51  H   UNL A   1      32.759  14.912  25.110  1.00  0.00     0.062 H 
ENDBRANCH  33  41
ENDBRANCH  23  30
ENDBRANCH  12  21
ENDBRANCH   8  11
ENDBRANCH   4   7
ENDBRANCH   1   4
BRANCH   1  52
ATOM     52  C   UNL A   1      32.873  28.583  27.135  1.00  0.00    -0.052 C 
ATOM     53  H   UNL A   1      32.590  27.854  26.403  1.00  0.00     0.027 H 
ATOM     54  H   UNL A   1      33.017  28.177  28.114  1.00  0.00     0.027 H 
BRANCH  52  55
ATOM     55  C   UNL A   1      34.234  29.170  26.717  1.00  0.00    -0.052 C 
ATOM     56  H   UNL A   1      34.050  29.941  26.000  1.00  0.00     0.027 H 
ATOM     57  H   UNL A   1      34.798  28.342  26.339  1.00  0.00     0.027 H 
BRANCH  55  58
ATOM     58  C   UNL A   1      35.091  29.769  27.843  1.00  0.00    -0.036 C 
ATOM     59  H   UNL A   1      36.021  29.243  27.879  1.00  0.00     0.028 H 
ATOM     60  H   UNL A   1      34.536  29.668  28.752  1.00  0.00     0.028 H 
BRANCH  58  61
ATOM     61  C   UNL A   1      35.379  31.248  27.652  1.00  0.00     0.018 C 
ATOM     62  H   UNL A   1      34.776  31.614  26.847  1.00  0.00     0.049 H 
ATOM     63  H   UNL A   1      36.422  31.351  27.438  1.00  0.00     0.049 H 
BRANCH  61  64
ATOM     64  N   UNL A   1      35.086  32.035  28.857  1.00  0.00    -0.352 N 
ATOM     65  C   UNL A   1      35.529  31.826  30.148  1.00  0.00     0.251 C 
ATOM     66  H   UNL A   1      34.496  32.812  28.727  1.00  0.00     0.163 HD
ATOM     67  O   UNL A   1      34.955  32.325  31.114  1.00  0.00    -0.269 OA
BRANCH  65  68
ATOM     68  C   UNL A   1      36.728  31.001  30.342  1.00  0.00     0.039 A 
ATOM     69  C   UNL A   1      36.678  29.675  30.780  1.00  0.00    -0.049 A 
ATOM     70  C   UNL A   1      37.934  31.599  30.009  1.00  0.00    -0.049 A 
ATOM     71  C   UNL A   1      37.864  28.943  30.816  1.00  0.00    -0.053 A 
ATOM     72  H   UNL A   1      35.785  29.246  31.071  1.00  0.00     0.063 H 
ATOM     73  C   UNL A   1      39.025  30.816  29.793  1.00  0.00    -0.053 A 
ATOM     74  H   UNL A   1      38.003  32.625  29.928  1.00  0.00     0.063 H 
ATOM     75  C   UNL A   1      39.032  29.530  30.312  1.00  0.00    -0.014 A 
ATOM     76  H   UNL A   1      37.881  27.987  31.205  1.00  0.00     0.063 H 
ATOM     77  H   UNL A   1      39.829  31.171  29.252  1.00  0.00     0.063 H 
BRANCH  75  78
ATOM     78  C   UNL A   1      40.317  28.851  30.299  1.00  0.00     0.031 A 
ATOM     79  C   UNL A   1      40.952  28.645  31.627  1.00  0.00     0.074 A 
ATOM     80  C   UNL A   1      40.741  28.216  29.183  1.00  0.00     0.049 A 
ATOM     81  N   UNL A   1      42.099  29.076  32.033  1.00  0.00    -0.248 NA
ATOM     82  C   UNL A   1      40.176  27.950  32.667  1.00  0.00    -0.034 C 
ATOM     83  C   UNL A   1      40.051  28.047  27.892  1.00  0.00    -0.036 A 
ATOM     84  N   UNL A   1      41.858  27.467  29.011  1.00  0.00    -0.354 N 
ATOM     85  C   UNL A   1      42.268  28.581  33.325  1.00  0.00     0.074 A 
ATOM     86  C   UNL A   1      40.998  28.028  33.714  1.00  0.00    -0.034 C 
ATOM     87  H   UNL A   1      39.241  27.517  32.602  1.00  0.00     0.065 H 
ATOM     88  C   UNL A   1      40.644  27.065  27.181  1.00  0.00    -0.036 A 
ATOM     89  H   UNL A   1      39.236  28.597  27.580  1.00  0.00     0.065 H 
ATOM     90  C   UNL A   1      41.856  26.674  27.871  1.00  0.00     0.049 A 
ATOM     91  H   UNL A   1      42.613  27.485  29.644  1.00  0.00     0.167 HD
ATOM     92  C   UNL A   1      43.504  28.490  33.893  1.00  0.00     0.037 A 
ATOM     93  H   UNL A   1      40.757  27.731  34.673  1.00  0.00     0.065 H 
ATOM     94  H   UNL A   1      40.294  26.661  26.298  1.00  0.00     0.065 H 
ATOM     95  C   UNL A   1      42.781  25.741  27.546  1.00  0.00     0.037 A 
ATOM     96  C   UNL A   1      44.465  29.284  33.168  1.00  0.00     0.049 A 
ATOM     97  C   UNL A   1      43.996  26.040  28.349  1.00  0.00     0.074 A 
ATOM     98  C   UNL A   1      44.596  30.634  32.907  1.00  0.00    -0.036 A 
ATOM     99  N   UNL A   1      45.266  28.651  32.249  1.00  0.00    -0.354 N 
ATOM    100  N   UNL A   1      44.717  27.116  28.189  1.00  0.00    -0.248 NA
ATOM    101  C   UNL A   1      44.115  25.394  29.648  1.00  0.00    -0.034 C 
ATOM    102  C   UNL A   1      45.046  30.703  31.554  1.00  0.00    -0.036 A 
ATOM    103  H   UNL A   1      44.412  31.420  33.548  1.00  0.00     0.065 H 
ATOM    104  C   UNL A   1      45.232  29.398  31.097  1.00  0.00     0.049 A 
ATOM    105  H   UNL A   1      45.772  27.817  32.390  1.00  0.00     0.167 HD
ATOM    106  C   UNL A   1      45.052  27.516  29.475  1.00  0.00     0.074 A 
ATOM    107  C   UNL A   1      44.714  26.376  30.327  1.00  0.00    -0.034 C 
ATOM    108  H   UNL A   1      43.823  24.453  29.954  1.00  0.00     0.065 H 
ATOM    109  H   UNL A   1      45.205  31.565  31.010  1.00  0.00     0.065 H 
ATOM    110  C   UNL A   1      45.292  28.828  29.769  1.00  0.00     0.037 A 
ATOM    111  H   UNL A   1      44.915  26.335  31.338  1.00  0.00     0.065 H 
BRANCH  92 112
ATOM    112  C   UNL A   1      43.926  27.452  34.901  1.00  0.00     0.064 A 
ATOM    113  C   UNL A   1      43.783  26.084  34.584  1.00  0.00     0.173 A 
ATOM    114  C   UNL A   1      44.192  27.734  36.259  1.00  0.00     0.173 A 
ATOM    115  F   UNL A   1      43.520  25.697  33.327  1.00  0.00    -0.203 F 
ATOM    116  C   UNL A   1      43.823  25.088  35.564  1.00  0.00     0.198 A 
ATOM    117  C   UNL A   1      44.285  26.733  37.224  1.00  0.00     0.198 A 
ATOM    118  F   UNL A   1      44.261  28.986  36.725  1.00  0.00    -0.203 F 
ATOM    119  F   UNL A   1      43.559  23.817  35.232  1.00  0.00    -0.200 F 
ATOM    120  C   UNL A   1      44.067  25.415  36.885  1.00  0.00     0.200 A 
ATOM    121  F   UNL A   1      44.508  27.071  38.503  1.00  0.00    -0.200 F 
ATOM    122  F   UNL A   1      44.045  24.472  37.835  1.00  0.00    -0.200 F 
ENDBRANCH  92 112
BRANCH  95 123
ATOM    123  C   UNL A   1      42.555  24.444  26.869  1.00  0.00     0.064 A 
ATOM    124  C   UNL A   1      43.160  24.152  25.638  1.00  0.00     0.173 A 
ATOM    125  C   UNL A   1      41.959  23.363  27.549  1.00  0.00     0.173 A 
ATOM    126  F   UNL A   1      43.788  25.117  24.953  1.00  0.00    -0.203 F 
ATOM    127  C   UNL A   1      43.189  22.849  25.128  1.00  0.00     0.198 A 
ATOM    128  C   UNL A   1      41.985  22.064  27.037  1.00  0.00     0.198 A 
ATOM    129  F   UNL A   1      41.425  23.528  28.769  1.00  0.00    -0.203 F 
ATOM    130  F   UNL A   1      43.828  22.596  23.977  1.00  0.00    -0.200 F 
ATOM    131  C   UNL A   1      42.611  21.806  25.832  1.00  0.00     0.200 A 
ATOM    132  F   UNL A   1      41.457  21.058  27.750  1.00  0.00    -0.200 F 
ATOM    133  F   UNL A   1      42.695  20.548  25.375  1.00  0.00    -0.200 F 
ENDBRANCH  95 123
BRANCH 110 134
ATOM    134  C   UNL A   1      45.389  29.801  28.623  1.00  0.00     0.064 A 
ATOM    135  C   UNL A   1      44.299  30.534  28.117  1.00  0.00     0.173 A 
ATOM    136  C   UNL A   1      46.657  30.123  28.124  1.00  0.00     0.173 A 
ATOM    137  F   UNL A   1      43.069  30.366  28.611  1.00  0.00    -0.203 F 
ATOM    138  C   UNL A   1      44.466  31.507  27.134  1.00  0.00     0.198 A 
ATOM    139  C   UNL A   1      46.828  31.121  27.167  1.00  0.00     0.198 A 
ATOM    140  F   UNL A   1      47.745  29.504  28.608  1.00  0.00    -0.203 F 
ATOM    141  F   UNL A   1      43.405  32.183  26.669  1.00  0.00    -0.200 F 
ATOM    142  C   UNL A   1      45.732  31.806  26.665  1.00  0.00     0.200 A 
ATOM    143  F   UNL A   1      48.062  31.443  26.755  1.00  0.00    -0.200 F 
ATOM    144  F   UNL A   1      45.901  32.772  25.751  1.00  0.00    -0.200 F 
ENDBRANCH 110 134
ENDBRANCH  75  78
ENDBRANCH  65  68
ENDBRANCH  61  64
ENDBRANCH  58  61
ENDBRANCH  55  58
ENDBRANCH  52  55
ENDBRANCH   1  52
TORSDOF 19
ENDMDL
MODEL 2
REMARK VINA RESULT:     -13.2      0.635      1.761
REMARK SMILES Cc1c(-c2nn(-c3ccccc3)cc2/C=N/O)nnn1-c1ccc(C(=O)NCCCCCCNC(=O)c2ccc(-c3c4nc(c(-c5c(F)c(F)c(F)c(F)c5F)c5ccc([nH]5)c(-c5c(F)c(F)c(F)c(F)c5F)c5nc(c(-c6c(F)c(F)c(F)c(F)c6F)c6ccc3[nH]6)C=C5)C=C4)cc2)cc1
REMARK SMILES IDX 29 1 28 4 27 7 25 8 26 9 24 11 21 12 22 13 101 14 23 15
REMARK SMILES IDX 100 17 20 21 2 22 3 23 18 24 19 25 1 26 4 30 5 31 14 32 6 33
REMARK SMILES IDX 13 34 15 36 16 37 17 39 7 41 8 42 12 43 9 44 11 46 10 48
REMARK SMILES IDX 30 52 31 55 32 58 33 61 34 64 35 65 36 67 37 68 38 69 99 70
REMARK SMILES IDX 39 71 98 73 40 75 41 78 42 79 92 80 43 81 97 82 91 83 93 84
REMARK SMILES IDX 44 85 96 86 90 88 89 90 45 92 77 95 57 96 76 97 58 98 61 99
REMARK SMILES IDX 75 100 94 101 59 102 60 104 74 106 95 107 62 110 46 112
REMARK SMILES IDX 47 113 55 114 48 115 49 116 53 117 56 118 50 119 51 120
REMARK SMILES IDX 54 121 52 122 78 123 79 124 87 125 80 126 81 127 85 128
REMARK SMILES IDX 88 129 82 130 83 131 86 132 84 133 63 134 64 135 72 136
REMARK SMILES IDX 65 137 66 138 70 139 73 140 67 141 68 142 71 143 69 144
REMARK H PARENT 29 2 29 3 28 5 28 6 27 10 22 16 101 18 23 19 100 20 1 27 1 28
REMARK H PARENT 1 29 13 35 15 38 17 40 8 45 12 47 9 49 11 50 10 51 30 53 30 54
REMARK H PARENT 31 56 31 57 32 59 32 60 33 62 33 63 34 66 38 72 99 74 39 76
REMARK H PARENT 98 77 97 87 91 89 93 91 96 93 90 94 58 103 61 105 94 108
REMARK H PARENT 59 109 95 111
REMARK Flexibility Score: inf
ROOT
ATOM      1  C   UNL A   1      31.471  29.759  27.111  1.00  0.00    -0.036 C 
ATOM      2  H   UNL A   1      30.531  29.315  26.857  1.00  0.00     0.028 H 
ATOM      3  H   UNL A   1      31.464  30.180  28.094  1.00  0.00     0.028 H 
ENDROOT
BRANCH   1   4
ATOM      4  C   UNL A   1      31.752  30.899  26.129  1.00  0.00     0.018 C 
ATOM      5  H   UNL A   1      31.752  31.829  26.658  1.00  0.00     0.049 H 
ATOM      6  H   UNL A   1      32.707  30.742  25.672  1.00  0.00     0.049 H 
BRANCH   4   7
ATOM      7  N   UNL A   1      30.732  30.930  25.103  1.00  0.00    -0.352 N 
ATOM      8  C   UNL A   1      30.439  30.133  24.029  1.00  0.00     0.251 C 
ATOM      9  O   UNL A   1      29.498  30.488  23.318  1.00  0.00    -0.269 OA
ATOM     10  H   UNL A   1      30.113  31.690  25.198  1.00  0.00     0.163 HD
BRANCH   8  11
ATOM     11  C   UNL A   1      31.133  28.850  23.719  1.00  0.00     0.039 A 
ATOM     12  C   UNL A   1      32.295  26.317  23.365  1.00  0.00     0.067 A 
ATOM     13  C   UNL A   1      30.941  26.415  23.685  1.00  0.00    -0.036 A 
ATOM     14  C   UNL A   1      33.052  27.470  23.143  1.00  0.00    -0.036 A 
ATOM     15  C   UNL A   1      30.380  27.675  23.898  1.00  0.00    -0.047 A 
ATOM     16  H   UNL A   1      30.361  25.565  23.764  1.00  0.00     0.065 H 
ATOM     17  C   UNL A   1      32.448  28.728  23.259  1.00  0.00    -0.047 A 
ATOM     18  H   UNL A   1      34.052  27.396  22.897  1.00  0.00     0.065 H 
ATOM     19  H   UNL A   1      29.394  27.746  24.193  1.00  0.00     0.063 H 
ATOM     20  H   UNL A   1      32.978  29.574  23.001  1.00  0.00     0.063 H 
BRANCH  12  21
ATOM     21  N   UNL A   1      32.880  25.044  23.213  1.00  0.00    -0.217 N 
ATOM     22  C   UNL A   1      33.167  24.100  24.178  1.00  0.00     0.071 A 
ATOM     23  C   UNL A   1      33.912  23.167  23.484  1.00  0.00     0.137 A 
ATOM     24  N   UNL A   1      33.962  23.488  22.160  1.00  0.00    -0.128 NA
ATOM     25  N   UNL A   1      33.258  24.600  21.990  1.00  0.00    -0.061 NA
BRANCH  22  26
ATOM     26  C   UNL A   1      32.645  24.110  25.564  1.00  0.00    -0.020 C 
ATOM     27  H   UNL A   1      33.427  23.837  26.242  1.00  0.00     0.030 H 
ATOM     28  H   UNL A   1      31.841  23.409  25.648  1.00  0.00     0.030 H 
ATOM     29  H   UNL A   1      32.290  25.090  25.804  1.00  0.00     0.030 H 
ENDBRANCH  22  26
BRANCH  23  30
ATOM     30  C   UNL A   1      34.491  21.924  23.974  1.00  0.00     0.124 A 
ATOM     31  N   UNL A   1      33.805  20.777  23.950  1.00  0.00    -0.165 NA
ATOM     32  C   UNL A   1      35.779  21.778  24.536  1.00  0.00     0.044 A 
ATOM     33  N   UNL A   1      34.605  19.893  24.582  1.00  0.00    -0.240 N 
ATOM     34  C   UNL A   1      35.803  20.459  24.953  1.00  0.00     0.040 A 
ATOM     35  H   UNL A   1      36.577  19.989  25.450  1.00  0.00     0.085 H 
BRANCH  32  36
ATOM     36  C   UNL A   1      36.868  22.710  24.684  1.00  0.00     0.077 C 
ATOM     37  N   UNL A   1      37.465  22.835  25.822  1.00  0.00    -0.097 NA
ATOM     38  H   UNL A   1      37.171  23.279  23.878  1.00  0.00     0.088 H 
BRANCH  37  39
ATOM     39  O   UNL A   1      38.458  23.816  25.718  1.00  0.00    -0.411 OA
ATOM     40  H   UNL A   1      38.255  24.711  25.906  1.00  0.00     0.330 HD
ENDBRANCH  37  39
ENDBRANCH  32  36
BRANCH  33  41
ATOM     41  C   UNL A   1      34.160  18.575  24.831  1.00  0.00     0.065 A 
ATOM     42  C   UNL A   1      32.883  18.378  25.378  1.00  0.00    -0.036 A 
ATOM     43  C   UNL A   1      34.992  17.480  24.570  1.00  0.00    -0.036 A 
ATOM     44  C   UNL A   1      32.435  17.085  25.642  1.00  0.00    -0.060 A 
ATOM     45  H   UNL A   1      32.278  19.188  25.583  1.00  0.00     0.065 H 
ATOM     46  C   UNL A   1      34.554  16.193  24.887  1.00  0.00    -0.060 A 
ATOM     47  H   UNL A   1      35.922  17.624  24.147  1.00  0.00     0.065 H 
ATOM     48  C   UNL A   1      33.274  15.996  25.412  1.00  0.00    -0.062 A 
ATOM     49  H   UNL A   1      31.482  16.934  26.008  1.00  0.00     0.062 H 
ATOM     50  H   UNL A   1      35.176  15.386  24.734  1.00  0.00     0.062 H 
ATOM     51  H   UNL A   1      32.950  15.041  25.629  1.00  0.00     0.062 H 
ENDBRANCH  33  41
ENDBRANCH  23  30
ENDBRANCH  12  21
ENDBRANCH   8  11
ENDBRANCH   4   7
ENDBRANCH   1   4
BRANCH   1  52
ATOM     52  C   UNL A   1      32.548  28.665  27.090  1.00  0.00    -0.052 C 
ATOM     53  H   UNL A   1      32.219  27.890  26.428  1.00  0.00     0.027 H 
ATOM     54  H   UNL A   1      32.663  28.345  28.104  1.00  0.00     0.027 H 
BRANCH  52  55
ATOM     55  C   UNL A   1      33.946  29.118  26.630  1.00  0.00    -0.052 C 
ATOM     56  H   UNL A   1      33.815  29.901  25.913  1.00  0.00     0.027 H 
ATOM     57  H   UNL A   1      34.418  28.239  26.241  1.00  0.00     0.027 H 
BRANCH  55  58
ATOM     58  C   UNL A   1      34.888  29.639  27.727  1.00  0.00    -0.036 C 
ATOM     59  H   UNL A   1      35.837  29.159  27.615  1.00  0.00     0.028 H 
ATOM     60  H   UNL A   1      34.433  29.416  28.669  1.00  0.00     0.028 H 
BRANCH  58  61
ATOM     61  C   UNL A   1      35.097  31.142  27.671  1.00  0.00     0.018 C 
ATOM     62  H   UNL A   1      34.383  31.563  26.993  1.00  0.00     0.049 H 
ATOM     63  H   UNL A   1      36.099  31.320  27.344  1.00  0.00     0.049 H 
BRANCH  61  64
ATOM     64  N   UNL A   1      34.932  31.779  28.984  1.00  0.00    -0.352 N 
ATOM     65  C   UNL A   1      35.622  31.527  30.153  1.00  0.00     0.251 C 
ATOM     66  H   UNL A   1      34.238  32.475  29.037  1.00  0.00     0.163 HD
ATOM     67  O   UNL A   1      35.175  31.860  31.249  1.00  0.00    -0.269 OA
BRANCH  65  68
ATOM     68  C   UNL A   1      36.927  30.863  30.055  1.00  0.00     0.039 A 
ATOM     69  C   UNL A   1      38.116  31.550  29.797  1.00  0.00    -0.049 A 
ATOM     70  C   UNL A   1      36.929  29.496  30.292  1.00  0.00    -0.049 A 
ATOM     71  C   UNL A   1      39.316  30.842  29.844  1.00  0.00    -0.053 A 
ATOM     72  H   UNL A   1      38.108  32.558  29.577  1.00  0.00     0.063 H 
ATOM     73  C   UNL A   1      38.102  28.877  30.597  1.00  0.00    -0.053 A 
ATOM     74  H   UNL A   1      36.052  28.955  30.236  1.00  0.00     0.063 H 
ATOM     75  C   UNL A   1      39.291  29.502  30.252  1.00  0.00    -0.014 A 
ATOM     76  H   UNL A   1      40.205  31.296  29.584  1.00  0.00     0.063 H 
ATOM     77  H   UNL A   1      38.105  27.963  31.076  1.00  0.00     0.063 H 
BRANCH  75  78
ATOM     78  C   UNL A   1      40.485  28.678  30.340  1.00  0.00     0.031 A 
ATOM     79  C   UNL A   1      40.969  28.387  31.715  1.00  0.00     0.074 A 
ATOM     80  C   UNL A   1      40.932  28.009  29.255  1.00  0.00     0.049 A 
ATOM     81  N   UNL A   1      42.116  28.678  32.230  1.00  0.00    -0.248 NA
ATOM     82  C   UNL A   1      40.027  27.778  32.668  1.00  0.00    -0.034 C 
ATOM     83  C   UNL A   1      40.347  27.933  27.904  1.00  0.00    -0.036 A 
ATOM     84  N   UNL A   1      41.966  27.136  29.167  1.00  0.00    -0.354 N 
ATOM     85  C   UNL A   1      42.110  28.154  33.522  1.00  0.00     0.074 A 
ATOM     86  C   UNL A   1      40.755  27.749  33.786  1.00  0.00    -0.034 C 
ATOM     87  H   UNL A   1      39.058  27.457  32.512  1.00  0.00     0.065 H 
ATOM     88  C   UNL A   1      40.885  26.895  27.229  1.00  0.00    -0.036 A 
ATOM     89  H   UNL A   1      39.632  28.577  27.531  1.00  0.00     0.065 H 
ATOM     90  C   UNL A   1      41.976  26.359  28.016  1.00  0.00     0.049 A 
ATOM     91  H   UNL A   1      42.657  27.060  29.865  1.00  0.00     0.167 HD
ATOM     92  C   UNL A   1      43.271  27.915  34.195  1.00  0.00     0.037 A 
ATOM     93  H   UNL A   1      40.395  27.474  34.714  1.00  0.00     0.065 H 
ATOM     94  H   UNL A   1      40.572  26.543  26.311  1.00  0.00     0.065 H 
ATOM     95  C   UNL A   1      42.813  25.327  27.756  1.00  0.00     0.037 A 
ATOM     96  C   UNL A   1      44.378  28.598  33.574  1.00  0.00     0.049 A 
ATOM     97  C   UNL A   1      43.976  25.476  28.670  1.00  0.00     0.074 A 
ATOM     98  C   UNL A   1      44.687  29.926  33.352  1.00  0.00    -0.036 A 
ATOM     99  N   UNL A   1      45.181  27.884  32.718  1.00  0.00    -0.354 N 
ATOM    100  N   UNL A   1      44.829  26.461  28.596  1.00  0.00    -0.248 NA
ATOM    101  C   UNL A   1      43.903  24.808  29.961  1.00  0.00    -0.034 C 
ATOM    102  C   UNL A   1      45.262  29.954  32.047  1.00  0.00    -0.036 A 
ATOM    103  H   UNL A   1      44.537  30.722  33.991  1.00  0.00     0.065 H 
ATOM    104  C   UNL A   1      45.337  28.641  31.582  1.00  0.00     0.049 A 
ATOM    105  H   UNL A   1      45.573  26.996  32.887  1.00  0.00     0.167 HD
ATOM    106  C   UNL A   1      45.089  26.808  29.914  1.00  0.00     0.074 A 
ATOM    107  C   UNL A   1      44.546  25.707  30.710  1.00  0.00    -0.034 C 
ATOM    108  H   UNL A   1      43.477  23.905  30.221  1.00  0.00     0.065 H 
ATOM    109  H   UNL A   1      45.568  30.797  31.536  1.00  0.00     0.065 H 
ATOM    110  C   UNL A   1      45.451  28.081  30.254  1.00  0.00     0.037 A 
ATOM    111  H   UNL A   1      44.649  25.634  31.734  1.00  0.00     0.065 H 
BRANCH  92 112
ATOM    112  C   UNL A   1      43.476  26.825  35.217  1.00  0.00     0.064 A 
ATOM    113  C   UNL A   1      43.817  27.176  36.540  1.00  0.00     0.173 A 
ATOM    114  C   UNL A   1      43.633  25.461  34.892  1.00  0.00     0.173 A 
ATOM    115  F   UNL A   1      43.717  28.446  36.960  1.00  0.00    -0.203 F 
ATOM    116  C   UNL A   1      44.350  26.246  37.438  1.00  0.00     0.198 A 
ATOM    117  C   UNL A   1      44.113  24.526  35.808  1.00  0.00     0.198 A 
ATOM    118  F   UNL A   1      43.436  24.997  33.652  1.00  0.00    -0.203 F 
ATOM    119  F   UNL A   1      44.774  26.652  38.643  1.00  0.00    -0.200 F 
ATOM    120  C   UNL A   1      44.504  24.923  37.068  1.00  0.00     0.200 A 
ATOM    121  F   UNL A   1      44.268  23.250  35.425  1.00  0.00    -0.200 F 
ATOM    122  F   UNL A   1      45.070  24.044  37.904  1.00  0.00    -0.200 F 
ENDBRANCH  92 112
BRANCH  95 123
ATOM    123  C   UNL A   1      42.501  24.072  27.037  1.00  0.00     0.064 A 
ATOM    124  C   UNL A   1      43.354  23.575  26.040  1.00  0.00     0.173 A 
ATOM    125  C   UNL A   1      41.500  23.195  27.503  1.00  0.00     0.173 A 
ATOM    126  F   UNL A   1      44.359  24.331  25.578  1.00  0.00    -0.203 F 
ATOM    127  C   UNL A   1      43.229  22.268  25.556  1.00  0.00     0.198 A 
ATOM    128  C   UNL A   1      41.374  21.894  27.016  1.00  0.00     0.198 A 
ATOM    129  F   UNL A   1      40.688  23.552  28.509  1.00  0.00    -0.203 F 
ATOM    130  F   UNL A   1      44.099  21.807  24.647  1.00  0.00    -0.200 F 
ATOM    131  C   UNL A   1      42.247  21.426  26.051  1.00  0.00     0.200 A 
ATOM    132  F   UNL A   1      40.446  21.077  27.534  1.00  0.00    -0.200 F 
ATOM    133  F   UNL A   1      42.168  20.154  25.634  1.00  0.00    -0.200 F 
ENDBRANCH  95 123
BRANCH 110 134
ATOM    134  C   UNL A   1      45.763  29.046  29.140  1.00  0.00     0.064 A 
ATOM    135  C   UNL A   1      47.001  29.105  28.475  1.00  0.00     0.173 A 
ATOM    136  C   UNL A   1      44.724  29.828  28.621  1.00  0.00     0.173 A 
ATOM    137  F   UNL A   1      48.016  28.316  28.838  1.00  0.00    -0.203 F 
ATOM    138  C   UNL A   1      47.200  29.935  27.372  1.00  0.00     0.198 A 
ATOM    139  C   UNL A   1      44.913  30.630  27.498  1.00  0.00     0.198 A 
ATOM    140  F   UNL A   1      43.503  29.771  29.173  1.00  0.00    -0.203 F 
ATOM    141  F   UNL A   1      48.395  29.972  26.765  1.00  0.00    -0.200 F 
ATOM    142  C   UNL A   1      46.152  30.691  26.880  1.00  0.00     0.200 A 
ATOM    143  F   UNL A   1      43.881  31.320  26.992  1.00  0.00    -0.200 F 
ATOM    144  F   UNL A   1      46.327  31.457  25.794  1.00  0.00    -0.200 F 
ENDBRANCH 110 134
ENDBRANCH  75  78
ENDBRANCH  65  68
ENDBRANCH  61  64
ENDBRANCH  58  61
ENDBRANCH  55  58
ENDBRANCH  52  55
ENDBRANCH   1  52
TORSDOF 19
ENDMDL
MODEL 3
REMARK VINA RESULT:     -13.1      2.743      9.663
REMARK SMILES Cc1c(-c2nn(-c3ccccc3)cc2/C=N/O)nnn1-c1ccc(C(=O)NCCCCCCNC(=O)c2ccc(-c3c4nc(c(-c5c(F)c(F)c(F)c(F)c5F)c5ccc([nH]5)c(-c5c(F)c(F)c(F)c(F)c5F)c5nc(c(-c6c(F)c(F)c(F)c(F)c6F)c6ccc3[nH]6)C=C5)C=C4)cc2)cc1
REMARK SMILES IDX 29 1 28 4 27 7 25 8 26 9 24 11 21 12 22 13 101 14 23 15
REMARK SMILES IDX 100 17 20 21 2 22 3 23 18 24 19 25 1 26 4 30 5 31 14 32 6 33
REMARK SMILES IDX 13 34 15 36 16 37 17 39 7 41 8 42 12 43 9 44 11 46 10 48
REMARK SMILES IDX 30 52 31 55 32 58 33 61 34 64 35 65 36 67 37 68 38 69 99 70
REMARK SMILES IDX 39 71 98 73 40 75 41 78 42 79 92 80 43 81 97 82 91 83 93 84
REMARK SMILES IDX 44 85 96 86 90 88 89 90 45 92 77 95 57 96 76 97 58 98 61 99
REMARK SMILES IDX 75 100 94 101 59 102 60 104 74 106 95 107 62 110 46 112
REMARK SMILES IDX 47 113 55 114 48 115 49 116 53 117 56 118 50 119 51 120
REMARK SMILES IDX 54 121 52 122 78 123 79 124 87 125 80 126 81 127 85 128
REMARK SMILES IDX 88 129 82 130 83 131 86 132 84 133 63 134 64 135 72 136
REMARK SMILES IDX 65 137 66 138 70 139 73 140 67 141 68 142 71 143 69 144
REMARK H PARENT 29 2 29 3 28 5 28 6 27 10 22 16 101 18 23 19 100 20 1 27 1 28
REMARK H PARENT 1 29 13 35 15 38 17 40 8 45 12 47 9 49 11 50 10 51 30 53 30 54
REMARK H PARENT 31 56 31 57 32 59 32 60 33 62 33 63 34 66 38 72 99 74 39 76
REMARK H PARENT 98 77 97 87 91 89 93 91 96 93 90 94 58 103 61 105 94 108
REMARK H PARENT 59 109 95 111
REMARK Flexibility Score: inf
ROOT
ATOM      1  C   UNL A   1      39.822  21.782  26.378  1.00  0.00    -0.036 C 
ATOM      2  H   UNL A   1      39.709  21.934  27.432  1.00  0.00     0.028 H 
ATOM      3  H   UNL A   1      40.626  22.360  25.973  1.00  0.00     0.028 H 
ENDROOT
BRANCH   1   4
ATOM      4  C   UNL A   1      38.538  22.235  25.680  1.00  0.00     0.018 C 
ATOM      5  H   UNL A   1      38.016  22.925  26.311  1.00  0.00     0.049 H 
ATOM      6  H   UNL A   1      38.789  22.710  24.755  1.00  0.00     0.049 H 
BRANCH   4   7
ATOM      7  N   UNL A   1      37.690  21.092  25.415  1.00  0.00    -0.352 N 
ATOM      8  C   UNL A   1      36.366  20.944  25.099  1.00  0.00     0.251 C 
ATOM      9  O   UNL A   1      35.953  19.789  24.981  1.00  0.00    -0.269 OA
ATOM     10  H   UNL A   1      38.170  20.234  25.475  1.00  0.00     0.163 HD
BRANCH   8  11
ATOM     11  C   UNL A   1      35.435  22.076  24.824  1.00  0.00     0.039 A 
ATOM     12  C   UNL A   1      33.510  24.099  24.519  1.00  0.00     0.067 A 
ATOM     13  C   UNL A   1      33.875  23.683  25.800  1.00  0.00    -0.036 A 
ATOM     14  C   UNL A   1      34.152  23.572  23.396  1.00  0.00    -0.036 A 
ATOM     15  C   UNL A   1      34.803  22.650  25.942  1.00  0.00    -0.047 A 
ATOM     16  H   UNL A   1      33.463  24.133  26.632  1.00  0.00     0.065 H 
ATOM     17  C   UNL A   1      35.156  22.610  23.561  1.00  0.00    -0.047 A 
ATOM     18  H   UNL A   1      33.888  23.888  22.450  1.00  0.00     0.065 H 
ATOM     19  H   UNL A   1      35.030  22.300  26.886  1.00  0.00     0.063 H 
ATOM     20  H   UNL A   1      35.698  22.292  22.743  1.00  0.00     0.063 H 
BRANCH  12  21
ATOM     21  N   UNL A   1      32.526  25.097  24.371  1.00  0.00    -0.217 N 
ATOM     22  C   UNL A   1      32.684  26.465  24.274  1.00  0.00     0.071 A 
ATOM     23  C   UNL A   1      31.388  26.932  24.362  1.00  0.00     0.137 A 
ATOM     24  N   UNL A   1      30.509  25.890  24.394  1.00  0.00    -0.128 NA
ATOM     25  N   UNL A   1      31.214  24.768  24.317  1.00  0.00    -0.061 NA
BRANCH  22  26
ATOM     26  C   UNL A   1      33.966  27.159  24.010  1.00  0.00    -0.020 C 
ATOM     27  H   UNL A   1      33.770  28.169  23.714  1.00  0.00     0.030 H 
ATOM     28  H   UNL A   1      34.490  26.654  23.225  1.00  0.00     0.030 H 
ATOM     29  H   UNL A   1      34.563  27.156  24.897  1.00  0.00     0.030 H 
ENDBRANCH  22  26
BRANCH  23  30
ATOM     30  C   UNL A   1      30.916  28.308  24.307  1.00  0.00     0.124 A 
ATOM     31  N   UNL A   1      30.045  28.711  23.376  1.00  0.00    -0.165 NA
ATOM     32  C   UNL A   1      31.314  29.353  25.170  1.00  0.00     0.044 A 
ATOM     33  N   UNL A   1      29.941  30.043  23.565  1.00  0.00    -0.240 N 
ATOM     34  C   UNL A   1      30.693  30.469  24.637  1.00  0.00     0.040 A 
ATOM     35  H   UNL A   1      30.779  31.439  24.979  1.00  0.00     0.085 H 
BRANCH  32  36
ATOM     36  C   UNL A   1      32.154  29.357  26.341  1.00  0.00     0.077 C 
ATOM     37  N   UNL A   1      32.466  30.473  26.912  1.00  0.00    -0.097 NA
ATOM     38  H   UNL A   1      32.506  28.466  26.725  1.00  0.00     0.088 H 
BRANCH  37  39
ATOM     39  O   UNL A   1      33.309  30.215  28.000  1.00  0.00    -0.411 OA
ATOM     40  H   UNL A   1      34.195  29.952  27.854  1.00  0.00     0.330 HD
ENDBRANCH  37  39
ENDBRANCH  32  36
BRANCH  33  41
ATOM     41  C   UNL A   1      29.165  30.833  22.687  1.00  0.00     0.065 A 
ATOM     42  C   UNL A   1      28.795  30.305  21.442  1.00  0.00    -0.036 A 
ATOM     43  C   UNL A   1      28.799  32.137  23.038  1.00  0.00    -0.036 A 
ATOM     44  C   UNL A   1      28.041  31.076  20.559  1.00  0.00    -0.060 A 
ATOM     45  H   UNL A   1      29.080  29.348  21.181  1.00  0.00     0.065 H 
ATOM     46  C   UNL A   1      28.089  32.920  22.126  1.00  0.00    -0.060 A 
ATOM     47  H   UNL A   1      29.052  32.517  23.964  1.00  0.00     0.065 H 
ATOM     48  C   UNL A   1      27.702  32.387  20.894  1.00  0.00    -0.062 A 
ATOM     49  H   UNL A   1      27.735  30.678  19.658  1.00  0.00     0.062 H 
ATOM     50  H   UNL A   1      27.849  33.894  22.361  1.00  0.00     0.062 H 
ATOM     51  H   UNL A   1      27.163  32.965  20.230  1.00  0.00     0.062 H 
ENDBRANCH  33  41
ENDBRANCH  23  30
ENDBRANCH  12  21
ENDBRANCH   8  11
ENDBRANCH   4   7
ENDBRANCH   1   4
BRANCH   1  52
ATOM     52  C   UNL A   1      40.154  20.303  26.133  1.00  0.00    -0.052 C 
ATOM     53  H   UNL A   1      40.247  20.157  25.076  1.00  0.00     0.027 H 
ATOM     54  H   UNL A   1      39.357  19.745  26.576  1.00  0.00     0.027 H 
BRANCH  52  55
ATOM     55  C   UNL A   1      41.446  19.793  26.797  1.00  0.00    -0.052 C 
ATOM     56  H   UNL A   1      41.187  19.404  27.759  1.00  0.00     0.027 H 
ATOM     57  H   UNL A   1      42.105  20.637  26.826  1.00  0.00     0.027 H 
BRANCH  55  58
ATOM     58  C   UNL A   1      42.215  18.698  26.040  1.00  0.00    -0.036 C 
ATOM     59  H   UNL A   1      42.027  18.815  24.993  1.00  0.00     0.028 H 
ATOM     60  H   UNL A   1      41.869  17.755  26.407  1.00  0.00     0.028 H 
BRANCH  58  61
ATOM     61  C   UNL A   1      43.714  18.752  26.271  1.00  0.00     0.018 C 
ATOM     62  H   UNL A   1      44.017  17.857  26.773  1.00  0.00     0.049 H 
ATOM     63  H   UNL A   1      43.922  19.620  26.860  1.00  0.00     0.049 H 
BRANCH  61  64
ATOM     64  N   UNL A   1      44.469  18.868  25.017  1.00  0.00    -0.352 N 
ATOM     65  C   UNL A   1      44.662  19.986  24.229  1.00  0.00     0.251 C 
ATOM     66  H   UNL A   1      44.893  18.039  24.695  1.00  0.00     0.163 HD
ATOM     67  O   UNL A   1      45.004  19.893  23.052  1.00  0.00    -0.269 OA
BRANCH  65  68
ATOM     68  C   UNL A   1      44.464  21.305  24.843  1.00  0.00     0.039 A 
ATOM     69  C   UNL A   1      43.317  22.077  24.639  1.00  0.00    -0.049 A 
ATOM     70  C   UNL A   1      45.470  21.731  25.697  1.00  0.00    -0.049 A 
ATOM     71  C   UNL A   1      43.176  23.260  25.362  1.00  0.00    -0.053 A 
ATOM     72  H   UNL A   1      42.591  21.779  23.968  1.00  0.00     0.063 H 
ATOM     73  C   UNL A   1      45.208  22.729  26.584  1.00  0.00    -0.053 A 
ATOM     74  H   UNL A   1      46.405  21.298  25.660  1.00  0.00     0.063 H 
ATOM     75  C   UNL A   1      44.132  23.569  26.339  1.00  0.00    -0.014 A 
ATOM     76  H   UNL A   1      42.382  23.894  25.184  1.00  0.00     0.063 H 
ATOM     77  H   UNL A   1      45.797  22.857  27.422  1.00  0.00     0.063 H 
BRANCH  75  78
ATOM     78  C   UNL A   1      44.074  24.773  27.150  1.00  0.00     0.031 A 
ATOM     79  C   UNL A   1      45.147  25.772  26.902  1.00  0.00     0.074 A 
ATOM     80  C   UNL A   1      42.963  25.063  27.862  1.00  0.00     0.049 A 
ATOM     81  N   UNL A   1      46.018  26.225  27.740  1.00  0.00    -0.248 NA
ATOM     82  C   UNL A   1      45.336  26.260  25.526  1.00  0.00    -0.034 C 
ATOM     83  C   UNL A   1      41.685  24.330  27.928  1.00  0.00    -0.036 A 
ATOM     84  N   UNL A   1      42.696  26.168  28.600  1.00  0.00    -0.354 N 
ATOM     85  C   UNL A   1      46.771  27.173  27.048  1.00  0.00     0.074 A 
ATOM     86  C   UNL A   1      46.408  27.042  25.662  1.00  0.00    -0.034 C 
ATOM     87  H   UNL A   1      44.784  26.051  24.679  1.00  0.00     0.065 H 
ATOM     88  C   UNL A   1      40.729  25.124  28.454  1.00  0.00    -0.036 A 
ATOM     89  H   UNL A   1      41.545  23.356  27.617  1.00  0.00     0.065 H 
ATOM     90  C   UNL A   1      41.359  26.335  28.936  1.00  0.00     0.049 A 
ATOM     91  H   UNL A   1      43.396  26.804  28.877  1.00  0.00     0.167 HD
ATOM     92  C   UNL A   1      47.488  28.127  27.708  1.00  0.00     0.037 A 
ATOM     93  H   UNL A   1      46.909  27.492  24.880  1.00  0.00     0.065 H 
ATOM     94  H   UNL A   1      39.721  24.905  28.504  1.00  0.00     0.065 H 
ATOM     95  C   UNL A   1      40.817  27.417  29.541  1.00  0.00     0.037 A 
ATOM     96  C   UNL A   1      47.648  27.783  29.098  1.00  0.00     0.049 A 
ATOM     97  C   UNL A   1      41.934  28.156  30.186  1.00  0.00     0.074 A 
ATOM     98  C   UNL A   1      48.264  26.744  29.768  1.00  0.00    -0.036 A 
ATOM     99  N   UNL A   1      46.790  28.350  30.009  1.00  0.00    -0.354 N 
ATOM    100  N   UNL A   1      42.629  27.682  31.185  1.00  0.00    -0.248 NA
ATOM    101  C   UNL A   1      42.592  29.192  29.404  1.00  0.00    -0.034 C 
ATOM    102  C   UNL A   1      47.384  26.430  30.847  1.00  0.00    -0.036 A 
ATOM    103  H   UNL A   1      49.164  26.293  29.539  1.00  0.00     0.065 H 
ATOM    104  C   UNL A   1      46.327  27.339  30.815  1.00  0.00     0.049 A 
ATOM    105  H   UNL A   1      46.551  29.304  30.072  1.00  0.00     0.167 HD
ATOM    106  C   UNL A   1      43.940  28.045  30.912  1.00  0.00     0.074 A 
ATOM    107  C   UNL A   1      43.844  29.036  29.840  1.00  0.00    -0.034 C 
ATOM    108  H   UNL A   1      42.203  29.854  28.714  1.00  0.00     0.065 H 
ATOM    109  H   UNL A   1      47.508  25.666  31.528  1.00  0.00     0.065 H 
ATOM    110  C   UNL A   1      44.992  27.301  31.368  1.00  0.00     0.037 A 
ATOM    111  H   UNL A   1      44.653  29.555  29.464  1.00  0.00     0.065 H 
BRANCH  92 112
ATOM    112  C   UNL A   1      47.775  29.513  27.190  1.00  0.00     0.064 A 
ATOM    113  C   UNL A   1      49.099  30.000  27.221  1.00  0.00     0.173 A 
ATOM    114  C   UNL A   1      46.780  30.480  26.933  1.00  0.00     0.173 A 
ATOM    115  F   UNL A   1      50.127  29.174  27.465  1.00  0.00    -0.203 F 
ATOM    116  C   UNL A   1      49.390  31.361  27.087  1.00  0.00     0.198 A 
ATOM    117  C   UNL A   1      47.080  31.829  26.745  1.00  0.00     0.198 A 
ATOM    118  F   UNL A   1      45.475  30.185  26.963  1.00  0.00    -0.203 F 
ATOM    119  F   UNL A   1      50.649  31.791  27.247  1.00  0.00    -0.200 F 
ATOM    120  C   UNL A   1      48.379  32.275  26.856  1.00  0.00     0.200 A 
ATOM    121  F   UNL A   1      46.083  32.702  26.537  1.00  0.00    -0.200 F 
ATOM    122  F   UNL A   1      48.647  33.585  26.788  1.00  0.00    -0.200 F 
ENDBRANCH  92 112
BRANCH  95 123
ATOM    123  C   UNL A   1      39.484  28.014  29.299  1.00  0.00     0.064 A 
ATOM    124  C   UNL A   1      38.580  28.223  30.351  1.00  0.00     0.173 A 
ATOM    125  C   UNL A   1      39.178  28.639  28.073  1.00  0.00     0.173 A 
ATOM    126  F   UNL A   1      38.824  27.700  31.560  1.00  0.00    -0.203 F 
ATOM    127  C   UNL A   1      37.448  29.032  30.193  1.00  0.00     0.198 A 
ATOM    128  C   UNL A   1      38.047  29.442  27.916  1.00  0.00     0.198 A 
ATOM    129  F   UNL A   1      40.022  28.562  27.034  1.00  0.00    -0.203 F 
ATOM    130  F   UNL A   1      36.639  29.259  31.237  1.00  0.00    -0.200 F 
ATOM    131  C   UNL A   1      37.189  29.648  28.980  1.00  0.00     0.200 A 
ATOM    132  F   UNL A   1      37.832  30.065  26.748  1.00  0.00    -0.200 F 
ATOM    133  F   UNL A   1      36.141  30.474  28.847  1.00  0.00    -0.200 F 
ENDBRANCH  95 123
BRANCH 110 134
ATOM    134  C   UNL A   1      44.699  26.195  32.349  1.00  0.00     0.064 A 
ATOM    135  C   UNL A   1      44.465  24.858  31.979  1.00  0.00     0.173 A 
ATOM    136  C   UNL A   1      44.818  26.465  33.717  1.00  0.00     0.173 A 
ATOM    137  F   UNL A   1      44.442  24.493  30.694  1.00  0.00    -0.203 F 
ATOM    138  C   UNL A   1      44.317  23.851  32.932  1.00  0.00     0.198 A 
ATOM    139  C   UNL A   1      44.706  25.453  34.668  1.00  0.00     0.198 A 
ATOM    140  F   UNL A   1      45.101  27.709  34.133  1.00  0.00    -0.203 F 
ATOM    141  F   UNL A   1      44.089  22.588  32.546  1.00  0.00    -0.200 F 
ATOM    142  C   UNL A   1      44.445  24.149  34.276  1.00  0.00     0.200 A 
ATOM    143  F   UNL A   1      44.883  25.736  35.966  1.00  0.00    -0.200 F 
ATOM    144  F   UNL A   1      44.347  23.176  35.193  1.00  0.00    -0.200 F 
ENDBRANCH 110 134
ENDBRANCH  75  78
ENDBRANCH  65  68
ENDBRANCH  61  64
ENDBRANCH  58  61
ENDBRANCH  55  58
ENDBRANCH  52  55
ENDBRANCH   1  52
TORSDOF 19
ENDMDL
MODEL 4
REMARK VINA RESULT:     -12.7      2.723      3.929
REMARK SMILES Cc1c(-c2nn(-c3ccccc3)cc2/C=N/O)nnn1-c1ccc(C(=O)NCCCCCCNC(=O)c2ccc(-c3c4nc(c(-c5c(F)c(F)c(F)c(F)c5F)c5ccc([nH]5)c(-c5c(F)c(F)c(F)c(F)c5F)c5nc(c(-c6c(F)c(F)c(F)c(F)c6F)c6ccc3[nH]6)C=C5)C=C4)cc2)cc1
REMARK SMILES IDX 29 1 28 4 27 7 25 8 26 9 24 11 21 12 22 13 101 14 23 15
REMARK SMILES IDX 100 17 20 21 2 22 3 23 18 24 19 25 1 26 4 30 5 31 14 32 6 33
REMARK SMILES IDX 13 34 15 36 16 37 17 39 7 41 8 42 12 43 9 44 11 46 10 48
REMARK SMILES IDX 30 52 31 55 32 58 33 61 34 64 35 65 36 67 37 68 38 69 99 70
REMARK SMILES IDX 39 71 98 73 40 75 41 78 42 79 92 80 43 81 97 82 91 83 93 84
REMARK SMILES IDX 44 85 96 86 90 88 89 90 45 92 77 95 57 96 76 97 58 98 61 99
REMARK SMILES IDX 75 100 94 101 59 102 60 104 74 106 95 107 62 110 46 112
REMARK SMILES IDX 47 113 55 114 48 115 49 116 53 117 56 118 50 119 51 120
REMARK SMILES IDX 54 121 52 122 78 123 79 124 87 125 80 126 81 127 85 128
REMARK SMILES IDX 88 129 82 130 83 131 86 132 84 133 63 134 64 135 72 136
REMARK SMILES IDX 65 137 66 138 70 139 73 140 67 141 68 142 71 143 69 144
REMARK H PARENT 29 2 29 3 28 5 28 6 27 10 22 16 101 18 23 19 100 20 1 27 1 28
REMARK H PARENT 1 29 13 35 15 38 17 40 8 45 12 47 9 49 11 50 10 51 30 53 30 54
REMARK H PARENT 31 56 31 57 32 59 32 60 33 62 33 63 34 66 38 72 99 74 39 76
REMARK H PARENT 98 77 97 87 91 89 93 91 96 93 90 94 58 103 61 105 94 108
REMARK H PARENT 59 109 95 111
REMARK Flexibility Score: inf
ROOT
ATOM      1  C   UNL A   1      34.705  31.784  27.654  1.00  0.00    -0.036 C 
ATOM      2  H   UNL A   1      34.605  32.331  26.740  1.00  0.00     0.028 H 
ATOM      3  H   UNL A   1      35.689  31.381  27.776  1.00  0.00     0.028 H 
ENDROOT
BRANCH   1   4
ATOM      4  C   UNL A   1      33.731  30.604  27.624  1.00  0.00     0.018 C 
ATOM      5  H   UNL A   1      34.217  29.754  27.192  1.00  0.00     0.049 H 
ATOM      6  H   UNL A   1      33.425  30.375  28.624  1.00  0.00     0.049 H 
BRANCH   4   7
ATOM      7  N   UNL A   1      32.566  30.944  26.835  1.00  0.00    -0.352 N 
ATOM      8  C   UNL A   1      31.908  30.335  25.801  1.00  0.00     0.251 C 
ATOM      9  O   UNL A   1      30.950  30.942  25.322  1.00  0.00    -0.269 OA
ATOM     10  H   UNL A   1      32.158  31.800  27.100  1.00  0.00     0.163 HD
BRANCH   8  11
ATOM     11  C   UNL A   1      32.233  28.975  25.281  1.00  0.00     0.039 A 
ATOM     12  C   UNL A   1      32.747  26.309  24.558  1.00  0.00     0.067 A 
ATOM     13  C   UNL A   1      31.570  26.624  25.238  1.00  0.00    -0.036 A 
ATOM     14  C   UNL A   1      33.628  27.321  24.168  1.00  0.00    -0.036 A 
ATOM     15  C   UNL A   1      31.341  27.944  25.628  1.00  0.00    -0.047 A 
ATOM     16  H   UNL A   1      30.877  25.889  25.450  1.00  0.00     0.065 H 
ATOM     17  C   UNL A   1      33.332  28.654  24.476  1.00  0.00    -0.047 A 
ATOM     18  H   UNL A   1      34.494  27.087  23.657  1.00  0.00     0.065 H 
ATOM     19  H   UNL A   1      30.500  28.169  26.182  1.00  0.00     0.063 H 
ATOM     20  H   UNL A   1      33.929  29.408  24.106  1.00  0.00     0.063 H 
BRANCH  12  21
ATOM     21  N   UNL A   1      33.012  24.967  24.219  1.00  0.00    -0.217 N 
ATOM     22  C   UNL A   1      33.504  23.952  25.015  1.00  0.00     0.071 A 
ATOM     23  C   UNL A   1      33.753  22.942  24.107  1.00  0.00     0.137 A 
ATOM     24  N   UNL A   1      33.324  23.304  22.865  1.00  0.00    -0.128 NA
ATOM     25  N   UNL A   1      32.797  24.518  22.960  1.00  0.00    -0.061 NA
BRANCH  22  26
ATOM     26  C   UNL A   1      33.584  23.990  26.494  1.00  0.00    -0.020 C 
ATOM     27  H   UNL A   1      32.602  23.890  26.907  1.00  0.00     0.030 H 
ATOM     28  H   UNL A   1      34.007  24.923  26.804  1.00  0.00     0.030 H 
ATOM     29  H   UNL A   1      34.200  23.187  26.838  1.00  0.00     0.030 H 
ENDBRANCH  22  26
BRANCH  23  30
ATOM     30  C   UNL A   1      34.273  21.606  24.360  1.00  0.00     0.124 A 
ATOM     31  N   UNL A   1      33.508  20.520  24.212  1.00  0.00    -0.165 NA
ATOM     32  C   UNL A   1      35.581  21.297  24.796  1.00  0.00     0.044 A 
ATOM     33  N   UNL A   1      34.282  19.501  24.643  1.00  0.00    -0.240 N 
ATOM     34  C   UNL A   1      35.539  19.930  25.005  1.00  0.00     0.040 A 
ATOM     35  H   UNL A   1      36.307  19.343  25.366  1.00  0.00     0.085 H 
BRANCH  32  36
ATOM     36  C   UNL A   1      36.740  22.128  25.002  1.00  0.00     0.077 C 
ATOM     37  N   UNL A   1      37.904  21.591  25.164  1.00  0.00    -0.097 NA
ATOM     38  H   UNL A   1      36.640  23.156  25.020  1.00  0.00     0.088 H 
BRANCH  37  39
ATOM     39  O   UNL A   1      38.852  22.598  25.375  1.00  0.00    -0.411 OA
ATOM     40  H   UNL A   1      38.726  23.447  25.001  1.00  0.00     0.330 HD
ENDBRANCH  37  39
ENDBRANCH  32  36
BRANCH  33  41
ATOM     41  C   UNL A   1      33.762  18.190  24.721  1.00  0.00     0.065 A 
ATOM     42  C   UNL A   1      32.760  17.909  25.661  1.00  0.00    -0.036 A 
ATOM     43  C   UNL A   1      34.263  17.174  23.899  1.00  0.00    -0.036 A 
ATOM     44  C   UNL A   1      32.246  16.617  25.761  1.00  0.00    -0.060 A 
ATOM     45  H   UNL A   1      32.404  18.657  26.277  1.00  0.00     0.065 H 
ATOM     46  C   UNL A   1      33.779  15.873  24.043  1.00  0.00    -0.060 A 
ATOM     47  H   UNL A   1      34.985  17.387  23.192  1.00  0.00     0.065 H 
ATOM     48  C   UNL A   1      32.766  15.598  24.964  1.00  0.00    -0.062 A 
ATOM     49  H   UNL A   1      31.482  16.416  26.425  1.00  0.00     0.062 H 
ATOM     50  H   UNL A   1      34.170  15.112  23.467  1.00  0.00     0.062 H 
ATOM     51  H   UNL A   1      32.400  14.637  25.054  1.00  0.00     0.062 H 
ENDBRANCH  33  41
ENDBRANCH  23  30
ENDBRANCH  12  21
ENDBRANCH   8  11
ENDBRANCH   4   7
ENDBRANCH   1   4
BRANCH   1  52
ATOM     52  C   UNL A   1      34.456  32.743  28.826  1.00  0.00    -0.052 C 
ATOM     53  H   UNL A   1      34.885  32.308  29.705  1.00  0.00     0.027 H 
ATOM     54  H   UNL A   1      33.395  32.871  28.882  1.00  0.00     0.027 H 
BRANCH  52  55
ATOM     55  C   UNL A   1      35.043  34.158  28.663  1.00  0.00    -0.052 C 
ATOM     56  H   UNL A   1      35.236  34.312  27.623  1.00  0.00     0.027 H 
ATOM     57  H   UNL A   1      35.918  34.177  29.281  1.00  0.00     0.027 H 
BRANCH  55  58
ATOM     58  C   UNL A   1      34.166  35.320  29.156  1.00  0.00    -0.036 C 
ATOM     59  H   UNL A   1      33.799  35.852  28.305  1.00  0.00     0.028 H 
ATOM     60  H   UNL A   1      34.777  35.935  29.782  1.00  0.00     0.028 H 
BRANCH  58  61
ATOM     61  C   UNL A   1      32.982  34.862  29.989  1.00  0.00     0.018 C 
ATOM     62  H   UNL A   1      33.085  33.815  30.186  1.00  0.00     0.049 H 
ATOM     63  H   UNL A   1      32.093  35.070  29.432  1.00  0.00     0.049 H 
BRANCH  61  64
ATOM     64  N   UNL A   1      32.888  35.577  31.268  1.00  0.00    -0.352 N 
ATOM     65  C   UNL A   1      33.517  35.287  32.462  1.00  0.00     0.251 C 
ATOM     66  H   UNL A   1      32.299  36.366  31.274  1.00  0.00     0.163 HD
ATOM     67  O   UNL A   1      33.105  35.732  33.532  1.00  0.00    -0.269 OA
BRANCH  65  68
ATOM     68  C   UNL A   1      34.716  34.441  32.424  1.00  0.00     0.039 A 
ATOM     69  C   UNL A   1      34.664  33.045  32.378  1.00  0.00    -0.049 A 
ATOM     70  C   UNL A   1      35.929  35.113  32.378  1.00  0.00    -0.049 A 
ATOM     71  C   UNL A   1      35.857  32.342  32.223  1.00  0.00    -0.053 A 
ATOM     72  H   UNL A   1      33.764  32.547  32.458  1.00  0.00     0.063 H 
ATOM     73  C   UNL A   1      37.040  34.447  31.963  1.00  0.00    -0.053 A 
ATOM     74  H   UNL A   1      35.988  36.105  32.657  1.00  0.00     0.063 H 
ATOM     75  C   UNL A   1      37.041  33.061  32.011  1.00  0.00    -0.014 A 
ATOM     76  H   UNL A   1      35.868  31.310  32.262  1.00  0.00     0.063 H 
ATOM     77  H   UNL A   1      37.865  34.963  31.619  1.00  0.00     0.063 H 
BRANCH  75  78
ATOM     78  C   UNL A   1      38.334  32.424  31.832  1.00  0.00     0.031 A 
ATOM     79  C   UNL A   1      39.120  32.199  33.074  1.00  0.00     0.074 A 
ATOM     80  C   UNL A   1      38.647  31.835  30.657  1.00  0.00     0.049 A 
ATOM     81  N   UNL A   1      40.293  32.654  33.363  1.00  0.00    -0.248 NA
ATOM     82  C   UNL A   1      38.485  31.451  34.171  1.00  0.00    -0.034 C 
ATOM     83  C   UNL A   1      37.821  31.681  29.446  1.00  0.00    -0.036 A 
ATOM     84  N   UNL A   1      39.758  31.126  30.336  1.00  0.00    -0.354 N 
ATOM     85  C   UNL A   1      40.621  32.127  34.612  1.00  0.00     0.074 A 
ATOM     86  C   UNL A   1      39.418  31.524  35.122  1.00  0.00    -0.034 C 
ATOM     87  H   UNL A   1      37.562  30.991  34.197  1.00  0.00     0.065 H 
ATOM     88  C   UNL A   1      38.357  30.739  28.642  1.00  0.00    -0.036 A 
ATOM     89  H   UNL A   1      36.961  32.215  29.244  1.00  0.00     0.065 H 
ATOM     90  C   UNL A   1      39.649  30.367  29.179  1.00  0.00     0.049 A 
ATOM     91  H   UNL A   1      40.578  31.149  30.882  1.00  0.00     0.167 HD
ATOM     92  C   UNL A   1      41.914  32.059  35.034  1.00  0.00     0.037 A 
ATOM     93  H   UNL A   1      39.295  31.192  36.092  1.00  0.00     0.065 H 
ATOM     94  H   UNL A   1      37.921  30.350  27.791  1.00  0.00     0.065 H 
ATOM     95  C   UNL A   1      40.557  29.472  28.723  1.00  0.00     0.037 A 
ATOM     96  C   UNL A   1      42.765  32.903  34.232  1.00  0.00     0.049 A 
ATOM     97  C   UNL A   1      41.846  29.786  29.394  1.00  0.00     0.074 A 
ATOM     98  C   UNL A   1      42.829  34.263  34.001  1.00  0.00    -0.036 A 
ATOM     99  N   UNL A   1      43.475  32.322  33.210  1.00  0.00    -0.354 N 
ATOM    100  N   UNL A   1      42.515  30.888  29.189  1.00  0.00    -0.248 NA
ATOM    101  C   UNL A   1      42.129  29.107  30.650  1.00  0.00    -0.034 C 
ATOM    102  C   UNL A   1      43.121  34.385  32.610  1.00  0.00    -0.036 A 
ATOM    103  H   UNL A   1      42.696  35.025  34.685  1.00  0.00     0.065 H 
ATOM    104  C   UNL A   1      43.290  33.100  32.093  1.00  0.00     0.049 A 
ATOM    105  H   UNL A   1      44.017  31.501  33.267  1.00  0.00     0.167 HD
ATOM    106  C   UNL A   1      42.981  31.261  30.442  1.00  0.00     0.074 A 
ATOM    107  C   UNL A   1      42.773  30.087  31.290  1.00  0.00    -0.034 C 
ATOM    108  H   UNL A   1      41.900  28.149  30.956  1.00  0.00     0.065 H 
ATOM    109  H   UNL A   1      43.193  35.267  32.080  1.00  0.00     0.065 H 
ATOM    110  C   UNL A   1      43.216  32.572  30.750  1.00  0.00     0.037 A 
ATOM    111  H   UNL A   1      43.088  30.024  32.270  1.00  0.00     0.065 H 
BRANCH  92 112
ATOM    112  C   UNL A   1      42.475  31.006  35.955  1.00  0.00     0.064 A 
ATOM    113  C   UNL A   1      43.217  31.403  37.088  1.00  0.00     0.173 A 
ATOM    114  C   UNL A   1      42.561  29.636  35.626  1.00  0.00     0.173 A 
ATOM    115  F   UNL A   1      43.219  32.683  37.490  1.00  0.00    -0.203 F 
ATOM    116  C   UNL A   1      44.042  30.514  37.782  1.00  0.00     0.198 A 
ATOM    117  C   UNL A   1      43.342  28.740  36.355  1.00  0.00     0.198 A 
ATOM    118  F   UNL A   1      41.986  29.130  34.529  1.00  0.00    -0.203 F 
ATOM    119  F   UNL A   1      44.822  30.966  38.774  1.00  0.00    -0.200 F 
ATOM    120  C   UNL A   1      44.109  29.184  37.411  1.00  0.00     0.200 A 
ATOM    121  F   UNL A   1      43.404  27.457  35.970  1.00  0.00    -0.200 F 
ATOM    122  F   UNL A   1      44.943  28.343  38.034  1.00  0.00    -0.200 F 
ENDBRANCH  92 112
BRANCH  95 123
ATOM    123  C   UNL A   1      40.293  28.189  28.034  1.00  0.00     0.064 A 
ATOM    124  C   UNL A   1      40.920  27.873  26.820  1.00  0.00     0.173 A 
ATOM    125  C   UNL A   1      39.628  27.134  28.692  1.00  0.00     0.173 A 
ATOM    126  F   UNL A   1      41.611  28.811  26.157  1.00  0.00    -0.203 F 
ATOM    127  C   UNL A   1      40.904  26.572  26.305  1.00  0.00     0.198 A 
ATOM    128  C   UNL A   1      39.610  25.838  28.175  1.00  0.00     0.198 A 
ATOM    129  F   UNL A   1      39.067  27.320  29.896  1.00  0.00    -0.203 F 
ATOM    130  F   UNL A   1      41.565  26.294  25.173  1.00  0.00    -0.200 F 
ATOM    131  C   UNL A   1      40.259  25.554  26.988  1.00  0.00     0.200 A 
ATOM    132  F   UNL A   1      39.017  24.854  28.868  1.00  0.00    -0.200 F 
ATOM    133  F   UNL A   1      40.299  24.296  26.528  1.00  0.00    -0.200 F 
ENDBRANCH  95 123
BRANCH 110 134
ATOM    134  C   UNL A   1      43.156  33.580  29.631  1.00  0.00     0.064 A 
ATOM    135  C   UNL A   1      42.029  34.371  29.344  1.00  0.00     0.173 A 
ATOM    136  C   UNL A   1      44.332  33.869  28.928  1.00  0.00     0.173 A 
ATOM    137  F   UNL A   1      40.897  34.234  30.040  1.00  0.00    -0.203 F 
ATOM    138  C   UNL A   1      42.066  35.372  28.374  1.00  0.00     0.198 A 
ATOM    139  C   UNL A   1      44.379  34.893  27.985  1.00  0.00     0.198 A 
ATOM    140  F   UNL A   1      45.458  33.191  29.198  1.00  0.00    -0.203 F 
ATOM    141  F   UNL A   1      40.972  36.104  28.121  1.00  0.00    -0.200 F 
ATOM    142  C   UNL A   1      43.244  35.637  27.701  1.00  0.00     0.200 A 
ATOM    143  F   UNL A   1      45.536  35.181  27.373  1.00  0.00    -0.200 F 
ATOM    144  F   UNL A   1      43.295  36.627  26.799  1.00  0.00    -0.200 F 
ENDBRANCH 110 134
ENDBRANCH  75  78
ENDBRANCH  65  68
ENDBRANCH  61  64
ENDBRANCH  58  61
ENDBRANCH  55  58
ENDBRANCH  52  55
ENDBRANCH   1  52
TORSDOF 19
ENDMDL
MODEL 5
REMARK VINA RESULT:     -12.6      5.161     10.733
REMARK SMILES Cc1c(-c2nn(-c3ccccc3)cc2/C=N/O)nnn1-c1ccc(C(=O)NCCCCCCNC(=O)c2ccc(-c3c4nc(c(-c5c(F)c(F)c(F)c(F)c5F)c5ccc([nH]5)c(-c5c(F)c(F)c(F)c(F)c5F)c5nc(c(-c6c(F)c(F)c(F)c(F)c6F)c6ccc3[nH]6)C=C5)C=C4)cc2)cc1
REMARK SMILES IDX 29 1 28 4 27 7 25 8 26 9 24 11 21 12 22 13 101 14 23 15
REMARK SMILES IDX 100 17 20 21 2 22 3 23 18 24 19 25 1 26 4 30 5 31 14 32 6 33
REMARK SMILES IDX 13 34 15 36 16 37 17 39 7 41 8 42 12 43 9 44 11 46 10 48
REMARK SMILES IDX 30 52 31 55 32 58 33 61 34 64 35 65 36 67 37 68 38 69 99 70
REMARK SMILES IDX 39 71 98 73 40 75 41 78 42 79 92 80 43 81 97 82 91 83 93 84
REMARK SMILES IDX 44 85 96 86 90 88 89 90 45 92 77 95 57 96 76 97 58 98 61 99
REMARK SMILES IDX 75 100 94 101 59 102 60 104 74 106 95 107 62 110 46 112
REMARK SMILES IDX 47 113 55 114 48 115 49 116 53 117 56 118 50 119 51 120
REMARK SMILES IDX 54 121 52 122 78 123 79 124 87 125 80 126 81 127 85 128
REMARK SMILES IDX 88 129 82 130 83 131 86 132 84 133 63 134 64 135 72 136
REMARK SMILES IDX 65 137 66 138 70 139 73 140 67 141 68 142 71 143 69 144
REMARK H PARENT 29 2 29 3 28 5 28 6 27 10 22 16 101 18 23 19 100 20 1 27 1 28
REMARK H PARENT 1 29 13 35 15 38 17 40 8 45 12 47 9 49 11 50 10 51 30 53 30 54
REMARK H PARENT 31 56 31 57 32 59 32 60 33 62 33 63 34 66 38 72 99 74 39 76
REMARK H PARENT 98 77 97 87 91 89 93 91 96 93 90 94 58 103 61 105 94 108
REMARK H PARENT 59 109 95 111
REMARK Flexibility Score: inf
ROOT
ATOM      1  C   UNL A   1      43.379  28.366  36.602  1.00  0.00    -0.036 C 
ATOM      2  H   UNL A   1      43.392  28.310  37.671  1.00  0.00     0.028 H 
ATOM      3  H   UNL A   1      43.995  27.616  36.152  1.00  0.00     0.028 H 
ENDROOT
BRANCH   1   4
ATOM      4  C   UNL A   1      43.935  29.727  36.179  1.00  0.00     0.018 C 
ATOM      5  H   UNL A   1      43.136  30.341  35.819  1.00  0.00     0.049 H 
ATOM      6  H   UNL A   1      44.400  30.195  37.022  1.00  0.00     0.049 H 
BRANCH   4   7
ATOM      7  N   UNL A   1      44.916  29.555  35.129  1.00  0.00    -0.352 N 
ATOM      8  C   UNL A   1      44.863  29.600  33.761  1.00  0.00     0.251 C 
ATOM      9  O   UNL A   1      45.910  29.357  33.160  1.00  0.00    -0.269 OA
ATOM     10  H   UNL A   1      45.819  29.364  35.472  1.00  0.00     0.163 HD
BRANCH   8  11
ATOM     11  C   UNL A   1      43.654  29.991  32.978  1.00  0.00     0.039 A 
ATOM     12  C   UNL A   1      41.371  30.970  31.667  1.00  0.00     0.067 A 
ATOM     13  C   UNL A   1      42.412  31.844  31.983  1.00  0.00    -0.036 A 
ATOM     14  C   UNL A   1      41.494  29.603  31.929  1.00  0.00    -0.036 A 
ATOM     15  C   UNL A   1      43.526  31.357  32.670  1.00  0.00    -0.047 A 
ATOM     16  H   UNL A   1      42.359  32.838  31.713  1.00  0.00     0.065 H 
ATOM     17  C   UNL A   1      42.663  29.115  32.524  1.00  0.00    -0.047 A 
ATOM     18  H   UNL A   1      40.727  28.957  31.685  1.00  0.00     0.065 H 
ATOM     19  H   UNL A   1      44.269  32.012  32.956  1.00  0.00     0.063 H 
ATOM     20  H   UNL A   1      42.796  28.097  32.628  1.00  0.00     0.063 H 
BRANCH  12  21
ATOM     21  N   UNL A   1      40.217  31.471  31.032  1.00  0.00    -0.217 N 
ATOM     22  C   UNL A   1      39.071  31.991  31.599  1.00  0.00     0.071 A 
ATOM     23  C   UNL A   1      38.221  32.112  30.518  1.00  0.00     0.137 A 
ATOM     24  N   UNL A   1      38.871  31.789  29.363  1.00  0.00    -0.128 NA
ATOM     25  N   UNL A   1      40.120  31.473  29.682  1.00  0.00    -0.061 NA
BRANCH  22  26
ATOM     26  C   UNL A   1      38.932  32.406  33.013  1.00  0.00    -0.020 C 
ATOM     27  H   UNL A   1      39.341  31.649  33.650  1.00  0.00     0.030 H 
ATOM     28  H   UNL A   1      37.896  32.542  33.245  1.00  0.00     0.030 H 
ATOM     29  H   UNL A   1      39.456  33.325  33.169  1.00  0.00     0.030 H 
ENDBRANCH  22  26
BRANCH  23  30
ATOM     30  C   UNL A   1      36.858  32.623  30.491  1.00  0.00     0.124 A 
ATOM     31  N   UNL A   1      36.512  33.727  31.160  1.00  0.00    -0.165 NA
ATOM     32  C   UNL A   1      35.769  32.035  29.809  1.00  0.00     0.044 A 
ATOM     33  N   UNL A   1      35.175  33.816  30.997  1.00  0.00    -0.240 N 
ATOM     34  C   UNL A   1      34.689  32.812  30.191  1.00  0.00     0.040 A 
ATOM     35  H   UNL A   1      33.704  32.665  29.920  1.00  0.00     0.085 H 
BRANCH  32  36
ATOM     36  C   UNL A   1      35.698  30.906  28.915  1.00  0.00     0.077 C 
ATOM     37  N   UNL A   1      35.901  31.067  27.650  1.00  0.00    -0.097 NA
ATOM     38  H   UNL A   1      35.486  29.967  29.288  1.00  0.00     0.088 H 
BRANCH  37  39
ATOM     39  O   UNL A   1      35.748  29.837  26.998  1.00  0.00    -0.411 OA
ATOM     40  H   UNL A   1      34.947  29.359  27.081  1.00  0.00     0.330 HD
ENDBRANCH  37  39
ENDBRANCH  32  36
BRANCH  33  41
ATOM     41  C   UNL A   1      34.439  34.826  31.655  1.00  0.00     0.065 A 
ATOM     42  C   UNL A   1      33.338  35.402  31.005  1.00  0.00    -0.036 A 
ATOM     43  C   UNL A   1      34.822  35.274  32.925  1.00  0.00    -0.036 A 
ATOM     44  C   UNL A   1      32.610  36.409  31.635  1.00  0.00    -0.060 A 
ATOM     45  H   UNL A   1      33.068  35.079  30.062  1.00  0.00     0.065 H 
ATOM     46  C   UNL A   1      34.118  36.320  33.525  1.00  0.00    -0.060 A 
ATOM     47  H   UNL A   1      35.619  34.836  33.412  1.00  0.00     0.065 H 
ATOM     48  C   UNL A   1      33.009  36.878  32.886  1.00  0.00    -0.062 A 
ATOM     49  H   UNL A   1      31.776  36.808  31.175  1.00  0.00     0.062 H 
ATOM     50  H   UNL A   1      34.418  36.682  34.442  1.00  0.00     0.062 H 
ATOM     51  H   UNL A   1      32.482  37.640  33.342  1.00  0.00     0.062 H 
ENDBRANCH  33  41
ENDBRANCH  23  30
ENDBRANCH  12  21
ENDBRANCH   8  11
ENDBRANCH   4   7
ENDBRANCH   1   4
BRANCH   1  52
ATOM     52  C   UNL A   1      41.941  28.125  36.120  1.00  0.00    -0.052 C 
ATOM     53  H   UNL A   1      41.744  28.806  35.317  1.00  0.00     0.027 H 
ATOM     54  H   UNL A   1      41.315  28.273  36.974  1.00  0.00     0.027 H 
BRANCH  52  55
ATOM     55  C   UNL A   1      41.639  26.701  35.617  1.00  0.00    -0.052 C 
ATOM     56  H   UNL A   1      42.487  26.366  35.059  1.00  0.00     0.027 H 
ATOM     57  H   UNL A   1      40.739  26.785  35.044  1.00  0.00     0.027 H 
BRANCH  55  58
ATOM     58  C   UNL A   1      41.341  25.648  36.696  1.00  0.00    -0.036 C 
ATOM     59  H   UNL A   1      40.302  25.397  36.648  1.00  0.00     0.028 H 
ATOM     60  H   UNL A   1      41.608  26.076  37.640  1.00  0.00     0.028 H 
BRANCH  58  61
ATOM     61  C   UNL A   1      42.153  24.376  36.530  1.00  0.00     0.018 C 
ATOM     62  H   UNL A   1      42.350  24.228  35.488  1.00  0.00     0.049 H 
ATOM     63  H   UNL A   1      41.583  23.569  36.939  1.00  0.00     0.049 H 
BRANCH  61  64
ATOM     64  N   UNL A   1      43.433  24.432  37.248  1.00  0.00    -0.352 N 
ATOM     65  C   UNL A   1      44.708  24.259  36.747  1.00  0.00     0.251 C 
ATOM     66  H   UNL A   1      43.374  24.616  38.213  1.00  0.00     0.163 HD
ATOM     67  O   UNL A   1      45.656  23.985  37.479  1.00  0.00    -0.269 OA
BRANCH  65  68
ATOM     68  C   UNL A   1      44.912  24.431  35.303  1.00  0.00     0.039 A 
ATOM     69  C   UNL A   1      45.063  23.358  34.421  1.00  0.00    -0.049 A 
ATOM     70  C   UNL A   1      44.890  25.739  34.841  1.00  0.00    -0.049 A 
ATOM     71  C   UNL A   1      45.131  23.626  33.054  1.00  0.00    -0.053 A 
ATOM     72  H   UNL A   1      45.124  22.389  34.771  1.00  0.00     0.063 H 
ATOM     73  C   UNL A   1      44.689  25.970  33.515  1.00  0.00    -0.053 A 
ATOM     74  H   UNL A   1      45.027  26.526  35.493  1.00  0.00     0.063 H 
ATOM     75  C   UNL A   1      44.935  24.943  32.617  1.00  0.00    -0.014 A 
ATOM     76  H   UNL A   1      45.319  22.870  32.378  1.00  0.00     0.063 H 
ATOM     77  H   UNL A   1      44.357  26.891  33.186  1.00  0.00     0.063 H 
BRANCH  75  78
ATOM     78  C   UNL A   1      44.980  25.327  31.216  1.00  0.00     0.031 A 
ATOM     79  C   UNL A   1      46.023  26.323  30.852  1.00  0.00     0.074 A 
ATOM     80  C   UNL A   1      44.306  24.609  30.291  1.00  0.00     0.049 A 
ATOM     81  N   UNL A   1      45.856  27.491  30.328  1.00  0.00    -0.248 NA
ATOM     82  C   UNL A   1      47.421  26.022  31.200  1.00  0.00    -0.034 C 
ATOM     83  C   UNL A   1      43.506  23.384  30.468  1.00  0.00    -0.036 A 
ATOM     84  N   UNL A   1      44.298  24.763  28.943  1.00  0.00    -0.354 N 
ATOM     85  C   UNL A   1      47.131  28.017  30.130  1.00  0.00     0.074 A 
ATOM     86  C   UNL A   1      48.040  27.140  30.820  1.00  0.00    -0.034 C 
ATOM     87  H   UNL A   1      47.818  25.169  31.626  1.00  0.00     0.065 H 
ATOM     88  C   UNL A   1      43.305  22.791  29.272  1.00  0.00    -0.036 A 
ATOM     89  H   UNL A   1      43.152  23.034  31.372  1.00  0.00     0.065 H 
ATOM     90  C   UNL A   1      43.788  23.682  28.238  1.00  0.00     0.049 A 
ATOM     91  H   UNL A   1      44.627  25.579  28.500  1.00  0.00     0.167 HD
ATOM     92  C   UNL A   1      47.350  29.028  29.242  1.00  0.00     0.037 A 
ATOM     93  H   UNL A   1      49.036  27.349  30.996  1.00  0.00     0.065 H 
ATOM     94  H   UNL A   1      42.881  21.862  29.122  1.00  0.00     0.065 H 
ATOM     95  C   UNL A   1      43.798  23.529  26.893  1.00  0.00     0.037 A 
ATOM     96  C   UNL A   1      46.113  29.670  28.876  1.00  0.00     0.049 A 
ATOM     97  C   UNL A   1      44.008  24.880  26.308  1.00  0.00     0.074 A 
ATOM     98  C   UNL A   1      45.155  30.382  29.570  1.00  0.00    -0.036 A 
ATOM     99  N   UNL A   1      45.510  29.290  27.701  1.00  0.00    -0.354 N 
ATOM    100  N   UNL A   1      43.139  25.849  26.403  1.00  0.00    -0.248 NA
ATOM    101  C   UNL A   1      45.381  25.294  26.055  1.00  0.00    -0.034 C 
ATOM    102  C   UNL A   1      43.910  29.954  29.021  1.00  0.00    -0.036 A 
ATOM    103  H   UNL A   1      45.306  31.073  30.322  1.00  0.00     0.065 H 
ATOM    104  C   UNL A   1      44.183  29.066  27.980  1.00  0.00     0.049 A 
ATOM    105  H   UNL A   1      45.946  29.196  26.823  1.00  0.00     0.167 HD
ATOM    106  C   UNL A   1      43.898  26.987  26.639  1.00  0.00     0.074 A 
ATOM    107  C   UNL A   1      45.275  26.594  26.341  1.00  0.00    -0.034 C 
ATOM    108  H   UNL A   1      46.197  24.743  25.745  1.00  0.00     0.065 H 
ATOM    109  H   UNL A   1      42.973  30.247  29.339  1.00  0.00     0.065 H 
ATOM    110  C   UNL A   1      43.387  28.048  27.332  1.00  0.00     0.037 A 
ATOM    111  H   UNL A   1      46.073  27.247  26.351  1.00  0.00     0.065 H 
BRANCH  92 112
ATOM    112  C   UNL A   1      48.622  29.240  28.461  1.00  0.00     0.064 A 
ATOM    113  C   UNL A   1      49.282  30.484  28.543  1.00  0.00     0.173 A 
ATOM    114  C   UNL A   1      49.063  28.388  27.426  1.00  0.00     0.173 A 
ATOM    115  F   UNL A   1      48.942  31.379  29.482  1.00  0.00    -0.203 F 
ATOM    116  C   UNL A   1      50.248  30.873  27.610  1.00  0.00     0.198 A 
ATOM    117  C   UNL A   1      50.065  28.758  26.530  1.00  0.00     0.198 A 
ATOM    118  F   UNL A   1      48.470  27.216  27.168  1.00  0.00    -0.203 F 
ATOM    119  F   UNL A   1      50.757  32.111  27.655  1.00  0.00    -0.200 F 
ATOM    120  C   UNL A   1      50.633  30.011  26.600  1.00  0.00     0.200 A 
ATOM    121  F   UNL A   1      50.415  27.913  25.549  1.00  0.00    -0.200 F 
ATOM    122  F   UNL A   1      51.513  30.402  25.669  1.00  0.00    -0.200 F 
ENDBRANCH  92 112
BRANCH  95 123
ATOM    123  C   UNL A   1      43.985  22.276  26.128  1.00  0.00     0.064 A 
ATOM    124  C   UNL A   1      45.262  21.847  25.735  1.00  0.00     0.173 A 
ATOM    125  C   UNL A   1      42.941  21.338  26.002  1.00  0.00     0.173 A 
ATOM    126  F   UNL A   1      46.315  22.666  25.867  1.00  0.00    -0.203 F 
ATOM    127  C   UNL A   1      45.485  20.547  25.268  1.00  0.00     0.198 A 
ATOM    128  C   UNL A   1      43.164  20.043  25.532  1.00  0.00     0.198 A 
ATOM    129  F   UNL A   1      41.701  21.628  26.425  1.00  0.00    -0.203 F 
ATOM    130  F   UNL A   1      46.729  20.153  24.960  1.00  0.00    -0.200 F 
ATOM    131  C   UNL A   1      44.440  19.644  25.177  1.00  0.00     0.200 A 
ATOM    132  F   UNL A   1      42.150  19.167  25.489  1.00  0.00    -0.200 F 
ATOM    133  F   UNL A   1      44.665  18.380  24.792  1.00  0.00    -0.200 F 
ENDBRANCH  95 123
BRANCH 110 134
ATOM    134  C   UNL A   1      41.915  28.038  27.653  1.00  0.00     0.064 A 
ATOM    135  C   UNL A   1      41.369  27.480  28.824  1.00  0.00     0.173 A 
ATOM    136  C   UNL A   1      41.044  28.757  26.826  1.00  0.00     0.173 A 
ATOM    137  F   UNL A   1      42.146  26.868  29.722  1.00  0.00    -0.203 F 
ATOM    138  C   UNL A   1      40.014  27.602  29.128  1.00  0.00     0.198 A 
ATOM    139  C   UNL A   1      39.698  28.909  27.148  1.00  0.00     0.198 A 
ATOM    140  F   UNL A   1      41.515  29.364  25.725  1.00  0.00    -0.203 F 
ATOM    141  F   UNL A   1      39.525  27.053  30.250  1.00  0.00    -0.200 F 
ATOM    142  C   UNL A   1      39.181  28.323  28.293  1.00  0.00     0.200 A 
ATOM    143  F   UNL A   1      38.906  29.653  26.364  1.00  0.00    -0.200 F 
ATOM    144  F   UNL A   1      37.886  28.479  28.605  1.00  0.00    -0.200 F 
ENDBRANCH 110 134
ENDBRANCH  75  78
ENDBRANCH  65  68
ENDBRANCH  61  64
ENDBRANCH  58  61
ENDBRANCH  55  58
ENDBRANCH  52  55
ENDBRANCH   1  52
TORSDOF 19
ENDMDL
MODEL 6
REMARK VINA RESULT:     -12.5      3.135      9.684
REMARK SMILES Cc1c(-c2nn(-c3ccccc3)cc2/C=N/O)nnn1-c1ccc(C(=O)NCCCCCCNC(=O)c2ccc(-c3c4nc(c(-c5c(F)c(F)c(F)c(F)c5F)c5ccc([nH]5)c(-c5c(F)c(F)c(F)c(F)c5F)c5nc(c(-c6c(F)c(F)c(F)c(F)c6F)c6ccc3[nH]6)C=C5)C=C4)cc2)cc1
REMARK SMILES IDX 29 1 28 4 27 7 25 8 26 9 24 11 21 12 22 13 101 14 23 15
REMARK SMILES IDX 100 17 20 21 2 22 3 23 18 24 19 25 1 26 4 30 5 31 14 32 6 33
REMARK SMILES IDX 13 34 15 36 16 37 17 39 7 41 8 42 12 43 9 44 11 46 10 48
REMARK SMILES IDX 30 52 31 55 32 58 33 61 34 64 35 65 36 67 37 68 38 69 99 70
REMARK SMILES IDX 39 71 98 73 40 75 41 78 42 79 92 80 43 81 97 82 91 83 93 84
REMARK SMILES IDX 44 85 96 86 90 88 89 90 45 92 77 95 57 96 76 97 58 98 61 99
REMARK SMILES IDX 75 100 94 101 59 102 60 104 74 106 95 107 62 110 46 112
REMARK SMILES IDX 47 113 55 114 48 115 49 116 53 117 56 118 50 119 51 120
REMARK SMILES IDX 54 121 52 122 78 123 79 124 87 125 80 126 81 127 85 128
REMARK SMILES IDX 88 129 82 130 83 131 86 132 84 133 63 134 64 135 72 136
REMARK SMILES IDX 65 137 66 138 70 139 73 140 67 141 68 142 71 143 69 144
REMARK H PARENT 29 2 29 3 28 5 28 6 27 10 22 16 101 18 23 19 100 20 1 27 1 28
REMARK H PARENT 1 29 13 35 15 38 17 40 8 45 12 47 9 49 11 50 10 51 30 53 30 54
REMARK H PARENT 31 56 31 57 32 59 32 60 33 62 33 63 34 66 38 72 99 74 39 76
REMARK H PARENT 98 77 97 87 91 89 93 91 96 93 90 94 58 103 61 105 94 108
REMARK H PARENT 59 109 95 111
REMARK Flexibility Score: inf
ROOT
ATOM      1  C   UNL A   1      38.303  19.530  25.331  1.00  0.00    -0.036 C 
ATOM      2  H   UNL A   1      38.918  19.000  24.634  1.00  0.00     0.028 H 
ATOM      3  H   UNL A   1      37.942  18.896  26.114  1.00  0.00     0.028 H 
ENDROOT
BRANCH   1   4
ATOM      4  C   UNL A   1      37.081  20.073  24.586  1.00  0.00     0.018 C 
ATOM      5  H   UNL A   1      36.783  21.003  25.024  1.00  0.00     0.049 H 
ATOM      6  H   UNL A   1      37.334  20.223  23.557  1.00  0.00     0.049 H 
BRANCH   4   7
ATOM      7  N   UNL A   1      35.988  19.129  24.676  1.00  0.00    -0.352 N 
ATOM      8  C   UNL A   1      34.636  19.255  24.850  1.00  0.00     0.251 C 
ATOM      9  O   UNL A   1      33.989  18.208  24.925  1.00  0.00    -0.269 OA
ATOM     10  H   UNL A   1      36.280  18.192  24.593  1.00  0.00     0.163 HD
BRANCH   8  11
ATOM     11  C   UNL A   1      33.908  20.556  24.880  1.00  0.00     0.039 A 
ATOM     12  C   UNL A   1      32.623  23.032  25.216  1.00  0.00     0.067 A 
ATOM     13  C   UNL A   1      33.893  22.835  25.761  1.00  0.00    -0.036 A 
ATOM     14  C   UNL A   1      32.026  22.035  24.442  1.00  0.00    -0.036 A 
ATOM     15  C   UNL A   1      34.507  21.589  25.623  1.00  0.00    -0.047 A 
ATOM     16  H   UNL A   1      34.371  23.601  26.260  1.00  0.00     0.065 H 
ATOM     17  C   UNL A   1      32.702  20.828  24.226  1.00  0.00    -0.047 A 
ATOM     18  H   UNL A   1      31.091  22.186  24.032  1.00  0.00     0.065 H 
ATOM     19  H   UNL A   1      35.420  21.423  26.075  1.00  0.00     0.063 H 
ATOM     20  H   UNL A   1      32.307  20.131  23.576  1.00  0.00     0.063 H 
BRANCH  12  21
ATOM     21  N   UNL A   1      31.972  24.267  25.409  1.00  0.00    -0.217 N 
ATOM     22  C   UNL A   1      32.151  25.457  24.734  1.00  0.00     0.071 A 
ATOM     23  C   UNL A   1      31.414  26.351  25.485  1.00  0.00     0.137 A 
ATOM     24  N   UNL A   1      30.748  25.700  26.479  1.00  0.00    -0.128 NA
ATOM     25  N   UNL A   1      31.034  24.408  26.375  1.00  0.00    -0.061 NA
BRANCH  22  26
ATOM     26  C   UNL A   1      32.872  25.609  23.449  1.00  0.00    -0.020 C 
ATOM     27  H   UNL A   1      33.606  24.834  23.357  1.00  0.00     0.030 H 
ATOM     28  H   UNL A   1      33.357  26.562  23.422  1.00  0.00     0.030 H 
ATOM     29  H   UNL A   1      32.178  25.539  22.639  1.00  0.00     0.030 H 
ENDBRANCH  22  26
BRANCH  23  30
ATOM     30  C   UNL A   1      31.210  27.774  25.254  1.00  0.00     0.124 A 
ATOM     31  N   UNL A   1      30.298  28.217  24.384  1.00  0.00    -0.165 NA
ATOM     32  C   UNL A   1      31.930  28.822  25.871  1.00  0.00     0.044 A 
ATOM     33  N   UNL A   1      30.480  29.554  24.355  1.00  0.00    -0.240 N 
ATOM     34  C   UNL A   1      31.457  29.957  25.237  1.00  0.00     0.040 A 
ATOM     35  H   UNL A   1      31.779  30.925  25.395  1.00  0.00     0.085 H 
BRANCH  32  36
ATOM     36  C   UNL A   1      32.927  28.813  26.911  1.00  0.00     0.077 C 
ATOM     37  N   UNL A   1      33.554  29.900  27.218  1.00  0.00    -0.097 NA
ATOM     38  H   UNL A   1      33.141  27.936  27.411  1.00  0.00     0.088 H 
BRANCH  37  39
ATOM     39  O   UNL A   1      34.486  29.626  28.227  1.00  0.00    -0.411 OA
ATOM     40  H   UNL A   1      34.194  29.456  29.101  1.00  0.00     0.330 HD
ENDBRANCH  37  39
ENDBRANCH  32  36
BRANCH  33  41
ATOM     41  C   UNL A   1      29.741  30.359  23.458  1.00  0.00     0.065 A 
ATOM     42  C   UNL A   1      29.232  31.587  23.905  1.00  0.00    -0.036 A 
ATOM     43  C   UNL A   1      29.489  29.923  22.153  1.00  0.00    -0.036 A 
ATOM     44  C   UNL A   1      28.490  32.386  23.037  1.00  0.00    -0.060 A 
ATOM     45  H   UNL A   1      29.408  31.898  24.873  1.00  0.00     0.065 H 
ATOM     46  C   UNL A   1      28.700  30.706  21.308  1.00  0.00    -0.060 A 
ATOM     47  H   UNL A   1      29.882  29.029  21.818  1.00  0.00     0.065 H 
ATOM     48  C   UNL A   1      28.211  31.939  21.746  1.00  0.00    -0.062 A 
ATOM     49  H   UNL A   1      28.146  33.307  23.350  1.00  0.00     0.062 H 
ATOM     50  H   UNL A   1      28.477  30.374  20.358  1.00  0.00     0.062 H 
ATOM     51  H   UNL A   1      27.642  32.521  21.111  1.00  0.00     0.062 H 
ENDBRANCH  33  41
ENDBRANCH  23  30
ENDBRANCH  12  21
ENDBRANCH   8  11
ENDBRANCH   4   7
ENDBRANCH   1   4
BRANCH   1  52
ATOM     52  C   UNL A   1      39.148  20.631  25.988  1.00  0.00    -0.052 C 
ATOM     53  H   UNL A   1      40.120  20.612  25.540  1.00  0.00     0.027 H 
ATOM     54  H   UNL A   1      39.151  20.415  27.035  1.00  0.00     0.027 H 
BRANCH  52  55
ATOM     55  C   UNL A   1      38.594  22.062  25.855  1.00  0.00    -0.052 C 
ATOM     56  H   UNL A   1      37.556  22.035  26.110  1.00  0.00     0.027 H 
ATOM     57  H   UNL A   1      38.792  22.352  24.843  1.00  0.00     0.027 H 
BRANCH  55  58
ATOM     58  C   UNL A   1      39.264  23.135  26.728  1.00  0.00    -0.036 C 
ATOM     59  H   UNL A   1      38.542  23.504  27.425  1.00  0.00     0.028 H 
ATOM     60  H   UNL A   1      39.619  23.902  26.072  1.00  0.00     0.028 H 
BRANCH  58  61
ATOM     61  C   UNL A   1      40.461  22.613  27.502  1.00  0.00     0.018 C 
ATOM     62  H   UNL A   1      40.222  21.645  27.893  1.00  0.00     0.049 H 
ATOM     63  H   UNL A   1      40.672  23.310  28.286  1.00  0.00     0.049 H 
BRANCH  61  64
ATOM     64  N   UNL A   1      41.662  22.500  26.665  1.00  0.00    -0.352 N 
ATOM     65  C   UNL A   1      42.364  23.505  26.029  1.00  0.00     0.251 C 
ATOM     66  H   UNL A   1      42.012  21.588  26.540  1.00  0.00     0.163 HD
ATOM     67  O   UNL A   1      43.125  23.266  25.094  1.00  0.00    -0.269 OA
BRANCH  65  68
ATOM     68  C   UNL A   1      42.194  24.880  26.515  1.00  0.00     0.039 A 
ATOM     69  C   UNL A   1      41.291  25.783  25.947  1.00  0.00    -0.049 A 
ATOM     70  C   UNL A   1      42.950  25.228  27.625  1.00  0.00    -0.049 A 
ATOM     71  C   UNL A   1      41.120  27.024  26.559  1.00  0.00    -0.053 A 
ATOM     72  H   UNL A   1      40.763  25.538  25.095  1.00  0.00     0.063 H 
ATOM     73  C   UNL A   1      42.588  26.314  28.359  1.00  0.00    -0.053 A 
ATOM     74  H   UNL A   1      43.777  24.670  27.888  1.00  0.00     0.063 H 
ATOM     75  C   UNL A   1      41.775  27.272  27.772  1.00  0.00    -0.014 A 
ATOM     76  H   UNL A   1      40.521  27.745  26.127  1.00  0.00     0.063 H 
ATOM     77  H   UNL A   1      42.911  26.422  29.333  1.00  0.00     0.063 H 
BRANCH  75  78
ATOM     78  C   UNL A   1      41.660  28.529  28.492  1.00  0.00     0.031 A 
ATOM     79  C   UNL A   1      42.685  29.556  28.167  1.00  0.00     0.074 A 
ATOM     80  C   UNL A   1      40.535  28.817  29.183  1.00  0.00     0.049 A 
ATOM     81  N   UNL A   1      43.532  30.111  28.967  1.00  0.00    -0.248 NA
ATOM     82  C   UNL A   1      42.851  29.948  26.758  1.00  0.00    -0.034 C 
ATOM     83  C   UNL A   1      39.294  28.032  29.307  1.00  0.00    -0.036 A 
ATOM     84  N   UNL A   1      40.216  29.961  29.838  1.00  0.00    -0.354 N 
ATOM     85  C   UNL A   1      44.240  31.039  28.204  1.00  0.00     0.074 A 
ATOM     86  C   UNL A   1      43.885  30.788  26.833  1.00  0.00    -0.034 C 
ATOM     87  H   UNL A   1      42.310  29.652  25.931  1.00  0.00     0.065 H 
ATOM     88  C   UNL A   1      38.300  28.816  29.776  1.00  0.00    -0.036 A 
ATOM     89  H   UNL A   1      39.200  27.032  29.070  1.00  0.00     0.065 H 
ATOM     90  C   UNL A   1      38.872  30.088  30.164  1.00  0.00     0.049 A 
ATOM     91  H   UNL A   1      40.885  30.647  30.065  1.00  0.00     0.167 HD
ATOM     92  C   UNL A   1      44.910  32.072  28.789  1.00  0.00     0.037 A 
ATOM     93  H   UNL A   1      44.364  31.203  26.018  1.00  0.00     0.065 H 
ATOM     94  H   UNL A   1      37.304  28.554  29.844  1.00  0.00     0.065 H 
ATOM     95  C   UNL A   1      38.278  31.186  30.689  1.00  0.00     0.037 A 
ATOM     96  C   UNL A   1      45.085  31.840  30.201  1.00  0.00     0.049 A 
ATOM     97  C   UNL A   1      39.359  32.022  31.274  1.00  0.00     0.074 A 
ATOM     98  C   UNL A   1      45.750  30.885  30.944  1.00  0.00    -0.036 A 
ATOM     99  N   UNL A   1      44.200  32.433  31.069  1.00  0.00    -0.354 N 
ATOM    100  N   UNL A   1      40.075  31.657  32.303  1.00  0.00    -0.248 NA
ATOM    101  C   UNL A   1      39.968  33.027  30.415  1.00  0.00    -0.034 C 
ATOM    102  C   UNL A   1      44.885  30.611  32.046  1.00  0.00    -0.036 A 
ATOM    103  H   UNL A   1      46.670  30.462  30.747  1.00  0.00     0.065 H 
ATOM    104  C   UNL A   1      43.785  31.464  31.950  1.00  0.00     0.049 A 
ATOM    105  H   UNL A   1      43.917  33.376  31.063  1.00  0.00     0.167 HD
ATOM    106  C   UNL A   1      41.368  32.061  32.001  1.00  0.00     0.074 A 
ATOM    107  C   UNL A   1      41.226  32.964  30.858  1.00  0.00    -0.034 C 
ATOM    108  H   UNL A   1      39.549  33.617  29.679  1.00  0.00     0.065 H 
ATOM    109  H   UNL A   1      45.044  29.906  32.782  1.00  0.00     0.065 H 
ATOM    110  C   UNL A   1      42.453  31.404  32.508  1.00  0.00     0.037 A 
ATOM    111  H   UNL A   1      42.009  33.491  30.443  1.00  0.00     0.065 H 
BRANCH  92 112
ATOM    112  C   UNL A   1      45.132  33.428  28.169  1.00  0.00     0.064 A 
ATOM    113  C   UNL A   1      46.443  33.829  27.838  1.00  0.00     0.173 A 
ATOM    114  C   UNL A   1      44.162  34.454  28.149  1.00  0.00     0.173 A 
ATOM    115  F   UNL A   1      47.449  32.942  27.833  1.00  0.00    -0.203 F 
ATOM    116  C   UNL A   1      46.768  35.166  27.588  1.00  0.00     0.198 A 
ATOM    117  C   UNL A   1      44.480  35.776  27.845  1.00  0.00     0.198 A 
ATOM    118  F   UNL A   1      42.896  34.243  28.528  1.00  0.00    -0.203 F 
ATOM    119  F   UNL A   1      48.048  35.516  27.400  1.00  0.00    -0.200 F 
ATOM    120  C   UNL A   1      45.786  36.139  27.599  1.00  0.00     0.200 A 
ATOM    121  F   UNL A   1      43.516  36.708  27.875  1.00  0.00    -0.200 F 
ATOM    122  F   UNL A   1      46.103  37.428  27.420  1.00  0.00    -0.200 F 
ENDBRANCH  92 112
BRANCH  95 123
ATOM    123  C   UNL A   1      36.919  31.699  30.407  1.00  0.00     0.064 A 
ATOM    124  C   UNL A   1      36.012  31.961  31.444  1.00  0.00     0.173 A 
ATOM    125  C   UNL A   1      36.580  32.199  29.133  1.00  0.00     0.173 A 
ATOM    126  F   UNL A   1      36.285  31.559  32.693  1.00  0.00    -0.203 F 
ATOM    127  C   UNL A   1      34.844  32.702  31.225  1.00  0.00     0.198 A 
ATOM    128  C   UNL A   1      35.413  32.933  28.915  1.00  0.00     0.198 A 
ATOM    129  F   UNL A   1      37.421  32.067  28.097  1.00  0.00    -0.203 F 
ATOM    130  F   UNL A   1      34.031  32.985  32.252  1.00  0.00    -0.200 F 
ATOM    131  C   UNL A   1      34.552  33.196  29.964  1.00  0.00     0.200 A 
ATOM    132  F   UNL A   1      35.164  33.440  27.699  1.00  0.00    -0.200 F 
ATOM    133  F   UNL A   1      33.468  33.959  29.768  1.00  0.00    -0.200 F 
ENDBRANCH  95 123
BRANCH 110 134
ATOM    134  C   UNL A   1      42.212  30.361  33.569  1.00  0.00     0.064 A 
ATOM    135  C   UNL A   1      42.030  28.992  33.299  1.00  0.00     0.173 A 
ATOM    136  C   UNL A   1      42.331  30.734  34.913  1.00  0.00     0.173 A 
ATOM    137  F   UNL A   1      42.011  28.535  32.044  1.00  0.00    -0.203 F 
ATOM    138  C   UNL A   1      41.929  28.053  34.324  1.00  0.00     0.198 A 
ATOM    139  C   UNL A   1      42.266  29.790  35.935  1.00  0.00     0.198 A 
ATOM    140  F   UNL A   1      42.567  32.015  35.235  1.00  0.00    -0.203 F 
ATOM    141  F   UNL A   1      41.749  26.756  34.032  1.00  0.00    -0.200 F 
ATOM    142  C   UNL A   1      42.056  28.452  35.641  1.00  0.00     0.200 A 
ATOM    143  F   UNL A   1      42.442  30.174  37.207  1.00  0.00    -0.200 F 
ATOM    144  F   UNL A   1      42.003  27.545  36.627  1.00  0.00    -0.200 F 
ENDBRANCH 110 134
ENDBRANCH  75  78
ENDBRANCH  65  68
ENDBRANCH  61  64
ENDBRANCH  58  61
ENDBRANCH  55  58
ENDBRANCH  52  55
ENDBRANCH   1  52
TORSDOF 19
ENDMDL
MODEL 7
REMARK VINA RESULT:     -12.5      2.910      9.548
REMARK SMILES Cc1c(-c2nn(-c3ccccc3)cc2/C=N/O)nnn1-c1ccc(C(=O)NCCCCCCNC(=O)c2ccc(-c3c4nc(c(-c5c(F)c(F)c(F)c(F)c5F)c5ccc([nH]5)c(-c5c(F)c(F)c(F)c(F)c5F)c5nc(c(-c6c(F)c(F)c(F)c(F)c6F)c6ccc3[nH]6)C=C5)C=C4)cc2)cc1
REMARK SMILES IDX 29 1 28 4 27 7 25 8 26 9 24 11 21 12 22 13 101 14 23 15
REMARK SMILES IDX 100 17 20 21 2 22 3 23 18 24 19 25 1 26 4 30 5 31 14 32 6 33
REMARK SMILES IDX 13 34 15 36 16 37 17 39 7 41 8 42 12 43 9 44 11 46 10 48
REMARK SMILES IDX 30 52 31 55 32 58 33 61 34 64 35 65 36 67 37 68 38 69 99 70
REMARK SMILES IDX 39 71 98 73 40 75 41 78 42 79 92 80 43 81 97 82 91 83 93 84
REMARK SMILES IDX 44 85 96 86 90 88 89 90 45 92 77 95 57 96 76 97 58 98 61 99
REMARK SMILES IDX 75 100 94 101 59 102 60 104 74 106 95 107 62 110 46 112
REMARK SMILES IDX 47 113 55 114 48 115 49 116 53 117 56 118 50 119 51 120
REMARK SMILES IDX 54 121 52 122 78 123 79 124 87 125 80 126 81 127 85 128
REMARK SMILES IDX 88 129 82 130 83 131 86 132 84 133 63 134 64 135 72 136
REMARK SMILES IDX 65 137 66 138 70 139 73 140 67 141 68 142 71 143 69 144
REMARK H PARENT 29 2 29 3 28 5 28 6 27 10 22 16 101 18 23 19 100 20 1 27 1 28
REMARK H PARENT 1 29 13 35 15 38 17 40 8 45 12 47 9 49 11 50 10 51 30 53 30 54
REMARK H PARENT 31 56 31 57 32 59 32 60 33 62 33 63 34 66 38 72 99 74 39 76
REMARK H PARENT 98 77 97 87 91 89 93 91 96 93 90 94 58 103 61 105 94 108
REMARK H PARENT 59 109 95 111
REMARK Flexibility Score: inf
ROOT
ATOM      1  C   UNL A   1      35.674  19.691  24.412  1.00  0.00    -0.036 C 
ATOM      2  H   UNL A   1      34.803  20.281  24.606  1.00  0.00     0.028 H 
ATOM      3  H   UNL A   1      35.852  19.568  23.364  1.00  0.00     0.028 H 
ENDROOT
BRANCH   1   4
ATOM      4  C   UNL A   1      35.458  18.296  25.003  1.00  0.00     0.018 C 
ATOM      5  H   UNL A   1      36.025  17.582  24.443  1.00  0.00     0.049 H 
ATOM      6  H   UNL A   1      35.780  18.292  26.024  1.00  0.00     0.049 H 
BRANCH   4   7
ATOM      7  N   UNL A   1      34.055  17.946  24.945  1.00  0.00    -0.352 N 
ATOM      8  C   UNL A   1      32.892  18.663  25.034  1.00  0.00     0.251 C 
ATOM      9  O   UNL A   1      31.842  18.021  24.985  1.00  0.00    -0.269 OA
ATOM     10  H   UNL A   1      33.903  16.982  24.813  1.00  0.00     0.163 HD
BRANCH   8  11
ATOM     11  C   UNL A   1      32.825  20.152  25.111  1.00  0.00     0.039 A 
ATOM     12  C   UNL A   1      32.824  22.958  24.990  1.00  0.00     0.067 A 
ATOM     13  C   UNL A   1      32.494  22.220  23.854  1.00  0.00    -0.036 A 
ATOM     14  C   UNL A   1      33.077  22.311  26.203  1.00  0.00    -0.036 A 
ATOM     15  C   UNL A   1      32.535  20.826  23.911  1.00  0.00    -0.047 A 
ATOM     16  H   UNL A   1      32.223  22.699  22.980  1.00  0.00     0.065 H 
ATOM     17  C   UNL A   1      33.011  20.914  26.268  1.00  0.00    -0.047 A 
ATOM     18  H   UNL A   1      33.311  22.859  27.045  1.00  0.00     0.065 H 
ATOM     19  H   UNL A   1      32.349  20.279  23.056  1.00  0.00     0.063 H 
ATOM     20  H   UNL A   1      33.100  20.442  27.181  1.00  0.00     0.063 H 
BRANCH  12  21
ATOM     21  N   UNL A   1      32.847  24.365  24.918  1.00  0.00    -0.217 N 
ATOM     22  C   UNL A   1      31.841  25.265  25.206  1.00  0.00     0.071 A 
ATOM     23  C   UNL A   1      32.360  26.462  24.754  1.00  0.00     0.137 A 
ATOM     24  N   UNL A   1      33.645  26.293  24.330  1.00  0.00    -0.128 NA
ATOM     25  N   UNL A   1      33.961  25.016  24.510  1.00  0.00    -0.061 NA
BRANCH  22  26
ATOM     26  C   UNL A   1      30.595  24.947  25.942  1.00  0.00    -0.020 C 
ATOM     27  H   UNL A   1      30.842  24.529  26.896  1.00  0.00     0.030 H 
ATOM     28  H   UNL A   1      30.021  24.239  25.381  1.00  0.00     0.030 H 
ATOM     29  H   UNL A   1      30.024  25.840  26.080  1.00  0.00     0.030 H 
ENDBRANCH  22  26
BRANCH  23  30
ATOM     30  C   UNL A   1      31.756  27.787  24.800  1.00  0.00     0.124 A 
ATOM     31  N   UNL A   1      30.817  28.156  23.924  1.00  0.00    -0.165 NA
ATOM     32  C   UNL A   1      32.084  28.813  25.714  1.00  0.00     0.044 A 
ATOM     33  N   UNL A   1      30.593  29.458  24.200  1.00  0.00    -0.240 N 
ATOM     34  C   UNL A   1      31.340  29.892  25.271  1.00  0.00     0.040 A 
ATOM     35  H   UNL A   1      31.345  30.843  25.671  1.00  0.00     0.085 H 
BRANCH  32  36
ATOM     36  C   UNL A   1      32.964  28.829  26.856  1.00  0.00     0.077 C 
ATOM     37  N   UNL A   1      34.051  29.526  26.827  1.00  0.00    -0.097 NA
ATOM     38  H   UNL A   1      32.723  28.284  27.698  1.00  0.00     0.088 H 
BRANCH  37  39
ATOM     39  O   UNL A   1      34.741  29.354  28.033  1.00  0.00    -0.411 OA
ATOM     40  H   UNL A   1      35.647  29.117  28.025  1.00  0.00     0.330 HD
ENDBRANCH  37  39
ENDBRANCH  32  36
BRANCH  33  41
ATOM     41  C   UNL A   1      29.712  30.219  23.398  1.00  0.00     0.065 A 
ATOM     42  C   UNL A   1      29.425  29.783  22.097  1.00  0.00    -0.036 A 
ATOM     43  C   UNL A   1      29.160  31.411  23.881  1.00  0.00    -0.036 A 
ATOM     44  C   UNL A   1      28.569  30.529  21.288  1.00  0.00    -0.060 A 
ATOM     45  H   UNL A   1      29.847  28.911  21.739  1.00  0.00     0.065 H 
ATOM     46  C   UNL A   1      28.346  32.178  23.045  1.00  0.00    -0.060 A 
ATOM     47  H   UNL A   1      29.353  31.720  24.846  1.00  0.00     0.065 H 
ATOM     48  C   UNL A   1      28.043  31.732  21.756  1.00  0.00    -0.062 A 
ATOM     49  H   UNL A   1      28.326  30.191  20.344  1.00  0.00     0.062 H 
ATOM     50  H   UNL A   1      27.967  33.076  23.380  1.00  0.00     0.062 H 
ATOM     51  H   UNL A   1      27.428  32.296  21.149  1.00  0.00     0.062 H 
ENDBRANCH  33  41
ENDBRANCH  23  30
ENDBRANCH  12  21
ENDBRANCH   8  11
ENDBRANCH   4   7
ENDBRANCH   1   4
BRANCH   1  52
ATOM     52  C   UNL A   1      36.894  20.414  25.001  1.00  0.00    -0.052 C 
ATOM     53  H   UNL A   1      37.486  20.778  24.187  1.00  0.00     0.027 H 
ATOM     54  H   UNL A   1      37.397  19.694  25.612  1.00  0.00     0.027 H 
BRANCH  52  55
ATOM     55  C   UNL A   1      36.578  21.604  25.926  1.00  0.00    -0.052 C 
ATOM     56  H   UNL A   1      37.206  21.524  26.787  1.00  0.00     0.027 H 
ATOM     57  H   UNL A   1      35.530  21.531  26.137  1.00  0.00     0.027 H 
BRANCH  55  58
ATOM     58  C   UNL A   1      36.779  23.004  25.326  1.00  0.00    -0.036 C 
ATOM     59  H   UNL A   1      35.969  23.628  25.639  1.00  0.00     0.028 H 
ATOM     60  H   UNL A   1      36.813  22.892  24.263  1.00  0.00     0.028 H 
BRANCH  58  61
ATOM     61  C   UNL A   1      38.083  23.655  25.754  1.00  0.00     0.018 C 
ATOM     62  H   UNL A   1      37.919  24.181  26.672  1.00  0.00     0.049 H 
ATOM     63  H   UNL A   1      38.388  24.318  24.972  1.00  0.00     0.049 H 
BRANCH  61  64
ATOM     64  N   UNL A   1      39.157  22.675  25.957  1.00  0.00    -0.352 N 
ATOM     65  C   UNL A   1      40.425  22.882  26.462  1.00  0.00     0.251 C 
ATOM     66  H   UNL A   1      38.945  21.749  25.697  1.00  0.00     0.163 HD
ATOM     67  O   UNL A   1      41.336  22.080  26.265  1.00  0.00    -0.269 OA
BRANCH  65  68
ATOM     68  C   UNL A   1      40.659  24.086  27.268  1.00  0.00     0.039 A 
ATOM     69  C   UNL A   1      41.826  24.294  28.008  1.00  0.00    -0.049 A 
ATOM     70  C   UNL A   1      39.667  25.054  27.211  1.00  0.00    -0.049 A 
ATOM     71  C   UNL A   1      42.000  25.524  28.642  1.00  0.00    -0.053 A 
ATOM     72  H   UNL A   1      42.542  23.555  28.086  1.00  0.00     0.063 H 
ATOM     73  C   UNL A   1      39.958  26.325  27.599  1.00  0.00    -0.053 A 
ATOM     74  H   UNL A   1      38.720  24.812  26.881  1.00  0.00     0.063 H 
ATOM     75  C   UNL A   1      41.055  26.534  28.421  1.00  0.00    -0.014 A 
ATOM     76  H   UNL A   1      42.811  25.687  29.259  1.00  0.00     0.063 H 
ATOM     77  H   UNL A   1      39.374  27.117  27.287  1.00  0.00     0.063 H 
BRANCH  75  78
ATOM     78  C   UNL A   1      41.147  27.851  29.029  1.00  0.00     0.031 A 
ATOM     79  C   UNL A   1      42.260  28.709  28.544  1.00  0.00     0.074 A 
ATOM     80  C   UNL A   1      40.122  28.335  29.764  1.00  0.00     0.049 A 
ATOM     81  N   UNL A   1      43.227  29.217  29.231  1.00  0.00    -0.248 NA
ATOM     82  C   UNL A   1      42.363  28.960  27.097  1.00  0.00    -0.034 C 
ATOM     83  C   UNL A   1      38.809  27.726  30.041  1.00  0.00    -0.036 A 
ATOM     84  N   UNL A   1      39.994  29.561  30.330  1.00  0.00    -0.354 N 
ATOM     85  C   UNL A   1      43.980  29.982  28.341  1.00  0.00     0.074 A 
ATOM     86  C   UNL A   1      43.492  29.666  27.025  1.00  0.00    -0.034 C 
ATOM     87  H   UNL A   1      41.728  28.666  26.338  1.00  0.00     0.065 H 
ATOM     88  C   UNL A   1      37.956  28.666  30.501  1.00  0.00    -0.036 A 
ATOM     89  H   UNL A   1      38.577  26.730  29.904  1.00  0.00     0.065 H 
ATOM     90  C   UNL A   1      38.704  29.884  30.732  1.00  0.00     0.049 A 
ATOM     91  H   UNL A   1      40.756  30.173  30.449  1.00  0.00     0.167 HD
ATOM     92  C   UNL A   1      44.812  30.967  28.783  1.00  0.00     0.037 A 
ATOM     93  H   UNL A   1      43.954  29.947  26.145  1.00  0.00     0.065 H 
ATOM     94  H   UNL A   1      36.944  28.539  30.659  1.00  0.00     0.065 H 
ATOM     95  C   UNL A   1      38.289  31.087  31.192  1.00  0.00     0.037 A 
ATOM     96  C   UNL A   1      45.067  30.833  30.195  1.00  0.00     0.049 A 
ATOM     97  C   UNL A   1      39.505  31.825  31.625  1.00  0.00     0.074 A 
ATOM     98  C   UNL A   1      45.667  29.866  30.977  1.00  0.00    -0.036 A 
ATOM     99  N   UNL A   1      44.329  31.602  31.062  1.00  0.00    -0.354 N 
ATOM    100  N   UNL A   1      40.248  31.460  32.633  1.00  0.00    -0.248 NA
ATOM    101  C   UNL A   1      40.161  32.671  30.639  1.00  0.00    -0.034 C 
ATOM    102  C   UNL A   1      44.863  29.796  32.155  1.00  0.00    -0.036 A 
ATOM    103  H   UNL A   1      46.512  29.315  30.760  1.00  0.00     0.065 H 
ATOM    104  C   UNL A   1      43.870  30.770  32.054  1.00  0.00     0.049 A 
ATOM    105  H   UNL A   1      44.162  32.570  30.988  1.00  0.00     0.167 HD
ATOM    106  C   UNL A   1      41.553  31.670  32.210  1.00  0.00     0.074 A 
ATOM    107  C   UNL A   1      41.433  32.486  31.002  1.00  0.00    -0.034 C 
ATOM    108  H   UNL A   1      39.760  33.246  29.881  1.00  0.00     0.065 H 
ATOM    109  H   UNL A   1      44.993  29.140  32.940  1.00  0.00     0.065 H 
ATOM    110  C   UNL A   1      42.587  30.926  32.702  1.00  0.00     0.037 A 
ATOM    111  H   UNL A   1      42.239  32.873  30.488  1.00  0.00     0.065 H 
BRANCH  92 112
ATOM    112  C   UNL A   1      45.147  32.228  28.028  1.00  0.00     0.064 A 
ATOM    113  C   UNL A   1      44.122  33.158  27.750  1.00  0.00     0.173 A 
ATOM    114  C   UNL A   1      46.353  32.429  27.323  1.00  0.00     0.173 A 
ATOM    115  F   UNL A   1      42.928  33.062  28.354  1.00  0.00    -0.203 F 
ATOM    116  C   UNL A   1      44.271  34.157  26.783  1.00  0.00     0.198 A 
ATOM    117  C   UNL A   1      46.516  33.460  26.400  1.00  0.00     0.198 A 
ATOM    118  F   UNL A   1      47.380  31.576  27.414  1.00  0.00    -0.203 F 
ATOM    119  F   UNL A   1      43.229  34.937  26.467  1.00  0.00    -0.200 F 
ATOM    120  C   UNL A   1      45.466  34.302  26.104  1.00  0.00     0.200 A 
ATOM    121  F   UNL A   1      47.679  33.575  25.741  1.00  0.00    -0.200 F 
ATOM    122  F   UNL A   1      45.592  35.218  25.135  1.00  0.00    -0.200 F 
ENDBRANCH  92 112
BRANCH  95 123
ATOM    123  C   UNL A   1      36.984  31.743  30.955  1.00  0.00     0.064 A 
ATOM    124  C   UNL A   1      36.072  31.947  32.001  1.00  0.00     0.173 A 
ATOM    125  C   UNL A   1      36.720  32.425  29.750  1.00  0.00     0.173 A 
ATOM    126  F   UNL A   1      36.278  31.369  33.193  1.00  0.00    -0.203 F 
ATOM    127  C   UNL A   1      34.974  32.803  31.859  1.00  0.00     0.198 A 
ATOM    128  C   UNL A   1      35.623  33.276  29.608  1.00  0.00     0.198 A 
ATOM    129  F   UNL A   1      37.576  32.355  28.719  1.00  0.00    -0.203 F 
ATOM    130  F   UNL A   1      34.159  33.021  32.900  1.00  0.00    -0.200 F 
ATOM    131  C   UNL A   1      34.757  33.474  30.667  1.00  0.00     0.200 A 
ATOM    132  F   UNL A   1      35.449  33.950  28.462  1.00  0.00    -0.200 F 
ATOM    133  F   UNL A   1      33.743  34.344  30.552  1.00  0.00    -0.200 F 
ENDBRANCH  95 123
BRANCH 110 134
ATOM    134  C   UNL A   1      42.306  30.013  33.868  1.00  0.00     0.064 A 
ATOM    135  C   UNL A   1      41.833  28.694  33.738  1.00  0.00     0.173 A 
ATOM    136  C   UNL A   1      42.680  30.431  35.151  1.00  0.00     0.173 A 
ATOM    137  F   UNL A   1      41.553  28.178  32.538  1.00  0.00    -0.203 F 
ATOM    138  C   UNL A   1      41.702  27.853  34.842  1.00  0.00     0.198 A 
ATOM    139  C   UNL A   1      42.582  29.578  36.248  1.00  0.00     0.198 A 
ATOM    140  F   UNL A   1      43.195  31.657  35.333  1.00  0.00    -0.203 F 
ATOM    141  F   UNL A   1      41.242  26.603  34.684  1.00  0.00    -0.200 F 
ATOM    142  C   UNL A   1      42.085  28.294  36.095  1.00  0.00     0.200 A 
ATOM    143  F   UNL A   1      43.004  29.992  37.451  1.00  0.00    -0.200 F 
ATOM    144  F   UNL A   1      42.001  27.473  37.152  1.00  0.00    -0.200 F 
ENDBRANCH 110 134
ENDBRANCH  75  78
ENDBRANCH  65  68
ENDBRANCH  61  64
ENDBRANCH  58  61
ENDBRANCH  55  58
ENDBRANCH  52  55
ENDBRANCH   1  52
TORSDOF 19
ENDMDL
MODEL 8
REMARK VINA RESULT:     -12.4      4.919     10.151
REMARK SMILES Cc1c(-c2nn(-c3ccccc3)cc2/C=N/O)nnn1-c1ccc(C(=O)NCCCCCCNC(=O)c2ccc(-c3c4nc(c(-c5c(F)c(F)c(F)c(F)c5F)c5ccc([nH]5)c(-c5c(F)c(F)c(F)c(F)c5F)c5nc(c(-c6c(F)c(F)c(F)c(F)c6F)c6ccc3[nH]6)C=C5)C=C4)cc2)cc1
REMARK SMILES IDX 29 1 28 4 27 7 25 8 26 9 24 11 21 12 22 13 101 14 23 15
REMARK SMILES IDX 100 17 20 21 2 22 3 23 18 24 19 25 1 26 4 30 5 31 14 32 6 33
REMARK SMILES IDX 13 34 15 36 16 37 17 39 7 41 8 42 12 43 9 44 11 46 10 48
REMARK SMILES IDX 30 52 31 55 32 58 33 61 34 64 35 65 36 67 37 68 38 69 99 70
REMARK SMILES IDX 39 71 98 73 40 75 41 78 42 79 92 80 43 81 97 82 91 83 93 84
REMARK SMILES IDX 44 85 96 86 90 88 89 90 45 92 77 95 57 96 76 97 58 98 61 99
REMARK SMILES IDX 75 100 94 101 59 102 60 104 74 106 95 107 62 110 46 112
REMARK SMILES IDX 47 113 55 114 48 115 49 116 53 117 56 118 50 119 51 120
REMARK SMILES IDX 54 121 52 122 78 123 79 124 87 125 80 126 81 127 85 128
REMARK SMILES IDX 88 129 82 130 83 131 86 132 84 133 63 134 64 135 72 136
REMARK SMILES IDX 65 137 66 138 70 139 73 140 67 141 68 142 71 143 69 144
REMARK H PARENT 29 2 29 3 28 5 28 6 27 10 22 16 101 18 23 19 100 20 1 27 1 28
REMARK H PARENT 1 29 13 35 15 38 17 40 8 45 12 47 9 49 11 50 10 51 30 53 30 54
REMARK H PARENT 31 56 31 57 32 59 32 60 33 62 33 63 34 66 38 72 99 74 39 76
REMARK H PARENT 98 77 97 87 91 89 93 91 96 93 90 94 58 103 61 105 94 108
REMARK H PARENT 59 109 95 111
REMARK Flexibility Score: inf
ROOT
ATOM      1  C   UNL A   1      38.139  34.218  31.582  1.00  0.00    -0.036 C 
ATOM      2  H   UNL A   1      38.111  33.152  31.486  1.00  0.00     0.028 H 
ATOM      3  H   UNL A   1      37.549  34.705  30.834  1.00  0.00     0.028 H 
ENDROOT
BRANCH   1   4
ATOM      4  C   UNL A   1      39.585  34.685  31.396  1.00  0.00     0.018 C 
ATOM      5  H   UNL A   1      39.644  35.320  30.537  1.00  0.00     0.049 H 
ATOM      6  H   UNL A   1      39.895  35.224  32.266  1.00  0.00     0.049 H 
BRANCH   4   7
ATOM      7  N   UNL A   1      40.453  33.542  31.209  1.00  0.00    -0.352 N 
ATOM      8  C   UNL A   1      40.783  32.463  31.984  1.00  0.00     0.251 C 
ATOM      9  O   UNL A   1      41.612  31.681  31.516  1.00  0.00    -0.269 OA
ATOM     10  H   UNL A   1      40.905  33.541  30.334  1.00  0.00     0.163 HD
BRANCH   8  11
ATOM     11  C   UNL A   1      40.156  32.147  33.300  1.00  0.00     0.039 A 
ATOM     12  C   UNL A   1      38.717  31.557  35.639  1.00  0.00     0.067 A 
ATOM     13  C   UNL A   1      38.363  30.941  34.438  1.00  0.00    -0.036 A 
ATOM     14  C   UNL A   1      39.828  32.402  35.697  1.00  0.00    -0.036 A 
ATOM     15  C   UNL A   1      39.057  31.269  33.273  1.00  0.00    -0.047 A 
ATOM     16  H   UNL A   1      37.596  30.251  34.412  1.00  0.00     0.065 H 
ATOM     17  C   UNL A   1      40.578  32.639  34.539  1.00  0.00    -0.047 A 
ATOM     18  H   UNL A   1      40.094  32.849  36.588  1.00  0.00     0.065 H 
ATOM     19  H   UNL A   1      38.759  30.860  32.374  1.00  0.00     0.063 H 
ATOM     20  H   UNL A   1      41.453  33.182  34.601  1.00  0.00     0.063 H 
BRANCH  12  21
ATOM     21  N   UNL A   1      37.975  31.277  36.804  1.00  0.00    -0.217 N 
ATOM     22  C   UNL A   1      37.479  32.153  37.749  1.00  0.00     0.071 A 
ATOM     23  C   UNL A   1      37.040  31.310  38.750  1.00  0.00     0.137 A 
ATOM     24  N   UNL A   1      37.166  30.008  38.364  1.00  0.00    -0.128 NA
ATOM     25  N   UNL A   1      37.667  30.001  37.135  1.00  0.00    -0.061 NA
BRANCH  22  26
ATOM     26  C   UNL A   1      37.372  33.620  37.579  1.00  0.00    -0.020 C 
ATOM     27  H   UNL A   1      36.969  34.054  38.470  1.00  0.00     0.030 H 
ATOM     28  H   UNL A   1      36.725  33.838  36.754  1.00  0.00     0.030 H 
ATOM     29  H   UNL A   1      38.341  34.030  37.389  1.00  0.00     0.030 H 
ENDBRANCH  22  26
BRANCH  23  30
ATOM     30  C   UNL A   1      36.401  31.658  40.011  1.00  0.00     0.124 A 
ATOM     31  N   UNL A   1      35.220  32.283  40.047  1.00  0.00    -0.165 NA
ATOM     32  C   UNL A   1      36.929  31.415  41.299  1.00  0.00     0.044 A 
ATOM     33  N   UNL A   1      35.013  32.538  41.356  1.00  0.00    -0.240 N 
ATOM     34  C   UNL A   1      36.023  32.032  42.143  1.00  0.00     0.040 A 
ATOM     35  H   UNL A   1      36.093  32.101  43.170  1.00  0.00     0.085 H 
BRANCH  32  36
ATOM     36  C   UNL A   1      38.110  30.710  41.730  1.00  0.00     0.077 C 
ATOM     37  N   UNL A   1      39.254  31.309  41.743  1.00  0.00    -0.097 NA
ATOM     38  H   UNL A   1      38.040  29.725  42.029  1.00  0.00     0.088 H 
BRANCH  37  39
ATOM     39  O   UNL A   1      40.241  30.411  42.167  1.00  0.00    -0.411 OA
ATOM     40  H   UNL A   1      41.146  30.641  42.097  1.00  0.00     0.330 HD
ENDBRANCH  37  39
ENDBRANCH  32  36
BRANCH  33  41
ATOM     41  C   UNL A   1      33.888  33.286  41.771  1.00  0.00     0.065 A 
ATOM     42  C   UNL A   1      33.205  34.069  40.830  1.00  0.00    -0.036 A 
ATOM     43  C   UNL A   1      33.480  33.274  43.109  1.00  0.00    -0.036 A 
ATOM     44  C   UNL A   1      32.101  34.822  41.226  1.00  0.00    -0.060 A 
ATOM     45  H   UNL A   1      33.518  34.086  39.847  1.00  0.00     0.065 H 
ATOM     46  C   UNL A   1      32.406  34.073  43.506  1.00  0.00    -0.060 A 
ATOM     47  H   UNL A   1      33.970  32.680  43.797  1.00  0.00     0.065 H 
ATOM     48  C   UNL A   1      31.712  34.837  42.565  1.00  0.00    -0.062 A 
ATOM     49  H   UNL A   1      31.573  35.370  40.529  1.00  0.00     0.062 H 
ATOM     50  H   UNL A   1      32.124  34.100  44.498  1.00  0.00     0.062 H 
ATOM     51  H   UNL A   1      30.909  35.412  42.862  1.00  0.00     0.062 H 
ENDBRANCH  33  41
ENDBRANCH  23  30
ENDBRANCH  12  21
ENDBRANCH   8  11
ENDBRANCH   4   7
ENDBRANCH   1   4
BRANCH   1  52
ATOM     52  C   UNL A   1      37.552  34.601  32.948  1.00  0.00    -0.052 C 
ATOM     53  H   UNL A   1      37.288  35.637  32.915  1.00  0.00     0.027 H 
ATOM     54  H   UNL A   1      38.309  34.371  33.669  1.00  0.00     0.027 H 
BRANCH  52  55
ATOM     55  C   UNL A   1      36.304  33.808  33.380  1.00  0.00    -0.052 C 
ATOM     56  H   UNL A   1      35.882  34.301  34.230  1.00  0.00     0.027 H 
ATOM     57  H   UNL A   1      36.651  32.813  33.576  1.00  0.00     0.027 H 
BRANCH  55  58
ATOM     58  C   UNL A   1      35.196  33.656  32.326  1.00  0.00    -0.036 C 
ATOM     59  H   UNL A   1      35.410  34.316  31.512  1.00  0.00     0.028 H 
ATOM     60  H   UNL A   1      34.269  33.894  32.804  1.00  0.00     0.028 H 
BRANCH  58  61
ATOM     61  C   UNL A   1      35.077  32.242  31.785  1.00  0.00     0.018 C 
ATOM     62  H   UNL A   1      34.286  31.741  32.304  1.00  0.00     0.049 H 
ATOM     63  H   UNL A   1      36.016  31.754  31.937  1.00  0.00     0.049 H 
BRANCH  61  64
ATOM     64  N   UNL A   1      34.785  32.218  30.346  1.00  0.00    -0.352 N 
ATOM     65  C   UNL A   1      35.594  31.791  29.312  1.00  0.00     0.251 C 
ATOM     66  H   UNL A   1      33.896  32.552  30.084  1.00  0.00     0.163 HD
ATOM     67  O   UNL A   1      35.389  32.135  28.149  1.00  0.00    -0.269 OA
BRANCH  65  68
ATOM     68  C   UNL A   1      36.707  30.890  29.633  1.00  0.00     0.039 A 
ATOM     69  C   UNL A   1      36.526  29.551  29.990  1.00  0.00    -0.049 A 
ATOM     70  C   UNL A   1      37.979  31.431  29.509  1.00  0.00    -0.049 A 
ATOM     71  C   UNL A   1      37.655  28.751  30.159  1.00  0.00    -0.053 A 
ATOM     72  H   UNL A   1      35.580  29.162  30.127  1.00  0.00     0.063 H 
ATOM     73  C   UNL A   1      39.048  30.595  29.412  1.00  0.00    -0.053 A 
ATOM     74  H   UNL A   1      38.111  32.454  29.492  1.00  0.00     0.063 H 
ATOM     75  C   UNL A   1      38.913  29.290  29.859  1.00  0.00    -0.014 A 
ATOM     76  H   UNL A   1      37.565  27.779  30.496  1.00  0.00     0.063 H 
ATOM     77  H   UNL A   1      39.940  30.927  29.012  1.00  0.00     0.063 H 
BRANCH  75  78
ATOM     78  C   UNL A   1      40.149  28.539  29.996  1.00  0.00     0.031 A 
ATOM     79  C   UNL A   1      40.634  28.339  31.387  1.00  0.00     0.074 A 
ATOM     80  C   UNL A   1      40.645  27.845  28.947  1.00  0.00     0.049 A 
ATOM     81  N   UNL A   1      41.757  28.718  31.898  1.00  0.00    -0.248 NA
ATOM     82  C   UNL A   1      39.716  27.724  32.360  1.00  0.00    -0.034 C 
ATOM     83  C   UNL A   1      40.080  27.674  27.597  1.00  0.00    -0.036 A 
ATOM     84  N   UNL A   1      41.727  27.028  28.910  1.00  0.00    -0.354 N 
ATOM     85  C   UNL A   1      41.765  28.255  33.213  1.00  0.00     0.074 A 
ATOM     86  C   UNL A   1      40.431  27.789  33.484  1.00  0.00    -0.034 C 
ATOM     87  H   UNL A   1      38.768  27.343  32.211  1.00  0.00     0.065 H 
ATOM     88  C   UNL A   1      40.682  26.637  26.977  1.00  0.00    -0.036 A 
ATOM     89  H   UNL A   1      39.336  28.259  27.188  1.00  0.00     0.065 H 
ATOM     90  C   UNL A   1      41.792  26.201  27.797  1.00  0.00     0.049 A 
ATOM     91  H   UNL A   1      42.413  27.023  29.617  1.00  0.00     0.167 HD
ATOM     92  C   UNL A   1      42.930  28.113  33.907  1.00  0.00     0.037 A 
ATOM     93  H   UNL A   1      40.077  27.537  34.421  1.00  0.00     0.065 H 
ATOM     94  H   UNL A   1      40.399  26.226  26.074  1.00  0.00     0.065 H 
ATOM     95  C   UNL A   1      42.687  25.206  27.594  1.00  0.00     0.037 A 
ATOM     96  C   UNL A   1      44.004  28.827  33.264  1.00  0.00     0.049 A 
ATOM     97  C   UNL A   1      43.831  25.461  28.509  1.00  0.00     0.074 A 
ATOM     98  C   UNL A   1      44.243  30.157  32.982  1.00  0.00    -0.036 A 
ATOM     99  N   UNL A   1      44.855  28.119  32.450  1.00  0.00    -0.354 N 
ATOM    100  N   UNL A   1      44.628  26.488  28.396  1.00  0.00    -0.248 NA
ATOM    101  C   UNL A   1      43.780  24.852  29.830  1.00  0.00    -0.034 C 
ATOM    102  C   UNL A   1      44.830  30.157  31.681  1.00  0.00    -0.036 A 
ATOM    103  H   UNL A   1      44.042  30.974  33.581  1.00  0.00     0.065 H 
ATOM    104  C   UNL A   1      44.982  28.829  31.281  1.00  0.00     0.049 A 
ATOM    105  H   UNL A   1      45.293  27.263  32.664  1.00  0.00     0.167 HD
ATOM    106  C   UNL A   1      44.854  26.910  29.699  1.00  0.00     0.074 A 
ATOM    107  C   UNL A   1      44.364  25.819  30.541  1.00  0.00    -0.034 C 
ATOM    108  H   UNL A   1      43.402  23.939  30.129  1.00  0.00     0.065 H 
ATOM    109  H   UNL A   1      45.094  30.991  31.134  1.00  0.00     0.065 H 
ATOM    110  C   UNL A   1      45.142  28.215  29.982  1.00  0.00     0.037 A 
ATOM    111  H   UNL A   1      44.459  25.800  31.568  1.00  0.00     0.065 H 
BRANCH  92 112
ATOM    112  C   UNL A   1      43.184  27.085  34.980  1.00  0.00     0.064 A 
ATOM    113  C   UNL A   1      43.475  27.515  36.292  1.00  0.00     0.173 A 
ATOM    114  C   UNL A   1      43.433  25.720  34.721  1.00  0.00     0.173 A 
ATOM    115  F   UNL A   1      43.285  28.794  36.651  1.00  0.00    -0.203 F 
ATOM    116  C   UNL A   1      44.048  26.663  37.241  1.00  0.00     0.198 A 
ATOM    117  C   UNL A   1      43.953  24.860  35.687  1.00  0.00     0.198 A 
ATOM    118  F   UNL A   1      43.292  25.190  33.501  1.00  0.00    -0.203 F 
ATOM    119  F   UNL A   1      44.421  27.149  38.433  1.00  0.00    -0.200 F 
ATOM    120  C   UNL A   1      44.293  25.337  36.935  1.00  0.00     0.200 A 
ATOM    121  F   UNL A   1      44.197  23.581  35.366  1.00  0.00    -0.200 F 
ATOM    122  F   UNL A   1      44.897  24.534  37.819  1.00  0.00    -0.200 F 
ENDBRANCH  92 112
BRANCH  95 123
ATOM    123  C   UNL A   1      42.454  23.903  26.932  1.00  0.00     0.064 A 
ATOM    124  C   UNL A   1      43.417  23.334  26.085  1.00  0.00     0.173 A 
ATOM    125  C   UNL A   1      41.394  23.063  27.332  1.00  0.00     0.173 A 
ATOM    126  F   UNL A   1      44.479  24.054  25.698  1.00  0.00    -0.203 F 
ATOM    127  C   UNL A   1      43.339  21.996  25.683  1.00  0.00     0.198 A 
ATOM    128  C   UNL A   1      41.316  21.730  26.926  1.00  0.00     0.198 A 
ATOM    129  F   UNL A   1      40.469  23.492  28.202  1.00  0.00    -0.203 F 
ATOM    130  F   UNL A   1      44.310  21.470  24.923  1.00  0.00    -0.200 F 
ATOM    131  C   UNL A   1      42.295  21.193  26.111  1.00  0.00     0.200 A 
ATOM    132  F   UNL A   1      40.322  20.954  27.382  1.00  0.00    -0.200 F 
ATOM    133  F   UNL A   1      42.255  19.895  25.778  1.00  0.00    -0.200 F 
ENDBRANCH  95 123
BRANCH 110 134
ATOM    134  C   UNL A   1      45.413  29.143  28.826  1.00  0.00     0.064 A 
ATOM    135  C   UNL A   1      44.426  29.920  28.192  1.00  0.00     0.173 A 
ATOM    136  C   UNL A   1      46.742  29.376  28.451  1.00  0.00     0.173 A 
ATOM    137  F   UNL A   1      43.144  29.839  28.561  1.00  0.00    -0.203 F 
ATOM    138  C   UNL A   1      44.749  30.850  27.206  1.00  0.00     0.198 A 
ATOM    139  C   UNL A   1      47.068  30.331  27.492  1.00  0.00     0.198 A 
ATOM    140  F   UNL A   1      47.736  28.711  29.061  1.00  0.00    -0.203 F 
ATOM    141  F   UNL A   1      43.783  31.570  26.617  1.00  0.00    -0.200 F 
ATOM    142  C   UNL A   1      46.072  31.061  26.862  1.00  0.00     0.200 A 
ATOM    143  F   UNL A   1      48.354  30.568  27.200  1.00  0.00    -0.200 F 
ATOM    144  F   UNL A   1      46.390  31.986  25.945  1.00  0.00    -0.200 F 
ENDBRANCH 110 134
ENDBRANCH  75  78
ENDBRANCH  65  68
ENDBRANCH  61  64
ENDBRANCH  58  61
ENDBRANCH  55  58
ENDBRANCH  52  55
ENDBRANCH   1  52
TORSDOF 19
ENDMDL
MODEL 9
REMARK VINA RESULT:     -12.3      5.326     11.926
REMARK SMILES Cc1c(-c2nn(-c3ccccc3)cc2/C=N/O)nnn1-c1ccc(C(=O)NCCCCCCNC(=O)c2ccc(-c3c4nc(c(-c5c(F)c(F)c(F)c(F)c5F)c5ccc([nH]5)c(-c5c(F)c(F)c(F)c(F)c5F)c5nc(c(-c6c(F)c(F)c(F)c(F)c6F)c6ccc3[nH]6)C=C5)C=C4)cc2)cc1
REMARK SMILES IDX 29 1 28 4 27 7 25 8 26 9 24 11 21 12 22 13 101 14 23 15
REMARK SMILES IDX 100 17 20 21 2 22 3 23 18 24 19 25 1 26 4 30 5 31 14 32 6 33
REMARK SMILES IDX 13 34 15 36 16 37 17 39 7 41 8 42 12 43 9 44 11 46 10 48
REMARK SMILES IDX 30 52 31 55 32 58 33 61 34 64 35 65 36 67 37 68 38 69 99 70
REMARK SMILES IDX 39 71 98 73 40 75 41 78 42 79 92 80 43 81 97 82 91 83 93 84
REMARK SMILES IDX 44 85 96 86 90 88 89 90 45 92 77 95 57 96 76 97 58 98 61 99
REMARK SMILES IDX 75 100 94 101 59 102 60 104 74 106 95 107 62 110 46 112
REMARK SMILES IDX 47 113 55 114 48 115 49 116 53 117 56 118 50 119 51 120
REMARK SMILES IDX 54 121 52 122 78 123 79 124 87 125 80 126 81 127 85 128
REMARK SMILES IDX 88 129 82 130 83 131 86 132 84 133 63 134 64 135 72 136
REMARK SMILES IDX 65 137 66 138 70 139 73 140 67 141 68 142 71 143 69 144
REMARK H PARENT 29 2 29 3 28 5 28 6 27 10 22 16 101 18 23 19 100 20 1 27 1 28
REMARK H PARENT 1 29 13 35 15 38 17 40 8 45 12 47 9 49 11 50 10 51 30 53 30 54
REMARK H PARENT 31 56 31 57 32 59 32 60 33 62 33 63 34 66 38 72 99 74 39 76
REMARK H PARENT 98 77 97 87 91 89 93 91 96 93 90 94 58 103 61 105 94 108
REMARK H PARENT 59 109 95 111
REMARK Flexibility Score: inf
ROOT
ATOM      1  C   UNL A   1      46.397  24.537  24.699  1.00  0.00    -0.036 C 
ATOM      2  H   UNL A   1      46.407  23.902  23.838  1.00  0.00     0.028 H 
ATOM      3  H   UNL A   1      45.512  25.138  24.745  1.00  0.00     0.028 H 
ENDROOT
BRANCH   1   4
ATOM      4  C   UNL A   1      47.591  25.491  24.614  1.00  0.00     0.018 C 
ATOM      5  H   UNL A   1      48.248  25.310  25.439  1.00  0.00     0.049 H 
ATOM      6  H   UNL A   1      48.111  25.322  23.694  1.00  0.00     0.049 H 
BRANCH   4   7
ATOM      7  N   UNL A   1      47.132  26.862  24.658  1.00  0.00    -0.352 N 
ATOM      8  C   UNL A   1      46.555  27.641  25.624  1.00  0.00     0.251 C 
ATOM      9  O   UNL A   1      46.243  28.787  25.297  1.00  0.00    -0.269 OA
ATOM     10  H   UNL A   1      47.263  27.340  23.806  1.00  0.00     0.163 HD
BRANCH   8  11
ATOM     11  C   UNL A   1      46.353  27.215  27.040  1.00  0.00     0.039 A 
ATOM     12  C   UNL A   1      45.698  26.508  29.678  1.00  0.00     0.067 A 
ATOM     13  C   UNL A   1      44.781  26.272  28.654  1.00  0.00    -0.036 A 
ATOM     14  C   UNL A   1      46.965  27.020  29.386  1.00  0.00    -0.036 A 
ATOM     15  C   UNL A   1      45.098  26.662  27.352  1.00  0.00    -0.047 A 
ATOM     16  H   UNL A   1      43.878  25.815  28.857  1.00  0.00     0.065 H 
ATOM     17  C   UNL A   1      47.306  27.308  28.059  1.00  0.00    -0.047 A 
ATOM     18  H   UNL A   1      47.645  27.185  30.144  1.00  0.00     0.065 H 
ATOM     19  H   UNL A   1      44.398  26.542  26.603  1.00  0.00     0.063 H 
ATOM     20  H   UNL A   1      48.271  27.592  27.831  1.00  0.00     0.063 H 
BRANCH  12  21
ATOM     21  N   UNL A   1      45.354  26.176  31.004  1.00  0.00    -0.217 N 
ATOM     22  C   UNL A   1      46.147  25.633  31.995  1.00  0.00     0.071 A 
ATOM     23  C   UNL A   1      45.235  25.333  32.988  1.00  0.00     0.137 A 
ATOM     24  N   UNL A   1      43.994  25.780  32.644  1.00  0.00    -0.128 NA
ATOM     25  N   UNL A   1      44.094  26.368  31.458  1.00  0.00    -0.061 NA
BRANCH  22  26
ATOM     26  C   UNL A   1      47.625  25.554  31.959  1.00  0.00    -0.020 C 
ATOM     27  H   UNL A   1      48.039  26.341  32.555  1.00  0.00     0.030 H 
ATOM     28  H   UNL A   1      47.963  25.659  30.949  1.00  0.00     0.030 H 
ATOM     29  H   UNL A   1      47.942  24.610  32.346  1.00  0.00     0.030 H 
ENDBRANCH  22  26
BRANCH  23  30
ATOM     30  C   UNL A   1      45.483  24.746  34.298  1.00  0.00     0.124 A 
ATOM     31  N   UNL A   1      45.729  23.440  34.443  1.00  0.00    -0.165 NA
ATOM     32  C   UNL A   1      45.471  25.439  35.529  1.00  0.00     0.044 A 
ATOM     33  N   UNL A   1      45.786  23.254  35.778  1.00  0.00    -0.240 N 
ATOM     34  C   UNL A   1      45.632  24.436  36.468  1.00  0.00     0.040 A 
ATOM     35  H   UNL A   1      45.636  24.552  37.493  1.00  0.00     0.085 H 
BRANCH  32  36
ATOM     36  C   UNL A   1      45.332  26.840  35.835  1.00  0.00     0.077 C 
ATOM     37  N   UNL A   1      46.369  27.542  36.149  1.00  0.00    -0.097 NA
ATOM     38  H   UNL A   1      44.400  27.284  35.801  1.00  0.00     0.088 H 
BRANCH  37  39
ATOM     39  O   UNL A   1      45.972  28.855  36.429  1.00  0.00    -0.411 OA
ATOM     40  H   UNL A   1      45.947  29.159  37.314  1.00  0.00     0.330 HD
ENDBRANCH  37  39
ENDBRANCH  32  36
BRANCH  33  41
ATOM     41  C   UNL A   1      45.940  21.956  36.315  1.00  0.00     0.065 A 
ATOM     42  C   UNL A   1      46.199  21.811  37.685  1.00  0.00    -0.036 A 
ATOM     43  C   UNL A   1      45.872  20.830  35.486  1.00  0.00    -0.036 A 
ATOM     44  C   UNL A   1      46.368  20.538  38.227  1.00  0.00    -0.060 A 
ATOM     45  H   UNL A   1      46.264  22.644  38.290  1.00  0.00     0.065 H 
ATOM     46  C   UNL A   1      46.094  19.564  36.029  1.00  0.00    -0.060 A 
ATOM     47  H   UNL A   1      45.659  20.936  34.482  1.00  0.00     0.065 H 
ATOM     48  C   UNL A   1      46.331  19.418  37.398  1.00  0.00    -0.062 A 
ATOM     49  H   UNL A   1      46.520  20.425  39.241  1.00  0.00     0.062 H 
ATOM     50  H   UNL A   1      46.083  18.733  35.418  1.00  0.00     0.062 H 
ATOM     51  H   UNL A   1      46.478  18.477  37.796  1.00  0.00     0.062 H 
ENDBRANCH  33  41
ENDBRANCH  23  30
ENDBRANCH  12  21
ENDBRANCH   8  11
ENDBRANCH   4   7
ENDBRANCH   1   4
BRANCH   1  52
ATOM     52  C   UNL A   1      46.417  23.655  25.956  1.00  0.00    -0.052 C 
ATOM     53  H   UNL A   1      46.860  24.221  26.749  1.00  0.00     0.027 H 
ATOM     54  H   UNL A   1      46.969  22.778  25.691  1.00  0.00     0.027 H 
BRANCH  52  55
ATOM     55  C   UNL A   1      45.042  23.157  26.439  1.00  0.00    -0.052 C 
ATOM     56  H   UNL A   1      44.445  24.016  26.665  1.00  0.00     0.027 H 
ATOM     57  H   UNL A   1      45.246  22.528  27.282  1.00  0.00     0.027 H 
BRANCH  55  58
ATOM     58  C   UNL A   1      44.251  22.281  25.455  1.00  0.00    -0.036 C 
ATOM     59  H   UNL A   1      44.053  21.340  25.922  1.00  0.00     0.028 H 
ATOM     60  H   UNL A   1      44.848  22.175  24.574  1.00  0.00     0.028 H 
BRANCH  58  61
ATOM     61  C   UNL A   1      42.929  22.899  25.034  1.00  0.00     0.018 C 
ATOM     62  H   UNL A   1      42.842  22.832  23.970  1.00  0.00     0.049 H 
ATOM     63  H   UNL A   1      42.926  23.916  25.364  1.00  0.00     0.049 H 
BRANCH  61  64
ATOM     64  N   UNL A   1      41.777  22.224  25.646  1.00  0.00    -0.352 N 
ATOM     65  C   UNL A   1      41.003  22.640  26.711  1.00  0.00     0.251 C 
ATOM     66  H   UNL A   1      41.525  21.361  25.245  1.00  0.00     0.163 HD
ATOM     67  O   UNL A   1      40.305  21.853  27.346  1.00  0.00    -0.269 OA
BRANCH  65  68
ATOM     68  C   UNL A   1      41.018  24.066  27.059  1.00  0.00     0.039 A 
ATOM     69  C   UNL A   1      40.229  25.019  26.408  1.00  0.00    -0.049 A 
ATOM     70  C   UNL A   1      41.830  24.420  28.126  1.00  0.00    -0.049 A 
ATOM     71  C   UNL A   1      40.228  26.325  26.896  1.00  0.00    -0.053 A 
ATOM     72  H   UNL A   1      39.660  24.763  25.586  1.00  0.00     0.063 H 
ATOM     73  C   UNL A   1      41.623  25.610  28.752  1.00  0.00    -0.053 A 
ATOM     74  H   UNL A   1      42.583  23.789  28.441  1.00  0.00     0.063 H 
ATOM     75  C   UNL A   1      40.930  26.603  28.076  1.00  0.00    -0.014 A 
ATOM     76  H   UNL A   1      39.720  27.072  26.397  1.00  0.00     0.063 H 
ATOM     77  H   UNL A   1      41.973  25.769  29.710  1.00  0.00     0.063 H 
BRANCH  75  78
ATOM     78  C   UNL A   1      40.987  27.928  28.669  1.00  0.00     0.031 A 
ATOM     79  C   UNL A   1      42.060  28.820  28.155  1.00  0.00     0.074 A 
ATOM     80  C   UNL A   1      39.960  28.385  29.420  1.00  0.00     0.049 A 
ATOM     81  N   UNL A   1      43.023  29.368  28.819  1.00  0.00    -0.248 NA
ATOM     82  C   UNL A   1      42.128  29.059  26.704  1.00  0.00    -0.034 C 
ATOM     83  C   UNL A   1      38.675  27.734  29.728  1.00  0.00    -0.036 A 
ATOM     84  N   UNL A   1      39.801  29.611  29.977  1.00  0.00    -0.354 N 
ATOM     85  C   UNL A   1      43.732  30.149  27.908  1.00  0.00     0.074 A 
ATOM     86  C   UNL A   1      43.231  29.803  26.604  1.00  0.00    -0.034 C 
ATOM     87  H   UNL A   1      41.489  28.736  25.960  1.00  0.00     0.065 H 
ATOM     88  C   UNL A   1      37.798  28.648  30.195  1.00  0.00    -0.036 A 
ATOM     89  H   UNL A   1      38.475  26.729  29.604  1.00  0.00     0.065 H 
ATOM     90  C   UNL A   1      38.509  29.893  30.400  1.00  0.00     0.049 A 
ATOM     91  H   UNL A   1      40.543  30.250  30.075  1.00  0.00     0.167 HD
ATOM     92  C   UNL A   1      44.538  31.166  28.324  1.00  0.00     0.037 A 
ATOM     93  H   UNL A   1      43.665  30.091  25.713  1.00  0.00     0.065 H 
ATOM     94  H   UNL A   1      36.795  28.488  30.374  1.00  0.00     0.065 H 
ATOM     95  C   UNL A   1      38.061  31.086  30.856  1.00  0.00     0.037 A 
ATOM     96  C   UNL A   1      44.823  31.055  29.732  1.00  0.00     0.049 A 
ATOM     97  C   UNL A   1      39.258  31.870  31.259  1.00  0.00     0.074 A 
ATOM     98  C   UNL A   1      45.471  30.118  30.512  1.00  0.00    -0.036 A 
ATOM     99  N   UNL A   1      44.076  31.808  30.606  1.00  0.00    -0.354 N 
ATOM    100  N   UNL A   1      40.033  31.541  32.256  1.00  0.00    -0.248 NA
ATOM    101  C   UNL A   1      39.866  32.728  30.252  1.00  0.00    -0.034 C 
ATOM    102  C   UNL A   1      44.693  30.032  31.705  1.00  0.00    -0.036 A 
ATOM    103  H   UNL A   1      46.331  29.594  30.283  1.00  0.00     0.065 H 
ATOM    104  C   UNL A   1      43.665  30.970  31.614  1.00  0.00     0.049 A 
ATOM    105  H   UNL A   1      43.874  32.768  30.526  1.00  0.00     0.167 HD
ATOM    106  C   UNL A   1      41.321  31.792  31.806  1.00  0.00     0.074 A 
ATOM    107  C   UNL A   1      41.150  32.590  30.593  1.00  0.00    -0.034 C 
ATOM    108  H   UNL A   1      39.431  33.281  29.497  1.00  0.00     0.065 H 
ATOM    109  H   UNL A   1      44.860  29.389  32.494  1.00  0.00     0.065 H 
ATOM    110  C   UNL A   1      42.390  31.088  32.285  1.00  0.00     0.037 A 
ATOM    111  H   UNL A   1      41.933  33.000  30.060  1.00  0.00     0.065 H 
BRANCH  92 112
ATOM    112  C   UNL A   1      44.814  32.431  27.550  1.00  0.00     0.064 A 
ATOM    113  C   UNL A   1      46.033  32.559  26.852  1.00  0.00     0.173 A 
ATOM    114  C   UNL A   1      44.071  33.622  27.696  1.00  0.00     0.173 A 
ATOM    115  F   UNL A   1      46.827  31.496  26.660  1.00  0.00    -0.203 F 
ATOM    116  C   UNL A   1      46.505  33.798  26.408  1.00  0.00     0.198 A 
ATOM    117  C   UNL A   1      44.520  34.846  27.204  1.00  0.00     0.198 A 
ATOM    118  F   UNL A   1      42.941  33.673  28.412  1.00  0.00    -0.203 F 
ATOM    119  F   UNL A   1      47.724  33.888  25.860  1.00  0.00    -0.200 F 
ATOM    120  C   UNL A   1      45.750  34.942  26.591  1.00  0.00     0.200 A 
ATOM    121  F   UNL A   1      43.780  35.947  27.404  1.00  0.00    -0.200 F 
ATOM    122  F   UNL A   1      46.226  36.138  26.223  1.00  0.00    -0.200 F 
ENDBRANCH  92 112
BRANCH  95 123
ATOM    123  C   UNL A   1      36.729  31.694  30.638  1.00  0.00     0.064 A 
ATOM    124  C   UNL A   1      35.884  31.999  31.716  1.00  0.00     0.173 A 
ATOM    125  C   UNL A   1      36.373  32.236  29.387  1.00  0.00     0.173 A 
ATOM    126  F   UNL A   1      36.180  31.559  32.946  1.00  0.00    -0.203 F 
ATOM    127  C   UNL A   1      34.762  32.820  31.555  1.00  0.00     0.198 A 
ATOM    128  C   UNL A   1      35.251  33.051  29.228  1.00  0.00     0.198 A 
ATOM    129  F   UNL A   1      37.161  32.065  28.315  1.00  0.00    -0.203 F 
ATOM    130  F   UNL A   1      34.012  33.140  32.619  1.00  0.00    -0.200 F 
ATOM    131  C   UNL A   1      34.453  33.353  30.315  1.00  0.00     0.200 A 
ATOM    132  F   UNL A   1      34.988  33.593  28.030  1.00  0.00    -0.200 F 
ATOM    133  F   UNL A   1      33.416  34.191  30.175  1.00  0.00    -0.200 F 
ENDBRANCH  95 123
BRANCH 110 134
ATOM    134  C   UNL A   1      42.162  30.178  33.465  1.00  0.00     0.064 A 
ATOM    135  C   UNL A   1      41.794  28.825  33.355  1.00  0.00     0.173 A 
ATOM    136  C   UNL A   1      42.484  30.647  34.744  1.00  0.00     0.173 A 
ATOM    137  F   UNL A   1      41.571  28.267  32.161  1.00  0.00    -0.203 F 
ATOM    138  C   UNL A   1      41.711  27.996  34.473  1.00  0.00     0.198 A 
ATOM    139  C   UNL A   1      42.437  29.810  35.856  1.00  0.00     0.198 A 
ATOM    140  F   UNL A   1      42.902  31.912  34.909  1.00  0.00    -0.203 F 
ATOM    141  F   UNL A   1      41.350  26.712  34.333  1.00  0.00    -0.200 F 
ATOM    142  C   UNL A   1      42.041  28.488  35.722  1.00  0.00     0.200 A 
ATOM    143  F   UNL A   1      42.808  30.276  37.056  1.00  0.00    -0.200 F 
ATOM    144  F   UNL A   1      42.005  27.683  36.794  1.00  0.00    -0.200 F 
ENDBRANCH 110 134
ENDBRANCH  75  78
ENDBRANCH  65  68
ENDBRANCH  61  64
ENDBRANCH  58  61
ENDBRANCH  55  58
ENDBRANCH  52  55
ENDBRANCH   1  52
TORSDOF 19
ENDMDL
MODEL 10
REMARK VINA RESULT:     -12.3      2.772      5.159
REMARK SMILES Cc1c(-c2nn(-c3ccccc3)cc2/C=N/O)nnn1-c1ccc(C(=O)NCCCCCCNC(=O)c2ccc(-c3c4nc(c(-c5c(F)c(F)c(F)c(F)c5F)c5ccc([nH]5)c(-c5c(F)c(F)c(F)c(F)c5F)c5nc(c(-c6c(F)c(F)c(F)c(F)c6F)c6ccc3[nH]6)C=C5)C=C4)cc2)cc1
REMARK SMILES IDX 29 1 28 4 27 7 25 8 26 9 24 11 21 12 22 13 101 14 23 15
REMARK SMILES IDX 100 17 20 21 2 22 3 23 18 24 19 25 1 26 4 30 5 31 14 32 6 33
REMARK SMILES IDX 13 34 15 36 16 37 17 39 7 41 8 42 12 43 9 44 11 46 10 48
REMARK SMILES IDX 30 52 31 55 32 58 33 61 34 64 35 65 36 67 37 68 38 69 99 70
REMARK SMILES IDX 39 71 98 73 40 75 41 78 42 79 92 80 43 81 97 82 91 83 93 84
REMARK SMILES IDX 44 85 96 86 90 88 89 90 45 92 77 95 57 96 76 97 58 98 61 99
REMARK SMILES IDX 75 100 94 101 59 102 60 104 74 106 95 107 62 110 46 112
REMARK SMILES IDX 47 113 55 114 48 115 49 116 53 117 56 118 50 119 51 120
REMARK SMILES IDX 54 121 52 122 78 123 79 124 87 125 80 126 81 127 85 128
REMARK SMILES IDX 88 129 82 130 83 131 86 132 84 133 63 134 64 135 72 136
REMARK SMILES IDX 65 137 66 138 70 139 73 140 67 141 68 142 71 143 69 144
REMARK H PARENT 29 2 29 3 28 5 28 6 27 10 22 16 101 18 23 19 100 20 1 27 1 28
REMARK H PARENT 1 29 13 35 15 38 17 40 8 45 12 47 9 49 11 50 10 51 30 53 30 54
REMARK H PARENT 31 56 31 57 32 59 32 60 33 62 33 63 34 66 38 72 99 74 39 76
REMARK H PARENT 98 77 97 87 91 89 93 91 96 93 90 94 58 103 61 105 94 108
REMARK H PARENT 59 109 95 111
REMARK Flexibility Score: inf
ROOT
ATOM      1  C   UNL A   1      34.656  35.599  33.143  1.00  0.00    -0.036 C 
ATOM      2  H   UNL A   1      34.463  36.409  33.815  1.00  0.00     0.028 H 
ATOM      3  H   UNL A   1      35.313  35.884  32.347  1.00  0.00     0.028 H 
ENDROOT
BRANCH   1   4
ATOM      4  C   UNL A   1      33.333  35.166  32.508  1.00  0.00     0.018 C 
ATOM      5  H   UNL A   1      33.406  34.145  32.196  1.00  0.00     0.049 H 
ATOM      6  H   UNL A   1      32.548  35.269  33.228  1.00  0.00     0.049 H 
BRANCH   4   7
ATOM      7  N   UNL A   1      33.040  35.998  31.361  1.00  0.00    -0.352 N 
ATOM      8  C   UNL A   1      33.155  35.825  30.007  1.00  0.00     0.251 C 
ATOM      9  O   UNL A   1      32.845  36.785  29.300  1.00  0.00    -0.269 OA
ATOM     10  H   UNL A   1      32.678  36.880  31.607  1.00  0.00     0.163 HD
BRANCH   8  11
ATOM     11  C   UNL A   1      33.556  34.546  29.353  1.00  0.00     0.039 A 
ATOM     12  C   UNL A   1      34.028  32.107  28.042  1.00  0.00     0.067 A 
ATOM     13  C   UNL A   1      33.177  33.047  27.462  1.00  0.00    -0.036 A 
ATOM     14  C   UNL A   1      34.705  32.405  29.228  1.00  0.00    -0.036 A 
ATOM     15  C   UNL A   1      32.916  34.239  28.138  1.00  0.00    -0.047 A 
ATOM     16  H   UNL A   1      32.744  32.862  26.544  1.00  0.00     0.065 H 
ATOM     17  C   UNL A   1      34.513  33.649  29.840  1.00  0.00    -0.047 A 
ATOM     18  H   UNL A   1      35.342  31.712  29.651  1.00  0.00     0.065 H 
ATOM     19  H   UNL A   1      32.241  34.910  27.739  1.00  0.00     0.063 H 
ATOM     20  H   UNL A   1      35.083  33.909  30.659  1.00  0.00     0.063 H 
BRANCH  12  21
ATOM     21  N   UNL A   1      34.243  30.874  27.393  1.00  0.00    -0.217 N 
ATOM     22  C   UNL A   1      33.329  30.055  26.761  1.00  0.00     0.071 A 
ATOM     23  C   UNL A   1      34.061  28.912  26.511  1.00  0.00     0.137 A 
ATOM     24  N   UNL A   1      35.363  29.093  26.873  1.00  0.00    -0.128 NA
ATOM     25  N   UNL A   1      35.481  30.330  27.340  1.00  0.00    -0.061 NA
BRANCH  22  26
ATOM     26  C   UNL A   1      31.955  30.450  26.374  1.00  0.00    -0.020 C 
ATOM     27  H   UNL A   1      31.476  30.934  27.201  1.00  0.00     0.030 H 
ATOM     28  H   UNL A   1      31.397  29.578  26.102  1.00  0.00     0.030 H 
ATOM     29  H   UNL A   1      31.996  31.121  25.544  1.00  0.00     0.030 H 
ENDBRANCH  22  26
BRANCH  23  30
ATOM     30  C   UNL A   1      33.632  27.690  25.846  1.00  0.00     0.124 A 
ATOM     31  N   UNL A   1      33.652  26.509  26.473  1.00  0.00    -0.165 NA
ATOM     32  C   UNL A   1      33.186  27.590  24.509  1.00  0.00     0.044 A 
ATOM     33  N   UNL A   1      33.308  25.616  25.521  1.00  0.00    -0.240 N 
ATOM     34  C   UNL A   1      33.022  26.229  24.323  1.00  0.00     0.040 A 
ATOM     35  H   UNL A   1      32.738  25.761  23.447  1.00  0.00     0.085 H 
BRANCH  32  36
ATOM     36  C   UNL A   1      32.933  28.596  23.509  1.00  0.00     0.077 C 
ATOM     37  N   UNL A   1      31.764  28.695  22.969  1.00  0.00    -0.097 NA
ATOM     38  H   UNL A   1      33.688  29.240  23.225  1.00  0.00     0.088 H 
BRANCH  37  39
ATOM     39  O   UNL A   1      31.780  29.718  22.014  1.00  0.00    -0.411 OA
ATOM     40  H   UNL A   1      32.594  30.011  21.655  1.00  0.00     0.330 HD
ENDBRANCH  37  39
ENDBRANCH  32  36
BRANCH  33  41
ATOM     41  C   UNL A   1      33.316  24.231  25.803  1.00  0.00     0.065 A 
ATOM     42  C   UNL A   1      32.558  23.368  24.999  1.00  0.00    -0.036 A 
ATOM     43  C   UNL A   1      34.041  23.729  26.889  1.00  0.00    -0.036 A 
ATOM     44  C   UNL A   1      32.544  22.001  25.271  1.00  0.00    -0.060 A 
ATOM     45  H   UNL A   1      32.013  23.744  24.207  1.00  0.00     0.065 H 
ATOM     46  C   UNL A   1      33.978  22.366  27.185  1.00  0.00    -0.060 A 
ATOM     47  H   UNL A   1      34.616  24.362  27.467  1.00  0.00     0.065 H 
ATOM     48  C   UNL A   1      33.240  21.504  26.372  1.00  0.00    -0.062 A 
ATOM     49  H   UNL A   1      32.018  21.358  24.659  1.00  0.00     0.062 H 
ATOM     50  H   UNL A   1      34.478  21.995  28.007  1.00  0.00     0.062 H 
ATOM     51  H   UNL A   1      33.211  20.495  26.586  1.00  0.00     0.062 H 
ENDBRANCH  33  41
ENDBRANCH  23  30
ENDBRANCH  12  21
ENDBRANCH   8  11
ENDBRANCH   4   7
ENDBRANCH   1   4
BRANCH   1  52
ATOM     52  C   UNL A   1      35.348  34.472  33.924  1.00  0.00    -0.052 C 
ATOM     53  H   UNL A   1      34.847  34.366  34.863  1.00  0.00     0.027 H 
ATOM     54  H   UNL A   1      36.374  34.762  34.013  1.00  0.00     0.027 H 
BRANCH  52  55
ATOM     55  C   UNL A   1      35.358  33.095  33.234  1.00  0.00    -0.052 C 
ATOM     56  H   UNL A   1      34.960  33.221  32.249  1.00  0.00     0.027 H 
ATOM     57  H   UNL A   1      34.778  32.455  33.866  1.00  0.00     0.027 H 
BRANCH  55  58
ATOM     58  C   UNL A   1      36.728  32.410  33.103  1.00  0.00    -0.036 C 
ATOM     59  H   UNL A   1      36.650  31.634  32.371  1.00  0.00     0.028 H 
ATOM     60  H   UNL A   1      36.986  32.028  34.068  1.00  0.00     0.028 H 
BRANCH  58  61
ATOM     61  C   UNL A   1      37.834  33.362  32.683  1.00  0.00     0.018 C 
ATOM     62  H   UNL A   1      38.777  32.871  32.812  1.00  0.00     0.049 H 
ATOM     63  H   UNL A   1      37.761  34.236  33.293  1.00  0.00     0.049 H 
BRANCH  61  64
ATOM     64  N   UNL A   1      37.709  33.780  31.281  1.00  0.00    -0.352 N 
ATOM     65  C   UNL A   1      38.366  33.283  30.173  1.00  0.00     0.251 C 
ATOM     66  H   UNL A   1      37.073  34.512  31.108  1.00  0.00     0.163 HD
ATOM     67  O   UNL A   1      38.445  33.925  29.128  1.00  0.00    -0.269 OA
BRANCH  65  68
ATOM     68  C   UNL A   1      38.961  31.944  30.267  1.00  0.00     0.039 A 
ATOM     69  C   UNL A   1      38.221  30.768  30.110  1.00  0.00    -0.049 A 
ATOM     70  C   UNL A   1      40.333  31.904  30.468  1.00  0.00    -0.049 A 
ATOM     71  C   UNL A   1      38.903  29.552  30.098  1.00  0.00    -0.053 A 
ATOM     72  H   UNL A   1      37.195  30.798  30.006  1.00  0.00     0.063 H 
ATOM     73  C   UNL A   1      41.010  30.757  30.191  1.00  0.00    -0.053 A 
ATOM     74  H   UNL A   1      40.832  32.732  30.826  1.00  0.00     0.063 H 
ATOM     75  C   UNL A   1      40.304  29.565  30.135  1.00  0.00    -0.014 A 
ATOM     76  H   UNL A   1      38.386  28.660  30.062  1.00  0.00     0.063 H 
ATOM     77  H   UNL A   1      42.029  30.775  30.025  1.00  0.00     0.063 H 
BRANCH  75  78
ATOM     78  C   UNL A   1      41.108  28.355  30.121  1.00  0.00     0.031 A 
ATOM     79  C   UNL A   1      41.744  27.988  31.414  1.00  0.00     0.074 A 
ATOM     80  C   UNL A   1      41.034  27.499  29.078  1.00  0.00     0.049 A 
ATOM     81  N   UNL A   1      43.002  27.850  31.669  1.00  0.00    -0.248 NA
ATOM     82  C   UNL A   1      40.879  27.846  32.597  1.00  0.00    -0.034 C 
ATOM     83  C   UNL A   1      40.179  27.568  27.880  1.00  0.00    -0.036 A 
ATOM     84  N   UNL A   1      41.637  26.294  28.931  1.00  0.00    -0.354 N 
ATOM     85  C   UNL A   1      43.090  27.451  33.001  1.00  0.00     0.074 A 
ATOM     86  C   UNL A   1      41.774  27.612  33.558  1.00  0.00    -0.034 C 
ATOM     87  H   UNL A   1      39.851  27.911  32.664  1.00  0.00     0.065 H 
ATOM     88  C   UNL A   1      40.144  26.363  27.272  1.00  0.00    -0.036 A 
ATOM     89  H   UNL A   1      39.683  28.412  27.554  1.00  0.00     0.065 H 
ATOM     90  C   UNL A   1      41.113  25.502  27.917  1.00  0.00     0.049 A 
ATOM     91  H   UNL A   1      42.389  26.003  29.497  1.00  0.00     0.167 HD
ATOM     92  C   UNL A   1      44.204  26.829  33.482  1.00  0.00     0.037 A 
ATOM     93  H   UNL A   1      41.552  27.554  34.565  1.00  0.00     0.065 H 
ATOM     94  H   UNL A   1      39.532  26.101  26.484  1.00  0.00     0.065 H 
ATOM     95  C   UNL A   1      41.442  24.214  27.659  1.00  0.00     0.037 A 
ATOM     96  C   UNL A   1      45.318  26.996  32.582  1.00  0.00     0.049 A 
ATOM     97  C   UNL A   1      42.750  23.963  28.319  1.00  0.00     0.074 A 
ATOM     98  C   UNL A   1      46.028  28.088  32.124  1.00  0.00    -0.036 A 
ATOM     99  N   UNL A   1      45.600  25.977  31.705  1.00  0.00    -0.354 N 
ATOM    100  N   UNL A   1      43.862  24.541  27.955  1.00  0.00    -0.248 NA
ATOM    101  C   UNL A   1      42.726  23.457  29.683  1.00  0.00    -0.034 C 
ATOM    102  C   UNL A   1      46.274  27.812  30.745  1.00  0.00    -0.036 A 
ATOM    103  H   UNL A   1      46.320  28.920  32.660  1.00  0.00     0.065 H 
ATOM    104  C   UNL A   1      45.765  26.544  30.464  1.00  0.00     0.049 A 
ATOM    105  H   UNL A   1      45.672  25.019  31.924  1.00  0.00     0.167 HD
ATOM    106  C   UNL A   1      44.513  24.844  29.143  1.00  0.00     0.074 A 
ATOM    107  C   UNL A   1      43.799  24.087  30.170  1.00  0.00    -0.034 C 
ATOM    108  H   UNL A   1      42.072  22.803  30.140  1.00  0.00     0.065 H 
ATOM    109  H   UNL A   1      46.743  28.440  30.074  1.00  0.00     0.065 H 
ATOM    110  C   UNL A   1      45.375  25.901  29.230  1.00  0.00     0.037 A 
ATOM    111  H   UNL A   1      44.090  24.044  31.159  1.00  0.00     0.065 H 
BRANCH  92 112
ATOM    112  C   UNL A   1      44.221  25.809  34.593  1.00  0.00     0.064 A 
ATOM    113  C   UNL A   1      44.842  26.134  35.817  1.00  0.00     0.173 A 
ATOM    114  C   UNL A   1      43.911  24.444  34.414  1.00  0.00     0.173 A 
ATOM    115  F   UNL A   1      45.191  27.399  36.094  1.00  0.00    -0.203 F 
ATOM    116  C   UNL A   1      45.198  25.155  36.749  1.00  0.00     0.198 A 
ATOM    117  C   UNL A   1      44.218  23.478  35.371  1.00  0.00     0.198 A 
ATOM    118  F   UNL A   1      43.404  23.973  33.269  1.00  0.00    -0.203 F 
ATOM    119  F   UNL A   1      45.897  25.497  37.840  1.00  0.00    -0.200 F 
ATOM    120  C   UNL A   1      44.892  23.826  36.522  1.00  0.00     0.200 A 
ATOM    121  F   UNL A   1      43.926  22.192  35.125  1.00  0.00    -0.200 F 
ATOM    122  F   UNL A   1      45.284  22.879  37.383  1.00  0.00    -0.200 F 
ENDBRANCH  92 112
BRANCH  95 123
ATOM    123  C   UNL A   1      40.548  23.131  27.191  1.00  0.00     0.064 A 
ATOM    124  C   UNL A   1      39.215  23.389  26.840  1.00  0.00     0.173 A 
ATOM    125  C   UNL A   1      41.064  21.872  26.822  1.00  0.00     0.173 A 
ATOM    126  F   UNL A   1      38.667  24.580  27.117  1.00  0.00    -0.203 F 
ATOM    127  C   UNL A   1      38.449  22.451  26.138  1.00  0.00     0.198 A 
ATOM    128  C   UNL A   1      40.297  20.936  26.125  1.00  0.00     0.198 A 
ATOM    129  F   UNL A   1      42.350  21.564  27.044  1.00  0.00    -0.203 F 
ATOM    130  F   UNL A   1      37.198  22.756  25.766  1.00  0.00    -0.200 F 
ATOM    131  C   UNL A   1      38.994  21.231  25.772  1.00  0.00     0.200 A 
ATOM    132  F   UNL A   1      40.851  19.777  25.741  1.00  0.00    -0.200 F 
ATOM    133  F   UNL A   1      38.281  20.361  25.043  1.00  0.00    -0.200 F 
ENDBRANCH  95 123
BRANCH 110 134
ATOM    134  C   UNL A   1      45.762  26.601  27.953  1.00  0.00     0.064 A 
ATOM    135  C   UNL A   1      46.721  26.112  27.047  1.00  0.00     0.173 A 
ATOM    136  C   UNL A   1      45.023  27.721  27.554  1.00  0.00     0.173 A 
ATOM    137  F   UNL A   1      47.398  24.989  27.301  1.00  0.00    -0.203 F 
ATOM    138  C   UNL A   1      46.957  26.738  25.824  1.00  0.00     0.198 A 
ATOM    139  C   UNL A   1      45.234  28.325  26.316  1.00  0.00     0.198 A 
ATOM    140  F   UNL A   1      44.052  28.200  28.346  1.00  0.00    -0.203 F 
ATOM    141  F   UNL A   1      47.883  26.250  24.986  1.00  0.00    -0.200 F 
ATOM    142  C   UNL A   1      46.206  27.840  25.456  1.00  0.00     0.200 A 
ATOM    143  F   UNL A   1      44.469  29.359  25.941  1.00  0.00    -0.200 F 
ATOM    144  F   UNL A   1      46.400  28.417  24.262  1.00  0.00    -0.200 F 
ENDBRANCH 110 134
ENDBRANCH  75  78
ENDBRANCH  65  68
ENDBRANCH  61  64
ENDBRANCH  58  61
ENDBRANCH  55  58
ENDBRANCH  52  55
ENDBRANCH   1  52
TORSDOF 19
ENDMDL
