MODEL 1
REMARK VINA RESULT:     -12.9      0.000      0.000
REMARK SMILES C=C[C@@H]1[C@@H](O)C[C@H]2[C@]3(CC[C@]4(C)[C@@H]([C@H](C)CCC=C(C)C)CC[C@]24C)C[C@]13CCC(=O)NCCCCCCNC(=O)c1ccc(-c2c3nc(c(-c4c(F)c(F)c(F)c(F)c4F)c4ccc([nH]4)c(-c4c(F)c(F)c(F)c(F)c4F)c4nc(c(-c5c(F)c(F)c(F)c(F)c5F)c5ccc2[nH]5)C=C4)C=C3)cc1
REMARK SMILES IDX 33 1 32 4 30 5 31 6 29 8 28 11 27 14 3 15 4 16 6 18 8 20
REMARK SMILES IDX 26 21 7 22 9 25 24 28 10 30 11 33 23 34 13 37 22 38 2 44
REMARK SMILES IDX 1 45 5 49 25 51 12 55 14 59 16 61 17 64 18 67 19 68 20 70
REMARK SMILES IDX 21 74 15 78 34 82 35 85 36 88 37 91 38 94 39 97 40 98 41 100
REMARK SMILES IDX 42 101 43 102 104 103 44 104 103 106 45 108 46 111 47 112
REMARK SMILES IDX 97 113 48 114 102 115 96 116 98 117 49 118 101 119 95 121
REMARK SMILES IDX 94 123 50 125 82 128 62 129 81 130 63 131 66 132 80 133
REMARK SMILES IDX 99 134 64 135 65 137 79 139 100 140 67 143 51 145 52 146
REMARK SMILES IDX 60 147 53 148 54 149 58 150 61 151 55 152 56 153 59 154
REMARK SMILES IDX 57 155 83 156 84 157 92 158 85 159 86 160 90 161 93 162
REMARK SMILES IDX 87 163 88 164 91 165 89 166 68 167 69 168 77 169 70 170
REMARK SMILES IDX 71 171 75 172 78 173 72 174 73 175 76 176 74 177
REMARK H PARENT 33 2 33 3 32 7 29 9 29 10 28 12 28 13 3 17 4 19 6 23 6 24
REMARK H PARENT 26 26 26 27 7 29 9 31 9 32 10 35 10 36 23 39 23 40 13 41 22 42
REMARK H PARENT 22 43 1 46 1 47 2 48 5 50 25 52 25 53 25 54 12 56 12 57 12 58
REMARK H PARENT 14 60 16 62 16 63 17 65 17 66 18 69 20 71 20 72 20 73 21 75
REMARK H PARENT 21 76 21 77 15 79 15 80 15 81 34 83 34 84 35 86 35 87 36 89
REMARK H PARENT 36 90 37 92 37 93 38 95 38 96 39 99 43 105 104 107 44 109
REMARK H PARENT 103 110 102 120 96 122 98 124 101 126 95 127 63 136 66 138
REMARK H PARENT 99 141 64 142 100 144
REMARK Flexibility Score: inf
ROOT
ATOM      1  C   UNL A   1      34.403  30.952  28.326  1.00  0.00     0.017 C 
ATOM      2  H   UNL A   1      34.043  30.815  29.323  1.00  0.00     0.049 H 
ATOM      3  H   UNL A   1      33.912  31.293  27.438  1.00  0.00     0.049 H 
ENDROOT
BRANCH   1   4
ATOM      4  N   UNL A   1      34.599  29.532  27.838  1.00  0.00    -0.356 N 
ATOM      5  C   UNL A   1      33.734  28.750  27.132  1.00  0.00     0.220 C 
ATOM      6  O   UNL A   1      34.136  27.742  26.558  1.00  0.00    -0.275 OA
ATOM      7  H   UNL A   1      35.464  29.119  28.060  1.00  0.00     0.163 HD
BRANCH   5   8
ATOM      8  C   UNL A   1      32.297  29.190  27.096  1.00  0.00     0.027 C 
ATOM      9  H   UNL A   1      32.088  29.752  27.983  1.00  0.00     0.037 H 
ATOM     10  H   UNL A   1      32.159  29.780  26.214  1.00  0.00     0.037 H 
BRANCH   8  11
ATOM     11  C   UNL A   1      31.328  28.012  27.024  1.00  0.00    -0.038 C 
ATOM     12  H   UNL A   1      31.715  27.222  27.632  1.00  0.00     0.028 H 
ATOM     13  H   UNL A   1      30.380  28.372  27.367  1.00  0.00     0.028 H 
BRANCH  11  14
ATOM     14  C   UNL A   1      31.107  27.466  25.603  1.00  0.00    -0.014 C 
ATOM     15  C   UNL A   1      31.439  28.906  24.323  1.00  0.00     0.009 C 
ATOM     16  C   UNL A   1      32.728  28.530  22.851  1.00  0.00     0.061 C 
ATOM     17  H   UNL A   1      32.030  29.608  24.873  1.00  0.00     0.038 H 
ATOM     18  C   UNL A   1      33.235  26.642  22.501  1.00  0.00    -0.022 C 
ATOM     19  H   UNL A   1      32.138  28.820  22.007  1.00  0.00     0.061 H 
ATOM     20  C   UNL A   1      31.579  25.664  25.256  1.00  0.00    -0.019 C 
ATOM     21  C   UNL A   1      30.154  26.219  25.455  1.00  0.00    -0.040 C 
ATOM     22  C   UNL A   1      32.698  25.265  23.774  1.00  0.00    -0.027 C 
ATOM     23  H   UNL A   1      34.302  26.611  22.438  1.00  0.00     0.030 H 
ATOM     24  H   UNL A   1      32.696  26.393  21.611  1.00  0.00     0.030 H 
ATOM     25  C   UNL A   1      32.008  24.672  26.351  1.00  0.00    -0.046 C 
ATOM     26  H   UNL A   1      29.621  25.901  26.327  1.00  0.00     0.028 H 
ATOM     27  H   UNL A   1      29.305  26.108  24.813  1.00  0.00     0.028 H 
ATOM     28  C   UNL A   1      32.538  23.738  23.402  1.00  0.00    -0.023 C 
ATOM     29  H   UNL A   1      33.726  25.391  24.041  1.00  0.00     0.032 H 
ATOM     30  C   UNL A   1      31.970  23.220  25.859  1.00  0.00    -0.046 C 
ATOM     31  H   UNL A   1      31.345  24.772  27.186  1.00  0.00     0.027 H 
ATOM     32  H   UNL A   1      33.016  24.902  26.629  1.00  0.00     0.027 H 
ATOM     33  C   UNL A   1      32.925  22.836  24.679  1.00  0.00    -0.024 C 
ATOM     34  C   UNL A   1      33.652  23.369  22.427  1.00  0.00    -0.047 C 
ATOM     35  H   UNL A   1      30.969  23.014  25.543  1.00  0.00     0.027 H 
ATOM     36  H   UNL A   1      32.314  22.640  26.690  1.00  0.00     0.027 H 
ATOM     37  C   UNL A   1      34.470  23.151  24.792  1.00  0.00    -0.033 C 
ATOM     38  C   UNL A   1      34.922  23.313  23.298  1.00  0.00    -0.049 C 
ATOM     39  H   UNL A   1      33.460  22.419  21.974  1.00  0.00     0.027 H 
ATOM     40  H   UNL A   1      33.739  24.071  21.623  1.00  0.00     0.027 H 
ATOM     41  H   UNL A   1      34.508  23.991  25.455  1.00  0.00     0.031 H 
ATOM     42  H   UNL A   1      35.526  22.479  23.008  1.00  0.00     0.027 H 
ATOM     43  H   UNL A   1      35.499  24.206  23.176  1.00  0.00     0.027 H 
BRANCH  15  44
ATOM     44  C   UNL A   1      30.165  29.697  23.953  1.00  0.00    -0.085 C 
ATOM     45  C   UNL A   1      29.206  29.361  23.075  1.00  0.00    -0.103 C 
ATOM     46  H   UNL A   1      28.402  29.989  22.925  1.00  0.00     0.053 H 
ATOM     47  H   UNL A   1      29.275  28.474  22.551  1.00  0.00     0.053 H 
ATOM     48  H   UNL A   1      30.033  30.596  24.443  1.00  0.00     0.057 H 
ENDBRANCH  15  44
BRANCH  16  49
ATOM     49  O   UNL A   1      33.943  29.319  22.960  1.00  0.00    -0.392 OA
ATOM     50  H   UNL A   1      34.309  29.473  22.076  1.00  0.00     0.210 HD
ENDBRANCH  16  49
BRANCH  28  51
ATOM     51  C   UNL A   1      31.136  23.406  22.870  1.00  0.00    -0.059 C 
ATOM     52  H   UNL A   1      31.112  22.391  22.537  1.00  0.00     0.024 H 
ATOM     53  H   UNL A   1      30.903  24.055  22.052  1.00  0.00     0.024 H 
ATOM     54  H   UNL A   1      30.418  23.544  23.651  1.00  0.00     0.024 H 
ENDBRANCH  28  51
BRANCH  33  55
ATOM     55  C   UNL A   1      32.767  21.312  24.454  1.00  0.00    -0.059 C 
ATOM     56  H   UNL A   1      33.724  20.838  24.540  1.00  0.00     0.024 H 
ATOM     57  H   UNL A   1      32.368  21.135  23.477  1.00  0.00     0.024 H 
ATOM     58  H   UNL A   1      32.103  20.909  25.190  1.00  0.00     0.024 H 
ENDBRANCH  33  55
BRANCH  37  59
ATOM     59  C   UNL A   1      35.504  22.506  25.757  1.00  0.00    -0.041 C 
ATOM     60  H   UNL A   1      36.044  21.892  25.065  1.00  0.00     0.030 H 
BRANCH  59  61
ATOM     61  C   UNL A   1      36.487  23.517  26.384  1.00  0.00    -0.047 C 
ATOM     62  H   UNL A   1      36.623  23.252  27.412  1.00  0.00     0.027 H 
ATOM     63  H   UNL A   1      36.049  24.484  26.250  1.00  0.00     0.027 H 
BRANCH  61  64
ATOM     64  C   UNL A   1      37.866  23.572  25.720  1.00  0.00    -0.035 C 
ATOM     65  H   UNL A   1      38.444  24.341  26.189  1.00  0.00     0.031 H 
ATOM     66  H   UNL A   1      37.723  23.775  24.679  1.00  0.00     0.031 H 
BRANCH  64  67
ATOM     67  C   UNL A   1      38.611  22.261  25.840  1.00  0.00    -0.086 C 
ATOM     68  C   UNL A   1      39.733  22.041  26.556  1.00  0.00    -0.080 C 
ATOM     69  H   UNL A   1      38.223  21.457  25.323  1.00  0.00     0.058 H 
BRANCH  68  70
ATOM     70  C   UNL A   1      40.361  20.676  26.639  1.00  0.00    -0.044 C 
ATOM     71  H   UNL A   1      41.164  20.609  25.933  1.00  0.00     0.028 H 
ATOM     72  H   UNL A   1      39.627  19.931  26.413  1.00  0.00     0.028 H 
ATOM     73  H   UNL A   1      40.741  20.516  27.626  1.00  0.00     0.028 H 
ENDBRANCH  68  70
BRANCH  68  74
ATOM     74  C   UNL A   1      40.454  23.118  27.320  1.00  0.00    -0.044 C 
ATOM     75  H   UNL A   1      40.544  23.990  26.707  1.00  0.00     0.028 H 
ATOM     76  H   UNL A   1      41.430  22.771  27.590  1.00  0.00     0.028 H 
ATOM     77  H   UNL A   1      39.903  23.358  28.205  1.00  0.00     0.028 H 
ENDBRANCH  68  74
ENDBRANCH  64  67
ENDBRANCH  61  64
ENDBRANCH  59  61
BRANCH  59  78
ATOM     78  C   UNL A   1      34.997  21.495  26.789  1.00  0.00    -0.062 C 
ATOM     79  H   UNL A   1      35.801  21.208  27.433  1.00  0.00     0.023 H 
ATOM     80  H   UNL A   1      34.618  20.630  26.284  1.00  0.00     0.023 H 
ATOM     81  H   UNL A   1      34.215  21.939  27.369  1.00  0.00     0.023 H 
ENDBRANCH  59  78
ENDBRANCH  37  59
ENDBRANCH  11  14
ENDBRANCH   8  11
ENDBRANCH   5   8
ENDBRANCH   1   4
BRANCH   1  82
ATOM     82  C   UNL A   1      35.653  32.634  28.506  1.00  0.00    -0.036 C 
ATOM     83  H   UNL A   1      36.233  32.569  27.610  1.00  0.00     0.028 H 
ATOM     84  H   UNL A   1      35.818  32.468  29.550  1.00  0.00     0.028 H 
BRANCH  82  85
ATOM     85  C   UNL A   1      35.520  34.359  28.712  1.00  0.00    -0.052 C 
ATOM     86  H   UNL A   1      36.515  34.727  28.578  1.00  0.00     0.027 H 
ATOM     87  H   UNL A   1      34.993  34.375  29.642  1.00  0.00     0.027 H 
BRANCH  85  88
ATOM     88  C   UNL A   1      34.628  35.335  27.911  1.00  0.00    -0.052 C 
ATOM     89  H   UNL A   1      34.136  34.785  27.136  1.00  0.00     0.027 H 
ATOM     90  H   UNL A   1      35.270  36.100  27.526  1.00  0.00     0.027 H 
BRANCH  88  91
ATOM     91  C   UNL A   1      33.566  36.031  28.755  1.00  0.00    -0.036 C 
ATOM     92  H   UNL A   1      32.703  36.210  28.148  1.00  0.00     0.028 H 
ATOM     93  H   UNL A   1      33.974  36.951  29.116  1.00  0.00     0.028 H 
BRANCH  91  94
ATOM     94  C   UNL A   1      33.165  35.186  29.946  1.00  0.00     0.018 C 
ATOM     95  H   UNL A   1      34.033  34.717  30.358  1.00  0.00     0.049 H 
ATOM     96  H   UNL A   1      32.467  34.438  29.629  1.00  0.00     0.049 H 
BRANCH  94  97
ATOM     97  N   UNL A   1      32.541  36.028  30.959  1.00  0.00    -0.352 N 
ATOM     98  C   UNL A   1      32.714  35.936  32.314  1.00  0.00     0.251 C 
ATOM     99  H   UNL A   1      31.936  36.733  30.637  1.00  0.00     0.163 HD
ATOM    100  O   UNL A   1      31.954  36.461  33.107  1.00  0.00    -0.269 OA
BRANCH  98 101
ATOM    101  C   UNL A   1      33.881  35.165  32.757  1.00  0.00     0.039 A 
ATOM    102  C   UNL A   1      33.711  33.863  33.220  1.00  0.00    -0.049 A 
ATOM    103  C   UNL A   1      35.150  35.723  32.565  1.00  0.00    -0.049 A 
ATOM    104  C   UNL A   1      34.841  33.102  33.490  1.00  0.00    -0.053 A 
ATOM    105  H   UNL A   1      32.766  33.472  33.358  1.00  0.00     0.063 H 
ATOM    106  C   UNL A   1      36.267  34.933  32.749  1.00  0.00    -0.053 A 
ATOM    107  H   UNL A   1      35.249  36.713  32.290  1.00  0.00     0.063 H 
ATOM    108  C   UNL A   1      36.121  33.629  33.244  1.00  0.00    -0.014 A 
ATOM    109  H   UNL A   1      34.742  32.148  33.872  1.00  0.00     0.063 H 
ATOM    110  H   UNL A   1      37.205  35.300  32.522  1.00  0.00     0.063 H 
BRANCH 108 111
ATOM    111  C   UNL A   1      37.338  32.859  33.565  1.00  0.00     0.031 A 
ATOM    112  C   UNL A   1      38.084  33.182  34.828  1.00  0.00     0.074 A 
ATOM    113  C   UNL A   1      37.790  31.934  32.700  1.00  0.00     0.049 A 
ATOM    114  N   UNL A   1      39.212  32.691  35.270  1.00  0.00    -0.248 NA
ATOM    115  C   UNL A   1      37.506  34.226  35.693  1.00  0.00    -0.034 C 
ATOM    116  C   UNL A   1      37.163  31.594  31.421  1.00  0.00    -0.036 A 
ATOM    117  N   UNL A   1      38.889  31.120  32.762  1.00  0.00    -0.354 N 
ATOM    118  C   UNL A   1      39.482  33.379  36.445  1.00  0.00     0.074 A 
ATOM    119  C   UNL A   1      38.443  34.366  36.617  1.00  0.00    -0.034 C 
ATOM    120  H   UNL A   1      36.604  34.720  35.601  1.00  0.00     0.065 H 
ATOM    121  C   UNL A   1      37.878  30.623  30.829  1.00  0.00    -0.036 A 
ATOM    122  H   UNL A   1      36.311  32.029  31.036  1.00  0.00     0.065 H 
ATOM    123  C   UNL A   1      39.029  30.304  31.666  1.00  0.00     0.049 A 
ATOM    124  H   UNL A   1      39.518  31.119  33.519  1.00  0.00     0.167 HD
ATOM    125  C   UNL A   1      40.495  33.179  37.317  1.00  0.00     0.037 A 
ATOM    126  H   UNL A   1      38.432  35.083  37.359  1.00  0.00     0.065 H 
ATOM    127  H   UNL A   1      37.649  30.175  29.927  1.00  0.00     0.065 H 
ATOM    128  C   UNL A   1      39.991  29.409  31.377  1.00  0.00     0.037 A 
ATOM    129  C   UNL A   1      41.499  32.164  37.148  1.00  0.00     0.049 A 
ATOM    130  C   UNL A   1      41.102  29.201  32.373  1.00  0.00     0.074 A 
ATOM    131  C   UNL A   1      42.527  31.817  38.004  1.00  0.00    -0.036 A 
ATOM    132  N   UNL A   1      41.596  31.333  36.041  1.00  0.00    -0.354 N 
ATOM    133  N   UNL A   1      41.305  29.795  33.525  1.00  0.00    -0.248 NA
ATOM    134  C   UNL A   1      42.114  28.193  32.032  1.00  0.00    -0.034 C 
ATOM    135  C   UNL A   1      43.282  30.815  37.388  1.00  0.00    -0.036 A 
ATOM    136  H   UNL A   1      42.705  32.226  38.934  1.00  0.00     0.065 H 
ATOM    137  C   UNL A   1      42.688  30.493  36.178  1.00  0.00     0.049 A 
ATOM    138  H   UNL A   1      40.980  31.339  35.272  1.00  0.00     0.167 HD
ATOM    139  C   UNL A   1      42.449  29.217  34.058  1.00  0.00     0.074 A 
ATOM    140  C   UNL A   1      42.882  28.208  33.113  1.00  0.00    -0.034 C 
ATOM    141  H   UNL A   1      42.204  27.621  31.178  1.00  0.00     0.065 H 
ATOM    142  H   UNL A   1      44.139  30.387  37.771  1.00  0.00     0.065 H 
ATOM    143  C   UNL A   1      43.089  29.495  35.220  1.00  0.00     0.037 A 
ATOM    144  H   UNL A   1      43.688  27.581  33.261  1.00  0.00     0.065 H 
BRANCH 125 145
ATOM    145  C   UNL A   1      40.565  34.066  38.526  1.00  0.00     0.064 A 
ATOM    146  C   UNL A   1      39.929  33.727  39.730  1.00  0.00     0.173 A 
ATOM    147  C   UNL A   1      41.314  35.251  38.491  1.00  0.00     0.173 A 
ATOM    148  F   UNL A   1      39.185  32.613  39.812  1.00  0.00    -0.203 F 
ATOM    149  C   UNL A   1      40.022  34.553  40.847  1.00  0.00     0.198 A 
ATOM    150  C   UNL A   1      41.431  36.058  39.619  1.00  0.00     0.198 A 
ATOM    151  F   UNL A   1      41.940  35.624  37.364  1.00  0.00    -0.203 F 
ATOM    152  F   UNL A   1      39.367  34.233  41.971  1.00  0.00    -0.200 F 
ATOM    153  C   UNL A   1      40.781  35.712  40.793  1.00  0.00     0.200 A 
ATOM    154  F   UNL A   1      42.175  37.173  39.569  1.00  0.00    -0.200 F 
ATOM    155  F   UNL A   1      40.881  36.499  41.874  1.00  0.00    -0.200 F 
ENDBRANCH 125 145
BRANCH 128 156
ATOM    156  C   UNL A   1      39.943  28.641  30.105  1.00  0.00     0.064 A 
ATOM    157  C   UNL A   1      39.320  27.387  30.039  1.00  0.00     0.173 A 
ATOM    158  C   UNL A   1      40.533  29.136  28.932  1.00  0.00     0.173 A 
ATOM    159  F   UNL A   1      38.753  26.862  31.135  1.00  0.00    -0.203 F 
ATOM    160  C   UNL A   1      39.318  26.643  28.860  1.00  0.00     0.198 A 
ATOM    161  C   UNL A   1      40.502  28.407  27.745  1.00  0.00     0.198 A 
ATOM    162  F   UNL A   1      41.133  30.335  28.936  1.00  0.00    -0.203 F 
ATOM    163  F   UNL A   1      38.767  25.422  28.841  1.00  0.00    -0.200 F 
ATOM    164  C   UNL A   1      39.906  27.155  27.713  1.00  0.00     0.200 A 
ATOM    165  F   UNL A   1      41.054  28.915  26.635  1.00  0.00    -0.200 F 
ATOM    166  F   UNL A   1      39.905  26.440  26.580  1.00  0.00    -0.200 F 
ENDBRANCH 128 156
BRANCH 143 167
ATOM    167  C   UNL A   1      44.304  28.677  35.545  1.00  0.00     0.064 A 
ATOM    168  C   UNL A   1      45.589  29.081  35.152  1.00  0.00     0.173 A 
ATOM    169  C   UNL A   1      44.185  27.500  36.299  1.00  0.00     0.173 A 
ATOM    170  F   UNL A   1      45.754  30.192  34.419  1.00  0.00    -0.203 F 
ATOM    171  C   UNL A   1      46.707  28.318  35.477  1.00  0.00     0.198 A 
ATOM    172  C   UNL A   1      45.309  26.759  36.653  1.00  0.00     0.198 A 
ATOM    173  F   UNL A   1      42.980  27.077  36.708  1.00  0.00    -0.203 F 
ATOM    174  F   UNL A   1      47.919  28.694  35.044  1.00  0.00    -0.200 F 
ATOM    175  C   UNL A   1      46.567  27.164  36.234  1.00  0.00     0.200 A 
ATOM    176  F   UNL A   1      45.174  25.656  37.401  1.00  0.00    -0.200 F 
ATOM    177  F   UNL A   1      47.646  26.437  36.554  1.00  0.00    -0.200 F 
ENDBRANCH 143 167
ENDBRANCH 108 111
ENDBRANCH  98 101
ENDBRANCH  94  97
ENDBRANCH  91  94
ENDBRANCH  88  91
ENDBRANCH  85  88
ENDBRANCH  82  85
ENDBRANCH   1  82
TORSDOF 26
ENDMDL
MODEL 2
REMARK VINA RESULT:     -12.2      0.921      2.021
REMARK SMILES C=C[C@@H]1[C@@H](O)C[C@H]2[C@]3(CC[C@]4(C)[C@@H]([C@H](C)CCC=C(C)C)CC[C@]24C)C[C@]13CCC(=O)NCCCCCCNC(=O)c1ccc(-c2c3nc(c(-c4c(F)c(F)c(F)c(F)c4F)c4ccc([nH]4)c(-c4c(F)c(F)c(F)c(F)c4F)c4nc(c(-c5c(F)c(F)c(F)c(F)c5F)c5ccc2[nH]5)C=C4)C=C3)cc1
REMARK SMILES IDX 33 1 32 4 30 5 31 6 29 8 28 11 27 14 3 15 4 16 6 18 8 20
REMARK SMILES IDX 26 21 7 22 9 25 24 28 10 30 11 33 23 34 13 37 22 38 2 44
REMARK SMILES IDX 1 45 5 49 25 51 12 55 14 59 16 61 17 64 18 67 19 68 20 70
REMARK SMILES IDX 21 74 15 78 34 82 35 85 36 88 37 91 38 94 39 97 40 98 41 100
REMARK SMILES IDX 42 101 43 102 104 103 44 104 103 106 45 108 46 111 47 112
REMARK SMILES IDX 97 113 48 114 102 115 96 116 98 117 49 118 101 119 95 121
REMARK SMILES IDX 94 123 50 125 82 128 62 129 81 130 63 131 66 132 80 133
REMARK SMILES IDX 99 134 64 135 65 137 79 139 100 140 67 143 51 145 52 146
REMARK SMILES IDX 60 147 53 148 54 149 58 150 61 151 55 152 56 153 59 154
REMARK SMILES IDX 57 155 83 156 84 157 92 158 85 159 86 160 90 161 93 162
REMARK SMILES IDX 87 163 88 164 91 165 89 166 68 167 69 168 77 169 70 170
REMARK SMILES IDX 71 171 75 172 78 173 72 174 73 175 76 176 74 177
REMARK H PARENT 33 2 33 3 32 7 29 9 29 10 28 12 28 13 3 17 4 19 6 23 6 24
REMARK H PARENT 26 26 26 27 7 29 9 31 9 32 10 35 10 36 23 39 23 40 13 41 22 42
REMARK H PARENT 22 43 1 46 1 47 2 48 5 50 25 52 25 53 25 54 12 56 12 57 12 58
REMARK H PARENT 14 60 16 62 16 63 17 65 17 66 18 69 20 71 20 72 20 73 21 75
REMARK H PARENT 21 76 21 77 15 79 15 80 15 81 34 83 34 84 35 86 35 87 36 89
REMARK H PARENT 36 90 37 92 37 93 38 95 38 96 39 99 43 105 104 107 44 109
REMARK H PARENT 103 110 102 120 96 122 98 124 101 126 95 127 63 136 66 138
REMARK H PARENT 99 141 64 142 100 144
REMARK Flexibility Score: inf
ROOT
ATOM      1  C   UNL A   1      34.282  30.642  27.656  1.00  0.00     0.017 C 
ATOM      2  H   UNL A   1      34.550  30.090  28.531  1.00  0.00     0.049 H 
ATOM      3  H   UNL A   1      33.326  30.900  27.248  1.00  0.00     0.049 H 
ENDROOT
BRANCH   1   4
ATOM      4  N   UNL A   1      34.659  29.700  26.532  1.00  0.00    -0.356 N 
ATOM      5  C   UNL A   1      34.040  28.550  26.144  1.00  0.00     0.220 C 
ATOM      6  O   UNL A   1      34.280  28.055  25.045  1.00  0.00    -0.275 OA
ATOM      7  H   UNL A   1      35.458  29.950  26.015  1.00  0.00     0.163 HD
BRANCH   5   8
ATOM      8  C   UNL A   1      33.064  27.945  27.114  1.00  0.00     0.027 C 
ATOM      9  H   UNL A   1      33.200  26.884  27.121  1.00  0.00     0.037 H 
ATOM     10  H   UNL A   1      33.254  28.372  28.076  1.00  0.00     0.037 H 
BRANCH   8  11
ATOM     11  C   UNL A   1      31.613  28.250  26.749  1.00  0.00    -0.038 C 
ATOM     12  H   UNL A   1      30.988  27.908  27.548  1.00  0.00     0.028 H 
ATOM     13  H   UNL A   1      31.549  29.307  26.596  1.00  0.00     0.028 H 
BRANCH  11  14
ATOM     14  C   UNL A   1      31.139  27.583  25.446  1.00  0.00    -0.014 C 
ATOM     15  C   UNL A   1      31.293  28.880  23.990  1.00  0.00     0.009 C 
ATOM     16  C   UNL A   1      32.303  28.308  22.371  1.00  0.00     0.061 C 
ATOM     17  H   UNL A   1      31.989  29.603  24.362  1.00  0.00     0.038 H 
ATOM     18  C   UNL A   1      32.687  26.374  22.133  1.00  0.00    -0.022 C 
ATOM     19  H   UNL A   1      31.587  28.545  21.611  1.00  0.00     0.061 H 
ATOM     20  C   UNL A   1      31.491  25.737  25.207  1.00  0.00    -0.019 C 
ATOM     21  C   UNL A   1      30.138  26.373  25.582  1.00  0.00    -0.040 C 
ATOM     22  C   UNL A   1      32.331  25.149  23.609  1.00  0.00    -0.027 C 
ATOM     23  H   UNL A   1      33.727  26.289  21.898  1.00  0.00     0.030 H 
ATOM     24  H   UNL A   1      31.998  26.068  21.374  1.00  0.00     0.030 H 
ATOM     25  C   UNL A   1      32.069  24.834  26.311  1.00  0.00    -0.046 C 
ATOM     26  H   UNL A   1      29.751  26.164  26.558  1.00  0.00     0.028 H 
ATOM     27  H   UNL A   1      29.190  26.242  25.104  1.00  0.00     0.028 H 
ATOM     28  C   UNL A   1      32.066  23.603  23.423  1.00  0.00    -0.023 C 
ATOM     29  H   UNL A   1      33.393  25.252  23.688  1.00  0.00     0.032 H 
ATOM     30  C   UNL A   1      31.906  23.345  25.980  1.00  0.00    -0.046 C 
ATOM     31  H   UNL A   1      31.560  25.041  27.229  1.00  0.00     0.027 H 
ATOM     32  H   UNL A   1      33.116  25.041  26.394  1.00  0.00     0.027 H 
ATOM     33  C   UNL A   1      32.635  22.808  24.703  1.00  0.00    -0.024 C 
ATOM     34  C   UNL A   1      32.987  23.094  22.319  1.00  0.00    -0.047 C 
ATOM     35  H   UNL A   1      30.860  23.157  25.855  1.00  0.00     0.027 H 
ATOM     36  H   UNL A   1      32.368  22.830  26.796  1.00  0.00     0.027 H 
ATOM     37  C   UNL A   1      34.186  23.061  24.527  1.00  0.00    -0.033 C 
ATOM     38  C   UNL A   1      34.384  23.061  22.970  1.00  0.00    -0.049 C 
ATOM     39  H   UNL A   1      32.693  22.115  22.002  1.00  0.00     0.027 H 
ATOM     40  H   UNL A   1      32.958  23.712  21.446  1.00  0.00     0.027 H 
ATOM     41  H   UNL A   1      34.361  23.956  25.087  1.00  0.00     0.031 H 
ATOM     42  H   UNL A   1      34.905  22.176  22.669  1.00  0.00     0.027 H 
ATOM     43  H   UNL A   1      34.959  23.911  22.666  1.00  0.00     0.027 H 
BRANCH  15  44
ATOM     44  C   UNL A   1      29.999  29.691  23.759  1.00  0.00    -0.085 C 
ATOM     45  C   UNL A   1      29.084  29.534  22.789  1.00  0.00    -0.103 C 
ATOM     46  H   UNL A   1      28.259  30.152  22.753  1.00  0.00     0.053 H 
ATOM     47  H   UNL A   1      29.208  28.794  22.079  1.00  0.00     0.053 H 
ATOM     48  H   UNL A   1      29.813  30.449  24.435  1.00  0.00     0.057 H 
ENDBRANCH  15  44
BRANCH  16  49
ATOM     49  O   UNL A   1      33.542  29.047  22.199  1.00  0.00    -0.392 OA
ATOM     50  H   UNL A   1      34.141  28.544  21.624  1.00  0.00     0.210 HD
ENDBRANCH  16  49
BRANCH  28  51
ATOM     51  C   UNL A   1      30.585  23.288  23.166  1.00  0.00    -0.059 C 
ATOM     52  H   UNL A   1      30.187  22.743  23.995  1.00  0.00     0.024 H 
ATOM     53  H   UNL A   1      30.494  22.701  22.276  1.00  0.00     0.024 H 
ATOM     54  H   UNL A   1      30.042  24.203  23.046  1.00  0.00     0.024 H 
ENDBRANCH  28  51
BRANCH  33  55
ATOM     55  C   UNL A   1      32.396  21.278  24.660  1.00  0.00    -0.059 C 
ATOM     56  H   UNL A   1      31.344  21.082  24.665  1.00  0.00     0.024 H 
ATOM     57  H   UNL A   1      32.849  20.823  25.516  1.00  0.00     0.024 H 
ATOM     58  H   UNL A   1      32.830  20.874  23.769  1.00  0.00     0.024 H 
ENDBRANCH  33  55
BRANCH  37  59
ATOM     59  C   UNL A   1      35.348  22.461  25.367  1.00  0.00    -0.041 C 
ATOM     60  H   UNL A   1      34.827  22.245  26.277  1.00  0.00     0.030 H 
BRANCH  59  61
ATOM     61  C   UNL A   1      35.911  21.141  24.799  1.00  0.00    -0.047 C 
ATOM     62  H   UNL A   1      36.964  21.120  24.991  1.00  0.00     0.027 H 
ATOM     63  H   UNL A   1      35.671  21.136  23.757  1.00  0.00     0.027 H 
BRANCH  61  64
ATOM     64  C   UNL A   1      35.294  19.870  25.391  1.00  0.00    -0.035 C 
ATOM     65  H   UNL A   1      34.330  20.109  25.790  1.00  0.00     0.031 H 
ATOM     66  H   UNL A   1      35.951  19.508  26.153  1.00  0.00     0.031 H 
BRANCH  64  67
ATOM     67  C   UNL A   1      35.135  18.778  24.356  1.00  0.00    -0.086 C 
ATOM     68  C   UNL A   1      34.158  17.849  24.318  1.00  0.00    -0.080 C 
ATOM     69  H   UNL A   1      35.843  18.740  23.607  1.00  0.00     0.058 H 
BRANCH  68  70
ATOM     70  C   UNL A   1      34.075  16.836  23.208  1.00  0.00    -0.044 C 
ATOM     71  H   UNL A   1      33.847  15.874  23.619  1.00  0.00     0.028 H 
ATOM     72  H   UNL A   1      35.014  16.791  22.696  1.00  0.00     0.028 H 
ATOM     73  H   UNL A   1      33.307  17.120  22.520  1.00  0.00     0.028 H 
ENDBRANCH  68  70
BRANCH  68  74
ATOM     74  C   UNL A   1      33.082  17.731  25.363  1.00  0.00    -0.044 C 
ATOM     75  H   UNL A   1      32.493  16.859  25.171  1.00  0.00     0.028 H 
ATOM     76  H   UNL A   1      32.455  18.598  25.329  1.00  0.00     0.028 H 
ATOM     77  H   UNL A   1      33.532  17.653  26.331  1.00  0.00     0.028 H 
ENDBRANCH  68  74
ENDBRANCH  64  67
ENDBRANCH  61  64
ENDBRANCH  59  61
BRANCH  59  78
ATOM     78  C   UNL A   1      36.466  23.401  25.827  1.00  0.00    -0.062 C 
ATOM     79  H   UNL A   1      37.208  22.841  26.357  1.00  0.00     0.023 H 
ATOM     80  H   UNL A   1      36.058  24.152  26.472  1.00  0.00     0.023 H 
ATOM     81  H   UNL A   1      36.913  23.869  24.975  1.00  0.00     0.023 H 
ENDBRANCH  59  78
ENDBRANCH  37  59
ENDBRANCH  11  14
ENDBRANCH   8  11
ENDBRANCH   5   8
ENDBRANCH   1   4
BRANCH   1  82
ATOM     82  C   UNL A   1      34.807  32.614  28.165  1.00  0.00    -0.036 C 
ATOM     83  H   UNL A   1      35.873  32.583  28.078  1.00  0.00     0.028 H 
ATOM     84  H   UNL A   1      34.097  32.655  28.963  1.00  0.00     0.028 H 
BRANCH  82  85
ATOM     85  C   UNL A   1      34.463  34.243  27.656  1.00  0.00    -0.052 C 
ATOM     86  H   UNL A   1      33.401  34.271  27.529  1.00  0.00     0.027 H 
ATOM     87  H   UNL A   1      35.166  34.319  26.853  1.00  0.00     0.027 H 
BRANCH  85  88
ATOM     88  C   UNL A   1      34.804  35.554  28.401  1.00  0.00    -0.052 C 
ATOM     89  H   UNL A   1      35.247  36.234  27.704  1.00  0.00     0.027 H 
ATOM     90  H   UNL A   1      35.469  35.294  29.199  1.00  0.00     0.027 H 
BRANCH  88  91
ATOM     91  C   UNL A   1      33.596  36.234  29.035  1.00  0.00    -0.036 C 
ATOM     92  H   UNL A   1      32.934  36.559  28.261  1.00  0.00     0.028 H 
ATOM     93  H   UNL A   1      33.943  37.065  29.612  1.00  0.00     0.028 H 
BRANCH  91  94
ATOM     94  C   UNL A   1      32.851  35.291  29.958  1.00  0.00     0.018 C 
ATOM     95  H   UNL A   1      33.505  34.502  30.263  1.00  0.00     0.049 H 
ATOM     96  H   UNL A   1      32.009  34.882  29.438  1.00  0.00     0.049 H 
BRANCH  94  97
ATOM     97  N   UNL A   1      32.386  36.017  31.133  1.00  0.00    -0.352 N 
ATOM     98  C   UNL A   1      32.773  35.803  32.428  1.00  0.00     0.251 C 
ATOM     99  H   UNL A   1      31.728  36.732  30.979  1.00  0.00     0.163 HD
ATOM    100  O   UNL A   1      32.142  36.231  33.377  1.00  0.00    -0.269 OA
BRANCH  98 101
ATOM    101  C   UNL A   1      34.006  35.028  32.606  1.00  0.00     0.039 A 
ATOM    102  C   UNL A   1      35.238  35.632  32.375  1.00  0.00    -0.049 A 
ATOM    103  C   UNL A   1      33.901  33.739  33.143  1.00  0.00    -0.049 A 
ATOM    104  C   UNL A   1      36.393  34.928  32.696  1.00  0.00    -0.053 A 
ATOM    105  H   UNL A   1      35.293  36.582  31.976  1.00  0.00     0.063 H 
ATOM    106  C   UNL A   1      35.047  33.083  33.543  1.00  0.00    -0.053 A 
ATOM    107  H   UNL A   1      32.978  33.287  33.237  1.00  0.00     0.063 H 
ATOM    108  C   UNL A   1      36.300  33.658  33.291  1.00  0.00    -0.014 A 
ATOM    109  H   UNL A   1      37.319  35.338  32.497  1.00  0.00     0.063 H 
ATOM    110  H   UNL A   1      34.982  32.172  34.025  1.00  0.00     0.063 H 
BRANCH 108 111
ATOM    111  C   UNL A   1      37.510  32.871  33.599  1.00  0.00     0.031 A 
ATOM    112  C   UNL A   1      38.263  33.168  34.864  1.00  0.00     0.074 A 
ATOM    113  C   UNL A   1      37.950  31.953  32.720  1.00  0.00     0.049 A 
ATOM    114  N   UNL A   1      39.386  32.660  35.297  1.00  0.00    -0.248 NA
ATOM    115  C   UNL A   1      37.697  34.207  35.744  1.00  0.00    -0.034 C 
ATOM    116  C   UNL A   1      37.317  31.636  31.438  1.00  0.00    -0.036 A 
ATOM    117  N   UNL A   1      39.040  31.126  32.769  1.00  0.00    -0.354 N 
ATOM    118  C   UNL A   1      39.667  33.329  36.480  1.00  0.00     0.074 A 
ATOM    119  C   UNL A   1      38.638  34.324  36.667  1.00  0.00    -0.034 C 
ATOM    120  H   UNL A   1      36.800  34.712  35.661  1.00  0.00     0.065 H 
ATOM    121  C   UNL A   1      38.020  30.665  30.832  1.00  0.00    -0.036 A 
ATOM    122  H   UNL A   1      36.468  32.085  31.062  1.00  0.00     0.065 H 
ATOM    123  C   UNL A   1      39.170  30.323  31.662  1.00  0.00     0.049 A 
ATOM    124  H   UNL A   1      39.671  31.108  33.524  1.00  0.00     0.167 HD
ATOM    125  C   UNL A   1      40.679  33.107  37.347  1.00  0.00     0.037 A 
ATOM    126  H   UNL A   1      38.636  35.032  37.419  1.00  0.00     0.065 H 
ATOM    127  H   UNL A   1      37.784  30.232  29.925  1.00  0.00     0.065 H 
ATOM    128  C   UNL A   1      40.121  29.421  31.358  1.00  0.00     0.037 A 
ATOM    129  C   UNL A   1      41.672  32.084  37.162  1.00  0.00     0.049 A 
ATOM    130  C   UNL A   1      41.233  29.189  32.348  1.00  0.00     0.074 A 
ATOM    131  C   UNL A   1      42.698  31.715  38.011  1.00  0.00    -0.036 A 
ATOM    132  N   UNL A   1      41.757  31.266  36.044  1.00  0.00    -0.354 N 
ATOM    133  N   UNL A   1      41.444  29.766  33.508  1.00  0.00    -0.248 NA
ATOM    134  C   UNL A   1      42.232  28.175  31.992  1.00  0.00    -0.034 C 
ATOM    135  C   UNL A   1      43.441  30.713  37.380  1.00  0.00    -0.036 A 
ATOM    136  H   UNL A   1      42.883  32.109  38.946  1.00  0.00     0.065 H 
ATOM    137  C   UNL A   1      42.841  30.413  36.166  1.00  0.00     0.049 A 
ATOM    138  H   UNL A   1      41.139  31.290  35.277  1.00  0.00     0.167 HD
ATOM    139  C   UNL A   1      42.583  29.168  34.030  1.00  0.00     0.074 A 
ATOM    140  C   UNL A   1      43.003  28.168  33.071  1.00  0.00    -0.034 C 
ATOM    141  H   UNL A   1      42.314  27.614  31.130  1.00  0.00     0.065 H 
ATOM    142  H   UNL A   1      44.295  30.271  37.754  1.00  0.00     0.065 H 
ATOM    143  C   UNL A   1      43.229  29.424  35.194  1.00  0.00     0.037 A 
ATOM    144  H   UNL A   1      43.803  27.530  33.209  1.00  0.00     0.065 H 
BRANCH 125 145
ATOM    145  C   UNL A   1      40.762  33.977  38.567  1.00  0.00     0.064 A 
ATOM    146  C   UNL A   1      40.099  33.644  39.758  1.00  0.00     0.173 A 
ATOM    147  C   UNL A   1      41.547  35.138  38.555  1.00  0.00     0.173 A 
ATOM    148  F   UNL A   1      39.320  32.553  39.818  1.00  0.00    -0.203 F 
ATOM    149  C   UNL A   1      40.204  34.454  40.886  1.00  0.00     0.198 A 
ATOM    150  C   UNL A   1      41.676  35.928  39.695  1.00  0.00     0.198 A 
ATOM    151  F   UNL A   1      42.199  35.505  37.441  1.00  0.00    -0.203 F 
ATOM    152  F   UNL A   1      39.524  34.142  41.999  1.00  0.00    -0.200 F 
ATOM    153  C   UNL A   1      40.999  35.589  40.857  1.00  0.00     0.200 A 
ATOM    154  F   UNL A   1      42.454  37.019  39.668  1.00  0.00    -0.200 F 
ATOM    155  F   UNL A   1      41.110  36.360  41.948  1.00  0.00    -0.200 F 
ENDBRANCH 125 145
BRANCH 128 156
ATOM    156  C   UNL A   1      40.062  28.671  30.077  1.00  0.00     0.064 A 
ATOM    157  C   UNL A   1      39.432  27.422  29.997  1.00  0.00     0.173 A 
ATOM    158  C   UNL A   1      40.648  29.179  28.907  1.00  0.00     0.173 A 
ATOM    159  F   UNL A   1      38.868  26.885  31.089  1.00  0.00    -0.203 F 
ATOM    160  C   UNL A   1      39.420  26.694  28.808  1.00  0.00     0.198 A 
ATOM    161  C   UNL A   1      40.606  28.466  27.711  1.00  0.00     0.198 A 
ATOM    162  F   UNL A   1      41.255  30.375  28.924  1.00  0.00    -0.203 F 
ATOM    163  F   UNL A   1      38.863  25.476  28.776  1.00  0.00    -0.200 F 
ATOM    164  C   UNL A   1      40.004  27.218  27.665  1.00  0.00     0.200 A 
ATOM    165  F   UNL A   1      41.155  28.986  26.604  1.00  0.00    -0.200 F 
ATOM    166  F   UNL A   1      39.993  26.519  26.523  1.00  0.00    -0.200 F 
ENDBRANCH 128 156
BRANCH 143 167
ATOM    167  C   UNL A   1      44.436  28.589  35.505  1.00  0.00     0.064 A 
ATOM    168  C   UNL A   1      44.332  27.379  36.206  1.00  0.00     0.173 A 
ATOM    169  C   UNL A   1      45.706  28.982  35.055  1.00  0.00     0.173 A 
ATOM    170  F   UNL A   1      43.142  26.966  36.668  1.00  0.00    -0.203 F 
ATOM    171  C   UNL A   1      45.460  26.608  36.472  1.00  0.00     0.198 A 
ATOM    172  C   UNL A   1      46.826  28.191  35.290  1.00  0.00     0.198 A 
ATOM    173  F   UNL A   1      45.857  30.126  34.370  1.00  0.00    -0.203 F 
ATOM    174  F   UNL A   1      45.345  25.482  37.190  1.00  0.00    -0.200 F 
ATOM    175  C   UNL A   1      46.704  27.010  36.005  1.00  0.00     0.200 A 
ATOM    176  F   UNL A   1      48.023  28.571  34.822  1.00  0.00    -0.200 F 
ATOM    177  F   UNL A   1      47.786  26.261  36.253  1.00  0.00    -0.200 F 
ENDBRANCH 143 167
ENDBRANCH 108 111
ENDBRANCH  98 101
ENDBRANCH  94  97
ENDBRANCH  91  94
ENDBRANCH  88  91
ENDBRANCH  85  88
ENDBRANCH  82  85
ENDBRANCH   1  82
TORSDOF 26
ENDMDL
MODEL 3
REMARK VINA RESULT:     -12.2      3.219      8.978
REMARK SMILES C=C[C@@H]1[C@@H](O)C[C@H]2[C@]3(CC[C@]4(C)[C@@H]([C@H](C)CCC=C(C)C)CC[C@]24C)C[C@]13CCC(=O)NCCCCCCNC(=O)c1ccc(-c2c3nc(c(-c4c(F)c(F)c(F)c(F)c4F)c4ccc([nH]4)c(-c4c(F)c(F)c(F)c(F)c4F)c4nc(c(-c5c(F)c(F)c(F)c(F)c5F)c5ccc2[nH]5)C=C4)C=C3)cc1
REMARK SMILES IDX 33 1 32 4 30 5 31 6 29 8 28 11 27 14 3 15 4 16 6 18 8 20
REMARK SMILES IDX 26 21 7 22 9 25 24 28 10 30 11 33 23 34 13 37 22 38 2 44
REMARK SMILES IDX 1 45 5 49 25 51 12 55 14 59 16 61 17 64 18 67 19 68 20 70
REMARK SMILES IDX 21 74 15 78 34 82 35 85 36 88 37 91 38 94 39 97 40 98 41 100
REMARK SMILES IDX 42 101 43 102 104 103 44 104 103 106 45 108 46 111 47 112
REMARK SMILES IDX 97 113 48 114 102 115 96 116 98 117 49 118 101 119 95 121
REMARK SMILES IDX 94 123 50 125 82 128 62 129 81 130 63 131 66 132 80 133
REMARK SMILES IDX 99 134 64 135 65 137 79 139 100 140 67 143 51 145 52 146
REMARK SMILES IDX 60 147 53 148 54 149 58 150 61 151 55 152 56 153 59 154
REMARK SMILES IDX 57 155 83 156 84 157 92 158 85 159 86 160 90 161 93 162
REMARK SMILES IDX 87 163 88 164 91 165 89 166 68 167 69 168 77 169 70 170
REMARK SMILES IDX 71 171 75 172 78 173 72 174 73 175 76 176 74 177
REMARK H PARENT 33 2 33 3 32 7 29 9 29 10 28 12 28 13 3 17 4 19 6 23 6 24
REMARK H PARENT 26 26 26 27 7 29 9 31 9 32 10 35 10 36 23 39 23 40 13 41 22 42
REMARK H PARENT 22 43 1 46 1 47 2 48 5 50 25 52 25 53 25 54 12 56 12 57 12 58
REMARK H PARENT 14 60 16 62 16 63 17 65 17 66 18 69 20 71 20 72 20 73 21 75
REMARK H PARENT 21 76 21 77 15 79 15 80 15 81 34 83 34 84 35 86 35 87 36 89
REMARK H PARENT 36 90 37 92 37 93 38 95 38 96 39 99 43 105 104 107 44 109
REMARK H PARENT 103 110 102 120 96 122 98 124 101 126 95 127 63 136 66 138
REMARK H PARENT 99 141 64 142 100 144
REMARK Flexibility Score: inf
ROOT
ATOM      1  C   UNL A   1      38.966  24.334  27.053  1.00  0.00     0.017 C 
ATOM      2  H   UNL A   1      38.897  24.300  28.120  1.00  0.00     0.049 H 
ATOM      3  H   UNL A   1      38.318  24.762  26.316  1.00  0.00     0.049 H 
ENDROOT
BRANCH   1   4
ATOM      4  N   UNL A   1      38.700  22.899  26.651  1.00  0.00    -0.356 N 
ATOM      5  C   UNL A   1      37.926  22.431  25.632  1.00  0.00     0.220 C 
ATOM      6  O   UNL A   1      38.040  21.270  25.247  1.00  0.00    -0.275 OA
ATOM      7  H   UNL A   1      39.144  22.212  27.199  1.00  0.00     0.163 HD
BRANCH   5   8
ATOM      8  C   UNL A   1      36.956  23.402  25.018  1.00  0.00     0.027 C 
ATOM      9  H   UNL A   1      36.181  23.607  25.727  1.00  0.00     0.037 H 
ATOM     10  H   UNL A   1      37.499  24.287  24.761  1.00  0.00     0.037 H 
BRANCH   8  11
ATOM     11  C   UNL A   1      36.319  22.860  23.740  1.00  0.00    -0.038 C 
ATOM     12  H   UNL A   1      36.450  23.588  22.966  1.00  0.00     0.028 H 
ATOM     13  H   UNL A   1      36.805  21.932  23.523  1.00  0.00     0.028 H 
BRANCH  11  14
ATOM     14  C   UNL A   1      34.816  22.556  23.867  1.00  0.00    -0.014 C 
ATOM     15  C   UNL A   1      34.567  21.224  25.277  1.00  0.00     0.009 C 
ATOM     16  C   UNL A   1      33.260  21.662  26.716  1.00  0.00     0.061 C 
ATOM     17  H   UNL A   1      35.465  21.290  25.855  1.00  0.00     0.038 H 
ATOM     18  C   UNL A   1      31.988  23.157  26.412  1.00  0.00    -0.022 C 
ATOM     19  H   UNL A   1      32.659  20.777  26.699  1.00  0.00     0.061 H 
ATOM     20  C   UNL A   1      33.590  23.969  23.572  1.00  0.00    -0.019 C 
ATOM     21  C   UNL A   1      33.921  22.821  22.597  1.00  0.00    -0.040 C 
ATOM     22  C   UNL A   1      32.246  24.320  24.868  1.00  0.00    -0.027 C 
ATOM     23  H   UNL A   1      32.022  23.778  27.282  1.00  0.00     0.030 H 
ATOM     24  H   UNL A   1      31.059  22.665  26.211  1.00  0.00     0.030 H 
ATOM     25  C   UNL A   1      34.003  25.356  23.048  1.00  0.00    -0.046 C 
ATOM     26  H   UNL A   1      34.423  23.080  21.688  1.00  0.00     0.028 H 
ATOM     27  H   UNL A   1      33.244  22.149  22.113  1.00  0.00     0.028 H 
ATOM     28  C   UNL A   1      31.088  25.160  24.197  1.00  0.00    -0.023 C 
ATOM     29  H   UNL A   1      32.636  24.939  25.649  1.00  0.00     0.032 H 
ATOM     30  C   UNL A   1      32.797  26.167  22.555  1.00  0.00    -0.046 C 
ATOM     31  H   UNL A   1      34.688  25.228  22.236  1.00  0.00     0.027 H 
ATOM     32  H   UNL A   1      34.456  25.893  23.855  1.00  0.00     0.027 H 
ATOM     33  C   UNL A   1      31.697  26.530  23.609  1.00  0.00    -0.024 C 
ATOM     34  C   UNL A   1      30.182  25.687  25.306  1.00  0.00    -0.047 C 
ATOM     35  H   UNL A   1      32.325  25.602  21.780  1.00  0.00     0.027 H 
ATOM     36  H   UNL A   1      33.206  27.108  22.250  1.00  0.00     0.027 H 
ATOM     37  C   UNL A   1      32.112  27.256  24.950  1.00  0.00    -0.033 C 
ATOM     38  C   UNL A   1      31.000  26.815  25.966  1.00  0.00    -0.049 C 
ATOM     39  H   UNL A   1      29.269  26.068  24.900  1.00  0.00     0.027 H 
ATOM     40  H   UNL A   1      29.904  24.924  26.003  1.00  0.00     0.027 H 
ATOM     41  H   UNL A   1      33.126  26.947  25.102  1.00  0.00     0.031 H 
ATOM     42  H   UNL A   1      30.362  27.644  26.190  1.00  0.00     0.027 H 
ATOM     43  H   UNL A   1      31.441  26.473  26.879  1.00  0.00     0.027 H 
BRANCH  15  44
ATOM     44  C   UNL A   1      34.568  19.772  24.750  1.00  0.00    -0.085 C 
ATOM     45  C   UNL A   1      33.514  19.014  24.409  1.00  0.00    -0.103 C 
ATOM     46  H   UNL A   1      33.660  18.051  24.068  1.00  0.00     0.053 H 
ATOM     47  H   UNL A   1      32.557  19.395  24.487  1.00  0.00     0.053 H 
ATOM     48  H   UNL A   1      35.494  19.329  24.647  1.00  0.00     0.057 H 
ENDBRANCH  15  44
BRANCH  16  49
ATOM     49  O   UNL A   1      33.899  21.858  28.006  1.00  0.00    -0.392 OA
ATOM     50  H   UNL A   1      34.111  22.797  28.123  1.00  0.00     0.210 HD
ENDBRANCH  16  49
BRANCH  28  51
ATOM     51  C   UNL A   1      30.329  24.364  23.126  1.00  0.00    -0.059 C 
ATOM     52  H   UNL A   1      29.893  23.495  23.569  1.00  0.00     0.024 H 
ATOM     53  H   UNL A   1      31.009  24.068  22.354  1.00  0.00     0.024 H 
ATOM     54  H   UNL A   1      29.558  24.976  22.707  1.00  0.00     0.024 H 
ENDBRANCH  28  51
BRANCH  33  55
ATOM     55  C   UNL A   1      30.663  27.428  22.884  1.00  0.00    -0.059 C 
ATOM     56  H   UNL A   1      29.933  27.769  23.589  1.00  0.00     0.024 H 
ATOM     57  H   UNL A   1      30.180  26.865  22.114  1.00  0.00     0.024 H 
ATOM     58  H   UNL A   1      31.162  28.270  22.452  1.00  0.00     0.024 H 
ENDBRANCH  33  55
BRANCH  37  59
ATOM     59  C   UNL A   1      32.663  28.700  25.119  1.00  0.00    -0.041 C 
ATOM     60  H   UNL A   1      32.685  29.011  24.095  1.00  0.00     0.030 H 
BRANCH  59  61
ATOM     61  C   UNL A   1      31.717  29.641  25.896  1.00  0.00    -0.047 C 
ATOM     62  H   UNL A   1      32.290  30.137  26.652  1.00  0.00     0.027 H 
ATOM     63  H   UNL A   1      30.938  29.024  26.292  1.00  0.00     0.027 H 
BRANCH  61  64
ATOM     64  C   UNL A   1      31.028  30.710  25.042  1.00  0.00    -0.035 C 
ATOM     65  H   UNL A   1      31.763  31.189  24.430  1.00  0.00     0.031 H 
ATOM     66  H   UNL A   1      30.559  31.408  25.704  1.00  0.00     0.031 H 
BRANCH  64  67
ATOM     67  C   UNL A   1      29.957  30.124  24.150  1.00  0.00    -0.086 C 
ATOM     68  C   UNL A   1      29.033  30.814  23.450  1.00  0.00    -0.080 C 
ATOM     69  H   UNL A   1      29.929  29.095  24.070  1.00  0.00     0.058 H 
BRANCH  68  70
ATOM     70  C   UNL A   1      28.041  30.121  22.554  1.00  0.00    -0.044 C 
ATOM     71  H   UNL A   1      27.066  30.176  22.992  1.00  0.00     0.028 H 
ATOM     72  H   UNL A   1      28.322  29.095  22.438  1.00  0.00     0.028 H 
ATOM     73  H   UNL A   1      28.030  30.599  21.597  1.00  0.00     0.028 H 
ENDBRANCH  68  70
BRANCH  68  74
ATOM     74  C   UNL A   1      28.901  32.312  23.501  1.00  0.00    -0.044 C 
ATOM     75  H   UNL A   1      28.057  32.615  22.918  1.00  0.00     0.028 H 
ATOM     76  H   UNL A   1      29.787  32.762  23.103  1.00  0.00     0.028 H 
ATOM     77  H   UNL A   1      28.767  32.624  24.515  1.00  0.00     0.028 H 
ENDBRANCH  68  74
ENDBRANCH  64  67
ENDBRANCH  61  64
ENDBRANCH  59  61
BRANCH  59  78
ATOM     78  C   UNL A   1      34.119  28.871  25.561  1.00  0.00    -0.062 C 
ATOM     79  H   UNL A   1      34.740  28.193  25.014  1.00  0.00     0.023 H 
ATOM     80  H   UNL A   1      34.200  28.664  26.608  1.00  0.00     0.023 H 
ATOM     81  H   UNL A   1      34.434  29.876  25.372  1.00  0.00     0.023 H 
ENDBRANCH  59  78
ENDBRANCH  37  59
ENDBRANCH  11  14
ENDBRANCH   8  11
ENDBRANCH   5   8
ENDBRANCH   1   4
BRANCH   1  82
ATOM     82  C   UNL A   1      40.542  25.689  26.728  1.00  0.00    -0.036 C 
ATOM     83  H   UNL A   1      41.212  25.435  27.523  1.00  0.00     0.028 H 
ATOM     84  H   UNL A   1      39.876  26.494  26.504  1.00  0.00     0.028 H 
BRANCH  82  85
ATOM     85  C   UNL A   1      41.653  26.139  25.465  1.00  0.00    -0.052 C 
ATOM     86  H   UNL A   1      41.742  27.202  25.545  1.00  0.00     0.027 H 
ATOM     87  H   UNL A   1      41.186  25.635  24.645  1.00  0.00     0.027 H 
BRANCH  85  88
ATOM     88  C   UNL A   1      43.101  25.636  25.264  1.00  0.00    -0.052 C 
ATOM     89  H   UNL A   1      43.644  25.797  26.172  1.00  0.00     0.027 H 
ATOM     90  H   UNL A   1      43.509  26.184  24.439  1.00  0.00     0.027 H 
BRANCH  88  91
ATOM     91  C   UNL A   1      43.195  24.157  24.903  1.00  0.00    -0.036 C 
ATOM     92  H   UNL A   1      44.066  24.001  24.302  1.00  0.00     0.028 H 
ATOM     93  H   UNL A   1      42.310  23.885  24.369  1.00  0.00     0.028 H 
BRANCH  91  94
ATOM     94  C   UNL A   1      43.290  23.291  26.142  1.00  0.00     0.018 C 
ATOM     95  H   UNL A   1      42.791  22.361  25.965  1.00  0.00     0.049 H 
ATOM     96  H   UNL A   1      42.826  23.799  26.963  1.00  0.00     0.049 H 
BRANCH  94  97
ATOM     97  N   UNL A   1      44.689  23.038  26.461  1.00  0.00    -0.352 N 
ATOM     98  C   UNL A   1      45.491  23.798  27.268  1.00  0.00     0.251 C 
ATOM     99  H   UNL A   1      45.097  22.241  26.055  1.00  0.00     0.163 HD
ATOM    100  O   UNL A   1      46.705  23.704  27.259  1.00  0.00    -0.269 OA
BRANCH  98 101
ATOM    101  C   UNL A   1      44.796  24.737  28.157  1.00  0.00     0.039 A 
ATOM    102  C   UNL A   1      43.953  24.248  29.151  1.00  0.00    -0.049 A 
ATOM    103  C   UNL A   1      45.119  26.095  28.061  1.00  0.00    -0.049 A 
ATOM    104  C   UNL A   1      43.427  25.143  30.074  1.00  0.00    -0.053 A 
ATOM    105  H   UNL A   1      43.726  23.243  29.201  1.00  0.00     0.063 H 
ATOM    106  C   UNL A   1      44.666  26.964  29.033  1.00  0.00    -0.053 A 
ATOM    107  H   UNL A   1      45.687  26.443  27.273  1.00  0.00     0.063 H 
ATOM    108  C   UNL A   1      43.791  26.500  30.026  1.00  0.00    -0.014 A 
ATOM    109  H   UNL A   1      42.768  24.812  30.796  1.00  0.00     0.063 H 
ATOM    110  H   UNL A   1      44.971  27.951  29.031  1.00  0.00     0.063 H 
BRANCH 108 111
ATOM    111  C   UNL A   1      43.211  27.479  30.965  1.00  0.00     0.031 A 
ATOM    112  C   UNL A   1      43.850  27.653  32.313  1.00  0.00     0.074 A 
ATOM    113  C   UNL A   1      42.094  28.147  30.627  1.00  0.00     0.049 A 
ATOM    114  N   UNL A   1      43.468  28.393  33.320  1.00  0.00    -0.248 NA
ATOM    115  C   UNL A   1      45.061  26.856  32.581  1.00  0.00    -0.034 C 
ATOM    116  C   UNL A   1      41.370  28.002  29.363  1.00  0.00    -0.036 A 
ATOM    117  N   UNL A   1      41.367  29.074  31.325  1.00  0.00    -0.354 N 
ATOM    118  C   UNL A   1      44.376  28.134  34.338  1.00  0.00     0.074 A 
ATOM    119  C   UNL A   1      45.287  27.123  33.857  1.00  0.00    -0.034 C 
ATOM    120  H   UNL A   1      45.594  26.247  31.940  1.00  0.00     0.065 H 
ATOM    121  C   UNL A   1      40.312  28.829  29.367  1.00  0.00    -0.036 A 
ATOM    122  H   UNL A   1      41.630  27.365  28.593  1.00  0.00     0.065 H 
ATOM    123  C   UNL A   1      40.264  29.530  30.645  1.00  0.00     0.049 A 
ATOM    124  H   UNL A   1      41.610  29.384  32.226  1.00  0.00     0.167 HD
ATOM    125  C   UNL A   1      44.456  28.716  35.555  1.00  0.00     0.037 A 
ATOM    126  H   UNL A   1      46.015  26.669  34.431  1.00  0.00     0.065 H 
ATOM    127  H   UNL A   1      39.642  28.949  28.590  1.00  0.00     0.065 H 
ATOM    128  C   UNL A   1      39.320  30.410  31.027  1.00  0.00     0.037 A 
ATOM    129  C   UNL A   1      43.562  29.750  36.000  1.00  0.00     0.049 A 
ATOM    130  C   UNL A   1      39.440  31.049  32.386  1.00  0.00     0.074 A 
ATOM    131  C   UNL A   1      43.594  30.468  37.181  1.00  0.00    -0.036 A 
ATOM    132  N   UNL A   1      42.473  30.211  35.275  1.00  0.00    -0.354 N 
ATOM    133  N   UNL A   1      40.352  30.863  33.311  1.00  0.00    -0.248 NA
ATOM    134  C   UNL A   1      38.407  32.026  32.750  1.00  0.00    -0.034 C 
ATOM    135  C   UNL A   1      42.489  31.323  37.197  1.00  0.00    -0.036 A 
ATOM    136  H   UNL A   1      44.309  30.387  37.920  1.00  0.00     0.065 H 
ATOM    137  C   UNL A   1      41.804  31.184  35.999  1.00  0.00     0.049 A 
ATOM    138  H   UNL A   1      42.213  29.894  34.380  1.00  0.00     0.167 HD
ATOM    139  C   UNL A   1      40.018  31.716  34.354  1.00  0.00     0.074 A 
ATOM    140  C   UNL A   1      38.833  32.436  33.937  1.00  0.00    -0.034 C 
ATOM    141  H   UNL A   1      37.570  32.317  32.222  1.00  0.00     0.065 H 
ATOM    142  H   UNL A   1      42.226  31.952  37.971  1.00  0.00     0.065 H 
ATOM    143  C   UNL A   1      40.629  31.887  35.552  1.00  0.00     0.037 A 
ATOM    144  H   UNL A   1      38.377  33.176  34.493  1.00  0.00     0.065 H 
BRANCH 125 145
ATOM    145  C   UNL A   1      45.541  28.254  36.483  1.00  0.00     0.064 A 
ATOM    146  C   UNL A   1      45.362  27.162  37.346  1.00  0.00     0.173 A 
ATOM    147  C   UNL A   1      46.791  28.889  36.479  1.00  0.00     0.173 A 
ATOM    148  F   UNL A   1      44.179  26.531  37.402  1.00  0.00    -0.203 F 
ATOM    149  C   UNL A   1      46.388  26.737  38.186  1.00  0.00     0.198 A 
ATOM    150  C   UNL A   1      47.826  28.440  37.297  1.00  0.00     0.198 A 
ATOM    151  F   UNL A   1      47.016  29.940  35.676  1.00  0.00    -0.203 F 
ATOM    152  F   UNL A   1      46.179  25.722  39.036  1.00  0.00    -0.200 F 
ATOM    153  C   UNL A   1      47.621  27.370  38.153  1.00  0.00     0.200 A 
ATOM    154  F   UNL A   1      49.021  29.046  37.255  1.00  0.00    -0.200 F 
ATOM    155  F   UNL A   1      48.613  26.949  38.952  1.00  0.00    -0.200 F 
ENDBRANCH 125 145
BRANCH 128 156
ATOM    156  C   UNL A   1      38.193  30.743  30.117  1.00  0.00     0.064 A 
ATOM    157  C   UNL A   1      37.164  29.823  29.871  1.00  0.00     0.173 A 
ATOM    158  C   UNL A   1      38.128  31.981  29.460  1.00  0.00     0.173 A 
ATOM    159  F   UNL A   1      37.186  28.620  30.463  1.00  0.00    -0.203 F 
ATOM    160  C   UNL A   1      36.133  30.114  28.979  1.00  0.00     0.198 A 
ATOM    161  C   UNL A   1      37.079  32.285  28.593  1.00  0.00     0.198 A 
ATOM    162  F   UNL A   1      39.080  32.903  29.667  1.00  0.00    -0.203 F 
ATOM    163  F   UNL A   1      35.196  29.194  28.717  1.00  0.00    -0.200 F 
ATOM    164  C   UNL A   1      36.090  31.346  28.343  1.00  0.00     0.200 A 
ATOM    165  F   UNL A   1      37.031  33.484  27.998  1.00  0.00    -0.200 F 
ATOM    166  F   UNL A   1      35.100  31.626  27.485  1.00  0.00    -0.200 F 
ENDBRANCH 128 156
BRANCH 143 167
ATOM    167  C   UNL A   1      40.045  32.912  36.479  1.00  0.00     0.064 A 
ATOM    168  C   UNL A   1      38.967  32.610  37.324  1.00  0.00     0.173 A 
ATOM    169  C   UNL A   1      40.601  34.198  36.555  1.00  0.00     0.173 A 
ATOM    170  F   UNL A   1      38.392  31.398  37.279  1.00  0.00    -0.203 F 
ATOM    171  C   UNL A   1      38.448  33.568  38.190  1.00  0.00     0.198 A 
ATOM    172  C   UNL A   1      40.104  35.142  37.448  1.00  0.00     0.198 A 
ATOM    173  F   UNL A   1      41.640  34.533  35.775  1.00  0.00    -0.203 F 
ATOM    174  F   UNL A   1      37.383  33.274  38.949  1.00  0.00    -0.200 F 
ATOM    175  C   UNL A   1      39.022  34.830  38.257  1.00  0.00     0.200 A 
ATOM    176  F   UNL A   1      40.671  36.353  37.526  1.00  0.00    -0.200 F 
ATOM    177  F   UNL A   1      38.528  35.746  39.099  1.00  0.00    -0.200 F 
ENDBRANCH 143 167
ENDBRANCH 108 111
ENDBRANCH  98 101
ENDBRANCH  94  97
ENDBRANCH  91  94
ENDBRANCH  88  91
ENDBRANCH  85  88
ENDBRANCH  82  85
ENDBRANCH   1  82
TORSDOF 26
ENDMDL
MODEL 4
REMARK VINA RESULT:     -12.1      0.863      2.187
REMARK SMILES C=C[C@@H]1[C@@H](O)C[C@H]2[C@]3(CC[C@]4(C)[C@@H]([C@H](C)CCC=C(C)C)CC[C@]24C)C[C@]13CCC(=O)NCCCCCCNC(=O)c1ccc(-c2c3nc(c(-c4c(F)c(F)c(F)c(F)c4F)c4ccc([nH]4)c(-c4c(F)c(F)c(F)c(F)c4F)c4nc(c(-c5c(F)c(F)c(F)c(F)c5F)c5ccc2[nH]5)C=C4)C=C3)cc1
REMARK SMILES IDX 33 1 32 4 30 5 31 6 29 8 28 11 27 14 3 15 4 16 6 18 8 20
REMARK SMILES IDX 26 21 7 22 9 25 24 28 10 30 11 33 23 34 13 37 22 38 2 44
REMARK SMILES IDX 1 45 5 49 25 51 12 55 14 59 16 61 17 64 18 67 19 68 20 70
REMARK SMILES IDX 21 74 15 78 34 82 35 85 36 88 37 91 38 94 39 97 40 98 41 100
REMARK SMILES IDX 42 101 43 102 104 103 44 104 103 106 45 108 46 111 47 112
REMARK SMILES IDX 97 113 48 114 102 115 96 116 98 117 49 118 101 119 95 121
REMARK SMILES IDX 94 123 50 125 82 128 62 129 81 130 63 131 66 132 80 133
REMARK SMILES IDX 99 134 64 135 65 137 79 139 100 140 67 143 51 145 52 146
REMARK SMILES IDX 60 147 53 148 54 149 58 150 61 151 55 152 56 153 59 154
REMARK SMILES IDX 57 155 83 156 84 157 92 158 85 159 86 160 90 161 93 162
REMARK SMILES IDX 87 163 88 164 91 165 89 166 68 167 69 168 77 169 70 170
REMARK SMILES IDX 71 171 75 172 78 173 72 174 73 175 76 176 74 177
REMARK H PARENT 33 2 33 3 32 7 29 9 29 10 28 12 28 13 3 17 4 19 6 23 6 24
REMARK H PARENT 26 26 26 27 7 29 9 31 9 32 10 35 10 36 23 39 23 40 13 41 22 42
REMARK H PARENT 22 43 1 46 1 47 2 48 5 50 25 52 25 53 25 54 12 56 12 57 12 58
REMARK H PARENT 14 60 16 62 16 63 17 65 17 66 18 69 20 71 20 72 20 73 21 75
REMARK H PARENT 21 76 21 77 15 79 15 80 15 81 34 83 34 84 35 86 35 87 36 89
REMARK H PARENT 36 90 37 92 37 93 38 95 38 96 39 99 43 105 104 107 44 109
REMARK H PARENT 103 110 102 120 96 122 98 124 101 126 95 127 63 136 66 138
REMARK H PARENT 99 141 64 142 100 144
REMARK Flexibility Score: inf
ROOT
ATOM      1  C   UNL A   1      34.089  30.667  27.617  1.00  0.00     0.017 C 
ATOM      2  H   UNL A   1      34.950  30.331  27.081  1.00  0.00     0.049 H 
ATOM      3  H   UNL A   1      33.459  30.169  28.327  1.00  0.00     0.049 H 
ENDROOT
BRANCH   1   4
ATOM      4  N   UNL A   1      33.031  30.758  26.537  1.00  0.00    -0.356 N 
ATOM      5  C   UNL A   1      32.259  29.763  26.018  1.00  0.00     0.220 C 
ATOM      6  O   UNL A   1      31.251  30.032  25.369  1.00  0.00    -0.275 OA
ATOM      7  H   UNL A   1      32.882  31.654  26.160  1.00  0.00     0.163 HD
BRANCH   5   8
ATOM      8  C   UNL A   1      32.700  28.352  26.289  1.00  0.00     0.027 C 
ATOM      9  H   UNL A   1      33.325  28.027  25.483  1.00  0.00     0.037 H 
ATOM     10  H   UNL A   1      33.226  28.348  27.221  1.00  0.00     0.037 H 
BRANCH   8  11
ATOM     11  C   UNL A   1      31.524  27.386  26.415  1.00  0.00    -0.038 C 
ATOM     12  H   UNL A   1      31.658  26.809  27.307  1.00  0.00     0.028 H 
ATOM     13  H   UNL A   1      30.636  27.983  26.437  1.00  0.00     0.028 H 
BRANCH  11  14
ATOM     14  C   UNL A   1      31.378  26.415  25.230  1.00  0.00    -0.014 C 
ATOM     15  C   UNL A   1      31.144  27.460  23.594  1.00  0.00     0.009 C 
ATOM     16  C   UNL A   1      32.370  27.053  22.077  1.00  0.00     0.061 C 
ATOM     17  H   UNL A   1      31.526  28.427  23.849  1.00  0.00     0.038 H 
ATOM     18  C   UNL A   1      33.413  25.364  22.135  1.00  0.00    -0.022 C 
ATOM     19  H   UNL A   1      31.656  26.912  21.292  1.00  0.00     0.061 H 
ATOM     20  C   UNL A   1      32.360  24.797  25.274  1.00  0.00    -0.019 C 
ATOM     21  C   UNL A   1      30.853  24.964  25.553  1.00  0.00    -0.040 C 
ATOM     22  C   UNL A   1      33.431  24.318  23.781  1.00  0.00    -0.027 C 
ATOM     23  H   UNL A   1      34.428  25.616  21.912  1.00  0.00     0.030 H 
ATOM     24  H   UNL A   1      32.913  24.730  21.433  1.00  0.00     0.030 H 
ATOM     25  C   UNL A   1      33.160  24.322  26.501  1.00  0.00    -0.046 C 
ATOM     26  H   UNL A   1      30.514  24.775  26.550  1.00  0.00     0.028 H 
ATOM     27  H   UNL A   1      30.035  24.441  25.103  1.00  0.00     0.028 H 
ATOM     28  C   UNL A   1      33.729  22.767  23.833  1.00  0.00    -0.023 C 
ATOM     29  H   UNL A   1      34.386  24.797  23.840  1.00  0.00     0.032 H 
ATOM     30  C   UNL A   1      33.541  22.839  26.401  1.00  0.00    -0.046 C 
ATOM     31  H   UNL A   1      32.565  24.467  27.378  1.00  0.00     0.027 H 
ATOM     32  H   UNL A   1      34.064  24.893  26.547  1.00  0.00     0.027 H 
ATOM     33  C   UNL A   1      34.474  22.416  25.217  1.00  0.00    -0.024 C 
ATOM     34  C   UNL A   1      34.824  22.460  22.817  1.00  0.00    -0.047 C 
ATOM     35  H   UNL A   1      32.633  22.280  26.310  1.00  0.00     0.027 H 
ATOM     36  H   UNL A   1      34.111  22.642  27.284  1.00  0.00     0.027 H 
ATOM     37  C   UNL A   1      35.847  23.168  25.000  1.00  0.00    -0.033 C 
ATOM     38  C   UNL A   1      36.111  23.014  23.460  1.00  0.00    -0.049 C 
ATOM     39  H   UNL A   1      34.905  21.407  22.653  1.00  0.00     0.027 H 
ATOM     40  H   UNL A   1      34.627  22.897  21.860  1.00  0.00     0.027 H 
ATOM     41  H   UNL A   1      35.672  24.138  25.416  1.00  0.00     0.031 H 
ATOM     42  H   UNL A   1      36.921  22.335  23.296  1.00  0.00     0.027 H 
ATOM     43  H   UNL A   1      36.370  23.958  23.029  1.00  0.00     0.027 H 
BRANCH  15  44
ATOM     44  C   UNL A   1      29.662  27.723  23.246  1.00  0.00    -0.085 C 
ATOM     45  C   UNL A   1      29.042  28.905  23.098  1.00  0.00    -0.103 C 
ATOM     46  H   UNL A   1      28.038  28.935  22.863  1.00  0.00     0.053 H 
ATOM     47  H   UNL A   1      29.572  29.783  23.220  1.00  0.00     0.053 H 
ATOM     48  H   UNL A   1      29.075  26.886  23.109  1.00  0.00     0.057 H 
ENDBRANCH  15  44
BRANCH  16  49
ATOM     49  O   UNL A   1      33.282  28.146  21.790  1.00  0.00    -0.392 OA
ATOM     50  H   UNL A   1      34.193  27.814  21.782  1.00  0.00     0.210 HD
ENDBRANCH  16  49
BRANCH  28  51
ATOM     51  C   UNL A   1      32.465  21.919  23.632  1.00  0.00    -0.059 C 
ATOM     52  H   UNL A   1      31.600  22.538  23.741  1.00  0.00     0.024 H 
ATOM     53  H   UNL A   1      32.440  21.138  24.363  1.00  0.00     0.024 H 
ATOM     54  H   UNL A   1      32.476  21.490  22.652  1.00  0.00     0.024 H 
ENDBRANCH  28  51
BRANCH  33  55
ATOM     55  C   UNL A   1      34.784  20.910  25.409  1.00  0.00    -0.059 C 
ATOM     56  H   UNL A   1      35.382  20.562  24.591  1.00  0.00     0.024 H 
ATOM     57  H   UNL A   1      33.868  20.359  25.441  1.00  0.00     0.024 H 
ATOM     58  H   UNL A   1      35.318  20.769  26.326  1.00  0.00     0.024 H 
ENDBRANCH  33  55
BRANCH  37  59
ATOM     59  C   UNL A   1      37.102  23.142  25.917  1.00  0.00    -0.041 C 
ATOM     60  H   UNL A   1      36.634  22.980  26.866  1.00  0.00     0.030 H 
BRANCH  59  61
ATOM     61  C   UNL A   1      38.057  21.963  25.634  1.00  0.00    -0.047 C 
ATOM     62  H   UNL A   1      38.360  22.020  24.610  1.00  0.00     0.027 H 
ATOM     63  H   UNL A   1      37.511  21.072  25.865  1.00  0.00     0.027 H 
BRANCH  61  64
ATOM     64  C   UNL A   1      39.318  21.932  26.503  1.00  0.00    -0.035 C 
ATOM     65  H   UNL A   1      39.041  21.666  27.503  1.00  0.00     0.031 H 
ATOM     66  H   UNL A   1      39.765  22.903  26.470  1.00  0.00     0.031 H 
BRANCH  64  67
ATOM     67  C   UNL A   1      40.335  20.933  25.998  1.00  0.00    -0.086 C 
ATOM     68  C   UNL A   1      41.579  20.744  26.483  1.00  0.00    -0.080 C 
ATOM     69  H   UNL A   1      40.050  20.341  25.203  1.00  0.00     0.058 H 
BRANCH  68  70
ATOM     70  C   UNL A   1      42.491  19.683  25.926  1.00  0.00    -0.044 C 
ATOM     71  H   UNL A   1      41.972  19.127  25.172  1.00  0.00     0.028 H 
ATOM     72  H   UNL A   1      42.790  19.022  26.713  1.00  0.00     0.028 H 
ATOM     73  H   UNL A   1      43.356  20.143  25.498  1.00  0.00     0.028 H 
ENDBRANCH  68  70
BRANCH  68  74
ATOM     74  C   UNL A   1      42.168  21.561  27.600  1.00  0.00    -0.044 C 
ATOM     75  H   UNL A   1      43.145  21.192  27.835  1.00  0.00     0.028 H 
ATOM     76  H   UNL A   1      41.543  21.487  28.465  1.00  0.00     0.028 H 
ATOM     77  H   UNL A   1      42.237  22.584  27.296  1.00  0.00     0.028 H 
ENDBRANCH  68  74
ENDBRANCH  64  67
ENDBRANCH  61  64
ENDBRANCH  59  61
BRANCH  59  78
ATOM     78  C   UNL A   1      37.867  24.451  26.132  1.00  0.00    -0.062 C 
ATOM     79  H   UNL A   1      38.041  24.922  25.187  1.00  0.00     0.023 H 
ATOM     80  H   UNL A   1      38.805  24.242  26.604  1.00  0.00     0.023 H 
ATOM     81  H   UNL A   1      37.292  25.103  26.756  1.00  0.00     0.023 H 
ENDBRANCH  59  78
ENDBRANCH  37  59
ENDBRANCH  11  14
ENDBRANCH   8  11
ENDBRANCH   5   8
ENDBRANCH   1   4
BRANCH   1  82
ATOM     82  C   UNL A   1      34.900  32.023  29.005  1.00  0.00    -0.036 C 
ATOM     83  H   UNL A   1      35.820  31.543  29.264  1.00  0.00     0.028 H 
ATOM     84  H   UNL A   1      33.955  32.192  29.475  1.00  0.00     0.028 H 
BRANCH  82  85
ATOM     85  C   UNL A   1      35.347  33.704  29.098  1.00  0.00    -0.052 C 
ATOM     86  H   UNL A   1      36.413  33.708  29.020  1.00  0.00     0.027 H 
ATOM     87  H   UNL A   1      34.808  33.971  29.983  1.00  0.00     0.027 H 
BRANCH  85  88
ATOM     88  C   UNL A   1      34.880  34.854  28.175  1.00  0.00    -0.052 C 
ATOM     89  H   UNL A   1      34.479  34.427  27.280  1.00  0.00     0.027 H 
ATOM     90  H   UNL A   1      35.735  35.470  27.989  1.00  0.00     0.027 H 
BRANCH  88  91
ATOM     91  C   UNL A   1      33.815  35.749  28.799  1.00  0.00    -0.036 C 
ATOM     92  H   UNL A   1      33.225  36.182  28.019  1.00  0.00     0.028 H 
ATOM     93  H   UNL A   1      34.307  36.508  29.370  1.00  0.00     0.028 H 
BRANCH  91  94
ATOM     94  C   UNL A   1      32.908  34.967  29.726  1.00  0.00     0.018 C 
ATOM     95  H   UNL A   1      33.439  34.125  30.116  1.00  0.00     0.049 H 
ATOM     96  H   UNL A   1      32.050  34.632  29.180  1.00  0.00     0.049 H 
BRANCH  94  97
ATOM     97  N   UNL A   1      32.476  35.819  30.826  1.00  0.00    -0.352 N 
ATOM     98  C   UNL A   1      32.891  35.743  32.128  1.00  0.00     0.251 C 
ATOM     99  H   UNL A   1      31.819  36.520  30.611  1.00  0.00     0.163 HD
ATOM    100  O   UNL A   1      32.286  36.276  33.040  1.00  0.00    -0.269 OA
BRANCH  98 101
ATOM    101  C   UNL A   1      34.122  34.979  32.361  1.00  0.00     0.039 A 
ATOM    102  C   UNL A   1      35.358  35.585  32.152  1.00  0.00    -0.049 A 
ATOM    103  C   UNL A   1      34.008  33.703  32.925  1.00  0.00    -0.049 A 
ATOM    104  C   UNL A   1      36.506  34.895  32.522  1.00  0.00    -0.053 A 
ATOM    105  H   UNL A   1      35.419  36.525  31.731  1.00  0.00     0.063 H 
ATOM    106  C   UNL A   1      35.145  33.063  33.374  1.00  0.00    -0.053 A 
ATOM    107  H   UNL A   1      33.086  33.247  33.004  1.00  0.00     0.063 H 
ATOM    108  C   UNL A   1      36.403  33.639  33.145  1.00  0.00    -0.014 A 
ATOM    109  H   UNL A   1      37.436  35.306  32.341  1.00  0.00     0.063 H 
ATOM    110  H   UNL A   1      35.071  32.164  33.877  1.00  0.00     0.063 H 
BRANCH 108 111
ATOM    111  C   UNL A   1      37.607  32.867  33.507  1.00  0.00     0.031 A 
ATOM    112  C   UNL A   1      38.304  33.180  34.800  1.00  0.00     0.074 A 
ATOM    113  C   UNL A   1      38.092  31.948  32.654  1.00  0.00     0.049 A 
ATOM    114  N   UNL A   1      39.414  32.686  35.282  1.00  0.00    -0.248 NA
ATOM    115  C   UNL A   1      37.693  34.218  35.650  1.00  0.00    -0.034 C 
ATOM    116  C   UNL A   1      37.515  31.616  31.349  1.00  0.00    -0.036 A 
ATOM    117  N   UNL A   1      39.188  31.133  32.752  1.00  0.00    -0.354 N 
ATOM    118  C   UNL A   1      39.639  33.365  36.471  1.00  0.00     0.074 A 
ATOM    119  C   UNL A   1      38.594  34.351  36.610  1.00  0.00    -0.034 C 
ATOM    120  H   UNL A   1      36.795  34.713  35.527  1.00  0.00     0.065 H 
ATOM    121  C   UNL A   1      38.252  30.649  30.778  1.00  0.00    -0.036 A 
ATOM    122  H   UNL A   1      36.678  32.055  30.935  1.00  0.00     0.065 H 
ATOM    123  C   UNL A   1      39.371  30.325  31.657  1.00  0.00     0.049 A 
ATOM    124  H   UNL A   1      39.788  31.127  33.532  1.00  0.00     0.167 HD
ATOM    125  C   UNL A   1      40.618  33.159  37.380  1.00  0.00     0.037 A 
ATOM    126  H   UNL A   1      38.554  35.063  37.356  1.00  0.00     0.065 H 
ATOM    127  H   UNL A   1      38.058  30.208  29.865  1.00  0.00     0.065 H 
ATOM    128  C   UNL A   1      40.343  29.431  31.398  1.00  0.00     0.037 A 
ATOM    129  C   UNL A   1      41.628  32.145  37.242  1.00  0.00     0.049 A 
ATOM    130  C   UNL A   1      41.415  29.216  32.434  1.00  0.00     0.074 A 
ATOM    131  C   UNL A   1      42.623  31.792  38.134  1.00  0.00    -0.036 A 
ATOM    132  N   UNL A   1      41.767  31.322  36.134  1.00  0.00    -0.354 N 
ATOM    133  N   UNL A   1      41.574  29.803  33.597  1.00  0.00    -0.248 NA
ATOM    134  C   UNL A   1      42.439  28.211  32.125  1.00  0.00    -0.034 C 
ATOM    135  C   UNL A   1      43.401  30.795  37.541  1.00  0.00    -0.036 A 
ATOM    136  H   UNL A   1      42.765  32.194  39.074  1.00  0.00     0.065 H 
ATOM    137  C   UNL A   1      42.854  30.481  36.306  1.00  0.00     0.049 A 
ATOM    138  H   UNL A   1      41.181  31.334  35.342  1.00  0.00     0.167 HD
ATOM    139  C   UNL A   1      42.696  29.220  34.169  1.00  0.00     0.074 A 
ATOM    140  C   UNL A   1      43.165  28.219  33.234  1.00  0.00    -0.034 C 
ATOM    141  H   UNL A   1      42.562  27.645  31.271  1.00  0.00     0.065 H 
ATOM    142  H   UNL A   1      44.243  30.364  37.953  1.00  0.00     0.065 H 
ATOM    143  C   UNL A   1      43.292  29.490  35.357  1.00  0.00     0.037 A 
ATOM    144  H   UNL A   1      43.965  27.590  33.410  1.00  0.00     0.065 H 
BRANCH 125 145
ATOM    145  C   UNL A   1      40.642  34.037  38.597  1.00  0.00     0.064 A 
ATOM    146  C   UNL A   1      41.387  35.225  38.637  1.00  0.00     0.173 A 
ATOM    147  C   UNL A   1      39.875  33.705  39.723  1.00  0.00     0.173 A 
ATOM    148  F   UNL A   1      42.153  35.580  37.594  1.00  0.00    -0.203 F 
ATOM    149  C   UNL A   1      41.381  36.036  39.769  1.00  0.00     0.198 A 
ATOM    150  C   UNL A   1      39.845  34.535  40.840  1.00  0.00     0.198 A 
ATOM    151  F   UNL A   1      39.146  32.579  39.738  1.00  0.00    -0.203 F 
ATOM    152  F   UNL A   1      42.138  37.142  39.804  1.00  0.00    -0.200 F 
ATOM    153  C   UNL A   1      40.602  35.696  40.865  1.00  0.00     0.200 A 
ATOM    154  F   UNL A   1      39.083  34.210  41.894  1.00  0.00    -0.200 F 
ATOM    155  F   UNL A   1      40.586  36.486  41.948  1.00  0.00    -0.200 F 
ENDBRANCH 125 145
BRANCH 128 156
ATOM    156  C   UNL A   1      40.344  28.673  30.120  1.00  0.00     0.064 A 
ATOM    157  C   UNL A   1      41.060  29.131  29.006  1.00  0.00     0.173 A 
ATOM    158  C   UNL A   1      39.614  27.482  29.979  1.00  0.00     0.173 A 
ATOM    159  F   UNL A   1      41.762  30.271  29.084  1.00  0.00    -0.203 F 
ATOM    160  C   UNL A   1      41.021  28.448  27.791  1.00  0.00     0.198 A 
ATOM    161  C   UNL A   1      39.603  26.781  28.774  1.00  0.00     0.198 A 
ATOM    162  F   UNL A   1      38.920  26.992  31.016  1.00  0.00    -0.203 F 
ATOM    163  F   UNL A   1      41.668  28.941  26.727  1.00  0.00    -0.200 F 
ATOM    164  C   UNL A   1      40.296  27.272  27.677  1.00  0.00     0.200 A 
ATOM    165  F   UNL A   1      38.917  25.635  28.675  1.00  0.00    -0.200 F 
ATOM    166  F   UNL A   1      40.257  26.615  26.510  1.00  0.00    -0.200 F 
ENDBRANCH 128 156
BRANCH 143 167
ATOM    167  C   UNL A   1      44.493  28.670  35.722  1.00  0.00     0.064 A 
ATOM    168  C   UNL A   1      44.373  27.462  36.426  1.00  0.00     0.173 A 
ATOM    169  C   UNL A   1      45.776  29.074  35.322  1.00  0.00     0.173 A 
ATOM    170  F   UNL A   1      43.170  27.040  36.841  1.00  0.00    -0.203 F 
ATOM    171  C   UNL A   1      45.497  26.705  36.742  1.00  0.00     0.198 A 
ATOM    172  C   UNL A   1      46.894  28.296  35.607  1.00  0.00     0.198 A 
ATOM    173  F   UNL A   1      45.943  30.215  34.637  1.00  0.00    -0.203 F 
ATOM    174  F   UNL A   1      45.365  25.583  37.462  1.00  0.00    -0.200 F 
ATOM    175  C   UNL A   1      46.755  27.118  36.325  1.00  0.00     0.200 A 
ATOM    176  F   UNL A   1      48.105  28.686  35.187  1.00  0.00    -0.200 F 
ATOM    177  F   UNL A   1      47.834  26.382  36.621  1.00  0.00    -0.200 F 
ENDBRANCH 143 167
ENDBRANCH 108 111
ENDBRANCH  98 101
ENDBRANCH  94  97
ENDBRANCH  91  94
ENDBRANCH  88  91
ENDBRANCH  85  88
ENDBRANCH  82  85
ENDBRANCH   1  82
TORSDOF 26
ENDMDL
MODEL 5
REMARK VINA RESULT:     -11.9      0.967      6.888
REMARK SMILES C=C[C@@H]1[C@@H](O)C[C@H]2[C@]3(CC[C@]4(C)[C@@H]([C@H](C)CCC=C(C)C)CC[C@]24C)C[C@]13CCC(=O)NCCCCCCNC(=O)c1ccc(-c2c3nc(c(-c4c(F)c(F)c(F)c(F)c4F)c4ccc([nH]4)c(-c4c(F)c(F)c(F)c(F)c4F)c4nc(c(-c5c(F)c(F)c(F)c(F)c5F)c5ccc2[nH]5)C=C4)C=C3)cc1
REMARK SMILES IDX 33 1 32 4 30 5 31 6 29 8 28 11 27 14 3 15 4 16 6 18 8 20
REMARK SMILES IDX 26 21 7 22 9 25 24 28 10 30 11 33 23 34 13 37 22 38 2 44
REMARK SMILES IDX 1 45 5 49 25 51 12 55 14 59 16 61 17 64 18 67 19 68 20 70
REMARK SMILES IDX 21 74 15 78 34 82 35 85 36 88 37 91 38 94 39 97 40 98 41 100
REMARK SMILES IDX 42 101 43 102 104 103 44 104 103 106 45 108 46 111 47 112
REMARK SMILES IDX 97 113 48 114 102 115 96 116 98 117 49 118 101 119 95 121
REMARK SMILES IDX 94 123 50 125 82 128 62 129 81 130 63 131 66 132 80 133
REMARK SMILES IDX 99 134 64 135 65 137 79 139 100 140 67 143 51 145 52 146
REMARK SMILES IDX 60 147 53 148 54 149 58 150 61 151 55 152 56 153 59 154
REMARK SMILES IDX 57 155 83 156 84 157 92 158 85 159 86 160 90 161 93 162
REMARK SMILES IDX 87 163 88 164 91 165 89 166 68 167 69 168 77 169 70 170
REMARK SMILES IDX 71 171 75 172 78 173 72 174 73 175 76 176 74 177
REMARK H PARENT 33 2 33 3 32 7 29 9 29 10 28 12 28 13 3 17 4 19 6 23 6 24
REMARK H PARENT 26 26 26 27 7 29 9 31 9 32 10 35 10 36 23 39 23 40 13 41 22 42
REMARK H PARENT 22 43 1 46 1 47 2 48 5 50 25 52 25 53 25 54 12 56 12 57 12 58
REMARK H PARENT 14 60 16 62 16 63 17 65 17 66 18 69 20 71 20 72 20 73 21 75
REMARK H PARENT 21 76 21 77 15 79 15 80 15 81 34 83 34 84 35 86 35 87 36 89
REMARK H PARENT 36 90 37 92 37 93 38 95 38 96 39 99 43 105 104 107 44 109
REMARK H PARENT 103 110 102 120 96 122 98 124 101 126 95 127 63 136 66 138
REMARK H PARENT 99 141 64 142 100 144
REMARK Flexibility Score: inf
ROOT
ATOM      1  C   UNL A   1      34.613  30.300  27.979  1.00  0.00     0.017 C 
ATOM      2  H   UNL A   1      35.456  29.670  28.163  1.00  0.00     0.049 H 
ATOM      3  H   UNL A   1      33.587  30.214  28.275  1.00  0.00     0.049 H 
ENDROOT
BRANCH   1   4
ATOM      4  N   UNL A   1      34.347  30.087  26.503  1.00  0.00    -0.356 N 
ATOM      5  C   UNL A   1      33.575  29.134  25.908  1.00  0.00     0.220 C 
ATOM      6  O   UNL A   1      33.219  29.264  24.739  1.00  0.00    -0.275 OA
ATOM      7  H   UNL A   1      34.791  30.718  25.893  1.00  0.00     0.163 HD
BRANCH   5   8
ATOM      8  C   UNL A   1      33.190  27.951  26.751  1.00  0.00     0.027 C 
ATOM      9  H   UNL A   1      33.783  27.111  26.454  1.00  0.00     0.037 H 
ATOM     10  H   UNL A   1      33.359  28.211  27.775  1.00  0.00     0.037 H 
BRANCH   8  11
ATOM     11  C   UNL A   1      31.714  27.585  26.603  1.00  0.00    -0.038 C 
ATOM     12  H   UNL A   1      31.371  27.192  27.537  1.00  0.00     0.028 H 
ATOM     13  H   UNL A   1      31.202  28.479  26.316  1.00  0.00     0.028 H 
BRANCH  11  14
ATOM     14  C   UNL A   1      31.433  26.541  25.508  1.00  0.00    -0.014 C 
ATOM     15  C   UNL A   1      31.099  27.479  23.824  1.00  0.00     0.009 C 
ATOM     16  C   UNL A   1      32.176  26.916  22.246  1.00  0.00     0.061 C 
ATOM     17  H   UNL A   1      31.536  28.444  23.976  1.00  0.00     0.038 H 
ATOM     18  C   UNL A   1      33.158  25.192  22.340  1.00  0.00    -0.022 C 
ATOM     19  H   UNL A   1      31.393  26.751  21.534  1.00  0.00     0.061 H 
ATOM     20  C   UNL A   1      32.356  24.889  25.588  1.00  0.00    -0.019 C 
ATOM     21  C   UNL A   1      30.885  25.139  25.977  1.00  0.00    -0.040 C 
ATOM     22  C   UNL A   1      33.278  24.263  24.051  1.00  0.00    -0.027 C 
ATOM     23  H   UNL A   1      34.159  25.385  22.017  1.00  0.00     0.030 H 
ATOM     24  H   UNL A   1      32.577  24.533  21.730  1.00  0.00     0.030 H 
ATOM     25  C   UNL A   1      33.239  24.467  26.776  1.00  0.00    -0.046 C 
ATOM     26  H   UNL A   1      30.625  25.034  27.010  1.00  0.00     0.028 H 
ATOM     27  H   UNL A   1      30.013  24.622  25.635  1.00  0.00     0.028 H 
ATOM     28  C   UNL A   1      33.523  22.709  24.191  1.00  0.00    -0.023 C 
ATOM     29  H   UNL A   1      34.251  24.705  23.997  1.00  0.00     0.032 H 
ATOM     30  C   UNL A   1      33.556  22.967  26.753  1.00  0.00    -0.046 C 
ATOM     31  H   UNL A   1      32.727  24.699  27.687  1.00  0.00     0.027 H 
ATOM     32  H   UNL A   1      34.164  25.002  26.706  1.00  0.00     0.027 H 
ATOM     33  C   UNL A   1      34.369  22.423  25.531  1.00  0.00    -0.024 C 
ATOM     34  C   UNL A   1      34.515  22.286  23.113  1.00  0.00    -0.047 C 
ATOM     35  H   UNL A   1      32.624  22.442  26.778  1.00  0.00     0.027 H 
ATOM     36  H   UNL A   1      34.191  22.808  27.599  1.00  0.00     0.027 H 
ATOM     37  C   UNL A   1      35.746  23.100  25.148  1.00  0.00    -0.033 C 
ATOM     38  C   UNL A   1      35.872  22.828  23.607  1.00  0.00    -0.049 C 
ATOM     39  H   UNL A   1      34.544  21.221  23.021  1.00  0.00     0.027 H 
ATOM     40  H   UNL A   1      34.253  22.663  22.147  1.00  0.00     0.027 H 
ATOM     41  H   UNL A   1      35.642  24.103  25.506  1.00  0.00     0.031 H 
ATOM     42  H   UNL A   1      36.640  22.105  23.427  1.00  0.00     0.027 H 
ATOM     43  H   UNL A   1      36.127  23.728  23.088  1.00  0.00     0.027 H 
BRANCH  15  44
ATOM     44  C   UNL A   1      29.604  27.780  23.581  1.00  0.00    -0.085 C 
ATOM     45  C   UNL A   1      28.567  26.928  23.633  1.00  0.00    -0.103 C 
ATOM     46  H   UNL A   1      27.611  27.267  23.447  1.00  0.00     0.053 H 
ATOM     47  H   UNL A   1      28.729  25.933  23.860  1.00  0.00     0.053 H 
ATOM     48  H   UNL A   1      29.371  28.759  23.350  1.00  0.00     0.057 H 
ENDBRANCH  15  44
BRANCH  16  49
ATOM     49  O   UNL A   1      33.100  27.947  21.806  1.00  0.00    -0.392 OA
ATOM     50  H   UNL A   1      33.656  28.222  22.551  1.00  0.00     0.210 HD
ENDBRANCH  16  49
BRANCH  28  51
ATOM     51  C   UNL A   1      32.216  21.903  24.157  1.00  0.00    -0.059 C 
ATOM     52  H   UNL A   1      31.861  21.841  23.150  1.00  0.00     0.024 H 
ATOM     53  H   UNL A   1      31.481  22.390  24.764  1.00  0.00     0.024 H 
ATOM     54  H   UNL A   1      32.394  20.918  24.534  1.00  0.00     0.024 H 
ENDBRANCH  28  51
BRANCH  33  55
ATOM     55  C   UNL A   1      34.639  20.922  25.806  1.00  0.00    -0.059 C 
ATOM     56  H   UNL A   1      34.569  20.734  26.858  1.00  0.00     0.024 H 
ATOM     57  H   UNL A   1      35.620  20.668  25.462  1.00  0.00     0.024 H 
ATOM     58  H   UNL A   1      33.914  20.328  25.289  1.00  0.00     0.024 H 
ENDBRANCH  33  55
BRANCH  37  59
ATOM     59  C   UNL A   1      37.072  23.084  25.958  1.00  0.00    -0.041 C 
ATOM     60  H   UNL A   1      36.686  22.905  26.941  1.00  0.00     0.030 H 
BRANCH  59  61
ATOM     61  C   UNL A   1      38.018  21.924  25.585  1.00  0.00    -0.047 C 
ATOM     62  H   UNL A   1      38.257  22.012  24.545  1.00  0.00     0.027 H 
ATOM     63  H   UNL A   1      37.494  21.021  25.823  1.00  0.00     0.027 H 
BRANCH  61  64
ATOM     64  C   UNL A   1      39.330  21.882  26.373  1.00  0.00    -0.035 C 
ATOM     65  H   UNL A   1      39.103  21.875  27.419  1.00  0.00     0.031 H 
ATOM     66  H   UNL A   1      39.903  22.745  26.106  1.00  0.00     0.031 H 
BRANCH  64  67
ATOM     67  C   UNL A   1      40.154  20.656  26.046  1.00  0.00    -0.086 C 
ATOM     68  C   UNL A   1      41.407  20.398  26.473  1.00  0.00    -0.080 C 
ATOM     69  H   UNL A   1      39.715  19.950  25.435  1.00  0.00     0.058 H 
BRANCH  68  70
ATOM     70  C   UNL A   1      42.113  19.116  26.118  1.00  0.00    -0.044 C 
ATOM     71  H   UNL A   1      42.453  18.637  27.013  1.00  0.00     0.028 H 
ATOM     72  H   UNL A   1      42.952  19.334  25.490  1.00  0.00     0.028 H 
ATOM     73  H   UNL A   1      41.439  18.468  25.601  1.00  0.00     0.028 H 
ENDBRANCH  68  70
BRANCH  68  74
ATOM     74  C   UNL A   1      42.208  21.348  27.321  1.00  0.00    -0.044 C 
ATOM     75  H   UNL A   1      42.298  22.286  26.816  1.00  0.00     0.028 H 
ATOM     76  H   UNL A   1      43.183  20.940  27.490  1.00  0.00     0.028 H 
ATOM     77  H   UNL A   1      41.713  21.492  28.259  1.00  0.00     0.028 H 
ENDBRANCH  68  74
ENDBRANCH  64  67
ENDBRANCH  61  64
ENDBRANCH  59  61
BRANCH  59  78
ATOM     78  C   UNL A   1      37.832  24.403  26.124  1.00  0.00    -0.062 C 
ATOM     79  H   UNL A   1      37.597  24.834  27.075  1.00  0.00     0.023 H 
ATOM     80  H   UNL A   1      37.548  25.079  25.345  1.00  0.00     0.023 H 
ATOM     81  H   UNL A   1      38.885  24.217  26.068  1.00  0.00     0.023 H 
ENDBRANCH  59  78
ENDBRANCH  37  59
ENDBRANCH  11  14
ENDBRANCH   8  11
ENDBRANCH   5   8
ENDBRANCH   1   4
BRANCH   1  82
ATOM     82  C   UNL A   1      35.014  31.982  29.176  1.00  0.00    -0.036 C 
ATOM     83  H   UNL A   1      35.607  31.555  29.957  1.00  0.00     0.028 H 
ATOM     84  H   UNL A   1      34.017  32.357  29.078  1.00  0.00     0.028 H 
BRANCH  82  85
ATOM     85  C   UNL A   1      35.720  33.567  29.029  1.00  0.00    -0.052 C 
ATOM     86  H   UNL A   1      36.713  33.391  28.672  1.00  0.00     0.027 H 
ATOM     87  H   UNL A   1      35.489  33.943  30.003  1.00  0.00     0.027 H 
BRANCH  85  88
ATOM     88  C   UNL A   1      35.202  34.752  28.182  1.00  0.00    -0.052 C 
ATOM     89  H   UNL A   1      35.005  34.399  27.191  1.00  0.00     0.027 H 
ATOM     90  H   UNL A   1      35.961  35.507  28.205  1.00  0.00     0.027 H 
BRANCH  88  91
ATOM     91  C   UNL A   1      33.928  35.388  28.728  1.00  0.00    -0.036 C 
ATOM     92  H   UNL A   1      33.199  35.429  27.947  1.00  0.00     0.028 H 
ATOM     93  H   UNL A   1      34.167  36.370  29.078  1.00  0.00     0.028 H 
BRANCH  91  94
ATOM     94  C   UNL A   1      33.366  34.592  29.887  1.00  0.00     0.018 C 
ATOM     95  H   UNL A   1      34.166  34.111  30.410  1.00  0.00     0.049 H 
ATOM     96  H   UNL A   1      32.686  33.855  29.512  1.00  0.00     0.049 H 
BRANCH  94  97
ATOM     97  N   UNL A   1      32.657  35.481  30.798  1.00  0.00    -0.352 N 
ATOM     98  C   UNL A   1      32.807  35.545  32.157  1.00  0.00     0.251 C 
ATOM     99  H   UNL A   1      32.005  36.098  30.396  1.00  0.00     0.163 HD
ATOM    100  O   UNL A   1      31.992  36.087  32.880  1.00  0.00    -0.269 OA
BRANCH  98 101
ATOM    101  C   UNL A   1      34.022  34.920  32.694  1.00  0.00     0.039 A 
ATOM    102  C   UNL A   1      33.956  33.640  33.237  1.00  0.00    -0.049 A 
ATOM    103  C   UNL A   1      35.240  35.586  32.511  1.00  0.00    -0.049 A 
ATOM    104  C   UNL A   1      35.140  33.011  33.600  1.00  0.00    -0.053 A 
ATOM    105  H   UNL A   1      33.047  33.170  33.366  1.00  0.00     0.063 H 
ATOM    106  C   UNL A   1      36.417  34.921  32.788  1.00  0.00    -0.053 A 
ATOM    107  H   UNL A   1      35.257  36.561  32.174  1.00  0.00     0.063 H 
ATOM    108  C   UNL A   1      36.374  33.643  33.365  1.00  0.00    -0.014 A 
ATOM    109  H   UNL A   1      35.115  32.078  34.041  1.00  0.00     0.063 H 
ATOM    110  H   UNL A   1      37.325  35.361  32.571  1.00  0.00     0.063 H 
BRANCH 108 111
ATOM    111  C   UNL A   1      37.643  33.017  33.782  1.00  0.00     0.031 A 
ATOM    112  C   UNL A   1      38.288  32.015  32.868  1.00  0.00     0.074 A 
ATOM    113  C   UNL A   1      38.163  33.303  34.989  1.00  0.00     0.049 A 
ATOM    114  N   UNL A   1      39.356  31.287  33.061  1.00  0.00    -0.248 NA
ATOM    115  C   UNL A   1      37.621  31.767  31.577  1.00  0.00    -0.034 C 
ATOM    116  C   UNL A   1      37.577  34.220  35.968  1.00  0.00    -0.036 A 
ATOM    117  N   UNL A   1      39.298  32.841  35.600  1.00  0.00    -0.354 N 
ATOM    118  C   UNL A   1      39.472  30.488  31.932  1.00  0.00     0.074 A 
ATOM    119  C   UNL A   1      38.335  30.767  31.088  1.00  0.00    -0.034 C 
ATOM    120  H   UNL A   1      36.806  32.249  31.164  1.00  0.00     0.065 H 
ATOM    121  C   UNL A   1      38.371  34.270  37.051  1.00  0.00    -0.036 A 
ATOM    122  H   UNL A   1      36.696  34.743  35.847  1.00  0.00     0.065 H 
ATOM    123  C   UNL A   1      39.495  33.361  36.856  1.00  0.00     0.049 A 
ATOM    124  H   UNL A   1      39.914  32.198  35.180  1.00  0.00     0.167 HD
ATOM    125  C   UNL A   1      40.461  29.622  31.619  1.00  0.00     0.037 A 
ATOM    126  H   UNL A   1      38.110  30.256  30.220  1.00  0.00     0.065 H 
ATOM    127  H   UNL A   1      38.210  34.856  37.885  1.00  0.00     0.065 H 
ATOM    128  C   UNL A   1      40.474  33.116  37.746  1.00  0.00     0.037 A 
ATOM    129  C   UNL A   1      41.606  29.387  32.455  1.00  0.00     0.049 A 
ATOM    130  C   UNL A   1      41.567  32.152  37.364  1.00  0.00     0.074 A 
ATOM    131  C   UNL A   1      42.708  28.592  32.206  1.00  0.00    -0.036 A 
ATOM    132  N   UNL A   1      41.790  29.953  33.709  1.00  0.00    -0.354 N 
ATOM    133  N   UNL A   1      41.716  31.463  36.257  1.00  0.00    -0.248 NA
ATOM    134  C   UNL A   1      42.632  31.937  38.352  1.00  0.00    -0.034 C 
ATOM    135  C   UNL A   1      43.532  28.629  33.333  1.00  0.00    -0.036 A 
ATOM    136  H   UNL A   1      42.890  28.064  31.338  1.00  0.00     0.065 H 
ATOM    137  C   UNL A   1      42.976  29.498  34.260  1.00  0.00     0.049 A 
ATOM    138  H   UNL A   1      41.170  30.584  34.143  1.00  0.00     0.167 HD
ATOM    139  C   UNL A   1      42.901  30.756  36.404  1.00  0.00     0.074 A 
ATOM    140  C   UNL A   1      43.442  31.116  37.698  1.00  0.00    -0.034 C 
ATOM    141  H   UNL A   1      42.726  32.322  39.304  1.00  0.00     0.065 H 
ATOM    142  H   UNL A   1      44.408  28.099  33.457  1.00  0.00     0.065 H 
ATOM    143  C   UNL A   1      43.489  29.881  35.550  1.00  0.00     0.037 A 
ATOM    144  H   UNL A   1      44.345  30.777  38.065  1.00  0.00     0.065 H 
BRANCH 125 145
ATOM    145  C   UNL A   1      40.351  28.872  30.323  1.00  0.00     0.064 A 
ATOM    146  C   UNL A   1      39.661  27.653  30.230  1.00  0.00     0.173 A 
ATOM    147  C   UNL A   1      40.909  29.401  29.151  1.00  0.00     0.173 A 
ATOM    148  F   UNL A   1      39.124  27.094  31.325  1.00  0.00    -0.203 F 
ATOM    149  C   UNL A   1      39.554  26.982  29.015  1.00  0.00     0.198 A 
ATOM    150  C   UNL A   1      40.772  28.743  27.931  1.00  0.00     0.198 A 
ATOM    151  F   UNL A   1      41.582  30.561  29.184  1.00  0.00    -0.203 F 
ATOM    152  F   UNL A   1      38.932  25.796  28.959  1.00  0.00    -0.200 F 
ATOM    153  C   UNL A   1      40.100  27.532  27.865  1.00  0.00     0.200 A 
ATOM    154  F   UNL A   1      41.290  29.282  26.819  1.00  0.00    -0.200 F 
ATOM    155  F   UNL A   1      39.983  26.891  26.693  1.00  0.00    -0.200 F 
ENDBRANCH 125 145
BRANCH 128 156
ATOM    156  C   UNL A   1      40.472  33.793  39.069  1.00  0.00     0.064 A 
ATOM    157  C   UNL A   1      39.702  33.303  40.132  1.00  0.00     0.173 A 
ATOM    158  C   UNL A   1      41.226  34.955  39.294  1.00  0.00     0.173 A 
ATOM    159  F   UNL A   1      38.952  32.204  39.965  1.00  0.00    -0.203 F 
ATOM    160  C   UNL A   1      39.659  33.965  41.358  1.00  0.00     0.198 A 
ATOM    161  C   UNL A   1      41.209  35.598  40.530  1.00  0.00     0.198 A 
ATOM    162  F   UNL A   1      41.990  35.461  38.315  1.00  0.00    -0.203 F 
ATOM    163  F   UNL A   1      38.868  33.508  42.338  1.00  0.00    -0.200 F 
ATOM    164  C   UNL A   1      40.415  35.110  41.557  1.00  0.00     0.200 A 
ATOM    165  F   UNL A   1      41.958  36.692  40.724  1.00  0.00    -0.200 F 
ATOM    166  F   UNL A   1      40.374  35.748  42.734  1.00  0.00    -0.200 F 
ENDBRANCH 128 156
BRANCH 143 167
ATOM    167  C   UNL A   1      44.797  29.282  35.978  1.00  0.00     0.064 A 
ATOM    168  C   UNL A   1      44.856  28.063  36.669  1.00  0.00     0.173 A 
ATOM    169  C   UNL A   1      46.006  29.913  35.649  1.00  0.00     0.173 A 
ATOM    170  F   UNL A   1      43.727  27.428  37.017  1.00  0.00    -0.203 F 
ATOM    171  C   UNL A   1      46.079  27.513  37.043  1.00  0.00     0.198 A 
ATOM    172  C   UNL A   1      47.228  29.342  35.992  1.00  0.00     0.198 A 
ATOM    173  F   UNL A   1      46.004  31.075  34.979  1.00  0.00    -0.203 F 
ATOM    174  F   UNL A   1      46.110  26.376  37.751  1.00  0.00    -0.200 F 
ATOM    175  C   UNL A   1      47.263  28.148  36.697  1.00  0.00     0.200 A 
ATOM    176  F   UNL A   1      48.371  29.946  35.640  1.00  0.00    -0.200 F 
ATOM    177  F   UNL A   1      48.438  27.611  37.048  1.00  0.00    -0.200 F 
ENDBRANCH 143 167
ENDBRANCH 108 111
ENDBRANCH  98 101
ENDBRANCH  94  97
ENDBRANCH  91  94
ENDBRANCH  88  91
ENDBRANCH  85  88
ENDBRANCH  82  85
ENDBRANCH   1  82
TORSDOF 26
ENDMDL
MODEL 6
REMARK VINA RESULT:     -11.8      3.193      9.939
REMARK SMILES C=C[C@@H]1[C@@H](O)C[C@H]2[C@]3(CC[C@]4(C)[C@@H]([C@H](C)CCC=C(C)C)CC[C@]24C)C[C@]13CCC(=O)NCCCCCCNC(=O)c1ccc(-c2c3nc(c(-c4c(F)c(F)c(F)c(F)c4F)c4ccc([nH]4)c(-c4c(F)c(F)c(F)c(F)c4F)c4nc(c(-c5c(F)c(F)c(F)c(F)c5F)c5ccc2[nH]5)C=C4)C=C3)cc1
REMARK SMILES IDX 33 1 32 4 30 5 31 6 29 8 28 11 27 14 3 15 4 16 6 18 8 20
REMARK SMILES IDX 26 21 7 22 9 25 24 28 10 30 11 33 23 34 13 37 22 38 2 44
REMARK SMILES IDX 1 45 5 49 25 51 12 55 14 59 16 61 17 64 18 67 19 68 20 70
REMARK SMILES IDX 21 74 15 78 34 82 35 85 36 88 37 91 38 94 39 97 40 98 41 100
REMARK SMILES IDX 42 101 43 102 104 103 44 104 103 106 45 108 46 111 47 112
REMARK SMILES IDX 97 113 48 114 102 115 96 116 98 117 49 118 101 119 95 121
REMARK SMILES IDX 94 123 50 125 82 128 62 129 81 130 63 131 66 132 80 133
REMARK SMILES IDX 99 134 64 135 65 137 79 139 100 140 67 143 51 145 52 146
REMARK SMILES IDX 60 147 53 148 54 149 58 150 61 151 55 152 56 153 59 154
REMARK SMILES IDX 57 155 83 156 84 157 92 158 85 159 86 160 90 161 93 162
REMARK SMILES IDX 87 163 88 164 91 165 89 166 68 167 69 168 77 169 70 170
REMARK SMILES IDX 71 171 75 172 78 173 72 174 73 175 76 176 74 177
REMARK H PARENT 33 2 33 3 32 7 29 9 29 10 28 12 28 13 3 17 4 19 6 23 6 24
REMARK H PARENT 26 26 26 27 7 29 9 31 9 32 10 35 10 36 23 39 23 40 13 41 22 42
REMARK H PARENT 22 43 1 46 1 47 2 48 5 50 25 52 25 53 25 54 12 56 12 57 12 58
REMARK H PARENT 14 60 16 62 16 63 17 65 17 66 18 69 20 71 20 72 20 73 21 75
REMARK H PARENT 21 76 21 77 15 79 15 80 15 81 34 83 34 84 35 86 35 87 36 89
REMARK H PARENT 36 90 37 92 37 93 38 95 38 96 39 99 43 105 104 107 44 109
REMARK H PARENT 103 110 102 120 96 122 98 124 101 126 95 127 63 136 66 138
REMARK H PARENT 99 141 64 142 100 144
REMARK Flexibility Score: inf
ROOT
ATOM      1  C   UNL A   1      38.333  24.116  26.872  1.00  0.00     0.017 C 
ATOM      2  H   UNL A   1      37.579  24.172  27.628  1.00  0.00     0.049 H 
ATOM      3  H   UNL A   1      38.409  24.589  25.915  1.00  0.00     0.049 H 
ENDROOT
BRANCH   1   4
ATOM      4  N   UNL A   1      38.158  22.717  26.320  1.00  0.00    -0.356 N 
ATOM      5  C   UNL A   1      37.639  22.336  25.119  1.00  0.00     0.220 C 
ATOM      6  O   UNL A   1      37.831  21.201  24.692  1.00  0.00    -0.275 OA
ATOM      7  H   UNL A   1      38.457  21.986  26.907  1.00  0.00     0.163 HD
BRANCH   5   8
ATOM      8  C   UNL A   1      36.845  23.367  24.367  1.00  0.00     0.027 C 
ATOM      9  H   UNL A   1      36.198  23.871  25.055  1.00  0.00     0.037 H 
ATOM     10  H   UNL A   1      37.537  24.043  23.911  1.00  0.00     0.037 H 
BRANCH   8  11
ATOM     11  C   UNL A   1      35.995  22.753  23.257  1.00  0.00    -0.038 C 
ATOM     12  H   UNL A   1      35.999  23.423  22.422  1.00  0.00     0.028 H 
ATOM     13  H   UNL A   1      36.428  21.802  23.027  1.00  0.00     0.028 H 
BRANCH  11  14
ATOM     14  C   UNL A   1      34.533  22.490  23.657  1.00  0.00    -0.014 C 
ATOM     15  C   UNL A   1      34.517  21.352  25.248  1.00  0.00     0.009 C 
ATOM     16  C   UNL A   1      33.452  21.990  26.806  1.00  0.00     0.061 C 
ATOM     17  H   UNL A   1      35.495  21.478  25.664  1.00  0.00     0.038 H 
ATOM     18  C   UNL A   1      32.140  23.452  26.517  1.00  0.00    -0.022 C 
ATOM     19  H   UNL A   1      32.860  21.119  26.997  1.00  0.00     0.061 H 
ATOM     20  C   UNL A   1      33.268  23.872  23.380  1.00  0.00    -0.019 C 
ATOM     21  C   UNL A   1      33.446  22.605  22.520  1.00  0.00    -0.040 C 
ATOM     22  C   UNL A   1      32.143  24.405  24.815  1.00  0.00    -0.027 C 
ATOM     23  H   UNL A   1      32.307  24.179  27.284  1.00  0.00     0.030 H 
ATOM     24  H   UNL A   1      31.194  22.953  26.529  1.00  0.00     0.030 H 
ATOM     25  C   UNL A   1      33.585  25.174  22.624  1.00  0.00    -0.046 C 
ATOM     26  H   UNL A   1      33.797  22.737  21.518  1.00  0.00     0.028 H 
ATOM     27  H   UNL A   1      32.705  21.886  22.239  1.00  0.00     0.028 H 
ATOM     28  C   UNL A   1      30.890  25.170  24.234  1.00  0.00    -0.023 C 
ATOM     29  H   UNL A   1      32.649  25.112  25.439  1.00  0.00     0.032 H 
ATOM     30  C   UNL A   1      32.312  25.934  22.228  1.00  0.00    -0.046 C 
ATOM     31  H   UNL A   1      34.133  24.934  21.737  1.00  0.00     0.027 H 
ATOM     32  H   UNL A   1      34.157  25.804  23.274  1.00  0.00     0.027 H 
ATOM     33  C   UNL A   1      31.391  26.445  23.386  1.00  0.00    -0.024 C 
ATOM     34  C   UNL A   1      30.168  25.847  25.394  1.00  0.00    -0.047 C 
ATOM     35  H   UNL A   1      31.726  25.282  21.615  1.00  0.00     0.027 H 
ATOM     36  H   UNL A   1      32.662  26.822  21.744  1.00  0.00     0.027 H 
ATOM     37  C   UNL A   1      32.008  27.330  24.541  1.00  0.00    -0.033 C 
ATOM     38  C   UNL A   1      31.073  27.038  25.767  1.00  0.00    -0.049 C 
ATOM     39  H   UNL A   1      29.200  26.187  25.092  1.00  0.00     0.027 H 
ATOM     40  H   UNL A   1      30.007  25.183  26.218  1.00  0.00     0.027 H 
ATOM     41  H   UNL A   1      33.035  27.027  24.569  1.00  0.00     0.031 H 
ATOM     42  H   UNL A   1      30.474  27.898  25.980  1.00  0.00     0.027 H 
ATOM     43  H   UNL A   1      31.655  26.809  26.635  1.00  0.00     0.027 H 
BRANCH  15  44
ATOM     44  C   UNL A   1      34.443  19.846  24.918  1.00  0.00    -0.085 C 
ATOM     45  C   UNL A   1      33.348  19.089  24.736  1.00  0.00    -0.103 C 
ATOM     46  H   UNL A   1      33.444  18.086  24.518  1.00  0.00     0.053 H 
ATOM     47  H   UNL A   1      32.410  19.514  24.815  1.00  0.00     0.053 H 
ATOM     48  H   UNL A   1      35.348  19.358  24.824  1.00  0.00     0.057 H 
ENDBRANCH  15  44
BRANCH  16  49
ATOM     49  O   UNL A   1      34.285  22.339  27.944  1.00  0.00    -0.392 OA
ATOM     50  H   UNL A   1      34.518  23.279  27.898  1.00  0.00     0.210 HD
ENDBRANCH  16  49
BRANCH  28  51
ATOM     51  C   UNL A   1      29.975  24.255  23.406  1.00  0.00    -0.059 C 
ATOM     52  H   UNL A   1      30.385  24.135  22.426  1.00  0.00     0.024 H 
ATOM     53  H   UNL A   1      29.002  24.694  23.335  1.00  0.00     0.024 H 
ATOM     54  H   UNL A   1      29.902  23.300  23.882  1.00  0.00     0.024 H 
ENDBRANCH  28  51
BRANCH  33  55
ATOM     55  C   UNL A   1      30.250  27.258  22.724  1.00  0.00    -0.059 C 
ATOM     56  H   UNL A   1      29.744  26.644  22.008  1.00  0.00     0.024 H 
ATOM     57  H   UNL A   1      30.661  28.115  22.234  1.00  0.00     0.024 H 
ATOM     58  H   UNL A   1      29.556  27.575  23.475  1.00  0.00     0.024 H 
ENDBRANCH  33  55
BRANCH  37  59
ATOM     59  C   UNL A   1      32.571  28.775  24.435  1.00  0.00    -0.041 C 
ATOM     60  H   UNL A   1      32.153  29.068  23.494  1.00  0.00     0.030 H 
BRANCH  59  61
ATOM     61  C   UNL A   1      32.041  29.731  25.524  1.00  0.00    -0.047 C 
ATOM     62  H   UNL A   1      32.809  30.445  25.740  1.00  0.00     0.027 H 
ATOM     63  H   UNL A   1      31.785  29.119  26.363  1.00  0.00     0.027 H 
BRANCH  61  64
ATOM     64  C   UNL A   1      30.770  30.498  25.146  1.00  0.00    -0.035 C 
ATOM     65  H   UNL A   1      30.944  31.544  25.289  1.00  0.00     0.031 H 
ATOM     66  H   UNL A   1      29.976  30.147  25.771  1.00  0.00     0.031 H 
BRANCH  64  67
ATOM     67  C   UNL A   1      30.369  30.263  23.707  1.00  0.00    -0.086 C 
ATOM     68  C   UNL A   1      29.266  30.744  23.095  1.00  0.00    -0.080 C 
ATOM     69  H   UNL A   1      30.998  29.677  23.138  1.00  0.00     0.058 H 
BRANCH  68  70
ATOM     70  C   UNL A   1      28.994  30.481  21.639  1.00  0.00    -0.044 C 
ATOM     71  H   UNL A   1      28.007  30.816  21.394  1.00  0.00     0.028 H 
ATOM     72  H   UNL A   1      29.071  29.431  21.446  1.00  0.00     0.028 H 
ATOM     73  H   UNL A   1      29.707  31.007  21.041  1.00  0.00     0.028 H 
ENDBRANCH  68  70
BRANCH  68  74
ATOM     74  C   UNL A   1      28.220  31.566  23.797  1.00  0.00    -0.044 C 
ATOM     75  H   UNL A   1      28.688  32.185  24.533  1.00  0.00     0.028 H 
ATOM     76  H   UNL A   1      27.516  30.917  24.274  1.00  0.00     0.028 H 
ATOM     77  H   UNL A   1      27.712  32.181  23.084  1.00  0.00     0.028 H 
ENDBRANCH  68  74
ENDBRANCH  64  67
ENDBRANCH  61  64
ENDBRANCH  59  61
BRANCH  59  78
ATOM     78  C   UNL A   1      34.075  28.950  24.211  1.00  0.00    -0.062 C 
ATOM     79  H   UNL A   1      34.600  28.124  24.643  1.00  0.00     0.023 H 
ATOM     80  H   UNL A   1      34.401  29.860  24.672  1.00  0.00     0.023 H 
ATOM     81  H   UNL A   1      34.278  28.991  23.161  1.00  0.00     0.023 H 
ENDBRANCH  59  78
ENDBRANCH  37  59
ENDBRANCH  11  14
ENDBRANCH   8  11
ENDBRANCH   5   8
ENDBRANCH   1   4
BRANCH   1  82
ATOM     82  C   UNL A   1      39.936  25.173  27.732  1.00  0.00    -0.036 C 
ATOM     83  H   UNL A   1      40.416  24.407  28.305  1.00  0.00     0.028 H 
ATOM     84  H   UNL A   1      39.332  26.030  27.938  1.00  0.00     0.028 H 
BRANCH  82  85
ATOM     85  C   UNL A   1      41.295  26.140  27.232  1.00  0.00    -0.052 C 
ATOM     86  H   UNL A   1      42.155  25.579  27.534  1.00  0.00     0.027 H 
ATOM     87  H   UNL A   1      41.004  27.073  27.666  1.00  0.00     0.027 H 
BRANCH  85  88
ATOM     88  C   UNL A   1      41.626  26.630  25.804  1.00  0.00    -0.052 C 
ATOM     89  H   UNL A   1      41.808  27.684  25.842  1.00  0.00     0.027 H 
ATOM     90  H   UNL A   1      40.788  26.380  25.187  1.00  0.00     0.027 H 
BRANCH  88  91
ATOM     91  C   UNL A   1      42.847  25.954  25.188  1.00  0.00    -0.036 C 
ATOM     92  H   UNL A   1      42.542  25.415  24.317  1.00  0.00     0.028 H 
ATOM     93  H   UNL A   1      43.267  25.293  25.917  1.00  0.00     0.028 H 
BRANCH  91  94
ATOM     94  C   UNL A   1      43.902  26.967  24.798  1.00  0.00     0.018 C 
ATOM     95  H   UNL A   1      43.790  27.847  25.396  1.00  0.00     0.049 H 
ATOM     96  H   UNL A   1      43.785  27.217  23.763  1.00  0.00     0.049 H 
BRANCH  94  97
ATOM     97  N   UNL A   1      45.229  26.403  25.010  1.00  0.00    -0.352 N 
ATOM     98  C   UNL A   1      46.068  26.666  26.058  1.00  0.00     0.251 C 
ATOM     99  H   UNL A   1      45.554  25.769  24.331  1.00  0.00     0.163 HD
ATOM    100  O   UNL A   1      47.256  26.400  26.028  1.00  0.00    -0.269 OA
BRANCH  98 101
ATOM    101  C   UNL A   1      45.446  27.287  27.233  1.00  0.00     0.039 A 
ATOM    102  C   UNL A   1      45.319  28.672  27.293  1.00  0.00    -0.049 A 
ATOM    103  C   UNL A   1      44.872  26.448  28.195  1.00  0.00    -0.049 A 
ATOM    104  C   UNL A   1      44.594  29.227  28.341  1.00  0.00    -0.053 A 
ATOM    105  H   UNL A   1      45.754  29.272  26.575  1.00  0.00     0.063 H 
ATOM    106  C   UNL A   1      44.078  26.999  29.180  1.00  0.00    -0.053 A 
ATOM    107  H   UNL A   1      45.041  25.430  28.167  1.00  0.00     0.063 H 
ATOM    108  C   UNL A   1      43.961  28.393  29.279  1.00  0.00    -0.014 A 
ATOM    109  H   UNL A   1      44.519  30.253  28.430  1.00  0.00     0.063 H 
ATOM    110  H   UNL A   1      43.571  26.388  29.840  1.00  0.00     0.063 H 
BRANCH 108 111
ATOM    111  C   UNL A   1      43.223  28.957  30.425  1.00  0.00     0.031 A 
ATOM    112  C   UNL A   1      41.807  29.413  30.219  1.00  0.00     0.074 A 
ATOM    113  C   UNL A   1      43.844  29.110  31.608  1.00  0.00     0.049 A 
ATOM    114  N   UNL A   1      41.000  30.007  31.057  1.00  0.00    -0.248 NA
ATOM    115  C   UNL A   1      41.234  29.212  28.876  1.00  0.00    -0.034 C 
ATOM    116  C   UNL A   1      45.236  28.749  31.887  1.00  0.00    -0.036 A 
ATOM    117  N   UNL A   1      43.387  29.621  32.793  1.00  0.00    -0.354 N 
ATOM    118  C   UNL A   1      39.840  30.264  30.339  1.00  0.00     0.074 A 
ATOM    119  C   UNL A   1      40.067  29.827  28.982  1.00  0.00    -0.034 C 
ATOM    120  H   UNL A   1      41.638  28.719  28.064  1.00  0.00     0.065 H 
ATOM    121  C   UNL A   1      45.512  29.030  33.171  1.00  0.00    -0.036 A 
ATOM    122  H   UNL A   1      45.898  28.345  31.207  1.00  0.00     0.065 H 
ATOM    123  C   UNL A   1      44.332  29.625  33.790  1.00  0.00     0.049 A 
ATOM    124  H   UNL A   1      42.469  29.953  32.920  1.00  0.00     0.167 HD
ATOM    125  C   UNL A   1      38.679  30.792  30.786  1.00  0.00     0.037 A 
ATOM    126  H   UNL A   1      39.409  29.973  28.200  1.00  0.00     0.065 H 
ATOM    127  H   UNL A   1      46.413  28.854  33.643  1.00  0.00     0.065 H 
ATOM    128  C   UNL A   1      44.246  30.072  35.056  1.00  0.00     0.037 A 
ATOM    129  C   UNL A   1      38.459  31.185  32.151  1.00  0.00     0.049 A 
ATOM    130  C   UNL A   1      42.936  30.646  35.528  1.00  0.00     0.074 A 
ATOM    131  C   UNL A   1      37.300  31.658  32.736  1.00  0.00    -0.036 A 
ATOM    132  N   UNL A   1      39.428  31.148  33.143  1.00  0.00    -0.354 N 
ATOM    133  N   UNL A   1      41.815  30.808  34.866  1.00  0.00    -0.248 NA
ATOM    134  C   UNL A   1      42.876  31.093  36.925  1.00  0.00    -0.034 C 
ATOM    135  C   UNL A   1      37.584  31.964  34.069  1.00  0.00    -0.036 A 
ATOM    136  H   UNL A   1      36.386  31.766  32.269  1.00  0.00     0.065 H 
ATOM    137  C   UNL A   1      38.901  31.622  34.333  1.00  0.00     0.049 A 
ATOM    138  H   UNL A   1      40.354  30.833  33.020  1.00  0.00     0.167 HD
ATOM    139  C   UNL A   1      40.911  31.348  35.770  1.00  0.00     0.074 A 
ATOM    140  C   UNL A   1      41.609  31.467  37.034  1.00  0.00    -0.034 C 
ATOM    141  H   UNL A   1      43.624  31.111  37.637  1.00  0.00     0.065 H 
ATOM    142  H   UNL A   1      36.923  32.377  34.746  1.00  0.00     0.065 H 
ATOM    143  C   UNL A   1      39.622  31.721  35.576  1.00  0.00     0.037 A 
ATOM    144  H   UNL A   1      41.174  31.800  37.908  1.00  0.00     0.065 H 
BRANCH 125 145
ATOM    145  C   UNL A   1      37.563  30.969  29.798  1.00  0.00     0.064 A 
ATOM    146  C   UNL A   1      36.703  29.914  29.457  1.00  0.00     0.173 A 
ATOM    147  C   UNL A   1      37.327  32.222  29.215  1.00  0.00     0.173 A 
ATOM    148  F   UNL A   1      36.895  28.690  29.972  1.00  0.00    -0.203 F 
ATOM    149  C   UNL A   1      35.661  30.103  28.553  1.00  0.00     0.198 A 
ATOM    150  C   UNL A   1      36.264  32.415  28.336  1.00  0.00     0.198 A 
ATOM    151  F   UNL A   1      38.121  33.264  29.503  1.00  0.00    -0.203 F 
ATOM    152  F   UNL A   1      34.881  29.069  28.206  1.00  0.00    -0.200 F 
ATOM    153  C   UNL A   1      35.436  31.355  28.001  1.00  0.00     0.200 A 
ATOM    154  F   UNL A   1      36.042  33.629  27.813  1.00  0.00    -0.200 F 
ATOM    155  F   UNL A   1      34.423  31.539  27.142  1.00  0.00    -0.200 F 
ENDBRANCH 125 145
BRANCH 128 156
ATOM    156  C   UNL A   1      45.421  29.987  35.962  1.00  0.00     0.064 A 
ATOM    157  C   UNL A   1      46.370  31.017  36.017  1.00  0.00     0.173 A 
ATOM    158  C   UNL A   1      45.630  28.867  36.782  1.00  0.00     0.173 A 
ATOM    159  F   UNL A   1      46.224  32.103  35.244  1.00  0.00    -0.203 F 
ATOM    160  C   UNL A   1      47.499  30.917  36.828  1.00  0.00     0.198 A 
ATOM    161  C   UNL A   1      46.742  28.782  37.618  1.00  0.00     0.198 A 
ATOM    162  F   UNL A   1      44.748  27.857  36.778  1.00  0.00    -0.203 F 
ATOM    163  F   UNL A   1      48.420  31.890  36.816  1.00  0.00    -0.200 F 
ATOM    164  C   UNL A   1      47.682  29.801  37.631  1.00  0.00     0.200 A 
ATOM    165  F   UNL A   1      46.904  27.711  38.406  1.00  0.00    -0.200 F 
ATOM    166  F   UNL A   1      48.767  29.703  38.411  1.00  0.00    -0.200 F 
ENDBRANCH 128 156
BRANCH 143 167
ATOM    167  C   UNL A   1      38.879  32.260  36.762  1.00  0.00     0.064 A 
ATOM    168  C   UNL A   1      37.972  31.468  37.483  1.00  0.00     0.173 A 
ATOM    169  C   UNL A   1      39.113  33.568  37.211  1.00  0.00     0.173 A 
ATOM    170  F   UNL A   1      37.705  30.215  37.085  1.00  0.00    -0.203 F 
ATOM    171  C   UNL A   1      37.303  31.979  38.592  1.00  0.00     0.198 A 
ATOM    172  C   UNL A   1      38.471  34.063  38.342  1.00  0.00     0.198 A 
ATOM    173  F   UNL A   1      39.979  34.361  36.564  1.00  0.00    -0.203 F 
ATOM    174  F   UNL A   1      36.401  31.223  39.232  1.00  0.00    -0.200 F 
ATOM    175  C   UNL A   1      37.560  33.272  39.026  1.00  0.00     0.200 A 
ATOM    176  F   UNL A   1      38.734  35.305  38.771  1.00  0.00    -0.200 F 
ATOM    177  F   UNL A   1      36.923  33.757  40.099  1.00  0.00    -0.200 F 
ENDBRANCH 143 167
ENDBRANCH 108 111
ENDBRANCH  98 101
ENDBRANCH  94  97
ENDBRANCH  91  94
ENDBRANCH  88  91
ENDBRANCH  85  88
ENDBRANCH  82  85
ENDBRANCH   1  82
TORSDOF 26
ENDMDL
MODEL 7
REMARK VINA RESULT:     -11.8      5.730     10.845
REMARK SMILES C=C[C@@H]1[C@@H](O)C[C@H]2[C@]3(CC[C@]4(C)[C@@H]([C@H](C)CCC=C(C)C)CC[C@]24C)C[C@]13CCC(=O)NCCCCCCNC(=O)c1ccc(-c2c3nc(c(-c4c(F)c(F)c(F)c(F)c4F)c4ccc([nH]4)c(-c4c(F)c(F)c(F)c(F)c4F)c4nc(c(-c5c(F)c(F)c(F)c(F)c5F)c5ccc2[nH]5)C=C4)C=C3)cc1
REMARK SMILES IDX 33 1 32 4 30 5 31 6 29 8 28 11 27 14 3 15 4 16 6 18 8 20
REMARK SMILES IDX 26 21 7 22 9 25 24 28 10 30 11 33 23 34 13 37 22 38 2 44
REMARK SMILES IDX 1 45 5 49 25 51 12 55 14 59 16 61 17 64 18 67 19 68 20 70
REMARK SMILES IDX 21 74 15 78 34 82 35 85 36 88 37 91 38 94 39 97 40 98 41 100
REMARK SMILES IDX 42 101 43 102 104 103 44 104 103 106 45 108 46 111 47 112
REMARK SMILES IDX 97 113 48 114 102 115 96 116 98 117 49 118 101 119 95 121
REMARK SMILES IDX 94 123 50 125 82 128 62 129 81 130 63 131 66 132 80 133
REMARK SMILES IDX 99 134 64 135 65 137 79 139 100 140 67 143 51 145 52 146
REMARK SMILES IDX 60 147 53 148 54 149 58 150 61 151 55 152 56 153 59 154
REMARK SMILES IDX 57 155 83 156 84 157 92 158 85 159 86 160 90 161 93 162
REMARK SMILES IDX 87 163 88 164 91 165 89 166 68 167 69 168 77 169 70 170
REMARK SMILES IDX 71 171 75 172 78 173 72 174 73 175 76 176 74 177
REMARK H PARENT 33 2 33 3 32 7 29 9 29 10 28 12 28 13 3 17 4 19 6 23 6 24
REMARK H PARENT 26 26 26 27 7 29 9 31 9 32 10 35 10 36 23 39 23 40 13 41 22 42
REMARK H PARENT 22 43 1 46 1 47 2 48 5 50 25 52 25 53 25 54 12 56 12 57 12 58
REMARK H PARENT 14 60 16 62 16 63 17 65 17 66 18 69 20 71 20 72 20 73 21 75
REMARK H PARENT 21 76 21 77 15 79 15 80 15 81 34 83 34 84 35 86 35 87 36 89
REMARK H PARENT 36 90 37 92 37 93 38 95 38 96 39 99 43 105 104 107 44 109
REMARK H PARENT 103 110 102 120 96 122 98 124 101 126 95 127 63 136 66 138
REMARK H PARENT 99 141 64 142 100 144
REMARK Flexibility Score: inf
ROOT
ATOM      1  C   UNL A   1      38.513  24.227  26.827  1.00  0.00     0.017 C 
ATOM      2  H   UNL A   1      37.655  24.485  27.411  1.00  0.00     0.049 H 
ATOM      3  H   UNL A   1      38.881  24.618  25.901  1.00  0.00     0.049 H 
ENDROOT
BRANCH   1   4
ATOM      4  N   UNL A   1      38.144  22.870  26.264  1.00  0.00    -0.356 N 
ATOM      5  C   UNL A   1      37.309  22.579  25.227  1.00  0.00     0.220 C 
ATOM      6  O   UNL A   1      37.337  21.470  24.700  1.00  0.00    -0.275 OA
ATOM      7  H   UNL A   1      38.561  22.097  26.706  1.00  0.00     0.163 HD
BRANCH   5   8
ATOM      8  C   UNL A   1      36.382  23.673  24.776  1.00  0.00     0.027 C 
ATOM      9  H   UNL A   1      35.752  23.949  25.596  1.00  0.00     0.037 H 
ATOM     10  H   UNL A   1      36.983  24.495  24.448  1.00  0.00     0.037 H 
BRANCH   8  11
ATOM     11  C   UNL A   1      35.501  23.244  23.604  1.00  0.00    -0.038 C 
ATOM     12  H   UNL A   1      35.736  23.864  22.764  1.00  0.00     0.028 H 
ATOM     13  H   UNL A   1      35.707  22.209  23.427  1.00  0.00     0.028 H 
BRANCH  11  14
ATOM     14  C   UNL A   1      33.992  23.356  23.879  1.00  0.00    -0.014 C 
ATOM     15  C   UNL A   1      33.446  21.841  24.989  1.00  0.00     0.009 C 
ATOM     16  C   UNL A   1      32.448  22.257  26.662  1.00  0.00     0.061 C 
ATOM     17  H   UNL A   1      34.360  21.504  25.431  1.00  0.00     0.038 H 
ATOM     18  C   UNL A   1      31.683  24.078  26.876  1.00  0.00    -0.022 C 
ATOM     19  H   UNL A   1      31.602  21.613  26.541  1.00  0.00     0.061 H 
ATOM     20  C   UNL A   1      33.245  25.086  24.078  1.00  0.00    -0.019 C 
ATOM     21  C   UNL A   1      33.132  24.174  22.840  1.00  0.00    -0.040 C 
ATOM     22  C   UNL A   1      32.175  25.468  25.600  1.00  0.00    -0.027 C 
ATOM     23  H   UNL A   1      31.971  24.426  27.846  1.00  0.00     0.030 H 
ATOM     24  H   UNL A   1      30.635  23.936  26.711  1.00  0.00     0.030 H 
ATOM     25  C   UNL A   1      34.028  26.384  23.812  1.00  0.00    -0.046 C 
ATOM     26  H   UNL A   1      33.622  24.498  21.945  1.00  0.00     0.028 H 
ATOM     27  H   UNL A   1      32.247  23.864  22.326  1.00  0.00     0.028 H 
ATOM     28  C   UNL A   1      31.288  26.741  25.302  1.00  0.00    -0.023 C 
ATOM     29  H   UNL A   1      32.793  25.735  26.431  1.00  0.00     0.032 H 
ATOM     30  C   UNL A   1      33.101  27.600  23.687  1.00  0.00    -0.046 C 
ATOM     31  H   UNL A   1      34.578  26.275  22.901  1.00  0.00     0.027 H 
ATOM     32  H   UNL A   1      34.683  26.551  24.642  1.00  0.00     0.027 H 
ATOM     33  C   UNL A   1      32.247  27.984  24.942  1.00  0.00    -0.024 C 
ATOM     34  C   UNL A   1      30.674  27.208  26.618  1.00  0.00    -0.047 C 
ATOM     35  H   UNL A   1      32.421  27.404  22.884  1.00  0.00     0.027 H 
ATOM     36  H   UNL A   1      33.757  28.431  23.537  1.00  0.00     0.027 H 
ATOM     37  C   UNL A   1      32.964  28.203  26.334  1.00  0.00    -0.033 C 
ATOM     38  C   UNL A   1      31.847  27.856  27.381  1.00  0.00    -0.049 C 
ATOM     39  H   UNL A   1      29.897  27.922  26.441  1.00  0.00     0.027 H 
ATOM     40  H   UNL A   1      30.225  26.406  27.166  1.00  0.00     0.027 H 
ATOM     41  H   UNL A   1      33.840  27.592  26.267  1.00  0.00     0.031 H 
ATOM     42  H   UNL A   1      31.515  28.748  27.869  1.00  0.00     0.027 H 
ATOM     43  H   UNL A   1      32.225  27.186  28.124  1.00  0.00     0.027 H 
BRANCH  15  44
ATOM     44  C   UNL A   1      32.958  20.629  24.166  1.00  0.00    -0.085 C 
ATOM     45  C   UNL A   1      33.312  19.340  24.298  1.00  0.00    -0.103 C 
ATOM     46  H   UNL A   1      32.905  18.627  23.674  1.00  0.00     0.053 H 
ATOM     47  H   UNL A   1      33.993  19.065  25.024  1.00  0.00     0.053 H 
ATOM     48  H   UNL A   1      32.274  20.834  23.420  1.00  0.00     0.057 H 
ENDBRANCH  15  44
BRANCH  16  49
ATOM     49  O   UNL A   1      33.208  21.935  27.857  1.00  0.00    -0.392 OA
ATOM     50  H   UNL A   1      33.359  22.743  28.372  1.00  0.00     0.210 HD
ENDBRANCH  16  49
BRANCH  28  51
ATOM     51  C   UNL A   1      30.244  26.487  24.206  1.00  0.00    -0.059 C 
ATOM     52  H   UNL A   1      29.364  27.058  24.412  1.00  0.00     0.024 H 
ATOM     53  H   UNL A   1      29.997  25.446  24.183  1.00  0.00     0.024 H 
ATOM     54  H   UNL A   1      30.645  26.779  23.257  1.00  0.00     0.024 H 
ENDBRANCH  28  51
BRANCH  33  55
ATOM     55  C   UNL A   1      31.492  29.289  24.587  1.00  0.00    -0.059 C 
ATOM     56  H   UNL A   1      30.753  29.081  23.841  1.00  0.00     0.024 H 
ATOM     57  H   UNL A   1      32.186  30.012  24.211  1.00  0.00     0.024 H 
ATOM     58  H   UNL A   1      31.014  29.675  25.464  1.00  0.00     0.024 H 
ENDBRANCH  33  55
BRANCH  37  59
ATOM     59  C   UNL A   1      33.945  29.342  26.730  1.00  0.00    -0.041 C 
ATOM     60  H   UNL A   1      34.135  29.766  25.766  1.00  0.00     0.030 H 
BRANCH  59  61
ATOM     61  C   UNL A   1      33.312  30.427  27.626  1.00  0.00    -0.047 C 
ATOM     62  H   UNL A   1      33.489  30.159  28.647  1.00  0.00     0.027 H 
ATOM     63  H   UNL A   1      32.273  30.459  27.371  1.00  0.00     0.027 H 
BRANCH  61  64
ATOM     64  C   UNL A   1      33.854  31.843  27.405  1.00  0.00    -0.035 C 
ATOM     65  H   UNL A   1      33.230  32.344  26.694  1.00  0.00     0.031 H 
ATOM     66  H   UNL A   1      34.859  31.759  27.047  1.00  0.00     0.031 H 
BRANCH  64  67
ATOM     67  C   UNL A   1      33.882  32.650  28.684  1.00  0.00    -0.086 C 
ATOM     68  C   UNL A   1      34.910  33.397  29.136  1.00  0.00    -0.080 C 
ATOM     69  H   UNL A   1      33.031  32.625  29.267  1.00  0.00     0.058 H 
BRANCH  68  70
ATOM     70  C   UNL A   1      34.805  34.198  30.406  1.00  0.00    -0.044 C 
ATOM     71  H   UNL A   1      35.308  35.134  30.280  1.00  0.00     0.028 H 
ATOM     72  H   UNL A   1      35.259  33.655  31.209  1.00  0.00     0.028 H 
ATOM     73  H   UNL A   1      33.775  34.375  30.633  1.00  0.00     0.028 H 
ENDBRANCH  68  70
BRANCH  68  74
ATOM     74  C   UNL A   1      36.237  33.494  28.435  1.00  0.00    -0.044 C 
ATOM     75  H   UNL A   1      36.389  34.498  28.098  1.00  0.00     0.028 H 
ATOM     76  H   UNL A   1      36.246  32.832  27.595  1.00  0.00     0.028 H 
ATOM     77  H   UNL A   1      37.019  33.222  29.112  1.00  0.00     0.028 H 
ENDBRANCH  68  74
ENDBRANCH  64  67
ENDBRANCH  61  64
ENDBRANCH  59  61
BRANCH  59  78
ATOM     78  C   UNL A   1      35.345  28.953  27.215  1.00  0.00    -0.062 C 
ATOM     79  H   UNL A   1      35.955  29.829  27.284  1.00  0.00     0.023 H 
ATOM     80  H   UNL A   1      35.784  28.266  26.522  1.00  0.00     0.023 H 
ATOM     81  H   UNL A   1      35.273  28.491  28.178  1.00  0.00     0.023 H 
ENDBRANCH  59  78
ENDBRANCH  37  59
ENDBRANCH  11  14
ENDBRANCH   8  11
ENDBRANCH   5   8
ENDBRANCH   1   4
BRANCH   1  82
ATOM     82  C   UNL A   1      40.107  24.958  27.988  1.00  0.00    -0.036 C 
ATOM     83  H   UNL A   1      39.806  24.669  28.973  1.00  0.00     0.028 H 
ATOM     84  H   UNL A   1      40.165  25.870  27.433  1.00  0.00     0.028 H 
BRANCH  82  85
ATOM     85  C   UNL A   1      41.838  24.807  28.093  1.00  0.00    -0.052 C 
ATOM     86  H   UNL A   1      42.149  25.634  28.696  1.00  0.00     0.027 H 
ATOM     87  H   UNL A   1      42.060  24.707  27.051  1.00  0.00     0.027 H 
BRANCH  85  88
ATOM     88  C   UNL A   1      42.647  23.603  28.629  1.00  0.00    -0.052 C 
ATOM     89  H   UNL A   1      42.095  23.155  29.429  1.00  0.00     0.027 H 
ATOM     90  H   UNL A   1      43.596  23.982  28.947  1.00  0.00     0.027 H 
BRANCH  88  91
ATOM     91  C   UNL A   1      42.926  22.533  27.579  1.00  0.00    -0.036 C 
ATOM     92  H   UNL A   1      42.233  21.729  27.711  1.00  0.00     0.028 H 
ATOM     93  H   UNL A   1      43.932  22.194  27.705  1.00  0.00     0.028 H 
BRANCH  91  94
ATOM     94  C   UNL A   1      42.780  23.084  26.175  1.00  0.00     0.018 C 
ATOM     95  H   UNL A   1      42.518  24.120  26.225  1.00  0.00     0.049 H 
ATOM     96  H   UNL A   1      42.013  22.542  25.662  1.00  0.00     0.049 H 
BRANCH  94  97
ATOM     97  N   UNL A   1      44.039  22.937  25.456  1.00  0.00    -0.352 N 
ATOM     98  C   UNL A   1      44.891  23.943  25.090  1.00  0.00     0.251 C 
ATOM     99  H   UNL A   1      44.302  22.022  25.208  1.00  0.00     0.163 HD
ATOM    100  O   UNL A   1      45.759  23.792  24.250  1.00  0.00    -0.269 OA
BRANCH  98 101
ATOM    101  C   UNL A   1      44.699  25.224  25.780  1.00  0.00     0.039 A 
ATOM    102  C   UNL A   1      45.375  25.472  26.972  1.00  0.00    -0.049 A 
ATOM    103  C   UNL A   1      43.946  26.212  25.136  1.00  0.00    -0.049 A 
ATOM    104  C   UNL A   1      45.297  26.743  27.527  1.00  0.00    -0.053 A 
ATOM    105  H   UNL A   1      45.922  24.727  27.432  1.00  0.00     0.063 H 
ATOM    106  C   UNL A   1      43.947  27.496  25.644  1.00  0.00    -0.053 A 
ATOM    107  H   UNL A   1      43.397  25.984  24.293  1.00  0.00     0.063 H 
ATOM    108  C   UNL A   1      44.595  27.761  26.859  1.00  0.00    -0.014 A 
ATOM    109  H   UNL A   1      45.756  26.941  28.430  1.00  0.00     0.063 H 
ATOM    110  H   UNL A   1      43.475  28.257  25.131  1.00  0.00     0.063 H 
BRANCH 108 111
ATOM    111  C   UNL A   1      44.459  29.107  27.449  1.00  0.00     0.031 A 
ATOM    112  C   UNL A   1      45.581  30.090  27.272  1.00  0.00     0.074 A 
ATOM    113  C   UNL A   1      43.372  29.408  28.181  1.00  0.00     0.049 A 
ATOM    114  N   UNL A   1      45.712  31.292  27.765  1.00  0.00    -0.248 NA
ATOM    115  C   UNL A   1      46.731  29.646  26.464  1.00  0.00    -0.034 C 
ATOM    116  C   UNL A   1      42.257  28.498  28.456  1.00  0.00    -0.036 A 
ATOM    117  N   UNL A   1      43.033  30.560  28.837  1.00  0.00    -0.354 N 
ATOM    118  C   UNL A   1      46.959  31.734  27.345  1.00  0.00     0.074 A 
ATOM    119  C   UNL A   1      47.576  30.652  26.615  1.00  0.00    -0.034 C 
ATOM    120  H   UNL A   1      46.847  28.774  25.922  1.00  0.00     0.065 H 
ATOM    121  C   UNL A   1      41.346  29.138  29.207  1.00  0.00    -0.036 A 
ATOM    122  H   UNL A   1      42.184  27.524  28.126  1.00  0.00     0.065 H 
ATOM    123  C   UNL A   1      41.831  30.483  29.497  1.00  0.00     0.049 A 
ATOM    124  H   UNL A   1      43.596  31.368  28.837  1.00  0.00     0.167 HD
ATOM    125  C   UNL A   1      47.521  32.949  27.529  1.00  0.00     0.037 A 
ATOM    126  H   UNL A   1      48.545  30.663  26.259  1.00  0.00     0.065 H 
ATOM    127  H   UNL A   1      40.448  28.741  29.527  1.00  0.00     0.065 H 
ATOM    128  C   UNL A   1      41.204  31.400  30.257  1.00  0.00     0.037 A 
ATOM    129  C   UNL A   1      46.873  34.027  28.224  1.00  0.00     0.049 A 
ATOM    130  C   UNL A   1      41.852  32.748  30.436  1.00  0.00     0.074 A 
ATOM    131  C   UNL A   1      47.313  35.324  28.405  1.00  0.00    -0.036 A 
ATOM    132  N   UNL A   1      45.642  33.925  28.856  1.00  0.00    -0.354 N 
ATOM    133  N   UNL A   1      42.994  33.189  29.964  1.00  0.00    -0.248 NA
ATOM    134  C   UNL A   1      41.121  33.729  31.247  1.00  0.00    -0.034 C 
ATOM    135  C   UNL A   1      46.375  35.992  29.197  1.00  0.00    -0.036 A 
ATOM    136  H   UNL A   1      48.181  35.729  28.022  1.00  0.00     0.065 H 
ATOM    137  C   UNL A   1      45.320  35.130  29.456  1.00  0.00     0.049 A 
ATOM    138  H   UNL A   1      45.080  33.115  28.875  1.00  0.00     0.167 HD
ATOM    139  C   UNL A   1      43.106  34.502  30.396  1.00  0.00     0.074 A 
ATOM    140  C   UNL A   1      41.904  34.794  31.151  1.00  0.00    -0.034 C 
ATOM    141  H   UNL A   1      40.231  33.620  31.758  1.00  0.00     0.065 H 
ATOM    142  H   UNL A   1      46.454  36.964  29.533  1.00  0.00     0.065 H 
ATOM    143  C   UNL A   1      44.112  35.389  30.196  1.00  0.00     0.037 A 
ATOM    144  H   UNL A   1      41.686  35.715  31.561  1.00  0.00     0.065 H 
BRANCH 125 145
ATOM    145  C   UNL A   1      48.895  33.177  26.969  1.00  0.00     0.064 A 
ATOM    146  C   UNL A   1      49.110  33.992  25.847  1.00  0.00     0.173 A 
ATOM    147  C   UNL A   1      50.015  32.605  27.588  1.00  0.00     0.173 A 
ATOM    148  F   UNL A   1      48.072  34.549  25.205  1.00  0.00    -0.203 F 
ATOM    149  C   UNL A   1      50.395  34.207  25.353  1.00  0.00     0.198 A 
ATOM    150  C   UNL A   1      51.301  32.849  27.112  1.00  0.00     0.198 A 
ATOM    151  F   UNL A   1      49.866  31.815  28.662  1.00  0.00    -0.203 F 
ATOM    152  F   UNL A   1      50.572  34.951  24.252  1.00  0.00    -0.200 F 
ATOM    153  C   UNL A   1      51.489  33.644  25.992  1.00  0.00     0.200 A 
ATOM    154  F   UNL A   1      52.358  32.313  27.738  1.00  0.00    -0.200 F 
ATOM    155  F   UNL A   1      52.726  33.865  25.525  1.00  0.00    -0.200 F 
ENDBRANCH 125 145
BRANCH 128 156
ATOM    156  C   UNL A   1      39.899  31.082  30.894  1.00  0.00     0.064 A 
ATOM    157  C   UNL A   1      39.809  30.814  32.266  1.00  0.00     0.173 A 
ATOM    158  C   UNL A   1      38.717  31.021  30.140  1.00  0.00     0.173 A 
ATOM    159  F   UNL A   1      40.912  30.845  33.029  1.00  0.00    -0.203 F 
ATOM    160  C   UNL A   1      38.595  30.466  32.856  1.00  0.00     0.198 A 
ATOM    161  C   UNL A   1      37.497  30.706  30.736  1.00  0.00     0.198 A 
ATOM    162  F   UNL A   1      38.744  31.279  28.825  1.00  0.00    -0.203 F 
ATOM    163  F   UNL A   1      38.548  30.157  34.158  1.00  0.00    -0.200 F 
ATOM    164  C   UNL A   1      37.439  30.416  32.091  1.00  0.00     0.200 A 
ATOM    165  F   UNL A   1      36.380  30.679  29.996  1.00  0.00    -0.200 F 
ATOM    166  F   UNL A   1      36.272  30.080  32.656  1.00  0.00    -0.200 F 
ENDBRANCH 128 156
BRANCH 143 167
ATOM    167  C   UNL A   1      43.939  36.763  30.774  1.00  0.00     0.064 A 
ATOM    168  C   UNL A   1      43.527  37.846  29.984  1.00  0.00     0.173 A 
ATOM    169  C   UNL A   1      44.142  36.987  32.144  1.00  0.00     0.173 A 
ATOM    170  F   UNL A   1      43.332  37.686  28.666  1.00  0.00    -0.203 F 
ATOM    171  C   UNL A   1      43.355  39.111  30.539  1.00  0.00     0.198 A 
ATOM    172  C   UNL A   1      43.933  38.243  32.703  1.00  0.00     0.198 A 
ATOM    173  F   UNL A   1      44.525  35.981  32.944  1.00  0.00    -0.203 F 
ATOM    174  F   UNL A   1      43.014  40.143  29.756  1.00  0.00    -0.200 F 
ATOM    175  C   UNL A   1      43.549  39.306  31.899  1.00  0.00     0.200 A 
ATOM    176  F   UNL A   1      44.102  38.426  34.020  1.00  0.00    -0.200 F 
ATOM    177  F   UNL A   1      43.373  40.521  32.434  1.00  0.00    -0.200 F 
ENDBRANCH 143 167
ENDBRANCH 108 111
ENDBRANCH  98 101
ENDBRANCH  94  97
ENDBRANCH  91  94
ENDBRANCH  88  91
ENDBRANCH  85  88
ENDBRANCH  82  85
ENDBRANCH   1  82
TORSDOF 26
ENDMDL
MODEL 8
REMARK VINA RESULT:     -11.8      6.020      9.004
REMARK SMILES C=C[C@@H]1[C@@H](O)C[C@H]2[C@]3(CC[C@]4(C)[C@@H]([C@H](C)CCC=C(C)C)CC[C@]24C)C[C@]13CCC(=O)NCCCCCCNC(=O)c1ccc(-c2c3nc(c(-c4c(F)c(F)c(F)c(F)c4F)c4ccc([nH]4)c(-c4c(F)c(F)c(F)c(F)c4F)c4nc(c(-c5c(F)c(F)c(F)c(F)c5F)c5ccc2[nH]5)C=C4)C=C3)cc1
REMARK SMILES IDX 33 1 32 4 30 5 31 6 29 8 28 11 27 14 3 15 4 16 6 18 8 20
REMARK SMILES IDX 26 21 7 22 9 25 24 28 10 30 11 33 23 34 13 37 22 38 2 44
REMARK SMILES IDX 1 45 5 49 25 51 12 55 14 59 16 61 17 64 18 67 19 68 20 70
REMARK SMILES IDX 21 74 15 78 34 82 35 85 36 88 37 91 38 94 39 97 40 98 41 100
REMARK SMILES IDX 42 101 43 102 104 103 44 104 103 106 45 108 46 111 47 112
REMARK SMILES IDX 97 113 48 114 102 115 96 116 98 117 49 118 101 119 95 121
REMARK SMILES IDX 94 123 50 125 82 128 62 129 81 130 63 131 66 132 80 133
REMARK SMILES IDX 99 134 64 135 65 137 79 139 100 140 67 143 51 145 52 146
REMARK SMILES IDX 60 147 53 148 54 149 58 150 61 151 55 152 56 153 59 154
REMARK SMILES IDX 57 155 83 156 84 157 92 158 85 159 86 160 90 161 93 162
REMARK SMILES IDX 87 163 88 164 91 165 89 166 68 167 69 168 77 169 70 170
REMARK SMILES IDX 71 171 75 172 78 173 72 174 73 175 76 176 74 177
REMARK H PARENT 33 2 33 3 32 7 29 9 29 10 28 12 28 13 3 17 4 19 6 23 6 24
REMARK H PARENT 26 26 26 27 7 29 9 31 9 32 10 35 10 36 23 39 23 40 13 41 22 42
REMARK H PARENT 22 43 1 46 1 47 2 48 5 50 25 52 25 53 25 54 12 56 12 57 12 58
REMARK H PARENT 14 60 16 62 16 63 17 65 17 66 18 69 20 71 20 72 20 73 21 75
REMARK H PARENT 21 76 21 77 15 79 15 80 15 81 34 83 34 84 35 86 35 87 36 89
REMARK H PARENT 36 90 37 92 37 93 38 95 38 96 39 99 43 105 104 107 44 109
REMARK H PARENT 103 110 102 120 96 122 98 124 101 126 95 127 63 136 66 138
REMARK H PARENT 99 141 64 142 100 144
REMARK Flexibility Score: inf
ROOT
ATOM      1  C   UNL A   1      35.764  31.045  27.923  1.00  0.00     0.017 C 
ATOM      2  H   UNL A   1      36.329  30.621  27.120  1.00  0.00     0.049 H 
ATOM      3  H   UNL A   1      35.426  30.625  28.848  1.00  0.00     0.049 H 
ENDROOT
BRANCH   1   4
ATOM      4  N   UNL A   1      34.380  31.189  27.325  1.00  0.00    -0.356 N 
ATOM      5  C   UNL A   1      33.572  30.220  26.810  1.00  0.00     0.220 C 
ATOM      6  O   UNL A   1      32.376  30.436  26.636  1.00  0.00    -0.275 OA
ATOM      7  H   UNL A   1      34.016  32.103  27.305  1.00  0.00     0.163 HD
BRANCH   5   8
ATOM      8  C   UNL A   1      34.218  28.902  26.483  1.00  0.00     0.027 C 
ATOM      9  H   UNL A   1      35.281  29.024  26.517  1.00  0.00     0.037 H 
ATOM     10  H   UNL A   1      33.881  28.187  27.204  1.00  0.00     0.037 H 
BRANCH   8  11
ATOM     11  C   UNL A   1      33.828  28.388  25.099  1.00  0.00    -0.038 C 
ATOM     12  H   UNL A   1      33.584  29.230  24.486  1.00  0.00     0.028 H 
ATOM     13  H   UNL A   1      34.665  27.834  24.729  1.00  0.00     0.028 H 
BRANCH  11  14
ATOM     14  C   UNL A   1      32.626  27.427  25.102  1.00  0.00    -0.014 C 
ATOM     15  C   UNL A   1      31.403  27.955  23.670  1.00  0.00     0.009 C 
ATOM     16  C   UNL A   1      30.856  26.539  22.380  1.00  0.00     0.061 C 
ATOM     17  H   UNL A   1      32.013  28.539  23.013  1.00  0.00     0.038 H 
ATOM     18  C   UNL A   1      31.194  24.642  22.861  1.00  0.00    -0.022 C 
ATOM     19  H   UNL A   1      29.792  26.651  22.419  1.00  0.00     0.061 H 
ATOM     20  C   UNL A   1      32.931  25.616  25.567  1.00  0.00    -0.019 C 
ATOM     21  C   UNL A   1      32.294  26.699  26.460  1.00  0.00    -0.040 C 
ATOM     22  C   UNL A   1      32.298  24.242  24.418  1.00  0.00    -0.027 C 
ATOM     23  H   UNL A   1      31.665  24.184  22.017  1.00  0.00     0.030 H 
ATOM     24  H   UNL A   1      30.227  24.270  23.129  1.00  0.00     0.030 H 
ATOM     25  C   UNL A   1      34.274  25.092  26.104  1.00  0.00    -0.046 C 
ATOM     26  H   UNL A   1      32.841  27.004  27.328  1.00  0.00     0.028 H 
ATOM     27  H   UNL A   1      31.359  26.663  26.979  1.00  0.00     0.028 H 
ATOM     28  C   UNL A   1      32.218  22.887  25.227  1.00  0.00    -0.023 C 
ATOM     29  H   UNL A   1      32.998  24.067  23.629  1.00  0.00     0.032 H 
ATOM     30  C   UNL A   1      34.137  23.702  26.739  1.00  0.00    -0.046 C 
ATOM     31  H   UNL A   1      34.641  25.774  26.842  1.00  0.00     0.027 H 
ATOM     32  H   UNL A   1      34.953  25.013  25.279  1.00  0.00     0.027 H 
ATOM     33  C   UNL A   1      33.677  22.530  25.809  1.00  0.00    -0.024 C 
ATOM     34  C   UNL A   1      32.007  21.753  24.230  1.00  0.00    -0.047 C 
ATOM     35  H   UNL A   1      33.425  23.781  27.533  1.00  0.00     0.027 H 
ATOM     36  H   UNL A   1      35.129  23.440  27.041  1.00  0.00     0.027 H 
ATOM     37  C   UNL A   1      34.459  22.249  24.464  1.00  0.00    -0.033 C 
ATOM     38  C   UNL A   1      33.376  21.587  23.541  1.00  0.00    -0.049 C 
ATOM     39  H   UNL A   1      31.725  20.853  24.735  1.00  0.00     0.027 H 
ATOM     40  H   UNL A   1      31.222  21.963  23.533  1.00  0.00     0.027 H 
ATOM     41  H   UNL A   1      34.868  23.204  24.206  1.00  0.00     0.031 H 
ATOM     42  H   UNL A   1      33.594  20.548  23.411  1.00  0.00     0.027 H 
ATOM     43  H   UNL A   1      33.369  22.053  22.578  1.00  0.00     0.027 H 
BRANCH  15  44
ATOM     44  C   UNL A   1      30.307  28.938  24.138  1.00  0.00    -0.085 C 
ATOM     45  C   UNL A   1      29.728  29.927  23.439  1.00  0.00    -0.103 C 
ATOM     46  H   UNL A   1      29.002  30.513  23.879  1.00  0.00     0.053 H 
ATOM     47  H   UNL A   1      30.009  30.099  22.460  1.00  0.00     0.053 H 
ATOM     48  H   UNL A   1      29.979  28.820  25.109  1.00  0.00     0.057 H 
ENDBRANCH  15  44
BRANCH  16  49
ATOM     49  O   UNL A   1      31.377  26.773  21.044  1.00  0.00    -0.392 OA
ATOM     50  H   UNL A   1      30.668  26.647  20.393  1.00  0.00     0.210 HD
ENDBRANCH  16  49
BRANCH  28  51
ATOM     51  C   UNL A   1      31.154  22.925  26.333  1.00  0.00    -0.059 C 
ATOM     52  H   UNL A   1      31.627  22.822  27.287  1.00  0.00     0.024 H 
ATOM     53  H   UNL A   1      30.462  22.122  26.190  1.00  0.00     0.024 H 
ATOM     54  H   UNL A   1      30.631  23.858  26.293  1.00  0.00     0.024 H 
ENDBRANCH  28  51
BRANCH  33  55
ATOM     55  C   UNL A   1      33.723  21.238  26.662  1.00  0.00    -0.059 C 
ATOM     56  H   UNL A   1      33.743  20.384  26.016  1.00  0.00     0.024 H 
ATOM     57  H   UNL A   1      32.856  21.192  27.287  1.00  0.00     0.024 H 
ATOM     58  H   UNL A   1      34.603  21.243  27.272  1.00  0.00     0.024 H 
ENDBRANCH  33  55
BRANCH  37  59
ATOM     59  C   UNL A   1      35.913  21.725  24.300  1.00  0.00    -0.041 C 
ATOM     60  H   UNL A   1      35.898  21.458  23.264  1.00  0.00     0.030 H 
BRANCH  59  61
ATOM     61  C   UNL A   1      36.993  22.807  24.511  1.00  0.00    -0.047 C 
ATOM     62  H   UNL A   1      36.511  23.763  24.506  1.00  0.00     0.027 H 
ATOM     63  H   UNL A   1      37.700  22.686  23.717  1.00  0.00     0.027 H 
BRANCH  61  64
ATOM     64  C   UNL A   1      37.786  22.681  25.816  1.00  0.00    -0.035 C 
ATOM     65  H   UNL A   1      38.707  22.176  25.612  1.00  0.00     0.031 H 
ATOM     66  H   UNL A   1      37.188  22.133  26.513  1.00  0.00     0.031 H 
BRANCH  64  67
ATOM     67  C   UNL A   1      38.095  24.030  26.428  1.00  0.00    -0.086 C 
ATOM     68  C   UNL A   1      39.197  24.352  27.137  1.00  0.00    -0.080 C 
ATOM     69  H   UNL A   1      37.395  24.774  26.291  1.00  0.00     0.058 H 
BRANCH  68  70
ATOM     70  C   UNL A   1      39.419  25.746  27.660  1.00  0.00    -0.044 C 
ATOM     71  H   UNL A   1      38.653  26.393  27.286  1.00  0.00     0.028 H 
ATOM     72  H   UNL A   1      40.375  26.100  27.334  1.00  0.00     0.028 H 
ATOM     73  H   UNL A   1      39.387  25.736  28.729  1.00  0.00     0.028 H 
ENDBRANCH  68  70
BRANCH  68  74
ATOM     74  C   UNL A   1      40.285  23.369  27.474  1.00  0.00    -0.044 C 
ATOM     75  H   UNL A   1      39.846  22.458  27.823  1.00  0.00     0.028 H 
ATOM     76  H   UNL A   1      40.911  23.777  28.240  1.00  0.00     0.028 H 
ATOM     77  H   UNL A   1      40.871  23.172  26.601  1.00  0.00     0.028 H 
ENDBRANCH  68  74
ENDBRANCH  64  67
ENDBRANCH  61  64
ENDBRANCH  59  61
BRANCH  59  78
ATOM     78  C   UNL A   1      36.289  20.410  24.988  1.00  0.00    -0.062 C 
ATOM     79  H   UNL A   1      35.650  19.627  24.635  1.00  0.00     0.023 H 
ATOM     80  H   UNL A   1      36.173  20.515  26.047  1.00  0.00     0.023 H 
ATOM     81  H   UNL A   1      37.307  20.168  24.764  1.00  0.00     0.023 H 
ENDBRANCH  59  78
ENDBRANCH  37  59
ENDBRANCH  11  14
ENDBRANCH   8  11
ENDBRANCH   5   8
ENDBRANCH   1   4
BRANCH   1  82
ATOM     82  C   UNL A   1      37.133  32.374  28.808  1.00  0.00    -0.036 C 
ATOM     83  H   UNL A   1      37.428  32.970  27.970  1.00  0.00     0.028 H 
ATOM     84  H   UNL A   1      37.575  31.606  29.407  1.00  0.00     0.028 H 
BRANCH  82  85
ATOM     85  C   UNL A   1      37.190  33.539  30.102  1.00  0.00    -0.052 C 
ATOM     86  H   UNL A   1      37.044  34.485  29.624  1.00  0.00     0.027 H 
ATOM     87  H   UNL A   1      38.107  33.232  30.561  1.00  0.00     0.027 H 
BRANCH  85  88
ATOM     88  C   UNL A   1      36.294  33.590  31.361  1.00  0.00    -0.052 C 
ATOM     89  H   UNL A   1      35.360  34.039  31.093  1.00  0.00     0.027 H 
ATOM     90  H   UNL A   1      36.825  34.157  32.098  1.00  0.00     0.027 H 
BRANCH  88  91
ATOM     91  C   UNL A   1      36.013  32.222  31.972  1.00  0.00    -0.036 C 
ATOM     92  H   UNL A   1      36.078  31.480  31.206  1.00  0.00     0.028 H 
ATOM     93  H   UNL A   1      35.033  32.241  32.401  1.00  0.00     0.028 H 
BRANCH  91  94
ATOM     94  C   UNL A   1      37.006  31.890  33.067  1.00  0.00     0.018 C 
ATOM     95  H   UNL A   1      36.772  32.458  33.943  1.00  0.00     0.049 H 
ATOM     96  H   UNL A   1      37.994  32.133  32.732  1.00  0.00     0.049 H 
BRANCH  94  97
ATOM     97  N   UNL A   1      36.939  30.468  33.378  1.00  0.00    -0.352 N 
ATOM     98  C   UNL A   1      37.747  29.485  32.875  1.00  0.00     0.251 C 
ATOM     99  H   UNL A   1      36.243  30.187  34.014  1.00  0.00     0.163 HD
ATOM    100  O   UNL A   1      37.459  28.304  32.941  1.00  0.00    -0.269 OA
BRANCH  98 101
ATOM    101  C   UNL A   1      38.994  29.941  32.251  1.00  0.00     0.039 A 
ATOM    102  C   UNL A   1      39.131  29.889  30.866  1.00  0.00    -0.049 A 
ATOM    103  C   UNL A   1      39.955  30.549  33.068  1.00  0.00    -0.049 A 
ATOM    104  C   UNL A   1      40.255  30.465  30.288  1.00  0.00    -0.053 A 
ATOM    105  H   UNL A   1      38.412  29.433  30.284  1.00  0.00     0.063 H 
ATOM    106  C   UNL A   1      41.022  31.198  32.481  1.00  0.00    -0.053 A 
ATOM    107  H   UNL A   1      39.866  30.512  34.095  1.00  0.00     0.063 H 
ATOM    108  C   UNL A   1      41.197  31.131  31.092  1.00  0.00    -0.014 A 
ATOM    109  H   UNL A   1      40.399  30.403  29.268  1.00  0.00     0.063 H 
ATOM    110  H   UNL A   1      41.689  31.731  33.062  1.00  0.00     0.063 H 
BRANCH 108 111
ATOM    111  C   UNL A   1      42.422  31.711  30.508  1.00  0.00     0.031 A 
ATOM    112  C   UNL A   1      43.678  30.888  30.500  1.00  0.00     0.074 A 
ATOM    113  C   UNL A   1      42.410  32.977  30.055  1.00  0.00     0.049 A 
ATOM    114  N   UNL A   1      44.881  31.219  30.113  1.00  0.00    -0.248 NA
ATOM    115  C   UNL A   1      43.578  29.519  31.037  1.00  0.00    -0.034 C 
ATOM    116  C   UNL A   1      41.252  33.873  30.076  1.00  0.00    -0.036 A 
ATOM    117  N   UNL A   1      43.408  33.733  29.501  1.00  0.00    -0.354 N 
ATOM    118  C   UNL A   1      45.676  30.112  30.378  1.00  0.00     0.074 A 
ATOM    119  C   UNL A   1      44.841  29.125  31.019  1.00  0.00    -0.034 C 
ATOM    120  H   UNL A   1      42.740  29.002  31.348  1.00  0.00     0.065 H 
ATOM    121  C   UNL A   1      41.602  35.052  29.535  1.00  0.00    -0.036 A 
ATOM    122  H   UNL A   1      40.319  33.637  30.446  1.00  0.00     0.065 H 
ATOM    123  C   UNL A   1      43.013  35.006  29.169  1.00  0.00     0.049 A 
ATOM    124  H   UNL A   1      44.322  33.397  29.354  1.00  0.00     0.167 HD
ATOM    125  C   UNL A   1      46.982  29.930  30.082  1.00  0.00     0.037 A 
ATOM    126  H   UNL A   1      45.183  28.233  31.410  1.00  0.00     0.065 H 
ATOM    127  H   UNL A   1      40.973  35.860  29.401  1.00  0.00     0.065 H 
ATOM    128  C   UNL A   1      43.724  36.017  28.638  1.00  0.00     0.037 A 
ATOM    129  C   UNL A   1      47.787  30.911  29.407  1.00  0.00     0.049 A 
ATOM    130  C   UNL A   1      45.175  35.781  28.310  1.00  0.00     0.074 A 
ATOM    131  C   UNL A   1      49.099  30.808  28.985  1.00  0.00    -0.036 A 
ATOM    132  N   UNL A   1      47.348  32.180  29.057  1.00  0.00    -0.354 N 
ATOM    133  N   UNL A   1      45.900  34.702  28.485  1.00  0.00    -0.248 NA
ATOM    134  C   UNL A   1      45.905  36.901  27.703  1.00  0.00    -0.034 C 
ATOM    135  C   UNL A   1      49.473  32.036  28.432  1.00  0.00    -0.036 A 
ATOM    136  H   UNL A   1      49.697  29.971  29.064  1.00  0.00     0.065 H 
ATOM    137  C   UNL A   1      48.375  32.883  28.451  1.00  0.00     0.049 A 
ATOM    138  H   UNL A   1      46.441  32.530  29.216  1.00  0.00     0.167 HD
ATOM    139  C   UNL A   1      47.160  35.002  27.988  1.00  0.00     0.074 A 
ATOM    140  C   UNL A   1      47.095  36.358  27.484  1.00  0.00    -0.034 C 
ATOM    141  H   UNL A   1      45.579  37.859  27.501  1.00  0.00     0.065 H 
ATOM    142  H   UNL A   1      50.410  32.273  28.070  1.00  0.00     0.065 H 
ATOM    143  C   UNL A   1      48.276  34.232  27.955  1.00  0.00     0.037 A 
ATOM    144  H   UNL A   1      47.875  36.841  27.012  1.00  0.00     0.065 H 
BRANCH 125 145
ATOM    145  C   UNL A   1      47.617  28.629  30.478  1.00  0.00     0.064 A 
ATOM    146  C   UNL A   1      48.264  28.468  31.713  1.00  0.00     0.173 A 
ATOM    147  C   UNL A   1      47.539  27.517  29.628  1.00  0.00     0.173 A 
ATOM    148  F   UNL A   1      48.383  29.505  32.555  1.00  0.00    -0.203 F 
ATOM    149  C   UNL A   1      48.830  27.247  32.071  1.00  0.00     0.198 A 
ATOM    150  C   UNL A   1      48.077  26.289  30.004  1.00  0.00     0.198 A 
ATOM    151  F   UNL A   1      46.933  27.617  28.435  1.00  0.00    -0.203 F 
ATOM    152  F   UNL A   1      49.486  27.129  33.234  1.00  0.00    -0.200 F 
ATOM    153  C   UNL A   1      48.727  26.156  31.221  1.00  0.00     0.200 A 
ATOM    154  F   UNL A   1      47.966  25.232  29.185  1.00  0.00    -0.200 F 
ATOM    155  F   UNL A   1      49.259  24.978  31.574  1.00  0.00    -0.200 F 
ENDBRANCH 125 145
BRANCH 128 156
ATOM    156  C   UNL A   1      43.079  37.330  28.377  1.00  0.00     0.064 A 
ATOM    157  C   UNL A   1      43.155  38.373  29.310  1.00  0.00     0.173 A 
ATOM    158  C   UNL A   1      42.358  37.566  27.196  1.00  0.00     0.173 A 
ATOM    159  F   UNL A   1      43.820  38.195  30.461  1.00  0.00    -0.203 F 
ATOM    160  C   UNL A   1      42.508  39.588  29.089  1.00  0.00     0.198 A 
ATOM    161  C   UNL A   1      41.740  38.793  26.961  1.00  0.00     0.198 A 
ATOM    162  F   UNL A   1      42.263  36.607  26.263  1.00  0.00    -0.203 F 
ATOM    163  F   UNL A   1      42.547  40.546  30.025  1.00  0.00    -0.200 F 
ATOM    164  C   UNL A   1      41.804  39.799  27.913  1.00  0.00     0.200 A 
ATOM    165  F   UNL A   1      41.078  38.998  25.814  1.00  0.00    -0.200 F 
ATOM    166  F   UNL A   1      41.181  40.965  27.701  1.00  0.00    -0.200 F 
ENDBRANCH 128 156
BRANCH 143 167
ATOM    167  C   UNL A   1      49.501  34.827  27.326  1.00  0.00     0.064 A 
ATOM    168  C   UNL A   1      49.635  34.932  25.934  1.00  0.00     0.173 A 
ATOM    169  C   UNL A   1      50.530  35.342  28.128  1.00  0.00     0.173 A 
ATOM    170  F   UNL A   1      48.683  34.444  25.124  1.00  0.00    -0.203 F 
ATOM    171  C   UNL A   1      50.771  35.503  25.367  1.00  0.00     0.198 A 
ATOM    172  C   UNL A   1      51.648  35.945  27.559  1.00  0.00     0.198 A 
ATOM    173  F   UNL A   1      50.444  35.276  29.465  1.00  0.00    -0.203 F 
ATOM    174  F   UNL A   1      50.903  35.544  24.034  1.00  0.00    -0.200 F 
ATOM    175  C   UNL A   1      51.772  36.017  26.180  1.00  0.00     0.200 A 
ATOM    176  F   UNL A   1      52.604  36.458  28.345  1.00  0.00    -0.200 F 
ATOM    177  F   UNL A   1      52.859  36.575  25.633  1.00  0.00    -0.200 F 
ENDBRANCH 143 167
ENDBRANCH 108 111
ENDBRANCH  98 101
ENDBRANCH  94  97
ENDBRANCH  91  94
ENDBRANCH  88  91
ENDBRANCH  85  88
ENDBRANCH  82  85
ENDBRANCH   1  82
TORSDOF 26
ENDMDL
MODEL 9
REMARK VINA RESULT:     -11.8      1.098      6.924
REMARK SMILES C=C[C@@H]1[C@@H](O)C[C@H]2[C@]3(CC[C@]4(C)[C@@H]([C@H](C)CCC=C(C)C)CC[C@]24C)C[C@]13CCC(=O)NCCCCCCNC(=O)c1ccc(-c2c3nc(c(-c4c(F)c(F)c(F)c(F)c4F)c4ccc([nH]4)c(-c4c(F)c(F)c(F)c(F)c4F)c4nc(c(-c5c(F)c(F)c(F)c(F)c5F)c5ccc2[nH]5)C=C4)C=C3)cc1
REMARK SMILES IDX 33 1 32 4 30 5 31 6 29 8 28 11 27 14 3 15 4 16 6 18 8 20
REMARK SMILES IDX 26 21 7 22 9 25 24 28 10 30 11 33 23 34 13 37 22 38 2 44
REMARK SMILES IDX 1 45 5 49 25 51 12 55 14 59 16 61 17 64 18 67 19 68 20 70
REMARK SMILES IDX 21 74 15 78 34 82 35 85 36 88 37 91 38 94 39 97 40 98 41 100
REMARK SMILES IDX 42 101 43 102 104 103 44 104 103 106 45 108 46 111 47 112
REMARK SMILES IDX 97 113 48 114 102 115 96 116 98 117 49 118 101 119 95 121
REMARK SMILES IDX 94 123 50 125 82 128 62 129 81 130 63 131 66 132 80 133
REMARK SMILES IDX 99 134 64 135 65 137 79 139 100 140 67 143 51 145 52 146
REMARK SMILES IDX 60 147 53 148 54 149 58 150 61 151 55 152 56 153 59 154
REMARK SMILES IDX 57 155 83 156 84 157 92 158 85 159 86 160 90 161 93 162
REMARK SMILES IDX 87 163 88 164 91 165 89 166 68 167 69 168 77 169 70 170
REMARK SMILES IDX 71 171 75 172 78 173 72 174 73 175 76 176 74 177
REMARK H PARENT 33 2 33 3 32 7 29 9 29 10 28 12 28 13 3 17 4 19 6 23 6 24
REMARK H PARENT 26 26 26 27 7 29 9 31 9 32 10 35 10 36 23 39 23 40 13 41 22 42
REMARK H PARENT 22 43 1 46 1 47 2 48 5 50 25 52 25 53 25 54 12 56 12 57 12 58
REMARK H PARENT 14 60 16 62 16 63 17 65 17 66 18 69 20 71 20 72 20 73 21 75
REMARK H PARENT 21 76 21 77 15 79 15 80 15 81 34 83 34 84 35 86 35 87 36 89
REMARK H PARENT 36 90 37 92 37 93 38 95 38 96 39 99 43 105 104 107 44 109
REMARK H PARENT 103 110 102 120 96 122 98 124 101 126 95 127 63 136 66 138
REMARK H PARENT 99 141 64 142 100 144
REMARK Flexibility Score: inf
ROOT
ATOM      1  C   UNL A   1      34.870  30.089  28.218  1.00  0.00     0.017 C 
ATOM      2  H   UNL A   1      35.660  29.595  28.743  1.00  0.00     0.049 H 
ATOM      3  H   UNL A   1      33.808  29.959  28.255  1.00  0.00     0.049 H 
ENDROOT
BRANCH   1   4
ATOM      4  N   UNL A   1      35.022  29.563  26.805  1.00  0.00    -0.356 N 
ATOM      5  C   UNL A   1      34.195  28.728  26.116  1.00  0.00     0.220 C 
ATOM      6  O   UNL A   1      34.290  28.627  24.896  1.00  0.00    -0.275 OA
ATOM      7  H   UNL A   1      35.824  29.864  26.322  1.00  0.00     0.163 HD
BRANCH   5   8
ATOM      8  C   UNL A   1      33.180  27.965  26.920  1.00  0.00     0.027 C 
ATOM      9  H   UNL A   1      33.328  26.918  26.754  1.00  0.00     0.037 H 
ATOM     10  H   UNL A   1      33.317  28.223  27.949  1.00  0.00     0.037 H 
BRANCH   8  11
ATOM     11  C   UNL A   1      31.744  28.322  26.539  1.00  0.00    -0.038 C 
ATOM     12  H   UNL A   1      31.107  28.067  27.360  1.00  0.00     0.028 H 
ATOM     13  H   UNL A   1      31.736  29.369  26.317  1.00  0.00     0.028 H 
BRANCH  11  14
ATOM     14  C   UNL A   1      31.229  27.598  25.283  1.00  0.00    -0.014 C 
ATOM     15  C   UNL A   1      31.376  28.813  23.758  1.00  0.00     0.009 C 
ATOM     16  C   UNL A   1      32.338  28.135  22.151  1.00  0.00     0.061 C 
ATOM     17  H   UNL A   1      32.094  29.539  24.076  1.00  0.00     0.038 H 
ATOM     18  C   UNL A   1      32.677  26.183  22.008  1.00  0.00    -0.022 C 
ATOM     19  H   UNL A   1      31.611  28.346  21.394  1.00  0.00     0.061 H 
ATOM     20  C   UNL A   1      31.538  25.735  25.136  1.00  0.00    -0.019 C 
ATOM     21  C   UNL A   1      30.206  26.418  25.505  1.00  0.00    -0.040 C 
ATOM     22  C   UNL A   1      32.330  25.045  23.554  1.00  0.00    -0.027 C 
ATOM     23  H   UNL A   1      33.710  26.063  21.755  1.00  0.00     0.030 H 
ATOM     24  H   UNL A   1      31.966  25.852  21.281  1.00  0.00     0.030 H 
ATOM     25  C   UNL A   1      32.122  24.878  26.274  1.00  0.00    -0.046 C 
ATOM     26  H   UNL A   1      29.837  26.269  26.499  1.00  0.00     0.028 H 
ATOM     27  H   UNL A   1      29.245  26.283  25.055  1.00  0.00     0.028 H 
ATOM     28  C   UNL A   1      32.029  23.498  23.456  1.00  0.00    -0.023 C 
ATOM     29  H   UNL A   1      33.395  25.130  23.605  1.00  0.00     0.032 H 
ATOM     30  C   UNL A   1      31.921  23.378  26.026  1.00  0.00    -0.046 C 
ATOM     31  H   UNL A   1      31.638  25.145  27.190  1.00  0.00     0.027 H 
ATOM     32  H   UNL A   1      33.175  25.068  26.323  1.00  0.00     0.027 H 
ATOM     33  C   UNL A   1      32.611  22.760  24.764  1.00  0.00    -0.024 C 
ATOM     34  C   UNL A   1      32.915  22.911  22.362  1.00  0.00    -0.047 C 
ATOM     35  H   UNL A   1      30.869  23.206  25.934  1.00  0.00     0.027 H 
ATOM     36  H   UNL A   1      32.391  22.897  26.858  1.00  0.00     0.027 H 
ATOM     37  C   UNL A   1      34.162  22.969  24.542  1.00  0.00    -0.033 C 
ATOM     38  C   UNL A   1      34.326  22.883  22.984  1.00  0.00    -0.049 C 
ATOM     39  H   UNL A   1      32.595  21.924  22.104  1.00  0.00     0.027 H 
ATOM     40  H   UNL A   1      32.880  23.483  21.458  1.00  0.00     0.027 H 
ATOM     41  H   UNL A   1      34.368  23.889  25.050  1.00  0.00     0.031 H 
ATOM     42  H   UNL A   1      34.821  21.973  22.719  1.00  0.00     0.027 H 
ATOM     43  H   UNL A   1      34.910  23.703  22.623  1.00  0.00     0.027 H 
BRANCH  15  44
ATOM     44  C   UNL A   1      30.094  29.637  23.511  1.00  0.00    -0.085 C 
ATOM     45  C   UNL A   1      28.907  29.208  23.054  1.00  0.00    -0.103 C 
ATOM     46  H   UNL A   1      28.128  29.874  22.936  1.00  0.00     0.053 H 
ATOM     47  H   UNL A   1      28.774  28.211  22.822  1.00  0.00     0.053 H 
ATOM     48  H   UNL A   1      30.157  30.645  23.725  1.00  0.00     0.057 H 
ENDBRANCH  15  44
BRANCH  16  49
ATOM     49  O   UNL A   1      33.587  28.836  21.913  1.00  0.00    -0.392 OA
ATOM     50  H   UNL A   1      33.436  29.793  21.966  1.00  0.00     0.210 HD
ENDBRANCH  16  49
BRANCH  28  51
ATOM     51  C   UNL A   1      30.537  23.201  23.248  1.00  0.00    -0.059 C 
ATOM     52  H   UNL A   1      29.975  24.103  23.365  1.00  0.00     0.024 H 
ATOM     53  H   UNL A   1      30.212  22.482  23.970  1.00  0.00     0.024 H 
ATOM     54  H   UNL A   1      30.385  22.812  22.263  1.00  0.00     0.024 H 
ENDBRANCH  28  51
BRANCH  33  55
ATOM     55  C   UNL A   1      32.340  21.235  24.808  1.00  0.00    -0.059 C 
ATOM     56  H   UNL A   1      33.163  20.714  24.363  1.00  0.00     0.024 H 
ATOM     57  H   UNL A   1      31.444  21.016  24.267  1.00  0.00     0.024 H 
ATOM     58  H   UNL A   1      32.229  20.921  25.826  1.00  0.00     0.024 H 
ENDBRANCH  33  55
BRANCH  37  59
ATOM     59  C   UNL A   1      35.331  22.390  25.388  1.00  0.00    -0.041 C 
ATOM     60  H   UNL A   1      34.806  22.151  26.290  1.00  0.00     0.030 H 
BRANCH  59  61
ATOM     61  C   UNL A   1      35.932  21.091  24.813  1.00  0.00    -0.047 C 
ATOM     62  H   UNL A   1      36.984  21.097  25.010  1.00  0.00     0.027 H 
ATOM     63  H   UNL A   1      35.697  21.087  23.769  1.00  0.00     0.027 H 
BRANCH  61  64
ATOM     64  C   UNL A   1      35.348  19.798  25.391  1.00  0.00    -0.035 C 
ATOM     65  H   UNL A   1      34.387  20.013  25.812  1.00  0.00     0.031 H 
ATOM     66  H   UNL A   1      36.024  19.434  26.136  1.00  0.00     0.031 H 
BRANCH  64  67
ATOM     67  C   UNL A   1      35.190  18.723  24.339  1.00  0.00    -0.086 C 
ATOM     68  C   UNL A   1      34.204  17.804  24.277  1.00  0.00    -0.080 C 
ATOM     69  H   UNL A   1      35.907  18.688  23.599  1.00  0.00     0.058 H 
BRANCH  68  70
ATOM     70  C   UNL A   1      34.124  16.807  23.152  1.00  0.00    -0.044 C 
ATOM     71  H   UNL A   1      33.130  16.415  23.093  1.00  0.00     0.028 H 
ATOM     72  H   UNL A   1      34.812  16.008  23.335  1.00  0.00     0.028 H 
ATOM     73  H   UNL A   1      34.373  17.288  22.230  1.00  0.00     0.028 H 
ENDBRANCH  68  70
BRANCH  68  74
ATOM     74  C   UNL A   1      33.115  17.683  25.308  1.00  0.00    -0.044 C 
ATOM     75  H   UNL A   1      32.966  18.631  25.781  1.00  0.00     0.028 H 
ATOM     76  H   UNL A   1      33.399  16.960  26.044  1.00  0.00     0.028 H 
ATOM     77  H   UNL A   1      32.208  17.373  24.834  1.00  0.00     0.028 H 
ENDBRANCH  68  74
ENDBRANCH  64  67
ENDBRANCH  61  64
ENDBRANCH  59  61
BRANCH  59  78
ATOM     78  C   UNL A   1      36.420  23.353  25.870  1.00  0.00    -0.062 C 
ATOM     79  H   UNL A   1      36.534  24.146  25.162  1.00  0.00     0.023 H 
ATOM     80  H   UNL A   1      37.346  22.824  25.966  1.00  0.00     0.023 H 
ATOM     81  H   UNL A   1      36.142  23.759  26.821  1.00  0.00     0.023 H 
ENDBRANCH  59  78
ENDBRANCH  37  59
ENDBRANCH  11  14
ENDBRANCH   8  11
ENDBRANCH   5   8
ENDBRANCH   1   4
BRANCH   1  82
ATOM     82  C   UNL A   1      34.856  32.005  29.084  1.00  0.00    -0.036 C 
ATOM     83  H   UNL A   1      35.011  31.776  30.118  1.00  0.00     0.028 H 
ATOM     84  H   UNL A   1      34.038  32.333  28.478  1.00  0.00     0.028 H 
BRANCH  82  85
ATOM     85  C   UNL A   1      35.692  33.525  28.935  1.00  0.00    -0.052 C 
ATOM     86  H   UNL A   1      36.643  33.274  28.514  1.00  0.00     0.027 H 
ATOM     87  H   UNL A   1      35.553  33.890  29.931  1.00  0.00     0.027 H 
BRANCH  85  88
ATOM     88  C   UNL A   1      35.234  34.777  28.152  1.00  0.00    -0.052 C 
ATOM     89  H   UNL A   1      35.109  34.507  27.124  1.00  0.00     0.027 H 
ATOM     90  H   UNL A   1      35.988  35.524  28.291  1.00  0.00     0.027 H 
BRANCH  88  91
ATOM     91  C   UNL A   1      33.923  35.372  28.654  1.00  0.00    -0.036 C 
ATOM     92  H   UNL A   1      33.212  35.368  27.856  1.00  0.00     0.028 H 
ATOM     93  H   UNL A   1      34.114  36.370  28.990  1.00  0.00     0.028 H 
BRANCH  91  94
ATOM     94  C   UNL A   1      33.365  34.577  29.817  1.00  0.00     0.018 C 
ATOM     95  H   UNL A   1      34.167  34.100  30.339  1.00  0.00     0.049 H 
ATOM     96  H   UNL A   1      32.686  33.837  29.444  1.00  0.00     0.049 H 
BRANCH  94  97
ATOM     97  N   UNL A   1      32.655  35.467  30.726  1.00  0.00    -0.352 N 
ATOM     98  C   UNL A   1      32.803  35.529  32.086  1.00  0.00     0.251 C 
ATOM     99  H   UNL A   1      32.005  36.084  30.323  1.00  0.00     0.163 HD
ATOM    100  O   UNL A   1      31.987  36.072  32.808  1.00  0.00    -0.269 OA
BRANCH  98 101
ATOM    101  C   UNL A   1      34.016  34.903  32.625  1.00  0.00     0.039 A 
ATOM    102  C   UNL A   1      33.954  33.611  33.139  1.00  0.00    -0.049 A 
ATOM    103  C   UNL A   1      35.230  35.583  32.472  1.00  0.00    -0.049 A 
ATOM    104  C   UNL A   1      35.139  32.984  33.503  1.00  0.00    -0.053 A 
ATOM    105  H   UNL A   1      33.047  33.130  33.246  1.00  0.00     0.063 H 
ATOM    106  C   UNL A   1      36.410  34.922  32.750  1.00  0.00    -0.053 A 
ATOM    107  H   UNL A   1      35.243  36.565  32.156  1.00  0.00     0.063 H 
ATOM    108  C   UNL A   1      36.370  33.632  33.298  1.00  0.00    -0.014 A 
ATOM    109  H   UNL A   1      35.116  32.041  33.923  1.00  0.00     0.063 H 
ATOM    110  H   UNL A   1      37.317  35.374  32.554  1.00  0.00     0.063 H 
BRANCH 108 111
ATOM    111  C   UNL A   1      37.639  33.007  33.718  1.00  0.00     0.031 A 
ATOM    112  C   UNL A   1      38.288  32.006  32.805  1.00  0.00     0.074 A 
ATOM    113  C   UNL A   1      38.157  33.293  34.925  1.00  0.00     0.049 A 
ATOM    114  N   UNL A   1      39.356  31.279  33.000  1.00  0.00    -0.248 NA
ATOM    115  C   UNL A   1      37.623  31.757  31.513  1.00  0.00    -0.034 C 
ATOM    116  C   UNL A   1      37.566  34.209  35.904  1.00  0.00    -0.036 A 
ATOM    117  N   UNL A   1      39.290  32.832  35.539  1.00  0.00    -0.354 N 
ATOM    118  C   UNL A   1      39.476  30.481  31.871  1.00  0.00     0.074 A 
ATOM    119  C   UNL A   1      38.340  30.758  31.024  1.00  0.00    -0.034 C 
ATOM    120  H   UNL A   1      36.809  32.238  31.097  1.00  0.00     0.065 H 
ATOM    121  C   UNL A   1      38.358  34.259  36.988  1.00  0.00    -0.036 A 
ATOM    122  H   UNL A   1      36.685  34.730  35.781  1.00  0.00     0.065 H 
ATOM    123  C   UNL A   1      39.484  33.352  36.796  1.00  0.00     0.049 A 
ATOM    124  H   UNL A   1      39.908  32.191  35.121  1.00  0.00     0.167 HD
ATOM    125  C   UNL A   1      40.466  29.616  31.560  1.00  0.00     0.037 A 
ATOM    126  H   UNL A   1      38.117  30.247  30.155  1.00  0.00     0.065 H 
ATOM    127  H   UNL A   1      38.194  34.845  37.823  1.00  0.00     0.065 H 
ATOM    128  C   UNL A   1      40.461  33.108  37.688  1.00  0.00     0.037 A 
ATOM    129  C   UNL A   1      41.609  29.383  32.399  1.00  0.00     0.049 A 
ATOM    130  C   UNL A   1      41.556  32.145  37.308  1.00  0.00     0.074 A 
ATOM    131  C   UNL A   1      42.713  28.588  32.151  1.00  0.00    -0.036 A 
ATOM    132  N   UNL A   1      41.790  29.948  33.653  1.00  0.00    -0.354 N 
ATOM    133  N   UNL A   1      41.709  31.458  36.201  1.00  0.00    -0.248 NA
ATOM    134  C   UNL A   1      42.619  31.931  38.298  1.00  0.00    -0.034 C 
ATOM    135  C   UNL A   1      43.535  28.627  33.281  1.00  0.00    -0.036 A 
ATOM    136  H   UNL A   1      42.898  28.061  31.284  1.00  0.00     0.065 H 
ATOM    137  C   UNL A   1      42.976  29.495  34.207  1.00  0.00     0.049 A 
ATOM    138  H   UNL A   1      41.169  30.578  34.085  1.00  0.00     0.167 HD
ATOM    139  C   UNL A   1      42.894  30.752  36.350  1.00  0.00     0.074 A 
ATOM    140  C   UNL A   1      43.432  31.112  37.646  1.00  0.00    -0.034 C 
ATOM    141  H   UNL A   1      42.711  32.317  39.251  1.00  0.00     0.065 H 
ATOM    142  H   UNL A   1      44.411  28.098  33.406  1.00  0.00     0.065 H 
ATOM    143  C   UNL A   1      43.485  29.878  35.498  1.00  0.00     0.037 A 
ATOM    144  H   UNL A   1      44.335  30.774  38.015  1.00  0.00     0.065 H 
BRANCH 125 145
ATOM    145  C   UNL A   1      40.360  28.866  30.264  1.00  0.00     0.064 A 
ATOM    146  C   UNL A   1      39.659  27.654  30.165  1.00  0.00     0.173 A 
ATOM    147  C   UNL A   1      40.934  29.388  29.096  1.00  0.00     0.173 A 
ATOM    148  F   UNL A   1      39.107  27.101  31.256  1.00  0.00    -0.203 F 
ATOM    149  C   UNL A   1      39.556  26.983  28.949  1.00  0.00     0.198 A 
ATOM    150  C   UNL A   1      40.801  28.731  27.875  1.00  0.00     0.198 A 
ATOM    151  F   UNL A   1      41.618  30.542  29.134  1.00  0.00    -0.203 F 
ATOM    152  F   UNL A   1      38.922  25.804  28.889  1.00  0.00    -0.200 F 
ATOM    153  C   UNL A   1      40.118  27.527  27.804  1.00  0.00     0.200 A 
ATOM    154  F   UNL A   1      41.335  29.265  26.767  1.00  0.00    -0.200 F 
ATOM    155  F   UNL A   1      40.004  26.887  26.632  1.00  0.00    -0.200 F 
ENDBRANCH 125 145
BRANCH 128 156
ATOM    156  C   UNL A   1      40.455  33.785  39.011  1.00  0.00     0.064 A 
ATOM    157  C   UNL A   1      39.683  33.294  40.072  1.00  0.00     0.173 A 
ATOM    158  C   UNL A   1      41.208  34.947  39.238  1.00  0.00     0.173 A 
ATOM    159  F   UNL A   1      38.935  32.193  39.904  1.00  0.00    -0.203 F 
ATOM    160  C   UNL A   1      39.637  33.956  41.298  1.00  0.00     0.198 A 
ATOM    161  C   UNL A   1      41.187  35.590  40.475  1.00  0.00     0.198 A 
ATOM    162  F   UNL A   1      41.973  35.455  38.261  1.00  0.00    -0.203 F 
ATOM    163  F   UNL A   1      38.844  33.497  42.276  1.00  0.00    -0.200 F 
ATOM    164  C   UNL A   1      40.391  35.101  41.500  1.00  0.00     0.200 A 
ATOM    165  F   UNL A   1      41.934  36.685  40.670  1.00  0.00    -0.200 F 
ATOM    166  F   UNL A   1      40.346  35.739  42.677  1.00  0.00    -0.200 F 
ENDBRANCH 128 156
BRANCH 143 167
ATOM    167  C   UNL A   1      44.793  29.281  35.928  1.00  0.00     0.064 A 
ATOM    168  C   UNL A   1      46.016  29.906  35.645  1.00  0.00     0.173 A 
ATOM    169  C   UNL A   1      44.818  28.092  36.673  1.00  0.00     0.173 A 
ATOM    170  F   UNL A   1      46.045  31.037  34.924  1.00  0.00    -0.203 F 
ATOM    171  C   UNL A   1      47.219  29.346  36.066  1.00  0.00     0.198 A 
ATOM    172  C   UNL A   1      46.019  27.555  37.124  1.00  0.00     0.198 A 
ATOM    173  F   UNL A   1      43.674  27.461  36.980  1.00  0.00    -0.203 F 
ATOM    174  F   UNL A   1      48.378  29.932  35.737  1.00  0.00    -0.200 F 
ATOM    175  C   UNL A   1      47.219  28.177  36.813  1.00  0.00     0.200 A 
ATOM    176  F   UNL A   1      46.017  26.436  37.862  1.00  0.00    -0.200 F 
ATOM    177  F   UNL A   1      48.377  27.646  37.226  1.00  0.00    -0.200 F 
ENDBRANCH 143 167
ENDBRANCH 108 111
ENDBRANCH  98 101
ENDBRANCH  94  97
ENDBRANCH  91  94
ENDBRANCH  88  91
ENDBRANCH  85  88
ENDBRANCH  82  85
ENDBRANCH   1  82
TORSDOF 26
ENDMDL
MODEL 10
REMARK VINA RESULT:     -11.7      6.538     12.060
REMARK SMILES C=C[C@@H]1[C@@H](O)C[C@H]2[C@]3(CC[C@]4(C)[C@@H]([C@H](C)CCC=C(C)C)CC[C@]24C)C[C@]13CCC(=O)NCCCCCCNC(=O)c1ccc(-c2c3nc(c(-c4c(F)c(F)c(F)c(F)c4F)c4ccc([nH]4)c(-c4c(F)c(F)c(F)c(F)c4F)c4nc(c(-c5c(F)c(F)c(F)c(F)c5F)c5ccc2[nH]5)C=C4)C=C3)cc1
REMARK SMILES IDX 33 1 32 4 30 5 31 6 29 8 28 11 27 14 3 15 4 16 6 18 8 20
REMARK SMILES IDX 26 21 7 22 9 25 24 28 10 30 11 33 23 34 13 37 22 38 2 44
REMARK SMILES IDX 1 45 5 49 25 51 12 55 14 59 16 61 17 64 18 67 19 68 20 70
REMARK SMILES IDX 21 74 15 78 34 82 35 85 36 88 37 91 38 94 39 97 40 98 41 100
REMARK SMILES IDX 42 101 43 102 104 103 44 104 103 106 45 108 46 111 47 112
REMARK SMILES IDX 97 113 48 114 102 115 96 116 98 117 49 118 101 119 95 121
REMARK SMILES IDX 94 123 50 125 82 128 62 129 81 130 63 131 66 132 80 133
REMARK SMILES IDX 99 134 64 135 65 137 79 139 100 140 67 143 51 145 52 146
REMARK SMILES IDX 60 147 53 148 54 149 58 150 61 151 55 152 56 153 59 154
REMARK SMILES IDX 57 155 83 156 84 157 92 158 85 159 86 160 90 161 93 162
REMARK SMILES IDX 87 163 88 164 91 165 89 166 68 167 69 168 77 169 70 170
REMARK SMILES IDX 71 171 75 172 78 173 72 174 73 175 76 176 74 177
REMARK H PARENT 33 2 33 3 32 7 29 9 29 10 28 12 28 13 3 17 4 19 6 23 6 24
REMARK H PARENT 26 26 26 27 7 29 9 31 9 32 10 35 10 36 23 39 23 40 13 41 22 42
REMARK H PARENT 22 43 1 46 1 47 2 48 5 50 25 52 25 53 25 54 12 56 12 57 12 58
REMARK H PARENT 14 60 16 62 16 63 17 65 17 66 18 69 20 71 20 72 20 73 21 75
REMARK H PARENT 21 76 21 77 15 79 15 80 15 81 34 83 34 84 35 86 35 87 36 89
REMARK H PARENT 36 90 37 92 37 93 38 95 38 96 39 99 43 105 104 107 44 109
REMARK H PARENT 103 110 102 120 96 122 98 124 101 126 95 127 63 136 66 138
REMARK H PARENT 99 141 64 142 100 144
REMARK Flexibility Score: inf
ROOT
ATOM      1  C   UNL A   1      38.530  23.920  26.584  1.00  0.00     0.017 C 
ATOM      2  H   UNL A   1      37.785  24.365  27.209  1.00  0.00     0.049 H 
ATOM      3  H   UNL A   1      38.893  24.193  25.614  1.00  0.00     0.049 H 
ENDROOT
BRANCH   1   4
ATOM      4  N   UNL A   1      37.867  22.638  26.126  1.00  0.00    -0.356 N 
ATOM      5  C   UNL A   1      36.900  22.473  25.179  1.00  0.00     0.220 C 
ATOM      6  O   UNL A   1      36.674  21.360  24.710  1.00  0.00    -0.275 OA
ATOM      7  H   UNL A   1      38.173  21.816  26.571  1.00  0.00     0.163 HD
BRANCH   5   8
ATOM      8  C   UNL A   1      36.154  23.705  24.751  1.00  0.00     0.027 C 
ATOM      9  H   UNL A   1      35.507  24.009  25.548  1.00  0.00     0.037 H 
ATOM     10  H   UNL A   1      36.876  24.460  24.520  1.00  0.00     0.037 H 
BRANCH   8  11
ATOM     11  C   UNL A   1      35.310  23.471  23.499  1.00  0.00    -0.038 C 
ATOM     12  H   UNL A   1      35.643  24.147  22.740  1.00  0.00     0.028 H 
ATOM     13  H   UNL A   1      35.442  22.444  23.227  1.00  0.00     0.028 H 
BRANCH  11  14
ATOM     14  C   UNL A   1      33.801  23.684  23.710  1.00  0.00    -0.014 C 
ATOM     15  C   UNL A   1      33.063  22.098  24.585  1.00  0.00     0.009 C 
ATOM     16  C   UNL A   1      32.002  22.392  26.245  1.00  0.00     0.061 C 
ATOM     17  H   UNL A   1      33.917  21.627  25.026  1.00  0.00     0.038 H 
ATOM     18  C   UNL A   1      31.380  24.234  26.653  1.00  0.00    -0.022 C 
ATOM     19  H   UNL A   1      31.115  21.847  25.999  1.00  0.00     0.061 H 
ATOM     20  C   UNL A   1      33.191  25.436  24.091  1.00  0.00    -0.019 C 
ATOM     21  C   UNL A   1      33.079  24.698  22.742  1.00  0.00    -0.040 C 
ATOM     22  C   UNL A   1      32.064  25.721  25.593  1.00  0.00    -0.027 C 
ATOM     23  H   UNL A   1      31.635  24.431  27.673  1.00  0.00     0.030 H 
ATOM     24  H   UNL A   1      30.336  24.209  26.417  1.00  0.00     0.030 H 
ATOM     25  C   UNL A   1      34.094  26.681  24.035  1.00  0.00    -0.046 C 
ATOM     26  H   UNL A   1      33.648  25.085  21.923  1.00  0.00     0.028 H 
ATOM     27  H   UNL A   1      32.204  24.536  22.147  1.00  0.00     0.028 H 
ATOM     28  C   UNL A   1      31.307  27.097  25.418  1.00  0.00    -0.023 C 
ATOM     29  H   UNL A   1      32.650  25.826  26.482  1.00  0.00     0.032 H 
ATOM     30  C   UNL A   1      33.281  27.981  24.021  1.00  0.00    -0.046 C 
ATOM     31  H   UNL A   1      34.689  26.636  23.146  1.00  0.00     0.027 H 
ATOM     32  H   UNL A   1      34.708  26.684  24.912  1.00  0.00     0.027 H 
ATOM     33  C   UNL A   1      32.386  28.283  25.270  1.00  0.00    -0.024 C 
ATOM     34  C   UNL A   1      30.653  27.451  26.750  1.00  0.00    -0.047 C 
ATOM     35  H   UNL A   1      32.638  27.949  23.166  1.00  0.00     0.027 H 
ATOM     36  H   UNL A   1      34.012  28.762  24.013  1.00  0.00     0.027 H 
ATOM     37  C   UNL A   1      33.031  28.262  26.713  1.00  0.00    -0.033 C 
ATOM     38  C   UNL A   1      31.826  27.890  27.648  1.00  0.00    -0.049 C 
ATOM     39  H   UNL A   1      29.950  28.248  26.627  1.00  0.00     0.027 H 
ATOM     40  H   UNL A   1      30.105  26.631  27.166  1.00  0.00     0.027 H 
ATOM     41  H   UNL A   1      33.855  27.587  26.612  1.00  0.00     0.031 H 
ATOM     42  H   UNL A   1      31.540  28.741  28.229  1.00  0.00     0.027 H 
ATOM     43  H   UNL A   1      32.101  27.102  28.317  1.00  0.00     0.027 H 
BRANCH  15  44
ATOM     44  C   UNL A   1      32.529  21.047  23.589  1.00  0.00    -0.085 C 
ATOM     45  C   UNL A   1      32.528  19.710  23.715  1.00  0.00    -0.103 C 
ATOM     46  H   UNL A   1      32.135  19.121  22.964  1.00  0.00     0.053 H 
ATOM     47  H   UNL A   1      32.922  19.272  24.563  1.00  0.00     0.053 H 
ATOM     48  H   UNL A   1      32.120  21.417  22.716  1.00  0.00     0.057 H 
ENDBRANCH  15  44
BRANCH  16  49
ATOM     49  O   UNL A   1      32.657  21.857  27.426  1.00  0.00    -0.392 OA
ATOM     50  H   UNL A   1      33.596  22.102  27.415  1.00  0.00     0.210 HD
ENDBRANCH  16  49
BRANCH  28  51
ATOM     51  C   UNL A   1      30.315  27.076  24.246  1.00  0.00    -0.059 C 
ATOM     52  H   UNL A   1      30.177  26.069  23.913  1.00  0.00     0.024 H 
ATOM     53  H   UNL A   1      30.700  27.668  23.442  1.00  0.00     0.024 H 
ATOM     54  H   UNL A   1      29.376  27.478  24.566  1.00  0.00     0.024 H 
ENDBRANCH  28  51
BRANCH  33  55
ATOM     55  C   UNL A   1      31.766  29.685  25.048  1.00  0.00    -0.059 C 
ATOM     56  H   UNL A   1      31.287  29.715  24.091  1.00  0.00     0.024 H 
ATOM     57  H   UNL A   1      32.536  30.426  25.086  1.00  0.00     0.024 H 
ATOM     58  H   UNL A   1      31.044  29.881  25.814  1.00  0.00     0.024 H 
ENDBRANCH  33  55
BRANCH  37  59
ATOM     59  C   UNL A   1      34.077  29.249  27.302  1.00  0.00    -0.041 C 
ATOM     60  H   UNL A   1      33.983  29.020  28.344  1.00  0.00     0.030 H 
BRANCH  59  61
ATOM     61  C   UNL A   1      35.528  28.953  26.866  1.00  0.00    -0.047 C 
ATOM     62  H   UNL A   1      35.616  29.189  25.826  1.00  0.00     0.027 H 
ATOM     63  H   UNL A   1      35.701  27.919  27.082  1.00  0.00     0.027 H 
BRANCH  61  64
ATOM     64  C   UNL A   1      36.602  29.738  27.625  1.00  0.00    -0.035 C 
ATOM     65  H   UNL A   1      36.126  30.503  28.203  1.00  0.00     0.031 H 
ATOM     66  H   UNL A   1      37.274  30.157  26.906  1.00  0.00     0.031 H 
BRANCH  64  67
ATOM     67  C   UNL A   1      37.405  28.855  28.554  1.00  0.00    -0.086 C 
ATOM     68  C   UNL A   1      38.705  28.521  28.416  1.00  0.00    -0.080 C 
ATOM     69  H   UNL A   1      36.910  28.469  29.373  1.00  0.00     0.058 H 
BRANCH  68  70
ATOM     70  C   UNL A   1      39.413  27.668  29.434  1.00  0.00    -0.044 C 
ATOM     71  H   UNL A   1      40.468  27.844  29.375  1.00  0.00     0.028 H 
ATOM     72  H   UNL A   1      39.214  26.635  29.235  1.00  0.00     0.028 H 
ATOM     73  H   UNL A   1      39.064  27.916  30.413  1.00  0.00     0.028 H 
ENDBRANCH  68  70
BRANCH  68  74
ATOM     74  C   UNL A   1      39.553  28.953  27.251  1.00  0.00    -0.044 C 
ATOM     75  H   UNL A   1      39.448  28.248  26.453  1.00  0.00     0.028 H 
ATOM     76  H   UNL A   1      40.579  28.996  27.553  1.00  0.00     0.028 H 
ATOM     77  H   UNL A   1      39.237  29.919  26.919  1.00  0.00     0.028 H 
ENDBRANCH  68  74
ENDBRANCH  64  67
ENDBRANCH  61  64
ENDBRANCH  59  61
BRANCH  59  78
ATOM     78  C   UNL A   1      33.766  30.747  27.251  1.00  0.00    -0.062 C 
ATOM     79  H   UNL A   1      33.218  31.028  28.126  1.00  0.00     0.023 H 
ATOM     80  H   UNL A   1      33.181  30.960  26.380  1.00  0.00     0.023 H 
ATOM     81  H   UNL A   1      34.681  31.301  27.210  1.00  0.00     0.023 H 
ENDBRANCH  59  78
ENDBRANCH  37  59
ENDBRANCH  11  14
ENDBRANCH   8  11
ENDBRANCH   5   8
ENDBRANCH   1   4
BRANCH   1  82
ATOM     82  C   UNL A   1      40.320  24.377  27.590  1.00  0.00    -0.036 C 
ATOM     83  H   UNL A   1      39.980  24.477  28.600  1.00  0.00     0.028 H 
ATOM     84  H   UNL A   1      40.651  25.035  26.816  1.00  0.00     0.028 H 
BRANCH  82  85
ATOM     85  C   UNL A   1      41.910  23.704  27.821  1.00  0.00    -0.052 C 
ATOM     86  H   UNL A   1      42.434  24.437  28.399  1.00  0.00     0.027 H 
ATOM     87  H   UNL A   1      42.138  23.464  26.804  1.00  0.00     0.027 H 
BRANCH  85  88
ATOM     88  C   UNL A   1      42.272  22.352  28.477  1.00  0.00    -0.052 C 
ATOM     89  H   UNL A   1      41.862  22.334  29.465  1.00  0.00     0.027 H 
ATOM     90  H   UNL A   1      43.340  22.281  28.474  1.00  0.00     0.027 H 
BRANCH  88  91
ATOM     91  C   UNL A   1      41.746  21.139  27.717  1.00  0.00    -0.036 C 
ATOM     92  H   UNL A   1      40.745  20.939  28.034  1.00  0.00     0.028 H 
ATOM     93  H   UNL A   1      42.386  20.308  27.927  1.00  0.00     0.028 H 
BRANCH  91  94
ATOM     94  C   UNL A   1      41.751  21.379  26.221  1.00  0.00     0.018 C 
ATOM     95  H   UNL A   1      42.070  22.380  26.023  1.00  0.00     0.049 H 
ATOM     96  H   UNL A   1      40.762  21.232  25.838  1.00  0.00     0.049 H 
BRANCH  94  97
ATOM     97  N   UNL A   1      42.663  20.443  25.575  1.00  0.00    -0.352 N 
ATOM     98  C   UNL A   1      43.845  20.751  24.960  1.00  0.00     0.251 C 
ATOM     99  H   UNL A   1      42.401  19.495  25.583  1.00  0.00     0.163 HD
ATOM    100  O   UNL A   1      44.404  19.985  24.196  1.00  0.00    -0.269 OA
BRANCH  98 101
ATOM    101  C   UNL A   1      44.408  22.068  25.281  1.00  0.00     0.039 A 
ATOM    102  C   UNL A   1      43.961  23.194  24.594  1.00  0.00    -0.049 A 
ATOM    103  C   UNL A   1      45.279  22.163  26.372  1.00  0.00    -0.049 A 
ATOM    104  C   UNL A   1      44.394  24.444  25.017  1.00  0.00    -0.053 A 
ATOM    105  H   UNL A   1      43.322  23.100  23.790  1.00  0.00     0.063 H 
ATOM    106  C   UNL A   1      45.633  23.411  26.844  1.00  0.00    -0.053 A 
ATOM    107  H   UNL A   1      45.651  21.310  26.819  1.00  0.00     0.063 H 
ATOM    108  C   UNL A   1      45.220  24.557  26.149  1.00  0.00    -0.014 A 
ATOM    109  H   UNL A   1      44.109  25.291  24.500  1.00  0.00     0.063 H 
ATOM    110  H   UNL A   1      46.198  23.500  27.703  1.00  0.00     0.063 H 
BRANCH 108 111
ATOM    111  C   UNL A   1      45.731  25.869  26.592  1.00  0.00     0.031 A 
ATOM    112  C   UNL A   1      47.111  26.287  26.170  1.00  0.00     0.074 A 
ATOM    113  C   UNL A   1      44.986  26.634  27.410  1.00  0.00     0.049 A 
ATOM    114  N   UNL A   1      47.789  27.353  26.502  1.00  0.00    -0.248 NA
ATOM    115  C   UNL A   1      47.843  25.362  25.286  1.00  0.00    -0.034 C 
ATOM    116  C   UNL A   1      43.658  26.284  27.919  1.00  0.00    -0.036 A 
ATOM    117  N   UNL A   1      45.246  27.857  27.965  1.00  0.00    -0.354 N 
ATOM    118  C   UNL A   1      49.026  27.214  25.887  1.00  0.00     0.074 A 
ATOM    119  C   UNL A   1      49.034  25.935  25.218  1.00  0.00    -0.034 C 
ATOM    120  H   UNL A   1      47.513  24.492  24.838  1.00  0.00     0.065 H 
ATOM    121  C   UNL A   1      43.211  27.285  28.696  1.00  0.00    -0.036 A 
ATOM    122  H   UNL A   1      43.149  25.411  27.715  1.00  0.00     0.065 H 
ATOM    123  C   UNL A   1      44.234  28.322  28.769  1.00  0.00     0.049 A 
ATOM    124  H   UNL A   1      46.079  28.358  27.804  1.00  0.00     0.167 HD
ATOM    125  C   UNL A   1      50.051  28.095  25.861  1.00  0.00     0.037 A 
ATOM    126  H   UNL A   1      49.856  25.523  24.750  1.00  0.00     0.065 H 
ATOM    127  H   UNL A   1      42.292  27.314  29.165  1.00  0.00     0.065 H 
ATOM    128  C   UNL A   1      44.157  29.456  29.488  1.00  0.00     0.037 A 
ATOM    129  C   UNL A   1      50.008  29.381  26.501  1.00  0.00     0.049 A 
ATOM    130  C   UNL A   1      45.311  30.423  29.432  1.00  0.00     0.074 A 
ATOM    131  C   UNL A   1      50.955  30.388  26.477  1.00  0.00    -0.036 A 
ATOM    132  N   UNL A   1      48.955  29.834  27.283  1.00  0.00    -0.354 N 
ATOM    133  N   UNL A   1      46.444  30.324  28.778  1.00  0.00    -0.248 NA
ATOM    134  C   UNL A   1      45.173  31.662  30.207  1.00  0.00    -0.034 C 
ATOM    135  C   UNL A   1      50.501  31.427  27.293  1.00  0.00    -0.036 A 
ATOM    136  H   UNL A   1      51.841  30.374  25.948  1.00  0.00     0.065 H 
ATOM    137  C   UNL A   1      49.243  31.096  27.775  1.00  0.00     0.049 A 
ATOM    138  H   UNL A   1      48.127  29.332  27.463  1.00  0.00     0.167 HD
ATOM    139  C   UNL A   1      47.141  31.495  29.040  1.00  0.00     0.074 A 
ATOM    140  C   UNL A   1      46.293  32.300  29.895  1.00  0.00    -0.034 C 
ATOM    141  H   UNL A   1      44.406  31.960  30.830  1.00  0.00     0.065 H 
ATOM    142  H   UNL A   1      51.015  32.296  27.503  1.00  0.00     0.065 H 
ATOM    143  C   UNL A   1      48.373  31.873  28.619  1.00  0.00     0.037 A 
ATOM    144  H   UNL A   1      46.530  33.250  30.220  1.00  0.00     0.065 H 
BRANCH 125 145
ATOM    145  C   UNL A   1      51.294  27.702  25.117  1.00  0.00     0.064 A 
ATOM    146  C   UNL A   1      51.402  27.849  23.726  1.00  0.00     0.173 A 
ATOM    147  C   UNL A   1      52.407  27.209  25.813  1.00  0.00     0.173 A 
ATOM    148  F   UNL A   1      50.359  28.299  23.011  1.00  0.00    -0.203 F 
ATOM    149  C   UNL A   1      52.571  27.497  23.057  1.00  0.00     0.198 A 
ATOM    150  C   UNL A   1      53.586  26.889  25.144  1.00  0.00     0.198 A 
ATOM    151  F   UNL A   1      52.358  27.046  27.144  1.00  0.00    -0.203 F 
ATOM    152  F   UNL A   1      52.634  27.601  21.722  1.00  0.00    -0.200 F 
ATOM    153  C   UNL A   1      53.665  27.027  23.767  1.00  0.00     0.200 A 
ATOM    154  F   UNL A   1      54.647  26.446  25.835  1.00  0.00    -0.200 F 
ATOM    155  F   UNL A   1      54.795  26.703  23.123  1.00  0.00    -0.200 F 
ENDBRANCH 125 145
BRANCH 128 156
ATOM    156  C   UNL A   1      42.951  29.743  30.309  1.00  0.00     0.064 A 
ATOM    157  C   UNL A   1      41.867  30.455  29.779  1.00  0.00     0.173 A 
ATOM    158  C   UNL A   1      42.865  29.327  31.647  1.00  0.00     0.173 A 
ATOM    159  F   UNL A   1      41.905  30.887  28.510  1.00  0.00    -0.203 F 
ATOM    160  C   UNL A   1      40.757  30.769  30.562  1.00  0.00     0.198 A 
ATOM    161  C   UNL A   1      41.740  29.613  32.419  1.00  0.00     0.198 A 
ATOM    162  F   UNL A   1      43.869  28.634  32.202  1.00  0.00    -0.203 F 
ATOM    163  F   UNL A   1      39.761  31.501  30.046  1.00  0.00    -0.200 F 
ATOM    164  C   UNL A   1      40.693  30.345  31.881  1.00  0.00     0.200 A 
ATOM    165  F   UNL A   1      41.675  29.183  33.687  1.00  0.00    -0.200 F 
ATOM    166  F   UNL A   1      39.628  30.647  32.634  1.00  0.00    -0.200 F 
ENDBRANCH 128 156
BRANCH 143 167
ATOM    167  C   UNL A   1      48.860  33.225  29.052  1.00  0.00     0.064 A 
ATOM    168  C   UNL A   1      48.618  34.373  28.284  1.00  0.00     0.173 A 
ATOM    169  C   UNL A   1      49.534  33.378  30.272  1.00  0.00     0.173 A 
ATOM    170  F   UNL A   1      47.988  34.276  27.103  1.00  0.00    -0.203 F 
ATOM    171  C   UNL A   1      49.062  35.622  28.708  1.00  0.00     0.198 A 
ATOM    172  C   UNL A   1      49.944  34.633  30.711  1.00  0.00     0.198 A 
ATOM    173  F   UNL A   1      49.780  32.312  31.049  1.00  0.00    -0.203 F 
ATOM    174  F   UNL A   1      48.868  36.698  27.933  1.00  0.00    -0.200 F 
ATOM    175  C   UNL A   1      49.716  35.752  29.925  1.00  0.00     0.200 A 
ATOM    176  F   UNL A   1      50.558  34.760  31.895  1.00  0.00    -0.200 F 
ATOM    177  F   UNL A   1      50.133  36.957  30.336  1.00  0.00    -0.200 F 
ENDBRANCH 143 167
ENDBRANCH 108 111
ENDBRANCH  98 101
ENDBRANCH  94  97
ENDBRANCH  91  94
ENDBRANCH  88  91
ENDBRANCH  85  88
ENDBRANCH  82  85
ENDBRANCH   1  82
TORSDOF 26
ENDMDL
