MODEL 1
REMARK VINA RESULT:     -12.7      0.000      0.000
REMARK SMILES C[C@H](C(=O)NCCCCCCNC(=O)c1ccc(-c2c3nc(c(-c4c(F)c(F)c(F)c(F)c4F)c4ccc([nH]4)c(-c4c(F)c(F)c(F)c(F)c4F)c4nc(c(-c5c(F)c(F)c(F)c(F)c5F)c5ccc2[nH]5)C=C4)C=C3)cc1)c1ccc2c(c1)[nH]c1ccc(Cl)cc12
REMARK SMILES IDX 9 1 8 4 7 7 6 10 5 13 3 14 4 15 2 17 1 19 78 23 79 24 83 25
REMARK SMILES IDX 80 26 82 28 81 30 84 32 91 33 85 34 90 36 86 37 88 38 87 40
REMARK SMILES IDX 89 42 10 44 11 47 12 50 13 51 14 53 15 54 16 55 77 56 17 57
REMARK SMILES IDX 76 59 18 61 19 64 20 65 70 66 21 67 75 68 69 69 71 70 22 71
REMARK SMILES IDX 74 72 68 74 67 76 23 78 55 81 35 82 54 83 36 84 39 85 53 86
REMARK SMILES IDX 72 87 37 88 38 90 52 92 73 93 40 96 24 98 25 99 33 100
REMARK SMILES IDX 26 101 27 102 31 103 34 104 28 105 29 106 32 107 30 108
REMARK SMILES IDX 56 109 57 110 65 111 58 112 59 113 63 114 66 115 60 116
REMARK SMILES IDX 61 117 64 118 62 119 41 120 42 121 50 122 43 123 44 124
REMARK SMILES IDX 48 125 51 126 45 127 46 128 49 129 47 130
REMARK H PARENT 9 2 9 3 8 5 8 6 7 8 7 9 6 11 6 12 5 16 2 18 1 20 1 21 1 22
REMARK H PARENT 79 27 83 29 80 31 84 35 90 39 86 41 87 43 10 45 10 46 11 48
REMARK H PARENT 11 49 12 52 16 58 77 60 17 62 76 63 75 73 69 75 71 77 74 79
REMARK H PARENT 68 80 36 89 39 91 72 94 37 95 73 97
REMARK Flexibility Score: inf
ROOT
ATOM      1  C   UNL A   1      33.994  26.590  25.256  1.00  0.00    -0.052 C 
ATOM      2  H   UNL A   1      34.014  26.264  24.236  1.00  0.00     0.027 H 
ATOM      3  H   UNL A   1      34.923  26.972  25.627  1.00  0.00     0.027 H 
ENDROOT
BRANCH   1   4
ATOM      4  C   UNL A   1      33.694  25.367  26.125  1.00  0.00    -0.052 C 
ATOM      5  H   UNL A   1      33.670  25.696  27.143  1.00  0.00     0.027 H 
ATOM      6  H   UNL A   1      32.770  24.984  25.744  1.00  0.00     0.027 H 
BRANCH   4   7
ATOM      7  C   UNL A   1      34.663  24.185  26.048  1.00  0.00    -0.036 C 
ATOM      8  H   UNL A   1      34.760  23.918  25.017  1.00  0.00     0.028 H 
ATOM      9  H   UNL A   1      35.556  24.536  26.520  1.00  0.00     0.028 H 
BRANCH   7  10
ATOM     10  C   UNL A   1      34.297  22.917  26.813  1.00  0.00     0.017 C 
ATOM     11  H   UNL A   1      34.520  23.078  27.847  1.00  0.00     0.049 H 
ATOM     12  H   UNL A   1      33.258  22.742  26.624  1.00  0.00     0.049 H 
BRANCH  10  13
ATOM     13  N   UNL A   1      34.992  21.728  26.385  1.00  0.00    -0.356 N 
ATOM     14  C   UNL A   1      34.882  21.010  25.237  1.00  0.00     0.227 C 
ATOM     15  O   UNL A   1      35.846  20.265  25.001  1.00  0.00    -0.274 OA
ATOM     16  H   UNL A   1      35.652  21.380  27.028  1.00  0.00     0.163 HD
BRANCH  14  17
ATOM     17  C   UNL A   1      33.658  20.949  24.301  1.00  0.00     0.060 C 
ATOM     18  H   UNL A   1      34.021  20.615  23.352  1.00  0.00     0.045 H 
BRANCH  17  19
ATOM     19  C   UNL A   1      32.673  19.984  24.998  1.00  0.00    -0.049 C 
ATOM     20  H   UNL A   1      31.901  20.548  25.479  1.00  0.00     0.024 H 
ATOM     21  H   UNL A   1      33.197  19.403  25.729  1.00  0.00     0.024 H 
ATOM     22  H   UNL A   1      32.237  19.331  24.271  1.00  0.00     0.024 H 
ENDBRANCH  17  19
BRANCH  17  23
ATOM     23  C   UNL A   1      32.999  22.228  23.782  1.00  0.00    -0.034 A 
ATOM     24  C   UNL A   1      33.621  23.023  22.802  1.00  0.00    -0.057 A 
ATOM     25  C   UNL A   1      31.726  22.622  24.235  1.00  0.00    -0.034 A 
ATOM     26  C   UNL A   1      33.086  24.268  22.407  1.00  0.00    -0.052 A 
ATOM     27  H   UNL A   1      34.491  22.686  22.361  1.00  0.00     0.063 H 
ATOM     28  C   UNL A   1      31.195  23.844  23.814  1.00  0.00     0.047 A 
ATOM     29  H   UNL A   1      31.190  22.014  24.874  1.00  0.00     0.065 H 
ATOM     30  C   UNL A   1      31.859  24.707  22.950  1.00  0.00     0.007 A 
ATOM     31  H   UNL A   1      33.590  24.856  21.725  1.00  0.00     0.063 H 
ATOM     32  N   UNL A   1      30.001  24.429  24.147  1.00  0.00    -0.355 N 
ATOM     33  C   UNL A   1      31.072  25.909  22.875  1.00  0.00     0.009 A 
ATOM     34  C   UNL A   1      29.935  25.710  23.662  1.00  0.00     0.047 A 
ATOM     35  H   UNL A   1      29.286  23.989  24.663  1.00  0.00     0.167 HD
ATOM     36  C   UNL A   1      31.230  27.161  22.246  1.00  0.00    -0.033 A 
ATOM     37  C   UNL A   1      28.960  26.690  23.875  1.00  0.00    -0.036 A 
ATOM     38  C   UNL A   1      30.266  28.157  22.460  1.00  0.00     0.041 A 
ATOM     39  H   UNL A   1      32.042  27.342  21.635  1.00  0.00     0.065 H 
ATOM     40  C   UNL A   1      29.153  27.930  23.266  1.00  0.00    -0.041 A 
ATOM     41  H   UNL A   1      28.130  26.503  24.459  1.00  0.00     0.065 H 
ATOM     42  Cl  UNL A   1      30.468  29.703  21.728  1.00  0.00    -0.084 Cl
ATOM     43  H   UNL A   1      28.466  28.686  23.414  1.00  0.00     0.064 H 
ENDBRANCH  17  23
ENDBRANCH  14  17
ENDBRANCH  10  13
ENDBRANCH   7  10
ENDBRANCH   4   7
ENDBRANCH   1   4
BRANCH   1  44
ATOM     44  C   UNL A   1      33.020  27.763  25.348  1.00  0.00    -0.036 C 
ATOM     45  H   UNL A   1      32.630  27.787  26.344  1.00  0.00     0.028 H 
ATOM     46  H   UNL A   1      32.284  27.584  24.591  1.00  0.00     0.028 H 
BRANCH  44  47
ATOM     47  C   UNL A   1      33.594  29.139  25.041  1.00  0.00     0.018 C 
ATOM     48  H   UNL A   1      33.579  29.284  23.980  1.00  0.00     0.049 H 
ATOM     49  H   UNL A   1      34.589  29.162  25.437  1.00  0.00     0.049 H 
BRANCH  47  50
ATOM     50  N   UNL A   1      32.859  30.223  25.665  1.00  0.00    -0.352 N 
ATOM     51  C   UNL A   1      33.165  30.941  26.799  1.00  0.00     0.251 C 
ATOM     52  H   UNL A   1      32.023  30.482  25.214  1.00  0.00     0.163 HD
ATOM     53  O   UNL A   1      32.377  31.754  27.255  1.00  0.00    -0.269 OA
BRANCH  51  54
ATOM     54  C   UNL A   1      34.455  30.700  27.485  1.00  0.00     0.039 A 
ATOM     55  C   UNL A   1      35.356  31.759  27.626  1.00  0.00    -0.049 A 
ATOM     56  C   UNL A   1      34.766  29.437  27.995  1.00  0.00    -0.049 A 
ATOM     57  C   UNL A   1      36.543  31.569  28.338  1.00  0.00    -0.053 A 
ATOM     58  H   UNL A   1      35.144  32.678  27.206  1.00  0.00     0.063 H 
ATOM     59  C   UNL A   1      35.910  29.270  28.768  1.00  0.00    -0.053 A 
ATOM     60  H   UNL A   1      34.150  28.633  27.800  1.00  0.00     0.063 H 
ATOM     61  C   UNL A   1      36.814  30.332  28.941  1.00  0.00    -0.014 A 
ATOM     62  H   UNL A   1      37.224  32.341  28.420  1.00  0.00     0.063 H 
ATOM     63  H   UNL A   1      36.096  28.360  29.218  1.00  0.00     0.063 H 
BRANCH  61  64
ATOM     64  C   UNL A   1      38.047  30.093  29.733  1.00  0.00     0.031 A 
ATOM     65  C   UNL A   1      39.089  29.148  29.209  1.00  0.00     0.074 A 
ATOM     66  C   UNL A   1      38.179  30.636  30.959  1.00  0.00     0.049 A 
ATOM     67  N   UNL A   1      40.148  28.662  29.805  1.00  0.00    -0.248 NA
ATOM     68  C   UNL A   1      38.890  28.655  27.838  1.00  0.00    -0.034 C 
ATOM     69  C   UNL A   1      37.224  31.544  31.590  1.00  0.00    -0.036 A 
ATOM     70  N   UNL A   1      39.161  30.472  31.905  1.00  0.00    -0.354 N 
ATOM     71  C   UNL A   1      40.718  27.783  28.895  1.00  0.00     0.074 A 
ATOM     72  C   UNL A   1      39.862  27.764  27.729  1.00  0.00    -0.034 C 
ATOM     73  H   UNL A   1      38.178  28.931  27.143  1.00  0.00     0.065 H 
ATOM     74  C   UNL A   1      37.665  31.860  32.819  1.00  0.00    -0.036 A 
ATOM     75  H   UNL A   1      36.351  31.889  31.161  1.00  0.00     0.065 H 
ATOM     76  C   UNL A   1      38.908  31.138  33.079  1.00  0.00     0.049 A 
ATOM     77  H   UNL A   1      39.969  29.930  31.756  1.00  0.00     0.167 HD
ATOM     78  C   UNL A   1      41.862  27.067  29.016  1.00  0.00     0.037 A 
ATOM     79  H   UNL A   1      39.993  27.139  26.918  1.00  0.00     0.065 H 
ATOM     80  H   UNL A   1      37.201  32.510  33.473  1.00  0.00     0.065 H 
ATOM     81  C   UNL A   1      39.587  31.146  34.242  1.00  0.00     0.037 A 
ATOM     82  C   UNL A   1      42.719  27.110  30.171  1.00  0.00     0.049 A 
ATOM     83  C   UNL A   1      40.852  30.337  34.361  1.00  0.00     0.074 A 
ATOM     84  C   UNL A   1      43.930  26.472  30.372  1.00  0.00    -0.036 A 
ATOM     85  N   UNL A   1      42.447  27.828  31.327  1.00  0.00    -0.354 N 
ATOM     86  N   UNL A   1      41.416  29.551  33.477  1.00  0.00    -0.248 NA
ATOM     87  C   UNL A   1      41.576  30.420  35.638  1.00  0.00    -0.034 C 
ATOM     88  C   UNL A   1      44.364  26.759  31.671  1.00  0.00    -0.036 A 
ATOM     89  H   UNL A   1      44.427  25.887  29.683  1.00  0.00     0.065 H 
ATOM     90  C   UNL A   1      43.458  27.631  32.254  1.00  0.00     0.049 A 
ATOM     91  H   UNL A   1      41.654  28.394  31.468  1.00  0.00     0.167 HD
ATOM     92  C   UNL A   1      42.577  29.076  34.071  1.00  0.00     0.074 A 
ATOM     93  C   UNL A   1      42.637  29.660  35.395  1.00  0.00    -0.034 C 
ATOM     94  H   UNL A   1      41.326  30.935  36.496  1.00  0.00     0.065 H 
ATOM     95  H   UNL A   1      45.215  26.386  32.117  1.00  0.00     0.065 H 
ATOM     96  C   UNL A   1      43.512  28.237  33.562  1.00  0.00     0.037 A 
ATOM     97  H   UNL A   1      43.406  29.506  36.065  1.00  0.00     0.065 H 
BRANCH  78  98
ATOM     98  C   UNL A   1      42.236  26.166  27.873  1.00  0.00     0.064 A 
ATOM     99  C   UNL A   1      43.163  26.555  26.892  1.00  0.00     0.173 A 
ATOM    100  C   UNL A   1      41.657  24.894  27.753  1.00  0.00     0.173 A 
ATOM    101  F   UNL A   1      43.741  27.765  26.952  1.00  0.00    -0.203 F 
ATOM    102  C   UNL A   1      43.455  25.728  25.810  1.00  0.00     0.198 A 
ATOM    103  C   UNL A   1      41.980  24.053  26.691  1.00  0.00     0.198 A 
ATOM    104  F   UNL A   1      40.772  24.463  28.665  1.00  0.00    -0.203 F 
ATOM    105  F   UNL A   1      44.285  26.155  24.848  1.00  0.00    -0.200 F 
ATOM    106  C   UNL A   1      42.868  24.477  25.713  1.00  0.00     0.200 A 
ATOM    107  F   UNL A   1      41.424  22.836  26.608  1.00  0.00    -0.200 F 
ATOM    108  F   UNL A   1      43.147  23.683  24.670  1.00  0.00    -0.200 F 
ENDBRANCH  78  98
BRANCH  81 109
ATOM    109  C   UNL A   1      39.087  31.966  35.376  1.00  0.00     0.064 A 
ATOM    110  C   UNL A   1      38.344  31.383  36.411  1.00  0.00     0.173 A 
ATOM    111  C   UNL A   1      39.369  33.336  35.468  1.00  0.00     0.173 A 
ATOM    112  F   UNL A   1      38.032  30.079  36.360  1.00  0.00    -0.203 F 
ATOM    113  C   UNL A   1      37.894  32.141  37.491  1.00  0.00     0.198 A 
ATOM    114  C   UNL A   1      38.942  34.088  36.561  1.00  0.00     0.198 A 
ATOM    115  F   UNL A   1      40.085  33.941  34.507  1.00  0.00    -0.203 F 
ATOM    116  F   UNL A   1      37.159  31.564  38.452  1.00  0.00    -0.200 F 
ATOM    117  C   UNL A   1      38.202  33.490  37.569  1.00  0.00     0.200 A 
ATOM    118  F   UNL A   1      39.258  35.387  36.642  1.00  0.00    -0.200 F 
ATOM    119  F   UNL A   1      37.783  34.216  38.615  1.00  0.00    -0.200 F 
ENDBRANCH  81 109
BRANCH  96 120
ATOM    120  C   UNL A   1      44.720  27.942  34.405  1.00  0.00     0.064 A 
ATOM    121  C   UNL A   1      45.832  28.795  34.434  1.00  0.00     0.173 A 
ATOM    122  C   UNL A   1      44.723  26.828  35.259  1.00  0.00     0.173 A 
ATOM    123  F   UNL A   1      45.884  29.865  33.627  1.00  0.00    -0.203 F 
ATOM    124  C   UNL A   1      46.907  28.537  35.281  1.00  0.00     0.198 A 
ATOM    125  C   UNL A   1      45.786  26.590  36.125  1.00  0.00     0.198 A 
ATOM    126  F   UNL A   1      43.680  25.984  35.273  1.00  0.00    -0.203 F 
ATOM    127  F   UNL A   1      47.974  29.348  35.271  1.00  0.00    -0.200 F 
ATOM    128  C   UNL A   1      46.878  27.443  36.134  1.00  0.00     0.200 A 
ATOM    129  F   UNL A   1      45.746  25.542  36.960  1.00  0.00    -0.200 F 
ATOM    130  F   UNL A   1      47.905  27.209  36.962  1.00  0.00    -0.200 F 
ENDBRANCH  96 120
ENDBRANCH  61  64
ENDBRANCH  51  54
ENDBRANCH  47  50
ENDBRANCH  44  47
ENDBRANCH   1  44
TORSDOF 15
ENDMDL
MODEL 2
REMARK VINA RESULT:     -12.3      2.943      8.761
REMARK SMILES C[C@H](C(=O)NCCCCCCNC(=O)c1ccc(-c2c3nc(c(-c4c(F)c(F)c(F)c(F)c4F)c4ccc([nH]4)c(-c4c(F)c(F)c(F)c(F)c4F)c4nc(c(-c5c(F)c(F)c(F)c(F)c5F)c5ccc2[nH]5)C=C4)C=C3)cc1)c1ccc2c(c1)[nH]c1ccc(Cl)cc12
REMARK SMILES IDX 9 1 8 4 7 7 6 10 5 13 3 14 4 15 2 17 1 19 78 23 79 24 83 25
REMARK SMILES IDX 80 26 82 28 81 30 84 32 91 33 85 34 90 36 86 37 88 38 87 40
REMARK SMILES IDX 89 42 10 44 11 47 12 50 13 51 14 53 15 54 16 55 77 56 17 57
REMARK SMILES IDX 76 59 18 61 19 64 20 65 70 66 21 67 75 68 69 69 71 70 22 71
REMARK SMILES IDX 74 72 68 74 67 76 23 78 55 81 35 82 54 83 36 84 39 85 53 86
REMARK SMILES IDX 72 87 37 88 38 90 52 92 73 93 40 96 24 98 25 99 33 100
REMARK SMILES IDX 26 101 27 102 31 103 34 104 28 105 29 106 32 107 30 108
REMARK SMILES IDX 56 109 57 110 65 111 58 112 59 113 63 114 66 115 60 116
REMARK SMILES IDX 61 117 64 118 62 119 41 120 42 121 50 122 43 123 44 124
REMARK SMILES IDX 48 125 51 126 45 127 46 128 49 129 47 130
REMARK H PARENT 9 2 9 3 8 5 8 6 7 8 7 9 6 11 6 12 5 16 2 18 1 20 1 21 1 22
REMARK H PARENT 79 27 83 29 80 31 84 35 90 39 86 41 87 43 10 45 10 46 11 48
REMARK H PARENT 11 49 12 52 16 58 77 60 17 62 76 63 75 73 69 75 71 77 74 79
REMARK H PARENT 68 80 36 89 39 91 72 94 37 95 73 97
REMARK Flexibility Score: inf
ROOT
ATOM      1  C   UNL A   1      34.610  33.734  29.036  1.00  0.00    -0.052 C 
ATOM      2  H   UNL A   1      35.230  33.941  28.188  1.00  0.00     0.027 H 
ATOM      3  H   UNL A   1      35.034  34.001  29.982  1.00  0.00     0.027 H 
ENDROOT
BRANCH   1   4
ATOM      4  C   UNL A   1      34.412  32.219  29.104  1.00  0.00    -0.052 C 
ATOM      5  H   UNL A   1      35.340  31.789  29.421  1.00  0.00     0.027 H 
ATOM      6  H   UNL A   1      33.589  32.083  29.774  1.00  0.00     0.027 H 
BRANCH   4   7
ATOM      7  C   UNL A   1      33.990  31.498  27.822  1.00  0.00    -0.036 C 
ATOM      8  H   UNL A   1      32.956  31.245  27.923  1.00  0.00     0.028 H 
ATOM      9  H   UNL A   1      34.222  32.186  27.036  1.00  0.00     0.028 H 
BRANCH   7  10
ATOM     10  C   UNL A   1      34.736  30.222  27.447  1.00  0.00     0.017 C 
ATOM     11  H   UNL A   1      35.785  30.431  27.469  1.00  0.00     0.049 H 
ATOM     12  H   UNL A   1      34.436  29.480  28.157  1.00  0.00     0.049 H 
BRANCH  10  13
ATOM     13  N   UNL A   1      34.413  29.689  26.146  1.00  0.00    -0.356 N 
ATOM     14  C   UNL A   1      33.509  28.742  25.782  1.00  0.00     0.227 C 
ATOM     15  O   UNL A   1      33.206  28.754  24.579  1.00  0.00    -0.274 OA
ATOM     16  H   UNL A   1      34.931  30.073  25.401  1.00  0.00     0.163 HD
BRANCH  14  17
ATOM     17  C   UNL A   1      32.942  27.618  26.673  1.00  0.00     0.060 C 
ATOM     18  H   UNL A   1      33.668  27.447  27.440  1.00  0.00     0.045 H 
BRANCH  17  19
ATOM     19  C   UNL A   1      31.581  28.153  27.170  1.00  0.00    -0.049 C 
ATOM     20  H   UNL A   1      31.109  28.711  26.387  1.00  0.00     0.024 H 
ATOM     21  H   UNL A   1      31.735  28.789  28.017  1.00  0.00     0.024 H 
ATOM     22  H   UNL A   1      30.955  27.332  27.450  1.00  0.00     0.024 H 
ENDBRANCH  17  19
BRANCH  17  23
ATOM     23  C   UNL A   1      32.888  26.172  26.176  1.00  0.00    -0.034 A 
ATOM     24  C   UNL A   1      31.664  25.498  26.026  1.00  0.00    -0.057 A 
ATOM     25  C   UNL A   1      34.063  25.489  25.809  1.00  0.00    -0.034 A 
ATOM     26  C   UNL A   1      31.606  24.127  25.692  1.00  0.00    -0.052 A 
ATOM     27  H   UNL A   1      30.783  26.019  26.164  1.00  0.00     0.063 H 
ATOM     28  C   UNL A   1      33.989  24.139  25.453  1.00  0.00     0.047 A 
ATOM     29  H   UNL A   1      34.971  25.979  25.804  1.00  0.00     0.065 H 
ATOM     30  C   UNL A   1      32.800  23.420  25.431  1.00  0.00     0.007 A 
ATOM     31  H   UNL A   1      30.696  23.644  25.640  1.00  0.00     0.063 H 
ATOM     32  N   UNL A   1      34.997  23.283  25.090  1.00  0.00    -0.355 N 
ATOM     33  C   UNL A   1      33.146  22.049  25.167  1.00  0.00     0.009 A 
ATOM     34  C   UNL A   1      34.531  21.997  24.993  1.00  0.00     0.047 A 
ATOM     35  H   UNL A   1      35.928  23.555  24.922  1.00  0.00     0.167 HD
ATOM     36  C   UNL A   1      32.425  20.839  25.094  1.00  0.00    -0.033 A 
ATOM     37  C   UNL A   1      35.240  20.812  24.772  1.00  0.00    -0.036 A 
ATOM     38  C   UNL A   1      33.124  19.642  24.885  1.00  0.00     0.041 A 
ATOM     39  H   UNL A   1      31.397  20.835  25.192  1.00  0.00     0.065 H 
ATOM     40  C   UNL A   1      34.508  19.625  24.733  1.00  0.00    -0.041 A 
ATOM     41  H   UNL A   1      36.264  20.815  24.641  1.00  0.00     0.065 H 
ATOM     42  Cl  UNL A   1      32.258  18.153  24.834  1.00  0.00    -0.084 Cl
ATOM     43  H   UNL A   1      34.997  18.726  24.592  1.00  0.00     0.064 H 
ENDBRANCH  17  23
ENDBRANCH  14  17
ENDBRANCH  10  13
ENDBRANCH   7  10
ENDBRANCH   4   7
ENDBRANCH   1   4
BRANCH   1  44
ATOM     44  C   UNL A   1      33.354  34.593  28.908  1.00  0.00    -0.036 C 
ATOM     45  H   UNL A   1      32.571  34.110  29.455  1.00  0.00     0.028 H 
ATOM     46  H   UNL A   1      33.169  34.678  27.858  1.00  0.00     0.028 H 
BRANCH  44  47
ATOM     47  C   UNL A   1      33.463  36.023  29.420  1.00  0.00     0.018 C 
ATOM     48  H   UNL A   1      33.286  36.691  28.601  1.00  0.00     0.049 H 
ATOM     49  H   UNL A   1      34.445  36.138  29.830  1.00  0.00     0.049 H 
BRANCH  47  50
ATOM     50  N   UNL A   1      32.518  36.332  30.478  1.00  0.00    -0.352 N 
ATOM     51  C   UNL A   1      32.526  35.931  31.794  1.00  0.00     0.251 C 
ATOM     52  H   UNL A   1      31.764  36.909  30.216  1.00  0.00     0.163 HD
ATOM     53  O   UNL A   1      31.589  36.190  32.532  1.00  0.00    -0.269 OA
BRANCH  51  54
ATOM     54  C   UNL A   1      33.675  35.151  32.309  1.00  0.00     0.039 A 
ATOM     55  C   UNL A   1      33.449  33.872  32.824  1.00  0.00    -0.049 A 
ATOM     56  C   UNL A   1      34.969  35.677  32.270  1.00  0.00    -0.049 A 
ATOM     57  C   UNL A   1      34.531  33.092  33.243  1.00  0.00    -0.053 A 
ATOM     58  H   UNL A   1      32.487  33.504  32.896  1.00  0.00     0.063 H 
ATOM     59  C   UNL A   1      36.050  34.873  32.613  1.00  0.00    -0.053 A 
ATOM     60  H   UNL A   1      35.121  36.658  31.988  1.00  0.00     0.063 H 
ATOM     61  C   UNL A   1      35.842  33.575  33.111  1.00  0.00    -0.014 A 
ATOM     62  H   UNL A   1      34.366  32.158  33.651  1.00  0.00     0.063 H 
ATOM     63  H   UNL A   1      37.010  35.231  32.503  1.00  0.00     0.063 H 
BRANCH  61  64
ATOM     64  C   UNL A   1      37.023  32.770  33.511  1.00  0.00     0.031 A 
ATOM     65  C   UNL A   1      37.720  33.077  34.806  1.00  0.00     0.074 A 
ATOM     66  C   UNL A   1      37.529  31.846  32.672  1.00  0.00     0.049 A 
ATOM     67  N   UNL A   1      38.858  32.625  35.266  1.00  0.00    -0.248 NA
ATOM     68  C   UNL A   1      37.061  34.055  35.684  1.00  0.00    -0.034 C 
ATOM     69  C   UNL A   1      36.961  31.479  31.377  1.00  0.00    -0.036 A 
ATOM     70  N   UNL A   1      38.657  31.070  32.776  1.00  0.00    -0.354 N 
ATOM     71  C   UNL A   1      39.066  33.289  36.467  1.00  0.00     0.074 A 
ATOM     72  C   UNL A   1      37.963  34.210  36.640  1.00  0.00    -0.034 C 
ATOM     73  H   UNL A   1      36.137  34.504  35.582  1.00  0.00     0.065 H 
ATOM     74  C   UNL A   1      37.742  30.548  30.804  1.00  0.00    -0.036 A 
ATOM     75  H   UNL A   1      36.098  31.870  30.968  1.00  0.00     0.065 H 
ATOM     76  C   UNL A   1      38.890  30.290  31.670  1.00  0.00     0.049 A 
ATOM     77  H   UNL A   1      39.243  31.073  33.566  1.00  0.00     0.167 HD
ATOM     78  C   UNL A   1      40.078  33.133  37.355  1.00  0.00     0.037 A 
ATOM     79  H   UNL A   1      37.889  34.895  37.407  1.00  0.00     0.065 H 
ATOM     80  H   UNL A   1      37.560  30.088  29.898  1.00  0.00     0.065 H 
ATOM     81  C   UNL A   1      39.923  29.478  31.376  1.00  0.00     0.037 A 
ATOM     82  C   UNL A   1      41.158  32.198  37.185  1.00  0.00     0.049 A 
ATOM     83  C   UNL A   1      41.044  29.325  32.369  1.00  0.00     0.074 A 
ATOM     84  C   UNL A   1      42.201  31.917  38.050  1.00  0.00    -0.036 A 
ATOM     85  N   UNL A   1      41.339  31.396  36.066  1.00  0.00    -0.354 N 
ATOM     86  N   UNL A   1      41.207  29.913  33.529  1.00  0.00    -0.248 NA
ATOM     87  C   UNL A   1      42.122  28.390  32.016  1.00  0.00    -0.034 C 
ATOM     88  C   UNL A   1      43.042  30.987  37.431  1.00  0.00    -0.036 A 
ATOM     89  H   UNL A   1      42.334  32.323  38.989  1.00  0.00     0.065 H 
ATOM     90  C   UNL A   1      42.488  30.637  36.210  1.00  0.00     0.049 A 
ATOM     91  H   UNL A   1      40.738  31.371  35.286  1.00  0.00     0.167 HD
ATOM     92  C   UNL A   1      42.380  29.397  34.061  1.00  0.00     0.074 A 
ATOM     93  C   UNL A   1      42.892  28.446  33.096  1.00  0.00    -0.034 C 
ATOM     94  H   UNL A   1      42.247  27.835  31.155  1.00  0.00     0.065 H 
ATOM     95  H   UNL A   1      43.926  30.623  37.819  1.00  0.00     0.065 H 
ATOM     96  C   UNL A   1      42.974  29.679  35.247  1.00  0.00     0.037 A 
ATOM     97  H   UNL A   1      43.747  27.884  33.230  1.00  0.00     0.065 H 
BRANCH  78  98
ATOM     98  C   UNL A   1      40.066  34.009  38.576  1.00  0.00     0.064 A 
ATOM     99  C   UNL A   1      40.731  35.244  38.611  1.00  0.00     0.173 A 
ATOM    100  C   UNL A   1      39.380  33.605  39.732  1.00  0.00     0.173 A 
ATOM    101  F   UNL A   1      41.411  35.676  37.537  1.00  0.00    -0.203 F 
ATOM    102  C   UNL A   1      40.755  36.015  39.770  1.00  0.00     0.198 A 
ATOM    103  C   UNL A   1      39.373  34.397  40.877  1.00  0.00     0.198 A 
ATOM    104  F   UNL A   1      38.717  32.439  39.754  1.00  0.00    -0.203 F 
ATOM    105  F   UNL A   1      41.462  37.155  39.800  1.00  0.00    -0.200 F 
ATOM    106  C   UNL A   1      40.073  35.595  40.900  1.00  0.00     0.200 A 
ATOM    107  F   UNL A   1      38.698  33.996  41.963  1.00  0.00    -0.200 F 
ATOM    108  F   UNL A   1      40.098  36.336  42.016  1.00  0.00    -0.200 F 
ENDBRANCH  78  98
BRANCH  81 109
ATOM    109  C   UNL A   1      39.929  28.737  30.088  1.00  0.00     0.064 A 
ATOM    110  C   UNL A   1      40.521  29.290  28.943  1.00  0.00     0.173 A 
ATOM    111  C   UNL A   1      39.376  27.453  29.981  1.00  0.00     0.173 A 
ATOM    112  F   UNL A   1      41.048  30.523  28.991  1.00  0.00    -0.203 F 
ATOM    113  C   UNL A   1      40.553  28.589  27.739  1.00  0.00     0.198 A 
ATOM    114  C   UNL A   1      39.432  26.742  28.783  1.00  0.00     0.198 A 
ATOM    115  F   UNL A   1      38.805  26.876  31.049  1.00  0.00    -0.203 F 
ATOM    116  F   UNL A   1      41.098  29.153  26.652  1.00  0.00    -0.200 F 
ATOM    117  C   UNL A   1      40.016  27.313  27.663  1.00  0.00     0.200 A 
ATOM    118  F   UNL A   1      38.929  25.503  28.719  1.00  0.00    -0.200 F 
ATOM    119  F   UNL A   1      40.061  26.633  26.509  1.00  0.00    -0.200 F 
ENDBRANCH  81 109
BRANCH  96 120
ATOM    120  C   UNL A   1      44.214  28.912  35.608  1.00  0.00     0.064 A 
ATOM    121  C   UNL A   1      45.496  29.382  35.295  1.00  0.00     0.173 A 
ATOM    122  C   UNL A   1      44.112  27.727  36.356  1.00  0.00     0.173 A 
ATOM    123  F   UNL A   1      45.648  30.501  34.570  1.00  0.00    -0.203 F 
ATOM    124  C   UNL A   1      46.631  28.688  35.706  1.00  0.00     0.198 A 
ATOM    125  C   UNL A   1      45.248  27.054  36.791  1.00  0.00     0.198 A 
ATOM    126  F   UNL A   1      42.907  27.239  36.687  1.00  0.00    -0.203 F 
ATOM    127  F   UNL A   1      47.848  29.137  35.368  1.00  0.00    -0.200 F 
ATOM    128  C   UNL A   1      46.507  27.532  36.464  1.00  0.00     0.200 A 
ATOM    129  F   UNL A   1      45.124  25.947  37.538  1.00  0.00    -0.200 F 
ATOM    130  F   UNL A   1      47.602  26.878  36.877  1.00  0.00    -0.200 F 
ENDBRANCH  96 120
ENDBRANCH  61  64
ENDBRANCH  51  54
ENDBRANCH  47  50
ENDBRANCH  44  47
ENDBRANCH   1  44
TORSDOF 15
ENDMDL
MODEL 3
REMARK VINA RESULT:     -12.3      5.007     10.832
REMARK SMILES C[C@H](C(=O)NCCCCCCNC(=O)c1ccc(-c2c3nc(c(-c4c(F)c(F)c(F)c(F)c4F)c4ccc([nH]4)c(-c4c(F)c(F)c(F)c(F)c4F)c4nc(c(-c5c(F)c(F)c(F)c(F)c5F)c5ccc2[nH]5)C=C4)C=C3)cc1)c1ccc2c(c1)[nH]c1ccc(Cl)cc12
REMARK SMILES IDX 9 1 8 4 7 7 6 10 5 13 3 14 4 15 2 17 1 19 78 23 79 24 83 25
REMARK SMILES IDX 80 26 82 28 81 30 84 32 91 33 85 34 90 36 86 37 88 38 87 40
REMARK SMILES IDX 89 42 10 44 11 47 12 50 13 51 14 53 15 54 16 55 77 56 17 57
REMARK SMILES IDX 76 59 18 61 19 64 20 65 70 66 21 67 75 68 69 69 71 70 22 71
REMARK SMILES IDX 74 72 68 74 67 76 23 78 55 81 35 82 54 83 36 84 39 85 53 86
REMARK SMILES IDX 72 87 37 88 38 90 52 92 73 93 40 96 24 98 25 99 33 100
REMARK SMILES IDX 26 101 27 102 31 103 34 104 28 105 29 106 32 107 30 108
REMARK SMILES IDX 56 109 57 110 65 111 58 112 59 113 63 114 66 115 60 116
REMARK SMILES IDX 61 117 64 118 62 119 41 120 42 121 50 122 43 123 44 124
REMARK SMILES IDX 48 125 51 126 45 127 46 128 49 129 47 130
REMARK H PARENT 9 2 9 3 8 5 8 6 7 8 7 9 6 11 6 12 5 16 2 18 1 20 1 21 1 22
REMARK H PARENT 79 27 83 29 80 31 84 35 90 39 86 41 87 43 10 45 10 46 11 48
REMARK H PARENT 11 49 12 52 16 58 77 60 17 62 76 63 75 73 69 75 71 77 74 79
REMARK H PARENT 68 80 36 89 39 91 72 94 37 95 73 97
REMARK Flexibility Score: inf
ROOT
ATOM      1  C   UNL A   1      36.381  33.581  28.012  1.00  0.00    -0.052 C 
ATOM      2  H   UNL A   1      36.676  32.936  27.210  1.00  0.00     0.027 H 
ATOM      3  H   UNL A   1      36.573  34.621  27.848  1.00  0.00     0.027 H 
ENDROOT
BRANCH   1   4
ATOM      4  C   UNL A   1      37.223  33.210  29.235  1.00  0.00    -0.052 C 
ATOM      5  H   UNL A   1      36.547  32.965  30.027  1.00  0.00     0.027 H 
ATOM      6  H   UNL A   1      37.850  32.410  28.899  1.00  0.00     0.027 H 
BRANCH   4   7
ATOM      7  C   UNL A   1      38.196  34.262  29.774  1.00  0.00    -0.036 C 
ATOM      8  H   UNL A   1      39.161  34.043  29.369  1.00  0.00     0.028 H 
ATOM      9  H   UNL A   1      37.772  35.199  29.477  1.00  0.00     0.028 H 
BRANCH   7  10
ATOM     10  C   UNL A   1      38.352  34.374  31.287  1.00  0.00     0.017 C 
ATOM     11  H   UNL A   1      38.557  33.397  31.672  1.00  0.00     0.049 H 
ATOM     12  H   UNL A   1      39.145  35.072  31.455  1.00  0.00     0.049 H 
BRANCH  10  13
ATOM     13  N   UNL A   1      37.199  34.895  31.980  1.00  0.00    -0.356 N 
ATOM     14  C   UNL A   1      36.521  34.404  33.050  1.00  0.00     0.227 C 
ATOM     15  O   UNL A   1      35.812  35.237  33.637  1.00  0.00    -0.274 OA
ATOM     16  H   UNL A   1      36.847  35.741  31.620  1.00  0.00     0.163 HD
BRANCH  14  17
ATOM     17  C   UNL A   1      36.459  32.933  33.508  1.00  0.00     0.060 C 
ATOM     18  H   UNL A   1      36.153  32.950  34.533  1.00  0.00     0.045 H 
BRANCH  17  19
ATOM     19  C   UNL A   1      35.462  32.258  32.541  1.00  0.00    -0.049 C 
ATOM     20  H   UNL A   1      34.807  32.997  32.128  1.00  0.00     0.024 H 
ATOM     21  H   UNL A   1      34.885  31.529  33.073  1.00  0.00     0.024 H 
ATOM     22  H   UNL A   1      35.999  31.777  31.750  1.00  0.00     0.024 H 
ENDBRANCH  17  19
BRANCH  17  23
ATOM     23  C   UNL A   1      37.737  32.124  33.734  1.00  0.00    -0.034 A 
ATOM     24  C   UNL A   1      38.828  32.665  34.438  1.00  0.00    -0.057 A 
ATOM     25  C   UNL A   1      37.841  30.794  33.283  1.00  0.00    -0.034 A 
ATOM     26  C   UNL A   1      40.057  31.978  34.543  1.00  0.00    -0.052 A 
ATOM     27  H   UNL A   1      38.726  33.587  34.889  1.00  0.00     0.063 H 
ATOM     28  C   UNL A   1      39.055  30.116  33.419  1.00  0.00     0.047 A 
ATOM     29  H   UNL A   1      37.028  30.325  32.855  1.00  0.00     0.065 H 
ATOM     30  C   UNL A   1      40.187  30.685  33.992  1.00  0.00     0.007 A 
ATOM     31  H   UNL A   1      40.858  32.421  35.021  1.00  0.00     0.063 H 
ATOM     32  N   UNL A   1      39.384  28.843  33.033  1.00  0.00    -0.355 N 
ATOM     33  C   UNL A   1      41.261  29.745  33.816  1.00  0.00     0.009 A 
ATOM     34  C   UNL A   1      40.728  28.620  33.183  1.00  0.00     0.047 A 
ATOM     35  H   UNL A   1      38.741  28.178  32.693  1.00  0.00     0.167 HD
ATOM     36  C   UNL A   1      42.643  29.752  34.099  1.00  0.00    -0.033 A 
ATOM     37  C   UNL A   1      41.492  27.513  32.798  1.00  0.00    -0.036 A 
ATOM     38  C   UNL A   1      43.423  28.655  33.708  1.00  0.00     0.041 A 
ATOM     39  H   UNL A   1      43.074  30.553  34.589  1.00  0.00     0.065 H 
ATOM     40  C   UNL A   1      42.861  27.556  33.062  1.00  0.00    -0.041 A 
ATOM     41  H   UNL A   1      41.060  26.697  32.338  1.00  0.00     0.065 H 
ATOM     42  Cl  UNL A   1      45.119  28.669  34.014  1.00  0.00    -0.084 Cl
ATOM     43  H   UNL A   1      43.463  26.768  32.776  1.00  0.00     0.064 H 
ENDBRANCH  17  23
ENDBRANCH  14  17
ENDBRANCH  10  13
ENDBRANCH   7  10
ENDBRANCH   4   7
ENDBRANCH   1   4
BRANCH   1  44
ATOM     44  C   UNL A   1      34.864  33.477  28.156  1.00  0.00    -0.036 C 
ATOM     45  H   UNL A   1      34.453  33.338  27.177  1.00  0.00     0.028 H 
ATOM     46  H   UNL A   1      34.559  34.383  28.637  1.00  0.00     0.028 H 
BRANCH  44  47
ATOM     47  C   UNL A   1      34.349  32.351  29.041  1.00  0.00     0.018 C 
ATOM     48  H   UNL A   1      33.567  32.738  29.662  1.00  0.00     0.049 H 
ATOM     49  H   UNL A   1      35.180  31.993  29.614  1.00  0.00     0.049 H 
BRANCH  47  50
ATOM     50  N   UNL A   1      33.827  31.222  28.293  1.00  0.00    -0.352 N 
ATOM     51  C   UNL A   1      34.483  30.097  27.846  1.00  0.00     0.251 C 
ATOM     52  H   UNL A   1      32.868  31.266  28.074  1.00  0.00     0.163 HD
ATOM     53  O   UNL A   1      33.916  29.288  27.128  1.00  0.00    -0.269 OA
BRANCH  51  54
ATOM     54  C   UNL A   1      35.900  29.887  28.219  1.00  0.00     0.039 A 
ATOM     55  C   UNL A   1      36.204  29.476  29.519  1.00  0.00    -0.049 A 
ATOM     56  C   UNL A   1      36.921  30.084  27.285  1.00  0.00    -0.049 A 
ATOM     57  C   UNL A   1      37.529  29.198  29.867  1.00  0.00    -0.053 A 
ATOM     58  H   UNL A   1      35.453  29.378  30.221  1.00  0.00     0.063 H 
ATOM     59  C   UNL A   1      38.226  29.733  27.609  1.00  0.00    -0.053 A 
ATOM     60  H   UNL A   1      36.706  30.486  26.360  1.00  0.00     0.063 H 
ATOM     61  C   UNL A   1      38.546  29.294  28.905  1.00  0.00    -0.014 A 
ATOM     62  H   UNL A   1      37.761  28.922  30.835  1.00  0.00     0.063 H 
ATOM     63  H   UNL A   1      38.966  29.796  26.893  1.00  0.00     0.063 H 
BRANCH  61  64
ATOM     64  C   UNL A   1      39.962  28.978  29.220  1.00  0.00     0.031 A 
ATOM     65  C   UNL A   1      40.821  30.020  29.878  1.00  0.00     0.074 A 
ATOM     66  C   UNL A   1      40.499  27.809  28.822  1.00  0.00     0.049 A 
ATOM     67  N   UNL A   1      42.113  30.024  30.083  1.00  0.00    -0.248 NA
ATOM     68  C   UNL A   1      40.134  31.238  30.332  1.00  0.00    -0.034 C 
ATOM     69  C   UNL A   1      39.776  26.732  28.149  1.00  0.00    -0.036 A 
ATOM     70  N   UNL A   1      41.790  27.349  28.901  1.00  0.00    -0.354 N 
ATOM     71  C   UNL A   1      42.396  31.256  30.657  1.00  0.00     0.074 A 
ATOM     72  C   UNL A   1      41.151  31.990  30.722  1.00  0.00    -0.034 C 
ATOM     73  H   UNL A   1      39.125  31.450  30.344  1.00  0.00     0.065 H 
ATOM     74  C   UNL A   1      40.633  25.733  27.876  1.00  0.00    -0.036 A 
ATOM     75  H   UNL A   1      38.770  26.736  27.922  1.00  0.00     0.065 H 
ATOM     76  C   UNL A   1      41.972  26.122  28.311  1.00  0.00     0.049 A 
ATOM     77  H   UNL A   1      42.516  27.850  29.338  1.00  0.00     0.167 HD
ATOM     78  C   UNL A   1      43.585  31.725  31.105  1.00  0.00     0.037 A 
ATOM     79  H   UNL A   1      41.067  32.971  31.031  1.00  0.00     0.065 H 
ATOM     80  H   UNL A   1      40.384  24.836  27.432  1.00  0.00     0.065 H 
ATOM     81  C   UNL A   1      43.095  25.403  28.119  1.00  0.00     0.037 A 
ATOM     82  C   UNL A   1      44.814  30.978  31.058  1.00  0.00     0.049 A 
ATOM     83  C   UNL A   1      44.409  25.946  28.615  1.00  0.00     0.074 A 
ATOM     84  C   UNL A   1      46.061  31.336  31.539  1.00  0.00    -0.036 A 
ATOM     85  N   UNL A   1      44.950  29.721  30.486  1.00  0.00    -0.354 N 
ATOM     86  N   UNL A   1      44.661  27.087  29.208  1.00  0.00    -0.248 NA
ATOM     87  C   UNL A   1      45.594  25.098  28.420  1.00  0.00    -0.034 C 
ATOM     88  C   UNL A   1      46.964  30.319  31.207  1.00  0.00    -0.036 A 
ATOM     89  H   UNL A   1      46.286  32.201  32.052  1.00  0.00     0.065 H 
ATOM     90  C   UNL A   1      46.266  29.298  30.582  1.00  0.00     0.049 A 
ATOM     91  H   UNL A   1      44.220  29.206  30.073  1.00  0.00     0.167 HD
ATOM     92  C   UNL A   1      46.020  27.081  29.491  1.00  0.00     0.074 A 
ATOM     93  C   UNL A   1      46.542  25.822  29.002  1.00  0.00    -0.034 C 
ATOM     94  H   UNL A   1      45.669  24.180  27.954  1.00  0.00     0.065 H 
ATOM     95  H   UNL A   1      47.977  30.329  31.398  1.00  0.00     0.065 H 
ATOM     96  C   UNL A   1      46.765  28.031  30.107  1.00  0.00     0.037 A 
ATOM     97  H   UNL A   1      47.526  25.524  29.094  1.00  0.00     0.065 H 
BRANCH  78  98
ATOM     98  C   UNL A   1      43.609  33.119  31.668  1.00  0.00     0.064 A 
ATOM     99  C   UNL A   1      43.697  34.251  30.842  1.00  0.00     0.173 A 
ATOM    100  C   UNL A   1      43.546  33.326  33.054  1.00  0.00     0.173 A 
ATOM    101  F   UNL A   1      43.769  34.112  29.509  1.00  0.00    -0.203 F 
ATOM    102  C   UNL A   1      43.774  35.532  31.385  1.00  0.00     0.198 A 
ATOM    103  C   UNL A   1      43.584  34.611  33.592  1.00  0.00     0.198 A 
ATOM    104  F   UNL A   1      43.451  32.283  33.892  1.00  0.00    -0.203 F 
ATOM    105  F   UNL A   1      43.934  36.591  30.578  1.00  0.00    -0.200 F 
ATOM    106  C   UNL A   1      43.713  35.711  32.757  1.00  0.00     0.200 A 
ATOM    107  F   UNL A   1      43.507  34.782  34.918  1.00  0.00    -0.200 F 
ATOM    108  F   UNL A   1      43.789  36.943  33.278  1.00  0.00    -0.200 F 
ENDBRANCH  78  98
BRANCH  81 109
ATOM    109  C   UNL A   1      43.013  24.084  27.440  1.00  0.00     0.064 A 
ATOM    110  C   UNL A   1      43.355  23.950  26.087  1.00  0.00     0.173 A 
ATOM    111  C   UNL A   1      42.625  22.928  28.132  1.00  0.00     0.173 A 
ATOM    112  F   UNL A   1      43.715  25.029  25.377  1.00  0.00    -0.203 F 
ATOM    113  C   UNL A   1      43.305  22.711  25.451  1.00  0.00     0.198 A 
ATOM    114  C   UNL A   1      42.601  21.685  27.502  1.00  0.00     0.198 A 
ATOM    115  F   UNL A   1      42.294  23.002  29.431  1.00  0.00    -0.203 F 
ATOM    116  F   UNL A   1      43.609  22.615  24.150  1.00  0.00    -0.200 F 
ATOM    117  C   UNL A   1      42.937  21.578  26.162  1.00  0.00     0.200 A 
ATOM    118  F   UNL A   1      42.263  20.591  28.198  1.00  0.00    -0.200 F 
ATOM    119  F   UNL A   1      42.904  20.384  25.554  1.00  0.00    -0.200 F 
ENDBRANCH  81 109
BRANCH  96 120
ATOM    120  C   UNL A   1      48.217  27.731  30.352  1.00  0.00     0.064 A 
ATOM    121  C   UNL A   1      48.646  26.999  31.467  1.00  0.00     0.173 A 
ATOM    122  C   UNL A   1      49.181  28.115  29.406  1.00  0.00     0.173 A 
ATOM    123  F   UNL A   1      47.767  26.620  32.407  1.00  0.00    -0.203 F 
ATOM    124  C   UNL A   1      49.990  26.670  31.631  1.00  0.00     0.198 A 
ATOM    125  C   UNL A   1      50.517  27.759  29.558  1.00  0.00     0.198 A 
ATOM    126  F   UNL A   1      48.820  28.812  28.318  1.00  0.00    -0.203 F 
ATOM    127  F   UNL A   1      50.384  25.997  32.720  1.00  0.00    -0.200 F 
ATOM    128  C   UNL A   1      50.922  27.039  30.671  1.00  0.00     0.200 A 
ATOM    129  F   UNL A   1      51.411  28.102  28.620  1.00  0.00    -0.200 F 
ATOM    130  F   UNL A   1      52.210  26.704  30.822  1.00  0.00    -0.200 F 
ENDBRANCH  96 120
ENDBRANCH  61  64
ENDBRANCH  51  54
ENDBRANCH  47  50
ENDBRANCH  44  47
ENDBRANCH   1  44
TORSDOF 15
ENDMDL
MODEL 4
REMARK VINA RESULT:     -12.3      2.859      7.758
REMARK SMILES C[C@H](C(=O)NCCCCCCNC(=O)c1ccc(-c2c3nc(c(-c4c(F)c(F)c(F)c(F)c4F)c4ccc([nH]4)c(-c4c(F)c(F)c(F)c(F)c4F)c4nc(c(-c5c(F)c(F)c(F)c(F)c5F)c5ccc2[nH]5)C=C4)C=C3)cc1)c1ccc2c(c1)[nH]c1ccc(Cl)cc12
REMARK SMILES IDX 9 1 8 4 7 7 6 10 5 13 3 14 4 15 2 17 1 19 78 23 79 24 83 25
REMARK SMILES IDX 80 26 82 28 81 30 84 32 91 33 85 34 90 36 86 37 88 38 87 40
REMARK SMILES IDX 89 42 10 44 11 47 12 50 13 51 14 53 15 54 16 55 77 56 17 57
REMARK SMILES IDX 76 59 18 61 19 64 20 65 70 66 21 67 75 68 69 69 71 70 22 71
REMARK SMILES IDX 74 72 68 74 67 76 23 78 55 81 35 82 54 83 36 84 39 85 53 86
REMARK SMILES IDX 72 87 37 88 38 90 52 92 73 93 40 96 24 98 25 99 33 100
REMARK SMILES IDX 26 101 27 102 31 103 34 104 28 105 29 106 32 107 30 108
REMARK SMILES IDX 56 109 57 110 65 111 58 112 59 113 63 114 66 115 60 116
REMARK SMILES IDX 61 117 64 118 62 119 41 120 42 121 50 122 43 123 44 124
REMARK SMILES IDX 48 125 51 126 45 127 46 128 49 129 47 130
REMARK H PARENT 9 2 9 3 8 5 8 6 7 8 7 9 6 11 6 12 5 16 2 18 1 20 1 21 1 22
REMARK H PARENT 79 27 83 29 80 31 84 35 90 39 86 41 87 43 10 45 10 46 11 48
REMARK H PARENT 11 49 12 52 16 58 77 60 17 62 76 63 75 73 69 75 71 77 74 79
REMARK H PARENT 68 80 36 89 39 91 72 94 37 95 73 97
REMARK Flexibility Score: inf
ROOT
ATOM      1  C   UNL A   1      33.485  25.600  26.126  1.00  0.00    -0.052 C 
ATOM      2  H   UNL A   1      33.593  25.269  27.139  1.00  0.00     0.027 H 
ATOM      3  H   UNL A   1      32.688  25.135  25.582  1.00  0.00     0.027 H 
ENDROOT
BRANCH   1   4
ATOM      4  C   UNL A   1      34.759  25.209  25.375  1.00  0.00    -0.052 C 
ATOM      5  H   UNL A   1      34.471  24.921  24.385  1.00  0.00     0.027 H 
ATOM      6  H   UNL A   1      35.386  26.073  25.439  1.00  0.00     0.027 H 
BRANCH   4   7
ATOM      7  C   UNL A   1      35.605  24.072  25.953  1.00  0.00    -0.036 C 
ATOM      8  H   UNL A   1      36.229  23.706  25.166  1.00  0.00     0.028 H 
ATOM      9  H   UNL A   1      36.119  24.513  26.782  1.00  0.00     0.028 H 
BRANCH   7  10
ATOM     10  C   UNL A   1      34.873  22.875  26.548  1.00  0.00     0.017 C 
ATOM     11  H   UNL A   1      34.865  22.985  27.613  1.00  0.00     0.049 H 
ATOM     12  H   UNL A   1      33.895  22.876  26.114  1.00  0.00     0.049 H 
BRANCH  10  13
ATOM     13  N   UNL A   1      35.453  21.592  26.236  1.00  0.00    -0.356 N 
ATOM     14  C   UNL A   1      35.233  20.760  25.185  1.00  0.00     0.227 C 
ATOM     15  O   UNL A   1      36.124  19.916  25.001  1.00  0.00    -0.274 OA
ATOM     16  H   UNL A   1      36.114  21.266  26.890  1.00  0.00     0.163 HD
BRANCH  14  17
ATOM     17  C   UNL A   1      33.965  20.693  24.310  1.00  0.00     0.060 C 
ATOM     18  H   UNL A   1      34.284  20.366  23.342  1.00  0.00     0.045 H 
BRANCH  17  19
ATOM     19  C   UNL A   1      33.023  19.718  25.050  1.00  0.00    -0.049 C 
ATOM     20  H   UNL A   1      32.006  19.953  24.810  1.00  0.00     0.024 H 
ATOM     21  H   UNL A   1      33.170  19.811  26.106  1.00  0.00     0.024 H 
ATOM     22  H   UNL A   1      33.237  18.715  24.748  1.00  0.00     0.024 H 
ENDBRANCH  17  19
BRANCH  17  23
ATOM     23  C   UNL A   1      33.272  21.969  23.829  1.00  0.00    -0.034 A 
ATOM     24  C   UNL A   1      33.840  22.774  22.826  1.00  0.00    -0.057 A 
ATOM     25  C   UNL A   1      32.019  22.351  24.346  1.00  0.00    -0.034 A 
ATOM     26  C   UNL A   1      33.277  24.017  22.463  1.00  0.00    -0.052 A 
ATOM     27  H   UNL A   1      34.691  22.447  22.342  1.00  0.00     0.063 H 
ATOM     28  C   UNL A   1      31.459  23.571  23.957  1.00  0.00     0.047 A 
ATOM     29  H   UNL A   1      31.520  21.736  25.006  1.00  0.00     0.065 H 
ATOM     30  C   UNL A   1      32.074  24.444  23.067  1.00  0.00     0.007 A 
ATOM     31  H   UNL A   1      33.744  24.612  21.760  1.00  0.00     0.063 H 
ATOM     32  N   UNL A   1      30.278  24.145  24.349  1.00  0.00    -0.355 N 
ATOM     33  C   UNL A   1      31.276  25.639  23.036  1.00  0.00     0.009 A 
ATOM     34  C   UNL A   1      30.180  25.428  23.875  1.00  0.00     0.047 A 
ATOM     35  H   UNL A   1      29.593  23.697  24.897  1.00  0.00     0.167 HD
ATOM     36  C   UNL A   1      31.393  26.896  22.406  1.00  0.00    -0.033 A 
ATOM     37  C   UNL A   1      29.208  26.399  24.140  1.00  0.00    -0.036 A 
ATOM     38  C   UNL A   1      30.434  27.883  22.672  1.00  0.00     0.041 A 
ATOM     39  H   UNL A   1      32.175  27.087  21.758  1.00  0.00     0.065 H 
ATOM     40  C   UNL A   1      29.362  27.643  23.529  1.00  0.00    -0.041 A 
ATOM     41  H   UNL A   1      28.408  26.202  24.762  1.00  0.00     0.065 H 
ATOM     42  Cl  UNL A   1      30.588  29.435  21.939  1.00  0.00    -0.084 Cl
ATOM     43  H   UNL A   1      28.677  28.394  23.714  1.00  0.00     0.064 H 
ENDBRANCH  17  23
ENDBRANCH  14  17
ENDBRANCH  10  13
ENDBRANCH   7  10
ENDBRANCH   4   7
ENDBRANCH   1   4
BRANCH   1  44
ATOM     44  C   UNL A   1      33.126  27.084  26.161  1.00  0.00    -0.036 C 
ATOM     45  H   UNL A   1      32.436  27.234  26.966  1.00  0.00     0.028 H 
ATOM     46  H   UNL A   1      32.728  27.306  25.193  1.00  0.00     0.028 H 
BRANCH  44  47
ATOM     47  C   UNL A   1      34.285  28.051  26.358  1.00  0.00     0.018 C 
ATOM     48  H   UNL A   1      34.802  28.155  25.426  1.00  0.00     0.049 H 
ATOM     49  H   UNL A   1      34.912  27.642  27.124  1.00  0.00     0.049 H 
BRANCH  47  50
ATOM     50  N   UNL A   1      33.869  29.368  26.803  1.00  0.00    -0.352 N 
ATOM     51  C   UNL A   1      34.526  30.256  27.625  1.00  0.00     0.251 C 
ATOM     52  H   UNL A   1      32.992  29.670  26.471  1.00  0.00     0.163 HD
ATOM     53  O   UNL A   1      33.983  31.285  27.994  1.00  0.00    -0.269 OA
BRANCH  51  54
ATOM     54  C   UNL A   1      35.897  29.939  28.087  1.00  0.00     0.039 A 
ATOM     55  C   UNL A   1      36.075  29.415  29.369  1.00  0.00    -0.049 A 
ATOM     56  C   UNL A   1      36.998  30.149  27.252  1.00  0.00    -0.049 A 
ATOM     57  C   UNL A   1      37.353  29.038  29.793  1.00  0.00    -0.053 A 
ATOM     58  H   UNL A   1      35.266  29.305  30.002  1.00  0.00     0.063 H 
ATOM     59  C   UNL A   1      38.254  29.703  27.644  1.00  0.00    -0.053 A 
ATOM     60  H   UNL A   1      36.877  30.632  26.348  1.00  0.00     0.063 H 
ATOM     61  C   UNL A   1      38.446  29.150  28.922  1.00  0.00    -0.014 A 
ATOM     62  H   UNL A   1      37.493  28.677  30.751  1.00  0.00     0.063 H 
ATOM     63  H   UNL A   1      39.051  29.779  26.994  1.00  0.00     0.063 H 
BRANCH  61  64
ATOM     64  C   UNL A   1      39.816  28.733  29.317  1.00  0.00     0.031 A 
ATOM     65  C   UNL A   1      40.681  29.683  30.094  1.00  0.00     0.074 A 
ATOM     66  C   UNL A   1      40.314  27.557  28.890  1.00  0.00     0.049 A 
ATOM     67  N   UNL A   1      41.953  29.599  30.390  1.00  0.00    -0.248 NA
ATOM     68  C   UNL A   1      40.032  30.914  30.569  1.00  0.00    -0.034 C 
ATOM     69  C   UNL A   1      39.584  26.563  28.106  1.00  0.00    -0.036 A 
ATOM     70  N   UNL A   1      41.569  27.016  29.033  1.00  0.00    -0.354 N 
ATOM     71  C   UNL A   1      42.261  30.778  31.054  1.00  0.00     0.074 A 
ATOM     72  C   UNL A   1      41.058  31.582  31.073  1.00  0.00    -0.034 C 
ATOM     73  H   UNL A   1      39.037  31.186  30.523  1.00  0.00     0.065 H 
ATOM     74  C   UNL A   1      40.402  25.532  27.835  1.00  0.00    -0.036 A 
ATOM     75  H   UNL A   1      38.599  26.640  27.808  1.00  0.00     0.065 H 
ATOM     76  C   UNL A   1      41.725  25.815  28.386  1.00  0.00     0.049 A 
ATOM     77  H   UNL A   1      42.287  27.448  29.549  1.00  0.00     0.167 HD
ATOM     78  C   UNL A   1      43.438  31.151  31.612  1.00  0.00     0.037 A 
ATOM     79  H   UNL A   1      41.005  32.547  31.433  1.00  0.00     0.065 H 
ATOM     80  H   UNL A   1      40.137  24.676  27.323  1.00  0.00     0.065 H 
ATOM     81  C   UNL A   1      42.817  25.042  28.232  1.00  0.00     0.037 A 
ATOM     82  C   UNL A   1      44.623  30.334  31.608  1.00  0.00     0.049 A 
ATOM     83  C   UNL A   1      44.119  25.476  28.850  1.00  0.00     0.074 A 
ATOM     84  C   UNL A   1      45.849  30.590  32.196  1.00  0.00    -0.036 A 
ATOM     85  N   UNL A   1      44.731  29.105  30.974  1.00  0.00    -0.354 N 
ATOM     86  N   UNL A   1      44.390  26.566  29.526  1.00  0.00    -0.248 NA
ATOM     87  C   UNL A   1      45.266  24.571  28.690  1.00  0.00    -0.034 C 
ATOM     88  C   UNL A   1      46.715  29.540  31.870  1.00  0.00    -0.036 A 
ATOM     89  H   UNL A   1      46.083  31.411  32.774  1.00  0.00     0.065 H 
ATOM     90  C   UNL A   1      46.010  28.599  31.138  1.00  0.00     0.049 A 
ATOM     91  H   UNL A   1      44.005  28.657  30.481  1.00  0.00     0.167 HD
ATOM     92  C   UNL A   1      45.722  26.464  29.903  1.00  0.00     0.074 A 
ATOM     93  C   UNL A   1      46.207  25.204  29.379  1.00  0.00    -0.034 C 
ATOM     94  H   UNL A   1      45.323  23.677  28.178  1.00  0.00     0.065 H 
ATOM     95  H   UNL A   1      47.711  29.479  32.133  1.00  0.00     0.065 H 
ATOM     96  C   UNL A   1      46.471  27.332  30.626  1.00  0.00     0.037 A 
ATOM     97  H   UNL A   1      47.163  24.843  29.523  1.00  0.00     0.065 H 
BRANCH  78  98
ATOM     98  C   UNL A   1      43.498  32.508  32.256  1.00  0.00     0.064 A 
ATOM     99  C   UNL A   1      43.214  32.697  33.618  1.00  0.00     0.173 A 
ATOM    100  C   UNL A   1      43.842  33.637  31.498  1.00  0.00     0.173 A 
ATOM    101  F   UNL A   1      42.870  31.653  34.387  1.00  0.00    -0.203 F 
ATOM    102  C   UNL A   1      43.220  33.970  34.183  1.00  0.00     0.198 A 
ATOM    103  C   UNL A   1      43.886  34.904  32.076  1.00  0.00     0.198 A 
ATOM    104  F   UNL A   1      44.133  33.517  30.194  1.00  0.00    -0.203 F 
ATOM    105  F   UNL A   1      42.871  34.132  35.467  1.00  0.00    -0.200 F 
ATOM    106  C   UNL A   1      43.561  35.071  33.414  1.00  0.00     0.200 A 
ATOM    107  F   UNL A   1      44.232  35.965  31.334  1.00  0.00    -0.200 F 
ATOM    108  F   UNL A   1      43.565  36.296  33.958  1.00  0.00    -0.200 F 
ENDBRANCH  78  98
BRANCH  81 109
ATOM    109  C   UNL A   1      42.712  23.769  27.472  1.00  0.00     0.064 A 
ATOM    110  C   UNL A   1      43.080  23.706  26.121  1.00  0.00     0.173 A 
ATOM    111  C   UNL A   1      42.275  22.586  28.085  1.00  0.00     0.173 A 
ATOM    112  F   UNL A   1      43.487  24.815  25.485  1.00  0.00    -0.203 F 
ATOM    113  C   UNL A   1      43.008  22.510  25.410  1.00  0.00     0.198 A 
ATOM    114  C   UNL A   1      42.229  21.384  27.380  1.00  0.00     0.198 A 
ATOM    115  F   UNL A   1      41.918  22.591  29.379  1.00  0.00    -0.203 F 
ATOM    116  F   UNL A   1      43.338  22.483  24.111  1.00  0.00    -0.200 F 
ATOM    117  C   UNL A   1      42.592  21.348  26.043  1.00  0.00     0.200 A 
ATOM    118  F   UNL A   1      41.844  20.261  28.001  1.00  0.00    -0.200 F 
ATOM    119  F   UNL A   1      42.537  20.195  25.363  1.00  0.00    -0.200 F 
ENDBRANCH  81 109
BRANCH  96 120
ATOM    120  C   UNL A   1      47.882  26.933  30.955  1.00  0.00     0.064 A 
ATOM    121  C   UNL A   1      48.191  26.161  32.082  1.00  0.00     0.173 A 
ATOM    122  C   UNL A   1      48.926  27.260  30.075  1.00  0.00     0.173 A 
ATOM    123  F   UNL A   1      47.232  25.832  32.962  1.00  0.00    -0.203 F 
ATOM    124  C   UNL A   1      49.497  25.741  32.324  1.00  0.00     0.198 A 
ATOM    125  C   UNL A   1      50.223  26.814  30.303  1.00  0.00     0.198 A 
ATOM    126  F   UNL A   1      48.680  27.992  28.978  1.00  0.00    -0.203 F 
ATOM    127  F   UNL A   1      49.778  25.031  33.425  1.00  0.00    -0.200 F 
ATOM    128  C   UNL A   1      50.509  26.057  31.428  1.00  0.00     0.200 A 
ATOM    129  F   UNL A   1      51.195  27.106  29.427  1.00  0.00    -0.200 F 
ATOM    130  F   UNL A   1      51.761  25.634  31.653  1.00  0.00    -0.200 F 
ENDBRANCH  96 120
ENDBRANCH  61  64
ENDBRANCH  51  54
ENDBRANCH  47  50
ENDBRANCH  44  47
ENDBRANCH   1  44
TORSDOF 15
ENDMDL
MODEL 5
REMARK VINA RESULT:     -12.1      2.579      4.305
REMARK SMILES C[C@H](C(=O)NCCCCCCNC(=O)c1ccc(-c2c3nc(c(-c4c(F)c(F)c(F)c(F)c4F)c4ccc([nH]4)c(-c4c(F)c(F)c(F)c(F)c4F)c4nc(c(-c5c(F)c(F)c(F)c(F)c5F)c5ccc2[nH]5)C=C4)C=C3)cc1)c1ccc2c(c1)[nH]c1ccc(Cl)cc12
REMARK SMILES IDX 9 1 8 4 7 7 6 10 5 13 3 14 4 15 2 17 1 19 78 23 79 24 83 25
REMARK SMILES IDX 80 26 82 28 81 30 84 32 91 33 85 34 90 36 86 37 88 38 87 40
REMARK SMILES IDX 89 42 10 44 11 47 12 50 13 51 14 53 15 54 16 55 77 56 17 57
REMARK SMILES IDX 76 59 18 61 19 64 20 65 70 66 21 67 75 68 69 69 71 70 22 71
REMARK SMILES IDX 74 72 68 74 67 76 23 78 55 81 35 82 54 83 36 84 39 85 53 86
REMARK SMILES IDX 72 87 37 88 38 90 52 92 73 93 40 96 24 98 25 99 33 100
REMARK SMILES IDX 26 101 27 102 31 103 34 104 28 105 29 106 32 107 30 108
REMARK SMILES IDX 56 109 57 110 65 111 58 112 59 113 63 114 66 115 60 116
REMARK SMILES IDX 61 117 64 118 62 119 41 120 42 121 50 122 43 123 44 124
REMARK SMILES IDX 48 125 51 126 45 127 46 128 49 129 47 130
REMARK H PARENT 9 2 9 3 8 5 8 6 7 8 7 9 6 11 6 12 5 16 2 18 1 20 1 21 1 22
REMARK H PARENT 79 27 83 29 80 31 84 35 90 39 86 41 87 43 10 45 10 46 11 48
REMARK H PARENT 11 49 12 52 16 58 77 60 17 62 76 63 75 73 69 75 71 77 74 79
REMARK H PARENT 68 80 36 89 39 91 72 94 37 95 73 97
REMARK Flexibility Score: inf
ROOT
ATOM      1  C   UNL A   1      31.840  30.439  26.048  1.00  0.00    -0.052 C 
ATOM      2  H   UNL A   1      31.186  29.711  26.482  1.00  0.00     0.027 H 
ATOM      3  H   UNL A   1      31.700  30.603  24.999  1.00  0.00     0.027 H 
ENDROOT
BRANCH   1   4
ATOM      4  C   UNL A   1      33.270  29.912  26.179  1.00  0.00    -0.052 C 
ATOM      5  H   UNL A   1      33.931  30.710  25.915  1.00  0.00     0.027 H 
ATOM      6  H   UNL A   1      33.340  29.571  27.191  1.00  0.00     0.027 H 
BRANCH   4   7
ATOM      7  C   UNL A   1      33.660  28.696  25.335  1.00  0.00    -0.036 C 
ATOM      8  H   UNL A   1      34.724  28.603  25.381  1.00  0.00     0.028 H 
ATOM      9  H   UNL A   1      33.107  27.884  25.758  1.00  0.00     0.028 H 
BRANCH   7  10
ATOM     10  C   UNL A   1      33.268  28.701  23.861  1.00  0.00     0.017 C 
ATOM     11  H   UNL A   1      32.201  28.636  23.802  1.00  0.00     0.049 H 
ATOM     12  H   UNL A   1      33.662  29.607  23.449  1.00  0.00     0.049 H 
BRANCH  10  13
ATOM     13  N   UNL A   1      33.827  27.625  23.081  1.00  0.00    -0.356 N 
ATOM     14  C   UNL A   1      33.330  26.391  22.802  1.00  0.00     0.227 C 
ATOM     15  O   UNL A   1      33.858  25.832  21.827  1.00  0.00    -0.274 OA
ATOM     16  H   UNL A   1      34.709  27.813  22.687  1.00  0.00     0.163 HD
BRANCH  14  17
ATOM     17  C   UNL A   1      32.297  25.603  23.631  1.00  0.00     0.060 C 
ATOM     18  H   UNL A   1      32.430  25.910  24.648  1.00  0.00     0.045 H 
BRANCH  17  19
ATOM     19  C   UNL A   1      30.929  25.969  23.014  1.00  0.00    -0.049 C 
ATOM     20  H   UNL A   1      31.071  26.686  22.232  1.00  0.00     0.024 H 
ATOM     21  H   UNL A   1      30.296  26.387  23.769  1.00  0.00     0.024 H 
ATOM     22  H   UNL A   1      30.471  25.090  22.612  1.00  0.00     0.024 H 
ENDBRANCH  17  19
BRANCH  17  23
ATOM     23  C   UNL A   1      32.471  24.106  23.890  1.00  0.00    -0.034 A 
ATOM     24  C   UNL A   1      33.124  23.636  25.043  1.00  0.00    -0.057 A 
ATOM     25  C   UNL A   1      31.939  23.151  23.002  1.00  0.00    -0.034 A 
ATOM     26  C   UNL A   1      33.403  22.264  25.232  1.00  0.00    -0.052 A 
ATOM     27  H   UNL A   1      33.406  24.311  25.771  1.00  0.00     0.063 H 
ATOM     28  C   UNL A   1      32.199  21.795  23.216  1.00  0.00     0.047 A 
ATOM     29  H   UNL A   1      31.364  23.450  22.200  1.00  0.00     0.065 H 
ATOM     30  C   UNL A   1      32.960  21.322  24.279  1.00  0.00     0.007 A 
ATOM     31  H   UNL A   1      33.931  21.953  26.063  1.00  0.00     0.063 H 
ATOM     32  N   UNL A   1      31.808  20.711  22.474  1.00  0.00    -0.355 N 
ATOM     33  C   UNL A   1      33.127  19.908  24.076  1.00  0.00     0.009 A 
ATOM     34  C   UNL A   1      32.421  19.568  22.920  1.00  0.00     0.047 A 
ATOM     35  H   UNL A   1      31.173  20.747  21.722  1.00  0.00     0.167 HD
ATOM     36  C   UNL A   1      33.838  18.887  24.741  1.00  0.00    -0.033 A 
ATOM     37  C   UNL A   1      32.399  18.280  22.376  1.00  0.00    -0.036 A 
ATOM     38  C   UNL A   1      33.835  17.593  24.200  1.00  0.00     0.041 A 
ATOM     39  H   UNL A   1      34.353  19.088  25.612  1.00  0.00     0.065 H 
ATOM     40  C   UNL A   1      33.134  17.294  23.035  1.00  0.00    -0.041 A 
ATOM     41  H   UNL A   1      31.859  18.067  21.523  1.00  0.00     0.065 H 
ATOM     42  Cl  UNL A   1      34.733  16.346  24.981  1.00  0.00    -0.084 Cl
ATOM     43  H   UNL A   1      33.160  16.334  22.654  1.00  0.00     0.064 H 
ENDBRANCH  17  23
ENDBRANCH  14  17
ENDBRANCH  10  13
ENDBRANCH   7  10
ENDBRANCH   4   7
ENDBRANCH   1   4
BRANCH   1  44
ATOM     44  C   UNL A   1      31.532  31.784  26.702  1.00  0.00    -0.036 C 
ATOM     45  H   UNL A   1      30.854  31.606  27.511  1.00  0.00     0.028 H 
ATOM     46  H   UNL A   1      31.134  32.399  25.922  1.00  0.00     0.028 H 
BRANCH  44  47
ATOM     47  C   UNL A   1      32.725  32.550  27.256  1.00  0.00     0.018 C 
ATOM     48  H   UNL A   1      33.504  32.543  26.522  1.00  0.00     0.049 H 
ATOM     49  H   UNL A   1      33.021  32.063  28.163  1.00  0.00     0.049 H 
BRANCH  47  50
ATOM     50  N   UNL A   1      32.421  33.930  27.591  1.00  0.00    -0.352 N 
ATOM     51  C   UNL A   1      33.025  34.754  28.512  1.00  0.00     0.251 C 
ATOM     52  H   UNL A   1      31.677  34.333  27.087  1.00  0.00     0.163 HD
ATOM     53  O   UNL A   1      32.572  35.862  28.751  1.00  0.00    -0.269 OA
BRANCH  51  54
ATOM     54  C   UNL A   1      34.223  34.275  29.240  1.00  0.00     0.039 A 
ATOM     55  C   UNL A   1      34.051  33.541  30.417  1.00  0.00    -0.049 A 
ATOM     56  C   UNL A   1      35.506  34.540  28.756  1.00  0.00    -0.049 A 
ATOM     57  C   UNL A   1      35.166  33.015  31.075  1.00  0.00    -0.053 A 
ATOM     58  H   UNL A   1      33.104  33.387  30.798  1.00  0.00     0.063 H 
ATOM     59  C   UNL A   1      36.607  33.952  29.367  1.00  0.00    -0.053 A 
ATOM     60  H   UNL A   1      35.635  35.169  27.948  1.00  0.00     0.063 H 
ATOM     61  C   UNL A   1      36.450  33.190  30.537  1.00  0.00    -0.014 A 
ATOM     62  H   UNL A   1      35.045  32.497  31.960  1.00  0.00     0.063 H 
ATOM     63  H   UNL A   1      37.547  34.077  28.959  1.00  0.00     0.063 H 
BRANCH  61  64
ATOM     64  C   UNL A   1      37.660  32.623  31.183  1.00  0.00     0.031 A 
ATOM     65  C   UNL A   1      38.396  31.499  30.513  1.00  0.00     0.074 A 
ATOM     66  C   UNL A   1      38.031  33.040  32.409  1.00  0.00     0.049 A 
ATOM     67  N   UNL A   1      39.362  30.744  30.972  1.00  0.00    -0.248 NA
ATOM     68  C   UNL A   1      37.959  31.155  29.152  1.00  0.00    -0.034 C 
ATOM     69  C   UNL A   1      37.381  34.101  33.175  1.00  0.00    -0.036 A 
ATOM     70  N   UNL A   1      39.031  32.594  33.238  1.00  0.00    -0.354 N 
ATOM     71  C   UNL A   1      39.621  29.818  29.972  1.00  0.00     0.074 A 
ATOM     72  C   UNL A   1      38.679  30.072  28.903  1.00  0.00    -0.034 C 
ATOM     73  H   UNL A   1      37.270  31.632  28.549  1.00  0.00     0.065 H 
ATOM     74  C   UNL A   1      37.997  34.227  34.362  1.00  0.00    -0.036 A 
ATOM     75  H   UNL A   1      36.578  34.665  32.855  1.00  0.00     0.065 H 
ATOM     76  C   UNL A   1      39.054  33.222  34.458  1.00  0.00     0.049 A 
ATOM     77  H   UNL A   1      39.671  31.890  32.982  1.00  0.00     0.167 HD
ATOM     78  C   UNL A   1      40.570  28.852  29.941  1.00  0.00     0.037 A 
ATOM     79  H   UNL A   1      38.582  29.488  28.059  1.00  0.00     0.065 H 
ATOM     80  H   UNL A   1      37.763  34.922  35.088  1.00  0.00     0.065 H 
ATOM     81  C   UNL A   1      39.822  32.998  35.542  1.00  0.00     0.037 A 
ATOM     82  C   UNL A   1      41.517  28.621  30.999  1.00  0.00     0.049 A 
ATOM     83  C   UNL A   1      40.865  31.913  35.493  1.00  0.00     0.074 A 
ATOM     84  C   UNL A   1      42.557  27.710  31.044  1.00  0.00    -0.036 A 
ATOM     85  N   UNL A   1      41.532  29.306  32.207  1.00  0.00    -0.354 N 
ATOM     86  N   UNL A   1      41.142  31.077  34.523  1.00  0.00    -0.248 NA
ATOM     87  C   UNL A   1      41.705  31.745  36.688  1.00  0.00    -0.034 C 
ATOM     88  C   UNL A   1      43.166  27.805  32.300  1.00  0.00    -0.036 A 
ATOM     89  H   UNL A   1      42.835  27.072  30.283  1.00  0.00     0.065 H 
ATOM     90  C   UNL A   1      42.550  28.821  33.012  1.00  0.00     0.049 A 
ATOM     91  H   UNL A   1      40.911  30.029  32.454  1.00  0.00     0.167 HD
ATOM     92  C   UNL A   1      42.209  30.310  34.970  1.00  0.00     0.074 A 
ATOM     93  C   UNL A   1      42.529  30.778  36.303  1.00  0.00    -0.034 C 
ATOM     94  H   UNL A   1      41.665  32.247  37.588  1.00  0.00     0.065 H 
ATOM     95  H   UNL A   1      43.943  27.216  32.638  1.00  0.00     0.065 H 
ATOM     96  C   UNL A   1      42.868  29.313  34.330  1.00  0.00     0.037 A 
ATOM     97  H   UNL A   1      43.299  30.408  36.880  1.00  0.00     0.065 H 
BRANCH  78  98
ATOM     98  C   UNL A   1      40.612  27.964  28.728  1.00  0.00     0.064 A 
ATOM     99  C   UNL A   1      41.366  28.295  27.592  1.00  0.00     0.173 A 
ATOM    100  C   UNL A   1      39.883  26.765  28.701  1.00  0.00     0.173 A 
ATOM    101  F   UNL A   1      42.074  29.435  27.559  1.00  0.00    -0.203 F 
ATOM    102  C   UNL A   1      41.348  27.488  26.457  1.00  0.00     0.198 A 
ATOM    103  C   UNL A   1      39.899  25.940  27.579  1.00  0.00     0.198 A 
ATOM    104  F   UNL A   1      39.152  26.392  29.762  1.00  0.00    -0.203 F 
ATOM    105  F   UNL A   1      42.016  27.866  25.358  1.00  0.00    -0.200 F 
ATOM    106  C   UNL A   1      40.619  26.310  26.453  1.00  0.00     0.200 A 
ATOM    107  F   UNL A   1      39.207  24.792  27.584  1.00  0.00    -0.200 F 
ATOM    108  F   UNL A   1      40.600  25.535  25.360  1.00  0.00    -0.200 F 
ENDBRANCH  78  98
BRANCH  81 109
ATOM    109  C   UNL A   1      39.638  33.836  36.756  1.00  0.00     0.064 A 
ATOM    110  C   UNL A   1      40.248  35.093  36.861  1.00  0.00     0.173 A 
ATOM    111  C   UNL A   1      38.823  33.415  37.817  1.00  0.00     0.173 A 
ATOM    112  F   UNL A   1      41.051  35.532  35.880  1.00  0.00    -0.203 F 
ATOM    113  C   UNL A   1      40.059  35.894  37.986  1.00  0.00     0.198 A 
ATOM    114  C   UNL A   1      38.613  34.228  38.929  1.00  0.00     0.198 A 
ATOM    115  F   UNL A   1      38.209  32.223  37.762  1.00  0.00    -0.203 F 
ATOM    116  F   UNL A   1      40.679  37.078  38.075  1.00  0.00    -0.200 F 
ATOM    117  C   UNL A   1      39.234  35.464  39.014  1.00  0.00     0.200 A 
ATOM    118  F   UNL A   1      37.800  33.817  39.912  1.00  0.00    -0.200 F 
ATOM    119  F   UNL A   1      39.039  36.241  40.089  1.00  0.00    -0.200 F 
ENDBRANCH  81 109
BRANCH  96 120
ATOM    120  C   UNL A   1      44.046  28.693  35.027  1.00  0.00     0.064 A 
ATOM    121  C   UNL A   1      45.336  29.229  34.922  1.00  0.00     0.173 A 
ATOM    122  C   UNL A   1      43.856  27.594  35.880  1.00  0.00     0.173 A 
ATOM    123  F   UNL A   1      45.573  30.270  34.110  1.00  0.00    -0.203 F 
ATOM    124  C   UNL A   1      46.397  28.679  35.638  1.00  0.00     0.198 A 
ATOM    125  C   UNL A   1      44.913  27.068  36.617  1.00  0.00     0.198 A 
ATOM    126  F   UNL A   1      42.638  27.049  36.020  1.00  0.00    -0.203 F 
ATOM    127  F   UNL A   1      47.630  29.186  35.499  1.00  0.00    -0.200 F 
ATOM    128  C   UNL A   1      46.182  27.608  36.494  1.00  0.00     0.200 A 
ATOM    129  F   UNL A   1      44.698  26.044  37.455  1.00  0.00    -0.200 F 
ATOM    130  F   UNL A   1      47.202  27.095  37.197  1.00  0.00    -0.200 F 
ENDBRANCH  96 120
ENDBRANCH  61  64
ENDBRANCH  51  54
ENDBRANCH  47  50
ENDBRANCH  44  47
ENDBRANCH   1  44
TORSDOF 15
ENDMDL
MODEL 6
REMARK VINA RESULT:     -12.1      4.846     10.094
REMARK SMILES C[C@H](C(=O)NCCCCCCNC(=O)c1ccc(-c2c3nc(c(-c4c(F)c(F)c(F)c(F)c4F)c4ccc([nH]4)c(-c4c(F)c(F)c(F)c(F)c4F)c4nc(c(-c5c(F)c(F)c(F)c(F)c5F)c5ccc2[nH]5)C=C4)C=C3)cc1)c1ccc2c(c1)[nH]c1ccc(Cl)cc12
REMARK SMILES IDX 9 1 8 4 7 7 6 10 5 13 3 14 4 15 2 17 1 19 78 23 79 24 83 25
REMARK SMILES IDX 80 26 82 28 81 30 84 32 91 33 85 34 90 36 86 37 88 38 87 40
REMARK SMILES IDX 89 42 10 44 11 47 12 50 13 51 14 53 15 54 16 55 77 56 17 57
REMARK SMILES IDX 76 59 18 61 19 64 20 65 70 66 21 67 75 68 69 69 71 70 22 71
REMARK SMILES IDX 74 72 68 74 67 76 23 78 55 81 35 82 54 83 36 84 39 85 53 86
REMARK SMILES IDX 72 87 37 88 38 90 52 92 73 93 40 96 24 98 25 99 33 100
REMARK SMILES IDX 26 101 27 102 31 103 34 104 28 105 29 106 32 107 30 108
REMARK SMILES IDX 56 109 57 110 65 111 58 112 59 113 63 114 66 115 60 116
REMARK SMILES IDX 61 117 64 118 62 119 41 120 42 121 50 122 43 123 44 124
REMARK SMILES IDX 48 125 51 126 45 127 46 128 49 129 47 130
REMARK H PARENT 9 2 9 3 8 5 8 6 7 8 7 9 6 11 6 12 5 16 2 18 1 20 1 21 1 22
REMARK H PARENT 79 27 83 29 80 31 84 35 90 39 86 41 87 43 10 45 10 46 11 48
REMARK H PARENT 11 49 12 52 16 58 77 60 17 62 76 63 75 73 69 75 71 77 74 79
REMARK H PARENT 68 80 36 89 39 91 72 94 37 95 73 97
REMARK Flexibility Score: inf
ROOT
ATOM      1  C   UNL A   1      36.689  20.994  24.991  1.00  0.00    -0.052 C 
ATOM      2  H   UNL A   1      35.872  20.573  24.441  1.00  0.00     0.027 H 
ATOM      3  H   UNL A   1      36.498  21.154  26.032  1.00  0.00     0.027 H 
ENDROOT
BRANCH   1   4
ATOM      4  C   UNL A   1      36.962  22.386  24.419  1.00  0.00    -0.052 C 
ATOM      5  H   UNL A   1      37.547  22.919  25.139  1.00  0.00     0.027 H 
ATOM      6  H   UNL A   1      37.442  22.204  23.480  1.00  0.00     0.027 H 
BRANCH   4   7
ATOM      7  C   UNL A   1      35.755  23.262  24.072  1.00  0.00    -0.036 C 
ATOM      8  H   UNL A   1      35.936  23.688  23.108  1.00  0.00     0.028 H 
ATOM      9  H   UNL A   1      34.916  22.601  24.134  1.00  0.00     0.028 H 
BRANCH   7  10
ATOM     10  C   UNL A   1      35.414  24.406  25.020  1.00  0.00     0.017 C 
ATOM     11  H   UNL A   1      35.063  23.984  25.938  1.00  0.00     0.049 H 
ATOM     12  H   UNL A   1      36.310  24.980  25.131  1.00  0.00     0.049 H 
BRANCH  10  13
ATOM     13  N   UNL A   1      34.407  25.318  24.533  1.00  0.00    -0.356 N 
ATOM     14  C   UNL A   1      33.132  25.526  24.954  1.00  0.00     0.227 C 
ATOM     15  O   UNL A   1      32.639  26.605  24.589  1.00  0.00    -0.274 OA
ATOM     16  H   UNL A   1      34.689  25.880  23.775  1.00  0.00     0.163 HD
BRANCH  14  17
ATOM     17  C   UNL A   1      32.235  24.525  25.709  1.00  0.00     0.060 C 
ATOM     18  H   UNL A   1      32.480  24.625  26.746  1.00  0.00     0.045 H 
BRANCH  17  19
ATOM     19  C   UNL A   1      30.791  24.927  25.339  1.00  0.00    -0.049 C 
ATOM     20  H   UNL A   1      30.714  25.994  25.306  1.00  0.00     0.024 H 
ATOM     21  H   UNL A   1      30.113  24.545  26.074  1.00  0.00     0.024 H 
ATOM     22  H   UNL A   1      30.541  24.522  24.380  1.00  0.00     0.024 H 
ENDBRANCH  17  19
BRANCH  17  23
ATOM     23  C   UNL A   1      32.492  23.019  25.627  1.00  0.00    -0.034 A 
ATOM     24  C   UNL A   1      33.048  22.314  26.709  1.00  0.00    -0.057 A 
ATOM     25  C   UNL A   1      32.135  22.286  24.479  1.00  0.00    -0.034 A 
ATOM     26  C   UNL A   1      33.407  20.952  26.602  1.00  0.00    -0.052 A 
ATOM     27  H   UNL A   1      33.197  22.804  27.604  1.00  0.00     0.063 H 
ATOM     28  C   UNL A   1      32.471  20.932  24.398  1.00  0.00     0.047 A 
ATOM     29  H   UNL A   1      31.630  22.744  23.705  1.00  0.00     0.065 H 
ATOM     30  C   UNL A   1      33.143  20.251  25.406  1.00  0.00     0.007 A 
ATOM     31  H   UNL A   1      33.862  20.472  27.394  1.00  0.00     0.063 H 
ATOM     32  N   UNL A   1      32.246  20.044  23.377  1.00  0.00    -0.355 N 
ATOM     33  C   UNL A   1      33.437  18.938  24.897  1.00  0.00     0.009 A 
ATOM     34  C   UNL A   1      32.890  18.857  23.615  1.00  0.00     0.047 A 
ATOM     35  H   UNL A   1      31.697  20.233  22.582  1.00  0.00     0.167 HD
ATOM     36  C   UNL A   1      34.146  17.820  25.385  1.00  0.00    -0.033 A 
ATOM     37  C   UNL A   1      33.025  17.740  22.783  1.00  0.00    -0.036 A 
ATOM     38  C   UNL A   1      34.300  16.698  24.558  1.00  0.00     0.041 A 
ATOM     39  H   UNL A   1      34.546  17.827  26.337  1.00  0.00     0.065 H 
ATOM     40  C   UNL A   1      33.756  16.659  23.277  1.00  0.00    -0.041 A 
ATOM     41  H   UNL A   1      32.600  17.716  21.843  1.00  0.00     0.065 H 
ATOM     42  Cl  UNL A   1      35.197  15.342  25.128  1.00  0.00    -0.084 Cl
ATOM     43  H   UNL A   1      33.895  15.823  22.687  1.00  0.00     0.064 H 
ENDBRANCH  17  23
ENDBRANCH  14  17
ENDBRANCH  10  13
ENDBRANCH   7  10
ENDBRANCH   4   7
ENDBRANCH   1   4
BRANCH   1  44
ATOM     44  C   UNL A   1      37.838  19.989  24.950  1.00  0.00    -0.036 C 
ATOM     45  H   UNL A   1      38.139  19.878  23.928  1.00  0.00     0.028 H 
ATOM     46  H   UNL A   1      37.454  19.095  25.395  1.00  0.00     0.028 H 
BRANCH  44  47
ATOM     47  C   UNL A   1      39.075  20.349  25.761  1.00  0.00     0.018 C 
ATOM     48  H   UNL A   1      38.767  20.600  26.755  1.00  0.00     0.049 H 
ATOM     49  H   UNL A   1      39.551  21.170  25.266  1.00  0.00     0.049 H 
BRANCH  47  50
ATOM     50  N   UNL A   1      40.048  19.274  25.838  1.00  0.00    -0.352 N 
ATOM     51  C   UNL A   1      41.401  19.342  26.082  1.00  0.00     0.251 C 
ATOM     52  H   UNL A   1      39.689  18.368  25.696  1.00  0.00     0.163 HD
ATOM     53  O   UNL A   1      42.101  18.345  26.002  1.00  0.00    -0.269 OA
BRANCH  51  54
ATOM     54  C   UNL A   1      42.013  20.648  26.416  1.00  0.00     0.039 A 
ATOM     55  C   UNL A   1      42.295  21.547  25.385  1.00  0.00    -0.049 A 
ATOM     56  C   UNL A   1      42.296  20.985  27.742  1.00  0.00    -0.049 A 
ATOM     57  C   UNL A   1      42.801  22.814  25.688  1.00  0.00    -0.053 A 
ATOM     58  H   UNL A   1      42.129  21.277  24.402  1.00  0.00     0.063 H 
ATOM     59  C   UNL A   1      42.726  22.271  28.049  1.00  0.00    -0.053 A 
ATOM     60  H   UNL A   1      42.186  20.283  28.490  1.00  0.00     0.063 H 
ATOM     61  C   UNL A   1      42.991  23.197  27.024  1.00  0.00    -0.014 A 
ATOM     62  H   UNL A   1      43.037  23.471  24.927  1.00  0.00     0.063 H 
ATOM     63  H   UNL A   1      42.852  22.548  29.034  1.00  0.00     0.063 H 
BRANCH  61  64
ATOM     64  C   UNL A   1      43.495  24.542  27.396  1.00  0.00     0.031 A 
ATOM     65  C   UNL A   1      42.538  25.566  27.935  1.00  0.00     0.074 A 
ATOM     66  C   UNL A   1      44.777  24.875  27.152  1.00  0.00     0.049 A 
ATOM     67  N   UNL A   1      42.723  26.843  28.157  1.00  0.00    -0.248 NA
ATOM     68  C   UNL A   1      41.177  25.095  28.227  1.00  0.00    -0.034 C 
ATOM     69  C   UNL A   1      45.795  23.980  26.606  1.00  0.00    -0.036 A 
ATOM     70  N   UNL A   1      45.432  26.072  27.307  1.00  0.00    -0.354 N 
ATOM     71  C   UNL A   1      41.494  27.330  28.582  1.00  0.00     0.074 A 
ATOM     72  C   UNL A   1      40.561  26.225  28.537  1.00  0.00    -0.034 C 
ATOM     73  H   UNL A   1      40.800  24.134  28.198  1.00  0.00     0.065 H 
ATOM     74  C   UNL A   1      46.947  24.657  26.469  1.00  0.00    -0.036 A 
ATOM     75  H   UNL A   1      45.652  22.987  26.364  1.00  0.00     0.065 H 
ATOM     76  C   UNL A   1      46.735  26.044  26.873  1.00  0.00     0.049 A 
ATOM     77  H   UNL A   1      45.009  26.874  27.690  1.00  0.00     0.167 HD
ATOM     78  C   UNL A   1      41.177  28.583  28.987  1.00  0.00     0.037 A 
ATOM     79  H   UNL A   1      39.550  26.306  28.723  1.00  0.00     0.065 H 
ATOM     80  H   UNL A   1      47.839  24.260  26.134  1.00  0.00     0.065 H 
ATOM     81  C   UNL A   1      47.648  27.031  26.788  1.00  0.00     0.037 A 
ATOM     82  C   UNL A   1      42.117  29.670  29.049  1.00  0.00     0.049 A 
ATOM     83  C   UNL A   1      47.275  28.420  27.233  1.00  0.00     0.074 A 
ATOM     84  C   UNL A   1      41.915  30.961  29.502  1.00  0.00    -0.036 A 
ATOM     85  N   UNL A   1      43.440  29.592  28.637  1.00  0.00    -0.354 N 
ATOM     86  N   UNL A   1      46.127  28.862  27.686  1.00  0.00    -0.248 NA
ATOM     87  C   UNL A   1      48.325  29.446  27.161  1.00  0.00    -0.034 C 
ATOM     88  C   UNL A   1      43.100  31.681  29.311  1.00  0.00    -0.036 A 
ATOM     89  H   UNL A   1      41.042  31.330  29.909  1.00  0.00     0.065 H 
ATOM     90  C   UNL A   1      44.060  30.819  28.804  1.00  0.00     0.049 A 
ATOM     91  H   UNL A   1      43.874  28.784  28.279  1.00  0.00     0.167 HD
ATOM     92  C   UNL A   1      46.323  30.202  27.988  1.00  0.00     0.074 A 
ATOM     93  C   UNL A   1      47.702  30.505  27.664  1.00  0.00    -0.034 C 
ATOM     94  H   UNL A   1      49.292  29.365  26.812  1.00  0.00     0.065 H 
ATOM     95  H   UNL A   1      43.235  32.683  29.514  1.00  0.00     0.065 H 
ATOM     96  C   UNL A   1      45.441  31.099  28.495  1.00  0.00     0.037 A 
ATOM     97  H   UNL A   1      48.145  31.426  27.807  1.00  0.00     0.065 H 
BRANCH  78  98
ATOM     98  C   UNL A   1      39.748  28.841  29.375  1.00  0.00     0.064 A 
ATOM     99  C   UNL A   1      39.286  28.638  30.685  1.00  0.00     0.173 A 
ATOM    100  C   UNL A   1      38.824  29.296  28.421  1.00  0.00     0.173 A 
ATOM    101  F   UNL A   1      40.123  28.196  31.636  1.00  0.00    -0.203 F 
ATOM    102  C   UNL A   1      37.946  28.830  31.012  1.00  0.00     0.198 A 
ATOM    103  C   UNL A   1      37.493  29.524  28.761  1.00  0.00     0.198 A 
ATOM    104  F   UNL A   1      39.210  29.517  27.156  1.00  0.00    -0.203 F 
ATOM    105  F   UNL A   1      37.515  28.556  32.252  1.00  0.00    -0.200 F 
ATOM    106  C   UNL A   1      37.052  29.277  30.053  1.00  0.00     0.200 A 
ATOM    107  F   UNL A   1      36.634  29.973  27.835  1.00  0.00    -0.200 F 
ATOM    108  F   UNL A   1      35.762  29.459  30.368  1.00  0.00    -0.200 F 
ENDBRANCH  78  98
BRANCH  81 109
ATOM    109  C   UNL A   1      49.009  26.727  26.273  1.00  0.00     0.064 A 
ATOM    110  C   UNL A   1      49.985  26.166  27.108  1.00  0.00     0.173 A 
ATOM    111  C   UNL A   1      49.351  26.958  24.933  1.00  0.00     0.173 A 
ATOM    112  F   UNL A   1      49.711  25.944  28.403  1.00  0.00    -0.203 F 
ATOM    113  C   UNL A   1      51.254  25.855  26.625  1.00  0.00     0.198 A 
ATOM    114  C   UNL A   1      50.613  26.621  24.444  1.00  0.00     0.198 A 
ATOM    115  F   UNL A   1      48.451  27.485  24.090  1.00  0.00    -0.203 F 
ATOM    116  F   UNL A   1      52.178  25.348  27.453  1.00  0.00    -0.200 F 
ATOM    117  C   UNL A   1      51.564  26.074  25.291  1.00  0.00     0.200 A 
ATOM    118  F   UNL A   1      50.901  26.818  23.151  1.00  0.00    -0.200 F 
ATOM    119  F   UNL A   1      52.780  25.761  24.823  1.00  0.00    -0.200 F 
ENDBRANCH  81 109
BRANCH  96 120
ATOM    120  C   UNL A   1      45.945  32.481  28.797  1.00  0.00     0.064 A 
ATOM    121  C   UNL A   1      45.852  33.525  27.866  1.00  0.00     0.173 A 
ATOM    122  C   UNL A   1      46.451  32.780  30.072  1.00  0.00     0.173 A 
ATOM    123  F   UNL A   1      45.389  33.289  26.629  1.00  0.00    -0.203 F 
ATOM    124  C   UNL A   1      46.259  34.815  28.197  1.00  0.00     0.198 A 
ATOM    125  C   UNL A   1      46.828  34.076  30.408  1.00  0.00     0.198 A 
ATOM    126  F   UNL A   1      46.554  31.817  31.000  1.00  0.00    -0.203 F 
ATOM    127  F   UNL A   1      46.192  35.792  27.282  1.00  0.00    -0.200 F 
ATOM    128  C   UNL A   1      46.734  35.092  29.471  1.00  0.00     0.200 A 
ATOM    129  F   UNL A   1      47.271  34.344  31.646  1.00  0.00    -0.200 F 
ATOM    130  F   UNL A   1      47.105  36.339  29.793  1.00  0.00    -0.200 F 
ENDBRANCH  96 120
ENDBRANCH  61  64
ENDBRANCH  51  54
ENDBRANCH  47  50
ENDBRANCH  44  47
ENDBRANCH   1  44
TORSDOF 15
ENDMDL
MODEL 7
REMARK VINA RESULT:     -12.1      2.600      4.340
REMARK SMILES C[C@H](C(=O)NCCCCCCNC(=O)c1ccc(-c2c3nc(c(-c4c(F)c(F)c(F)c(F)c4F)c4ccc([nH]4)c(-c4c(F)c(F)c(F)c(F)c4F)c4nc(c(-c5c(F)c(F)c(F)c(F)c5F)c5ccc2[nH]5)C=C4)C=C3)cc1)c1ccc2c(c1)[nH]c1ccc(Cl)cc12
REMARK SMILES IDX 9 1 8 4 7 7 6 10 5 13 3 14 4 15 2 17 1 19 78 23 79 24 83 25
REMARK SMILES IDX 80 26 82 28 81 30 84 32 91 33 85 34 90 36 86 37 88 38 87 40
REMARK SMILES IDX 89 42 10 44 11 47 12 50 13 51 14 53 15 54 16 55 77 56 17 57
REMARK SMILES IDX 76 59 18 61 19 64 20 65 70 66 21 67 75 68 69 69 71 70 22 71
REMARK SMILES IDX 74 72 68 74 67 76 23 78 55 81 35 82 54 83 36 84 39 85 53 86
REMARK SMILES IDX 72 87 37 88 38 90 52 92 73 93 40 96 24 98 25 99 33 100
REMARK SMILES IDX 26 101 27 102 31 103 34 104 28 105 29 106 32 107 30 108
REMARK SMILES IDX 56 109 57 110 65 111 58 112 59 113 63 114 66 115 60 116
REMARK SMILES IDX 61 117 64 118 62 119 41 120 42 121 50 122 43 123 44 124
REMARK SMILES IDX 48 125 51 126 45 127 46 128 49 129 47 130
REMARK H PARENT 9 2 9 3 8 5 8 6 7 8 7 9 6 11 6 12 5 16 2 18 1 20 1 21 1 22
REMARK H PARENT 79 27 83 29 80 31 84 35 90 39 86 41 87 43 10 45 10 46 11 48
REMARK H PARENT 11 49 12 52 16 58 77 60 17 62 76 63 75 73 69 75 71 77 74 79
REMARK H PARENT 68 80 36 89 39 91 72 94 37 95 73 97
REMARK Flexibility Score: inf
ROOT
ATOM      1  C   UNL A   1      31.811  30.479  26.105  1.00  0.00    -0.052 C 
ATOM      2  H   UNL A   1      31.043  29.840  26.490  1.00  0.00     0.027 H 
ATOM      3  H   UNL A   1      31.841  30.555  25.038  1.00  0.00     0.027 H 
ENDROOT
BRANCH   1   4
ATOM      4  C   UNL A   1      33.158  29.868  26.497  1.00  0.00    -0.052 C 
ATOM      5  H   UNL A   1      33.876  30.662  26.514  1.00  0.00     0.027 H 
ATOM      6  H   UNL A   1      32.976  29.392  27.438  1.00  0.00     0.027 H 
BRANCH   4   7
ATOM      7  C   UNL A   1      33.723  28.760  25.606  1.00  0.00    -0.036 C 
ATOM      8  H   UNL A   1      34.781  28.905  25.547  1.00  0.00     0.028 H 
ATOM      9  H   UNL A   1      33.407  27.850  26.073  1.00  0.00     0.028 H 
BRANCH   7  10
ATOM     10  C   UNL A   1      33.197  28.660  24.178  1.00  0.00     0.017 C 
ATOM     11  H   UNL A   1      32.150  28.444  24.224  1.00  0.00     0.049 H 
ATOM     12  H   UNL A   1      33.417  29.598  23.712  1.00  0.00     0.049 H 
BRANCH  10  13
ATOM     13  N   UNL A   1      33.828  27.648  23.367  1.00  0.00    -0.356 N 
ATOM     14  C   UNL A   1      33.358  26.449  22.935  1.00  0.00     0.227 C 
ATOM     15  O   UNL A   1      33.979  25.969  21.974  1.00  0.00    -0.274 OA
ATOM     16  H   UNL A   1      34.747  27.859  23.082  1.00  0.00     0.163 HD
BRANCH  14  17
ATOM     17  C   UNL A   1      32.244  25.605  23.586  1.00  0.00     0.060 C 
ATOM     18  H   UNL A   1      32.207  25.898  24.614  1.00  0.00     0.045 H 
BRANCH  17  19
ATOM     19  C   UNL A   1      30.973  25.929  22.769  1.00  0.00    -0.049 C 
ATOM     20  H   UNL A   1      31.072  25.530  21.781  1.00  0.00     0.024 H 
ATOM     21  H   UNL A   1      30.844  26.990  22.714  1.00  0.00     0.024 H 
ATOM     22  H   UNL A   1      30.120  25.491  23.246  1.00  0.00     0.024 H 
ENDBRANCH  17  19
BRANCH  17  23
ATOM     23  C   UNL A   1      32.439  24.111  23.850  1.00  0.00    -0.034 A 
ATOM     24  C   UNL A   1      33.120  23.655  24.992  1.00  0.00    -0.057 A 
ATOM     25  C   UNL A   1      31.900  23.146  22.979  1.00  0.00    -0.034 A 
ATOM     26  C   UNL A   1      33.417  22.288  25.184  1.00  0.00    -0.052 A 
ATOM     27  H   UNL A   1      33.410  24.338  25.710  1.00  0.00     0.063 H 
ATOM     28  C   UNL A   1      32.178  21.794  23.195  1.00  0.00     0.047 A 
ATOM     29  H   UNL A   1      31.305  23.434  22.186  1.00  0.00     0.065 H 
ATOM     30  C   UNL A   1      32.965  21.336  24.246  1.00  0.00     0.007 A 
ATOM     31  H   UNL A   1      33.964  21.987  26.006  1.00  0.00     0.063 H 
ATOM     32  N   UNL A   1      31.784  20.701  22.467  1.00  0.00    -0.355 N 
ATOM     33  C   UNL A   1      33.142  19.922  24.048  1.00  0.00     0.009 A 
ATOM     34  C   UNL A   1      32.417  19.568  22.908  1.00  0.00     0.047 A 
ATOM     35  H   UNL A   1      31.133  20.726  21.728  1.00  0.00     0.167 HD
ATOM     36  C   UNL A   1      33.878  18.912  24.704  1.00  0.00    -0.033 A 
ATOM     37  C   UNL A   1      32.398  18.276  22.372  1.00  0.00    -0.036 A 
ATOM     38  C   UNL A   1      33.878  17.615  24.171  1.00  0.00     0.041 A 
ATOM     39  H   UNL A   1      34.408  19.125  25.564  1.00  0.00     0.065 H 
ATOM     40  C   UNL A   1      33.156  17.302  23.022  1.00  0.00    -0.041 A 
ATOM     41  H   UNL A   1      31.843  18.052  21.531  1.00  0.00     0.065 H 
ATOM     42  Cl  UNL A   1      34.803  16.383  24.941  1.00  0.00    -0.084 Cl
ATOM     43  H   UNL A   1      33.184  16.340  22.646  1.00  0.00     0.064 H 
ENDBRANCH  17  23
ENDBRANCH  14  17
ENDBRANCH  10  13
ENDBRANCH   7  10
ENDBRANCH   4   7
ENDBRANCH   1   4
BRANCH   1  44
ATOM     44  C   UNL A   1      31.521  31.896  26.595  1.00  0.00    -0.036 C 
ATOM     45  H   UNL A   1      30.702  31.843  27.282  1.00  0.00     0.028 H 
ATOM     46  H   UNL A   1      31.320  32.468  25.713  1.00  0.00     0.028 H 
BRANCH  44  47
ATOM     47  C   UNL A   1      32.668  32.612  27.294  1.00  0.00     0.018 C 
ATOM     48  H   UNL A   1      33.527  32.581  26.656  1.00  0.00     0.049 H 
ATOM     49  H   UNL A   1      32.836  32.108  28.224  1.00  0.00     0.049 H 
BRANCH  47  50
ATOM     50  N   UNL A   1      32.376  34.000  27.606  1.00  0.00    -0.352 N 
ATOM     51  C   UNL A   1      32.990  34.834  28.513  1.00  0.00     0.251 C 
ATOM     52  H   UNL A   1      31.635  34.401  27.097  1.00  0.00     0.163 HD
ATOM     53  O   UNL A   1      32.546  35.950  28.734  1.00  0.00    -0.269 OA
BRANCH  51  54
ATOM     54  C   UNL A   1      34.184  34.356  29.246  1.00  0.00     0.039 A 
ATOM     55  C   UNL A   1      34.009  33.660  30.445  1.00  0.00    -0.049 A 
ATOM     56  C   UNL A   1      35.468  34.586  28.746  1.00  0.00    -0.049 A 
ATOM     57  C   UNL A   1      35.120  33.135  31.111  1.00  0.00    -0.053 A 
ATOM     58  H   UNL A   1      33.062  33.533  30.837  1.00  0.00     0.063 H 
ATOM     59  C   UNL A   1      36.564  33.997  29.366  1.00  0.00    -0.053 A 
ATOM     60  H   UNL A   1      35.602  35.188  27.919  1.00  0.00     0.063 H 
ATOM     61  C   UNL A   1      36.402  33.272  30.560  1.00  0.00    -0.014 A 
ATOM     62  H   UNL A   1      34.997  32.644  32.011  1.00  0.00     0.063 H 
ATOM     63  H   UNL A   1      37.502  34.094  28.949  1.00  0.00     0.063 H 
BRANCH  61  64
ATOM     64  C   UNL A   1      37.608  32.704  31.214  1.00  0.00     0.031 A 
ATOM     65  C   UNL A   1      38.338  31.568  30.557  1.00  0.00     0.074 A 
ATOM     66  C   UNL A   1      37.979  33.131  32.436  1.00  0.00     0.049 A 
ATOM     67  N   UNL A   1      39.297  30.812  31.026  1.00  0.00    -0.248 NA
ATOM     68  C   UNL A   1      37.900  31.213  29.199  1.00  0.00    -0.034 C 
ATOM     69  C   UNL A   1      37.335  34.205  33.189  1.00  0.00    -0.036 A 
ATOM     70  N   UNL A   1      38.975  32.687  33.271  1.00  0.00    -0.354 N 
ATOM     71  C   UNL A   1      39.552  29.874  30.036  1.00  0.00     0.074 A 
ATOM     72  C   UNL A   1      38.613  30.123  28.963  1.00  0.00    -0.034 C 
ATOM     73  H   UNL A   1      37.216  31.688  28.589  1.00  0.00     0.065 H 
ATOM     74  C   UNL A   1      37.950  34.339  34.376  1.00  0.00    -0.036 A 
ATOM     75  H   UNL A   1      36.536  34.771  32.862  1.00  0.00     0.065 H 
ATOM     76  C   UNL A   1      38.999  33.329  34.485  1.00  0.00     0.049 A 
ATOM     77  H   UNL A   1      39.610  31.977  33.024  1.00  0.00     0.167 HD
ATOM     78  C   UNL A   1      40.494  28.901  30.017  1.00  0.00     0.037 A 
ATOM     79  H   UNL A   1      38.514  29.530  28.124  1.00  0.00     0.065 H 
ATOM     80  H   UNL A   1      37.719  35.043  35.094  1.00  0.00     0.065 H 
ATOM     81  C   UNL A   1      39.764  33.111  35.572  1.00  0.00     0.037 A 
ATOM     82  C   UNL A   1      41.438  28.675  31.079  1.00  0.00     0.049 A 
ATOM     83  C   UNL A   1      40.800  32.019  35.537  1.00  0.00     0.074 A 
ATOM     84  C   UNL A   1      42.472  27.757  31.135  1.00  0.00    -0.036 A 
ATOM     85  N   UNL A   1      41.455  29.372  32.279  1.00  0.00    -0.354 N 
ATOM     86  N   UNL A   1      41.073  31.171  34.576  1.00  0.00    -0.248 NA
ATOM     87  C   UNL A   1      41.636  31.857  36.735  1.00  0.00    -0.034 C 
ATOM     88  C   UNL A   1      43.079  27.861  32.391  1.00  0.00    -0.036 A 
ATOM     89  H   UNL A   1      42.747  27.109  30.381  1.00  0.00     0.065 H 
ATOM     90  C   UNL A   1      42.468  28.890  33.092  1.00  0.00     0.049 A 
ATOM     91  H   UNL A   1      40.839  30.102  32.518  1.00  0.00     0.167 HD
ATOM     92  C   UNL A   1      42.134  30.401  35.033  1.00  0.00     0.074 A 
ATOM     93  C   UNL A   1      42.455  30.881  36.362  1.00  0.00    -0.034 C 
ATOM     94  H   UNL A   1      41.599  32.369  37.629  1.00  0.00     0.065 H 
ATOM     95  H   UNL A   1      43.852  27.272  32.737  1.00  0.00     0.065 H 
ATOM     96  C   UNL A   1      42.788  29.393  34.405  1.00  0.00     0.037 A 
ATOM     97  H   UNL A   1      43.222  30.512  36.944  1.00  0.00     0.065 H 
BRANCH  78  98
ATOM     98  C   UNL A   1      40.532  28.000  28.814  1.00  0.00     0.064 A 
ATOM     99  C   UNL A   1      41.286  28.318  27.672  1.00  0.00     0.173 A 
ATOM    100  C   UNL A   1      39.802  26.802  28.801  1.00  0.00     0.173 A 
ATOM    101  F   UNL A   1      41.996  29.455  27.627  1.00  0.00    -0.203 F 
ATOM    102  C   UNL A   1      41.264  27.498  26.546  1.00  0.00     0.198 A 
ATOM    103  C   UNL A   1      39.813  25.965  27.688  1.00  0.00     0.198 A 
ATOM    104  F   UNL A   1      39.072  26.442  29.867  1.00  0.00    -0.203 F 
ATOM    105  F   UNL A   1      41.931  27.862  25.442  1.00  0.00    -0.200 F 
ATOM    106  C   UNL A   1      40.533  26.321  26.556  1.00  0.00     0.200 A 
ATOM    107  F   UNL A   1      39.119  24.819  27.706  1.00  0.00    -0.200 F 
ATOM    108  F   UNL A   1      40.510  25.534  25.471  1.00  0.00    -0.200 F 
ENDBRANCH  78  98
BRANCH  81 109
ATOM    109  C   UNL A   1      39.583  33.962  36.777  1.00  0.00     0.064 A 
ATOM    110  C   UNL A   1      38.784  33.535  37.846  1.00  0.00     0.173 A 
ATOM    111  C   UNL A   1      40.230  35.201  36.900  1.00  0.00     0.173 A 
ATOM    112  F   UNL A   1      38.130  32.366  37.768  1.00  0.00    -0.203 F 
ATOM    113  C   UNL A   1      38.631  34.318  38.989  1.00  0.00     0.198 A 
ATOM    114  C   UNL A   1      40.098  35.970  38.055  1.00  0.00     0.198 A 
ATOM    115  F   UNL A   1      41.013  35.652  35.908  1.00  0.00    -0.203 F 
ATOM    116  F   UNL A   1      37.837  33.899  39.984  1.00  0.00    -0.200 F 
ATOM    117  C   UNL A   1      39.296  35.530  39.096  1.00  0.00     0.200 A 
ATOM    118  F   UNL A   1      40.757  37.132  38.161  1.00  0.00    -0.200 F 
ATOM    119  F   UNL A   1      39.162  36.275  40.202  1.00  0.00    -0.200 F 
ENDBRANCH  81 109
BRANCH  96 120
ATOM    120  C   UNL A   1      43.960  28.773  35.110  1.00  0.00     0.064 A 
ATOM    121  C   UNL A   1      43.816  27.669  35.961  1.00  0.00     0.173 A 
ATOM    122  C   UNL A   1      45.259  29.245  34.859  1.00  0.00     0.173 A 
ATOM    123  F   UNL A   1      42.596  27.188  36.245  1.00  0.00    -0.203 F 
ATOM    124  C   UNL A   1      44.928  27.067  36.544  1.00  0.00     0.198 A 
ATOM    125  C   UNL A   1      46.369  28.622  35.419  1.00  0.00     0.198 A 
ATOM    126  F   UNL A   1      45.450  30.295  34.047  1.00  0.00    -0.203 F 
ATOM    127  F   UNL A   1      44.766  26.032  37.381  1.00  0.00    -0.200 F 
ATOM    128  C   UNL A   1      46.204  27.536  36.263  1.00  0.00     0.200 A 
ATOM    129  F   UNL A   1      47.601  29.067  35.132  1.00  0.00    -0.200 F 
ATOM    130  F   UNL A   1      47.274  26.941  36.810  1.00  0.00    -0.200 F 
ENDBRANCH  96 120
ENDBRANCH  61  64
ENDBRANCH  51  54
ENDBRANCH  47  50
ENDBRANCH  44  47
ENDBRANCH   1  44
TORSDOF 15
ENDMDL
MODEL 8
REMARK VINA RESULT:     -12.1      3.598      6.872
REMARK SMILES C[C@H](C(=O)NCCCCCCNC(=O)c1ccc(-c2c3nc(c(-c4c(F)c(F)c(F)c(F)c4F)c4ccc([nH]4)c(-c4c(F)c(F)c(F)c(F)c4F)c4nc(c(-c5c(F)c(F)c(F)c(F)c5F)c5ccc2[nH]5)C=C4)C=C3)cc1)c1ccc2c(c1)[nH]c1ccc(Cl)cc12
REMARK SMILES IDX 9 1 8 4 7 7 6 10 5 13 3 14 4 15 2 17 1 19 78 23 79 24 83 25
REMARK SMILES IDX 80 26 82 28 81 30 84 32 91 33 85 34 90 36 86 37 88 38 87 40
REMARK SMILES IDX 89 42 10 44 11 47 12 50 13 51 14 53 15 54 16 55 77 56 17 57
REMARK SMILES IDX 76 59 18 61 19 64 20 65 70 66 21 67 75 68 69 69 71 70 22 71
REMARK SMILES IDX 74 72 68 74 67 76 23 78 55 81 35 82 54 83 36 84 39 85 53 86
REMARK SMILES IDX 72 87 37 88 38 90 52 92 73 93 40 96 24 98 25 99 33 100
REMARK SMILES IDX 26 101 27 102 31 103 34 104 28 105 29 106 32 107 30 108
REMARK SMILES IDX 56 109 57 110 65 111 58 112 59 113 63 114 66 115 60 116
REMARK SMILES IDX 61 117 64 118 62 119 41 120 42 121 50 122 43 123 44 124
REMARK SMILES IDX 48 125 51 126 45 127 46 128 49 129 47 130
REMARK H PARENT 9 2 9 3 8 5 8 6 7 8 7 9 6 11 6 12 5 16 2 18 1 20 1 21 1 22
REMARK H PARENT 79 27 83 29 80 31 84 35 90 39 86 41 87 43 10 45 10 46 11 48
REMARK H PARENT 11 49 12 52 16 58 77 60 17 62 76 63 75 73 69 75 71 77 74 79
REMARK H PARENT 68 80 36 89 39 91 72 94 37 95 73 97
REMARK Flexibility Score: inf
ROOT
ATOM      1  C   UNL A   1      34.540  24.969  24.625  1.00  0.00    -0.052 C 
ATOM      2  H   UNL A   1      35.105  25.621  23.991  1.00  0.00     0.027 H 
ATOM      3  H   UNL A   1      33.678  24.530  24.167  1.00  0.00     0.027 H 
ENDROOT
BRANCH   1   4
ATOM      4  C   UNL A   1      33.991  25.810  25.779  1.00  0.00    -0.052 C 
ATOM      5  H   UNL A   1      32.958  25.557  25.895  1.00  0.00     0.027 H 
ATOM      6  H   UNL A   1      34.620  25.570  26.611  1.00  0.00     0.027 H 
BRANCH   4   7
ATOM      7  C   UNL A   1      34.079  27.332  25.655  1.00  0.00    -0.036 C 
ATOM      8  H   UNL A   1      33.512  27.752  26.458  1.00  0.00     0.028 H 
ATOM      9  H   UNL A   1      35.127  27.545  25.669  1.00  0.00     0.028 H 
BRANCH   7  10
ATOM     10  C   UNL A   1      33.576  27.968  24.363  1.00  0.00     0.017 C 
ATOM     11  H   UNL A   1      34.427  28.230  23.769  1.00  0.00     0.049 H 
ATOM     12  H   UNL A   1      32.942  27.242  23.899  1.00  0.00     0.049 H 
BRANCH  10  13
ATOM     13  N   UNL A   1      32.773  29.153  24.541  1.00  0.00    -0.356 N 
ATOM     14  C   UNL A   1      31.431  29.289  24.702  1.00  0.00     0.227 C 
ATOM     15  O   UNL A   1      31.078  30.376  25.187  1.00  0.00    -0.274 OA
ATOM     16  H   UNL A   1      33.278  29.999  24.547  1.00  0.00     0.163 HD
BRANCH  14  17
ATOM     17  C   UNL A   1      30.341  28.301  24.239  1.00  0.00     0.060 C 
ATOM     18  H   UNL A   1      29.538  28.388  24.941  1.00  0.00     0.045 H 
BRANCH  17  19
ATOM     19  C   UNL A   1      29.997  28.737  22.797  1.00  0.00    -0.049 C 
ATOM     20  H   UNL A   1      30.887  29.066  22.301  1.00  0.00     0.024 H 
ATOM     21  H   UNL A   1      29.288  29.538  22.825  1.00  0.00     0.024 H 
ATOM     22  H   UNL A   1      29.578  27.909  22.264  1.00  0.00     0.024 H 
ENDBRANCH  17  19
BRANCH  17  23
ATOM     23  C   UNL A   1      30.530  26.791  24.394  1.00  0.00    -0.034 A 
ATOM     24  C   UNL A   1      30.373  26.161  25.642  1.00  0.00    -0.057 A 
ATOM     25  C   UNL A   1      30.819  25.980  23.281  1.00  0.00    -0.034 A 
ATOM     26  C   UNL A   1      30.668  24.792  25.825  1.00  0.00    -0.052 A 
ATOM     27  H   UNL A   1      30.035  26.715  26.445  1.00  0.00     0.063 H 
ATOM     28  C   UNL A   1      31.080  24.620  23.472  1.00  0.00     0.047 A 
ATOM     29  H   UNL A   1      30.838  26.385  22.332  1.00  0.00     0.065 H 
ATOM     30  C   UNL A   1      31.063  24.008  24.720  1.00  0.00     0.007 A 
ATOM     31  H   UNL A   1      30.595  24.367  26.762  1.00  0.00     0.063 H 
ATOM     32  N   UNL A   1      31.404  23.662  22.546  1.00  0.00    -0.355 N 
ATOM     33  C   UNL A   1      31.524  22.659  24.528  1.00  0.00     0.009 A 
ATOM     34  C   UNL A   1      31.759  22.490  23.162  1.00  0.00     0.047 A 
ATOM     35  H   UNL A   1      31.385  23.798  21.570  1.00  0.00     0.167 HD
ATOM     36  C   UNL A   1      31.799  21.573  25.386  1.00  0.00    -0.033 A 
ATOM     37  C   UNL A   1      32.271  21.314  22.603  1.00  0.00    -0.036 A 
ATOM     38  C   UNL A   1      32.324  20.392  24.841  1.00  0.00     0.041 A 
ATOM     39  H   UNL A   1      31.617  21.645  26.399  1.00  0.00     0.065 H 
ATOM     40  C   UNL A   1      32.563  20.265  23.475  1.00  0.00    -0.041 A 
ATOM     41  H   UNL A   1      32.424  21.226  21.587  1.00  0.00     0.065 H 
ATOM     42  Cl  UNL A   1      32.701  19.073  25.883  1.00  0.00    -0.084 Cl
ATOM     43  H   UNL A   1      32.960  19.387  23.104  1.00  0.00     0.064 H 
ENDBRANCH  17  23
ENDBRANCH  14  17
ENDBRANCH  10  13
ENDBRANCH   7  10
ENDBRANCH   4   7
ENDBRANCH   1   4
BRANCH   1  44
ATOM     44  C   UNL A   1      35.438  23.789  24.990  1.00  0.00    -0.036 C 
ATOM     45  H   UNL A   1      35.797  23.357  24.079  1.00  0.00     0.028 H 
ATOM     46  H   UNL A   1      34.828  23.135  25.577  1.00  0.00     0.028 H 
BRANCH  44  47
ATOM     47  C   UNL A   1      36.647  24.108  25.859  1.00  0.00     0.018 C 
ATOM     48  H   UNL A   1      36.308  24.291  26.858  1.00  0.00     0.049 H 
ATOM     49  H   UNL A   1      37.126  24.965  25.432  1.00  0.00     0.049 H 
BRANCH  47  50
ATOM     50  N   UNL A   1      37.630  23.041  25.895  1.00  0.00    -0.352 N 
ATOM     51  C   UNL A   1      38.935  23.075  26.333  1.00  0.00     0.251 C 
ATOM     52  H   UNL A   1      37.320  22.169  25.558  1.00  0.00     0.163 HD
ATOM     53  O   UNL A   1      39.667  22.109  26.190  1.00  0.00    -0.269 OA
BRANCH  51  54
ATOM     54  C   UNL A   1      39.458  24.311  26.958  1.00  0.00     0.039 A 
ATOM     55  C   UNL A   1      40.142  25.234  26.163  1.00  0.00    -0.049 A 
ATOM     56  C   UNL A   1      39.264  24.560  28.319  1.00  0.00    -0.049 A 
ATOM     57  C   UNL A   1      40.576  26.441  26.719  1.00  0.00    -0.053 A 
ATOM     58  H   UNL A   1      40.326  25.026  25.168  1.00  0.00     0.063 H 
ATOM     59  C   UNL A   1      39.626  25.792  28.851  1.00  0.00    -0.053 A 
ATOM     60  H   UNL A   1      38.852  23.834  28.925  1.00  0.00     0.063 H 
ATOM     61  C   UNL A   1      40.293  26.742  28.059  1.00  0.00    -0.014 A 
ATOM     62  H   UNL A   1      41.106  27.114  26.142  1.00  0.00     0.063 H 
ATOM     63  H   UNL A   1      39.404  26.010  29.835  1.00  0.00     0.063 H 
BRANCH  61  64
ATOM     64  C   UNL A   1      40.705  28.025  28.684  1.00  0.00     0.031 A 
ATOM     65  C   UNL A   1      42.108  28.178  29.196  1.00  0.00     0.074 A 
ATOM     66  C   UNL A   1      39.799  29.001  28.886  1.00  0.00     0.049 A 
ATOM     67  N   UNL A   1      42.629  29.133  29.924  1.00  0.00    -0.248 NA
ATOM     68  C   UNL A   1      43.041  27.088  28.874  1.00  0.00    -0.034 C 
ATOM     69  C   UNL A   1      38.401  28.959  28.462  1.00  0.00    -0.036 A 
ATOM     70  N   UNL A   1      39.918  30.208  29.530  1.00  0.00    -0.354 N 
ATOM     71  C   UNL A   1      43.937  28.741  30.174  1.00  0.00     0.074 A 
ATOM     72  C   UNL A   1      44.114  27.441  29.564  1.00  0.00    -0.034 C 
ATOM     73  H   UNL A   1      42.897  26.265  28.270  1.00  0.00     0.065 H 
ATOM     74  C   UNL A   1      37.789  30.088  28.856  1.00  0.00    -0.036 A 
ATOM     75  H   UNL A   1      37.955  28.187  27.942  1.00  0.00     0.065 H 
ATOM     76  C   UNL A   1      38.740  30.910  29.602  1.00  0.00     0.049 A 
ATOM     77  H   UNL A   1      40.766  30.538  29.906  1.00  0.00     0.167 HD
ATOM     78  C   UNL A   1      44.907  29.412  30.840  1.00  0.00     0.037 A 
ATOM     79  H   UNL A   1      44.965  26.864  29.654  1.00  0.00     0.065 H 
ATOM     80  H   UNL A   1      36.807  30.336  28.662  1.00  0.00     0.065 H 
ATOM     81  C   UNL A   1      38.452  32.071  30.219  1.00  0.00     0.037 A 
ATOM     82  C   UNL A   1      44.727  30.715  31.423  1.00  0.00     0.049 A 
ATOM     83  C   UNL A   1      39.540  32.799  30.963  1.00  0.00     0.074 A 
ATOM     84  C   UNL A   1      45.660  31.509  32.066  1.00  0.00    -0.036 A 
ATOM     85  N   UNL A   1      43.527  31.412  31.441  1.00  0.00    -0.354 N 
ATOM     86  N   UNL A   1      40.790  32.450  31.149  1.00  0.00    -0.248 NA
ATOM     87  C   UNL A   1      39.180  34.085  31.578  1.00  0.00    -0.034 C 
ATOM     88  C   UNL A   1      45.011  32.661  32.522  1.00  0.00    -0.036 A 
ATOM     89  H   UNL A   1      46.660  31.290  32.187  1.00  0.00     0.065 H 
ATOM     90  C   UNL A   1      43.690  32.617  32.104  1.00  0.00     0.049 A 
ATOM     91  H   UNL A   1      42.684  31.096  31.042  1.00  0.00     0.167 HD
ATOM     92  C   UNL A   1      41.375  33.484  31.866  1.00  0.00     0.074 A 
ATOM     93  C   UNL A   1      40.343  34.475  32.086  1.00  0.00    -0.034 C 
ATOM     94  H   UNL A   1      38.265  34.559  31.607  1.00  0.00     0.065 H 
ATOM     95  H   UNL A   1      45.444  33.417  33.076  1.00  0.00     0.065 H 
ATOM     96  C   UNL A   1      42.656  33.603  32.297  1.00  0.00     0.037 A 
ATOM     97  H   UNL A   1      40.491  35.372  32.575  1.00  0.00     0.065 H 
BRANCH  78  98
ATOM     98  C   UNL A   1      46.241  28.734  30.983  1.00  0.00     0.064 A 
ATOM     99  C   UNL A   1      47.258  28.887  30.028  1.00  0.00     0.173 A 
ATOM    100  C   UNL A   1      46.505  27.916  32.092  1.00  0.00     0.173 A 
ATOM    101  F   UNL A   1      47.056  29.651  28.943  1.00  0.00    -0.203 F 
ATOM    102  C   UNL A   1      48.467  28.207  30.151  1.00  0.00     0.198 A 
ATOM    103  C   UNL A   1      47.730  27.268  32.232  1.00  0.00     0.198 A 
ATOM    104  F   UNL A   1      45.575  27.741  33.042  1.00  0.00    -0.203 F 
ATOM    105  F   UNL A   1      49.393  28.310  29.186  1.00  0.00    -0.200 F 
ATOM    106  C   UNL A   1      48.705  27.402  31.253  1.00  0.00     0.200 A 
ATOM    107  F   UNL A   1      47.964  26.504  33.308  1.00  0.00    -0.200 F 
ATOM    108  F   UNL A   1      49.867  26.746  31.369  1.00  0.00    -0.200 F 
ENDBRANCH  78  98
BRANCH  81 109
ATOM    109  C   UNL A   1      37.073  32.620  30.141  1.00  0.00     0.064 A 
ATOM    110  C   UNL A   1      36.141  32.372  31.158  1.00  0.00     0.173 A 
ATOM    111  C   UNL A   1      36.669  33.430  29.069  1.00  0.00     0.173 A 
ATOM    112  F   UNL A   1      36.474  31.589  32.195  1.00  0.00    -0.203 F 
ATOM    113  C   UNL A   1      34.855  32.906  31.102  1.00  0.00     0.198 A 
ATOM    114  C   UNL A   1      35.391  33.985  29.028  1.00  0.00     0.198 A 
ATOM    115  F   UNL A   1      37.526  33.704  28.074  1.00  0.00    -0.203 F 
ATOM    116  F   UNL A   1      33.974  32.628  32.073  1.00  0.00    -0.200 F 
ATOM    117  C   UNL A   1      34.485  33.719  30.042  1.00  0.00     0.200 A 
ATOM    118  F   UNL A   1      35.044  34.785  28.011  1.00  0.00    -0.200 F 
ATOM    119  F   UNL A   1      33.253  34.245  29.996  1.00  0.00    -0.200 F 
ENDBRANCH  81 109
BRANCH  96 120
ATOM    120  C   UNL A   1      43.042  34.875  32.996  1.00  0.00     0.064 A 
ATOM    121  C   UNL A   1      43.455  36.014  32.292  1.00  0.00     0.173 A 
ATOM    122  C   UNL A   1      42.913  34.974  34.391  1.00  0.00     0.173 A 
ATOM    123  F   UNL A   1      43.608  35.967  30.960  1.00  0.00    -0.203 F 
ATOM    124  C   UNL A   1      43.736  37.203  32.960  1.00  0.00     0.198 A 
ATOM    125  C   UNL A   1      43.166  36.173  35.051  1.00  0.00     0.198 A 
ATOM    126  F   UNL A   1      42.515  33.914  35.110  1.00  0.00    -0.203 F 
ATOM    127  F   UNL A   1      44.161  38.272  32.272  1.00  0.00    -0.200 F 
ATOM    128  C   UNL A   1      43.579  37.285  34.337  1.00  0.00     0.200 A 
ATOM    129  F   UNL A   1      42.996  36.253  36.379  1.00  0.00    -0.200 F 
ATOM    130  F   UNL A   1      43.831  38.437  34.974  1.00  0.00    -0.200 F 
ENDBRANCH  96 120
ENDBRANCH  61  64
ENDBRANCH  51  54
ENDBRANCH  47  50
ENDBRANCH  44  47
ENDBRANCH   1  44
TORSDOF 15
ENDMDL
MODEL 9
REMARK VINA RESULT:     -12.1      4.862     10.141
REMARK SMILES C[C@H](C(=O)NCCCCCCNC(=O)c1ccc(-c2c3nc(c(-c4c(F)c(F)c(F)c(F)c4F)c4ccc([nH]4)c(-c4c(F)c(F)c(F)c(F)c4F)c4nc(c(-c5c(F)c(F)c(F)c(F)c5F)c5ccc2[nH]5)C=C4)C=C3)cc1)c1ccc2c(c1)[nH]c1ccc(Cl)cc12
REMARK SMILES IDX 9 1 8 4 7 7 6 10 5 13 3 14 4 15 2 17 1 19 78 23 79 24 83 25
REMARK SMILES IDX 80 26 82 28 81 30 84 32 91 33 85 34 90 36 86 37 88 38 87 40
REMARK SMILES IDX 89 42 10 44 11 47 12 50 13 51 14 53 15 54 16 55 77 56 17 57
REMARK SMILES IDX 76 59 18 61 19 64 20 65 70 66 21 67 75 68 69 69 71 70 22 71
REMARK SMILES IDX 74 72 68 74 67 76 23 78 55 81 35 82 54 83 36 84 39 85 53 86
REMARK SMILES IDX 72 87 37 88 38 90 52 92 73 93 40 96 24 98 25 99 33 100
REMARK SMILES IDX 26 101 27 102 31 103 34 104 28 105 29 106 32 107 30 108
REMARK SMILES IDX 56 109 57 110 65 111 58 112 59 113 63 114 66 115 60 116
REMARK SMILES IDX 61 117 64 118 62 119 41 120 42 121 50 122 43 123 44 124
REMARK SMILES IDX 48 125 51 126 45 127 46 128 49 129 47 130
REMARK H PARENT 9 2 9 3 8 5 8 6 7 8 7 9 6 11 6 12 5 16 2 18 1 20 1 21 1 22
REMARK H PARENT 79 27 83 29 80 31 84 35 90 39 86 41 87 43 10 45 10 46 11 48
REMARK H PARENT 11 49 12 52 16 58 77 60 17 62 76 63 75 73 69 75 71 77 74 79
REMARK H PARENT 68 80 36 89 39 91 72 94 37 95 73 97
REMARK Flexibility Score: inf
ROOT
ATOM      1  C   UNL A   1      36.706  20.950  24.988  1.00  0.00    -0.052 C 
ATOM      2  H   UNL A   1      35.926  20.570  24.360  1.00  0.00     0.027 H 
ATOM      3  H   UNL A   1      36.470  20.984  26.031  1.00  0.00     0.027 H 
ENDROOT
BRANCH   1   4
ATOM      4  C   UNL A   1      36.953  22.406  24.588  1.00  0.00    -0.052 C 
ATOM      5  H   UNL A   1      37.434  22.887  25.414  1.00  0.00     0.027 H 
ATOM      6  H   UNL A   1      37.531  22.345  23.690  1.00  0.00     0.027 H 
BRANCH   4   7
ATOM      7  C   UNL A   1      35.737  23.255  24.209  1.00  0.00    -0.036 C 
ATOM      8  H   UNL A   1      35.895  23.612  23.213  1.00  0.00     0.028 H 
ATOM      9  H   UNL A   1      34.900  22.601  24.338  1.00  0.00     0.028 H 
BRANCH   7  10
ATOM     10  C   UNL A   1      35.417  24.464  25.081  1.00  0.00     0.017 C 
ATOM     11  H   UNL A   1      35.104  24.108  26.040  1.00  0.00     0.049 H 
ATOM     12  H   UNL A   1      36.311  25.052  25.117  1.00  0.00     0.049 H 
BRANCH  10  13
ATOM     13  N   UNL A   1      34.384  25.329  24.565  1.00  0.00    -0.356 N 
ATOM     14  C   UNL A   1      33.102  25.510  24.978  1.00  0.00     0.227 C 
ATOM     15  O   UNL A   1      32.577  26.561  24.579  1.00  0.00    -0.274 OA
ATOM     16  H   UNL A   1      34.650  25.874  23.789  1.00  0.00     0.163 HD
BRANCH  14  17
ATOM     17  C   UNL A   1      32.236  24.507  25.764  1.00  0.00     0.060 C 
ATOM     18  H   UNL A   1      32.520  24.603  26.791  1.00  0.00     0.045 H 
BRANCH  17  19
ATOM     19  C   UNL A   1      30.778  24.910  25.450  1.00  0.00    -0.049 C 
ATOM     20  H   UNL A   1      30.713  25.974  25.357  1.00  0.00     0.024 H 
ATOM     21  H   UNL A   1      30.137  24.583  26.244  1.00  0.00     0.024 H 
ATOM     22  H   UNL A   1      30.469  24.452  24.534  1.00  0.00     0.024 H 
ENDBRANCH  17  19
BRANCH  17  23
ATOM     23  C   UNL A   1      32.489  23.001  25.667  1.00  0.00    -0.034 A 
ATOM     24  C   UNL A   1      33.043  22.284  26.743  1.00  0.00    -0.057 A 
ATOM     25  C   UNL A   1      32.131  22.280  24.513  1.00  0.00    -0.034 A 
ATOM     26  C   UNL A   1      33.400  20.923  26.623  1.00  0.00    -0.052 A 
ATOM     27  H   UNL A   1      33.192  22.766  27.643  1.00  0.00     0.063 H 
ATOM     28  C   UNL A   1      32.465  20.926  24.418  1.00  0.00     0.047 A 
ATOM     29  H   UNL A   1      31.628  22.747  23.743  1.00  0.00     0.065 H 
ATOM     30  C   UNL A   1      33.135  20.234  25.420  1.00  0.00     0.007 A 
ATOM     31  H   UNL A   1      33.853  20.435  27.411  1.00  0.00     0.063 H 
ATOM     32  N   UNL A   1      32.239  20.049  23.389  1.00  0.00    -0.355 N 
ATOM     33  C   UNL A   1      33.427  18.925  24.899  1.00  0.00     0.009 A 
ATOM     34  C   UNL A   1      32.881  18.858  23.615  1.00  0.00     0.047 A 
ATOM     35  H   UNL A   1      31.691  20.246  22.595  1.00  0.00     0.167 HD
ATOM     36  C   UNL A   1      34.133  17.801  25.376  1.00  0.00    -0.033 A 
ATOM     37  C   UNL A   1      33.014  17.749  22.773  1.00  0.00    -0.036 A 
ATOM     38  C   UNL A   1      34.285  16.687  24.539  1.00  0.00     0.041 A 
ATOM     39  H   UNL A   1      34.532  17.798  26.329  1.00  0.00     0.065 H 
ATOM     40  C   UNL A   1      33.742  16.662  23.257  1.00  0.00    -0.041 A 
ATOM     41  H   UNL A   1      32.590  17.735  21.833  1.00  0.00     0.065 H 
ATOM     42  Cl  UNL A   1      35.179  15.324  25.096  1.00  0.00    -0.084 Cl
ATOM     43  H   UNL A   1      33.880  15.831  22.659  1.00  0.00     0.064 H 
ENDBRANCH  17  23
ENDBRANCH  14  17
ENDBRANCH  10  13
ENDBRANCH   7  10
ENDBRANCH   4   7
ENDBRANCH   1   4
BRANCH   1  44
ATOM     44  C   UNL A   1      37.890  19.990  24.882  1.00  0.00    -0.036 C 
ATOM     45  H   UNL A   1      38.208  19.976  23.861  1.00  0.00     0.028 H 
ATOM     46  H   UNL A   1      37.530  19.049  25.244  1.00  0.00     0.028 H 
BRANCH  44  47
ATOM     47  C   UNL A   1      39.101  20.321  25.742  1.00  0.00     0.018 C 
ATOM     48  H   UNL A   1      38.764  20.545  26.733  1.00  0.00     0.049 H 
ATOM     49  H   UNL A   1      39.595  21.154  25.286  1.00  0.00     0.049 H 
BRANCH  47  50
ATOM     50  N   UNL A   1      40.068  19.240  25.818  1.00  0.00    -0.352 N 
ATOM     51  C   UNL A   1      41.420  19.299  26.069  1.00  0.00     0.251 C 
ATOM     52  H   UNL A   1      39.704  18.337  25.670  1.00  0.00     0.163 HD
ATOM     53  O   UNL A   1      42.114  18.299  25.987  1.00  0.00    -0.269 OA
BRANCH  51  54
ATOM     54  C   UNL A   1      42.038  20.600  26.412  1.00  0.00     0.039 A 
ATOM     55  C   UNL A   1      42.435  21.455  25.380  1.00  0.00    -0.049 A 
ATOM     56  C   UNL A   1      42.214  20.977  27.746  1.00  0.00    -0.049 A 
ATOM     57  C   UNL A   1      42.950  22.718  25.685  1.00  0.00    -0.053 A 
ATOM     58  H   UNL A   1      42.349  21.154  24.396  1.00  0.00     0.063 H 
ATOM     59  C   UNL A   1      42.652  22.262  28.046  1.00  0.00    -0.053 A 
ATOM     60  H   UNL A   1      42.018  20.305  28.504  1.00  0.00     0.063 H 
ATOM     61  C   UNL A   1      43.032  23.143  27.020  1.00  0.00    -0.014 A 
ATOM     62  H   UNL A   1      43.271  23.341  24.927  1.00  0.00     0.063 H 
ATOM     63  H   UNL A   1      42.699  22.570  29.030  1.00  0.00     0.063 H 
BRANCH  61  64
ATOM     64  C   UNL A   1      43.541  24.487  27.390  1.00  0.00     0.031 A 
ATOM     65  C   UNL A   1      42.587  25.516  27.925  1.00  0.00     0.074 A 
ATOM     66  C   UNL A   1      44.825  24.815  27.148  1.00  0.00     0.049 A 
ATOM     67  N   UNL A   1      42.775  26.792  28.145  1.00  0.00    -0.248 NA
ATOM     68  C   UNL A   1      41.223  25.050  28.215  1.00  0.00    -0.034 C 
ATOM     69  C   UNL A   1      45.840  23.915  26.605  1.00  0.00    -0.036 A 
ATOM     70  N   UNL A   1      45.484  26.010  27.301  1.00  0.00    -0.354 N 
ATOM     71  C   UNL A   1      41.548  27.284  28.566  1.00  0.00     0.074 A 
ATOM     72  C   UNL A   1      40.611  26.183  28.521  1.00  0.00    -0.034 C 
ATOM     73  H   UNL A   1      40.842  24.091  28.187  1.00  0.00     0.065 H 
ATOM     74  C   UNL A   1      46.995  24.587  26.469  1.00  0.00    -0.036 A 
ATOM     75  H   UNL A   1      45.694  22.922  26.364  1.00  0.00     0.065 H 
ATOM     76  C   UNL A   1      46.787  25.977  26.870  1.00  0.00     0.049 A 
ATOM     77  H   UNL A   1      45.062  26.814  27.682  1.00  0.00     0.167 HD
ATOM     78  C   UNL A   1      41.234  28.539  28.968  1.00  0.00     0.037 A 
ATOM     79  H   UNL A   1      39.599  26.268  28.705  1.00  0.00     0.065 H 
ATOM     80  H   UNL A   1      47.886  24.187  26.136  1.00  0.00     0.065 H 
ATOM     81  C   UNL A   1      47.704  26.960  26.784  1.00  0.00     0.037 A 
ATOM     82  C   UNL A   1      42.178  29.623  29.030  1.00  0.00     0.049 A 
ATOM     83  C   UNL A   1      47.335  28.351  27.226  1.00  0.00     0.074 A 
ATOM     84  C   UNL A   1      41.980  30.916  29.480  1.00  0.00    -0.036 A 
ATOM     85  N   UNL A   1      43.502  29.539  28.621  1.00  0.00    -0.354 N 
ATOM     86  N   UNL A   1      46.187  28.798  27.676  1.00  0.00    -0.248 NA
ATOM     87  C   UNL A   1      48.388  29.373  27.154  1.00  0.00    -0.034 C 
ATOM     88  C   UNL A   1      43.168  31.631  29.289  1.00  0.00    -0.036 A 
ATOM     89  H   UNL A   1      41.108  31.289  29.885  1.00  0.00     0.065 H 
ATOM     90  C   UNL A   1      44.126  30.765  28.786  1.00  0.00     0.049 A 
ATOM     91  H   UNL A   1      43.934  28.729  28.265  1.00  0.00     0.167 HD
ATOM     92  C   UNL A   1      46.388  30.138  27.976  1.00  0.00     0.074 A 
ATOM     93  C   UNL A   1      47.769  30.435  27.654  1.00  0.00    -0.034 C 
ATOM     94  H   UNL A   1      49.356  29.288  26.807  1.00  0.00     0.065 H 
ATOM     95  H   UNL A   1      43.306  32.633  29.491  1.00  0.00     0.065 H 
ATOM     96  C   UNL A   1      45.508  31.039  28.480  1.00  0.00     0.037 A 
ATOM     97  H   UNL A   1      48.214  31.354  27.796  1.00  0.00     0.065 H 
BRANCH  78  98
ATOM     98  C   UNL A   1      39.805  28.804  29.353  1.00  0.00     0.064 A 
ATOM     99  C   UNL A   1      39.339  28.602  30.662  1.00  0.00     0.173 A 
ATOM    100  C   UNL A   1      38.886  29.263  28.397  1.00  0.00     0.173 A 
ATOM    101  F   UNL A   1      40.172  28.154  31.614  1.00  0.00    -0.203 F 
ATOM    102  C   UNL A   1      37.999  28.799  30.986  1.00  0.00     0.198 A 
ATOM    103  C   UNL A   1      37.555  29.498  28.734  1.00  0.00     0.198 A 
ATOM    104  F   UNL A   1      39.276  29.484  27.133  1.00  0.00    -0.203 F 
ATOM    105  F   UNL A   1      37.564  28.525  32.224  1.00  0.00    -0.200 F 
ATOM    106  C   UNL A   1      37.109  29.251  30.024  1.00  0.00     0.200 A 
ATOM    107  F   UNL A   1      36.701  29.951  27.806  1.00  0.00    -0.200 F 
ATOM    108  F   UNL A   1      35.820  29.438  30.336  1.00  0.00    -0.200 F 
ENDBRANCH  78  98
BRANCH  81 109
ATOM    109  C   UNL A   1      49.064  26.650  26.273  1.00  0.00     0.064 A 
ATOM    110  C   UNL A   1      49.416  26.934  24.946  1.00  0.00     0.173 A 
ATOM    111  C   UNL A   1      50.049  26.097  27.104  1.00  0.00     0.173 A 
ATOM    112  F   UNL A   1      48.503  27.447  24.107  1.00  0.00    -0.203 F 
ATOM    113  C   UNL A   1      50.698  26.670  24.468  1.00  0.00     0.198 A 
ATOM    114  C   UNL A   1      51.339  25.858  26.632  1.00  0.00     0.198 A 
ATOM    115  F   UNL A   1      49.766  25.813  28.385  1.00  0.00    -0.203 F 
ATOM    116  F   UNL A   1      50.999  26.923  23.187  1.00  0.00    -0.200 F 
ATOM    117  C   UNL A   1      51.660  26.141  25.314  1.00  0.00     0.200 A 
ATOM    118  F   UNL A   1      52.270  25.364  27.458  1.00  0.00    -0.200 F 
ATOM    119  F   UNL A   1      52.898  25.901  24.859  1.00  0.00    -0.200 F 
ENDBRANCH  81 109
BRANCH  96 120
ATOM    120  C   UNL A   1      46.017  32.420  28.779  1.00  0.00     0.064 A 
ATOM    121  C   UNL A   1      45.940  33.459  27.842  1.00  0.00     0.173 A 
ATOM    122  C   UNL A   1      46.511  32.723  30.058  1.00  0.00     0.173 A 
ATOM    123  F   UNL A   1      45.488  33.220  26.602  1.00  0.00    -0.203 F 
ATOM    124  C   UNL A   1      46.350  34.749  28.171  1.00  0.00     0.198 A 
ATOM    125  C   UNL A   1      46.891  34.018  30.392  1.00  0.00     0.198 A 
ATOM    126  F   UNL A   1      46.599  31.764  30.993  1.00  0.00    -0.203 F 
ATOM    127  F   UNL A   1      46.298  35.721  27.251  1.00  0.00    -0.200 F 
ATOM    128  C   UNL A   1      46.813  35.030  29.449  1.00  0.00     0.200 A 
ATOM    129  F   UNL A   1      47.323  34.290  31.633  1.00  0.00    -0.200 F 
ATOM    130  F   UNL A   1      47.188  36.277  29.768  1.00  0.00    -0.200 F 
ENDBRANCH  96 120
ENDBRANCH  61  64
ENDBRANCH  51  54
ENDBRANCH  47  50
ENDBRANCH  44  47
ENDBRANCH   1  44
TORSDOF 15
ENDMDL
MODEL 10
REMARK VINA RESULT:     -12.1      4.978     10.796
REMARK SMILES C[C@H](C(=O)NCCCCCCNC(=O)c1ccc(-c2c3nc(c(-c4c(F)c(F)c(F)c(F)c4F)c4ccc([nH]4)c(-c4c(F)c(F)c(F)c(F)c4F)c4nc(c(-c5c(F)c(F)c(F)c(F)c5F)c5ccc2[nH]5)C=C4)C=C3)cc1)c1ccc2c(c1)[nH]c1ccc(Cl)cc12
REMARK SMILES IDX 9 1 8 4 7 7 6 10 5 13 3 14 4 15 2 17 1 19 78 23 79 24 83 25
REMARK SMILES IDX 80 26 82 28 81 30 84 32 91 33 85 34 90 36 86 37 88 38 87 40
REMARK SMILES IDX 89 42 10 44 11 47 12 50 13 51 14 53 15 54 16 55 77 56 17 57
REMARK SMILES IDX 76 59 18 61 19 64 20 65 70 66 21 67 75 68 69 69 71 70 22 71
REMARK SMILES IDX 74 72 68 74 67 76 23 78 55 81 35 82 54 83 36 84 39 85 53 86
REMARK SMILES IDX 72 87 37 88 38 90 52 92 73 93 40 96 24 98 25 99 33 100
REMARK SMILES IDX 26 101 27 102 31 103 34 104 28 105 29 106 32 107 30 108
REMARK SMILES IDX 56 109 57 110 65 111 58 112 59 113 63 114 66 115 60 116
REMARK SMILES IDX 61 117 64 118 62 119 41 120 42 121 50 122 43 123 44 124
REMARK SMILES IDX 48 125 51 126 45 127 46 128 49 129 47 130
REMARK H PARENT 9 2 9 3 8 5 8 6 7 8 7 9 6 11 6 12 5 16 2 18 1 20 1 21 1 22
REMARK H PARENT 79 27 83 29 80 31 84 35 90 39 86 41 87 43 10 45 10 46 11 48
REMARK H PARENT 11 49 12 52 16 58 77 60 17 62 76 63 75 73 69 75 71 77 74 79
REMARK H PARENT 68 80 36 89 39 91 72 94 37 95 73 97
REMARK Flexibility Score: inf
ROOT
ATOM      1  C   UNL A   1      36.583  33.603  28.256  1.00  0.00    -0.052 C 
ATOM      2  H   UNL A   1      37.027  33.026  27.471  1.00  0.00     0.027 H 
ATOM      3  H   UNL A   1      36.764  34.657  28.199  1.00  0.00     0.027 H 
ENDROOT
BRANCH   1   4
ATOM      4  C   UNL A   1      37.225  33.161  29.573  1.00  0.00    -0.052 C 
ATOM      5  H   UNL A   1      36.441  33.075  30.297  1.00  0.00     0.027 H 
ATOM      6  H   UNL A   1      37.733  32.251  29.333  1.00  0.00     0.027 H 
BRANCH   4   7
ATOM      7  C   UNL A   1      38.306  34.062  30.174  1.00  0.00    -0.036 C 
ATOM      8  H   UNL A   1      39.250  33.590  29.997  1.00  0.00     0.028 H 
ATOM      9  H   UNL A   1      38.167  35.008  29.696  1.00  0.00     0.028 H 
BRANCH   7  10
ATOM     10  C   UNL A   1      38.225  34.369  31.665  1.00  0.00     0.017 C 
ATOM     11  H   UNL A   1      38.311  33.446  32.200  1.00  0.00     0.049 H 
ATOM     12  H   UNL A   1      39.018  35.056  31.874  1.00  0.00     0.049 H 
BRANCH  10  13
ATOM     13  N   UNL A   1      37.007  35.017  32.086  1.00  0.00    -0.356 N 
ATOM     14  C   UNL A   1      36.100  34.657  33.031  1.00  0.00     0.227 C 
ATOM     15  O   UNL A   1      35.362  35.578  33.415  1.00  0.00    -0.274 OA
ATOM     16  H   UNL A   1      36.799  35.856  31.613  1.00  0.00     0.163 HD
BRANCH  14  17
ATOM     17  C   UNL A   1      35.833  33.233  33.558  1.00  0.00     0.060 C 
ATOM     18  H   UNL A   1      35.370  33.347  34.515  1.00  0.00     0.045 H 
BRANCH  17  19
ATOM     19  C   UNL A   1      34.947  32.570  32.480  1.00  0.00    -0.049 C 
ATOM     20  H   UNL A   1      35.438  31.698  32.100  1.00  0.00     0.024 H 
ATOM     21  H   UNL A   1      34.780  33.261  31.679  1.00  0.00     0.024 H 
ATOM     22  H   UNL A   1      34.008  32.291  32.910  1.00  0.00     0.024 H 
ENDBRANCH  17  19
BRANCH  17  23
ATOM     23  C   UNL A   1      36.981  32.343  34.039  1.00  0.00    -0.034 A 
ATOM     24  C   UNL A   1      37.688  32.640  35.218  1.00  0.00    -0.057 A 
ATOM     25  C   UNL A   1      37.331  31.172  33.340  1.00  0.00    -0.034 A 
ATOM     26  C   UNL A   1      38.828  31.902  35.605  1.00  0.00    -0.052 A 
ATOM     27  H   UNL A   1      37.366  33.417  35.815  1.00  0.00     0.063 H 
ATOM     28  C   UNL A   1      38.445  30.435  33.751  1.00  0.00     0.047 A 
ATOM     29  H   UNL A   1      36.771  30.862  32.531  1.00  0.00     0.065 H 
ATOM     30  C   UNL A   1      39.238  30.792  34.836  1.00  0.00     0.007 A 
ATOM     31  H   UNL A   1      39.360  32.174  36.447  1.00  0.00     0.063 H 
ATOM     32  N   UNL A   1      38.976  29.293  33.209  1.00  0.00    -0.355 N 
ATOM     33  C   UNL A   1      40.357  29.888  34.849  1.00  0.00     0.009 A 
ATOM     34  C   UNL A   1      40.175  28.987  33.798  1.00  0.00     0.047 A 
ATOM     35  H   UNL A   1      38.552  28.765  32.494  1.00  0.00     0.167 HD
ATOM     36  C   UNL A   1      41.527  29.767  35.629  1.00  0.00    -0.033 A 
ATOM     37  C   UNL A   1      41.097  27.988  33.465  1.00  0.00    -0.036 A 
ATOM     38  C   UNL A   1      42.465  28.779  35.299  1.00  0.00     0.041 A 
ATOM     39  H   UNL A   1      41.689  30.396  36.431  1.00  0.00     0.065 H 
ATOM     40  C   UNL A   1      42.259  27.908  34.232  1.00  0.00    -0.041 A 
ATOM     41  H   UNL A   1      40.923  27.337  32.684  1.00  0.00     0.065 H 
ATOM     42  Cl  UNL A   1      43.916  28.647  36.220  1.00  0.00    -0.084 Cl
ATOM     43  H   UNL A   1      42.974  27.197  34.006  1.00  0.00     0.064 H 
ENDBRANCH  17  23
ENDBRANCH  14  17
ENDBRANCH  10  13
ENDBRANCH   7  10
ENDBRANCH   4   7
ENDBRANCH   1   4
BRANCH   1  44
ATOM     44  C   UNL A   1      35.068  33.456  28.137  1.00  0.00    -0.036 C 
ATOM     45  H   UNL A   1      34.840  33.240  27.114  1.00  0.00     0.028 H 
ATOM     46  H   UNL A   1      34.661  34.379  28.493  1.00  0.00     0.028 H 
BRANCH  44  47
ATOM     47  C   UNL A   1      34.429  32.371  28.994  1.00  0.00     0.018 C 
ATOM     48  H   UNL A   1      33.624  32.807  29.548  1.00  0.00     0.049 H 
ATOM     49  H   UNL A   1      35.195  31.981  29.632  1.00  0.00     0.049 H 
BRANCH  47  50
ATOM     50  N   UNL A   1      33.907  31.258  28.221  1.00  0.00    -0.352 N 
ATOM     51  C   UNL A   1      34.549  30.116  27.800  1.00  0.00     0.251 C 
ATOM     52  H   UNL A   1      32.960  31.331  27.961  1.00  0.00     0.163 HD
ATOM     53  O   UNL A   1      33.991  29.324  27.057  1.00  0.00    -0.269 OA
BRANCH  51  54
ATOM     54  C   UNL A   1      35.942  29.864  28.234  1.00  0.00     0.039 A 
ATOM     55  C   UNL A   1      36.173  29.381  29.525  1.00  0.00    -0.049 A 
ATOM     56  C   UNL A   1      37.012  30.093  27.365  1.00  0.00    -0.049 A 
ATOM     57  C   UNL A   1      37.474  29.065  29.925  1.00  0.00    -0.053 A 
ATOM     58  H   UNL A   1      35.385  29.259  30.181  1.00  0.00     0.063 H 
ATOM     59  C   UNL A   1      38.295  29.705  27.737  1.00  0.00    -0.053 A 
ATOM     60  H   UNL A   1      36.851  30.546  26.453  1.00  0.00     0.063 H 
ATOM     61  C   UNL A   1      38.540  29.195  29.023  1.00  0.00    -0.014 A 
ATOM     62  H   UNL A   1      37.652  28.735  30.887  1.00  0.00     0.063 H 
ATOM     63  H   UNL A   1      39.071  29.794  27.064  1.00  0.00     0.063 H 
BRANCH  61  64
ATOM     64  C   UNL A   1      39.934  28.841  29.392  1.00  0.00     0.031 A 
ATOM     65  C   UNL A   1      40.773  29.834  30.144  1.00  0.00     0.074 A 
ATOM     66  C   UNL A   1      40.475  27.684  28.964  1.00  0.00     0.049 A 
ATOM     67  N   UNL A   1      42.053  29.807  30.415  1.00  0.00    -0.248 NA
ATOM     68  C   UNL A   1      40.080  31.039  30.624  1.00  0.00    -0.034 C 
ATOM     69  C   UNL A   1      39.773  26.653  28.202  1.00  0.00    -0.036 A 
ATOM     70  N   UNL A   1      41.754  27.199  29.085  1.00  0.00    -0.354 N 
ATOM     71  C   UNL A   1      42.323  31.004  31.064  1.00  0.00     0.074 A 
ATOM     72  C   UNL A   1      41.086  31.755  31.102  1.00  0.00    -0.034 C 
ATOM     73  H   UNL A   1      39.074  31.267  30.596  1.00  0.00     0.065 H 
ATOM     74  C   UNL A   1      40.628  25.656  27.922  1.00  0.00    -0.036 A 
ATOM     75  H   UNL A   1      38.780  26.685  27.924  1.00  0.00     0.065 H 
ATOM     76  C   UNL A   1      41.949  26.001  28.443  1.00  0.00     0.049 A 
ATOM     77  H   UNL A   1      42.463  27.666  29.582  1.00  0.00     0.167 HD
ATOM     78  C   UNL A   1      43.493  31.431  31.595  1.00  0.00     0.037 A 
ATOM     79  H   UNL A   1      41.000  32.720  31.456  1.00  0.00     0.065 H 
ATOM     80  H   UNL A   1      40.391  24.786  27.421  1.00  0.00     0.065 H 
ATOM     81  C   UNL A   1      43.070  25.274  28.273  1.00  0.00     0.037 A 
ATOM     82  C   UNL A   1      44.712  30.667  31.572  1.00  0.00     0.049 A 
ATOM     83  C   UNL A   1      44.365  25.770  28.861  1.00  0.00     0.074 A 
ATOM     84  C   UNL A   1      45.938  30.980  32.133  1.00  0.00    -0.036 A 
ATOM     85  N   UNL A   1      44.861  29.438  30.945  1.00  0.00    -0.354 N 
ATOM     86  N   UNL A   1      44.602  26.876  29.523  1.00  0.00    -0.248 NA
ATOM     87  C   UNL A   1      45.546  24.913  28.683  1.00  0.00    -0.034 C 
ATOM     88  C   UNL A   1      46.842  29.967  31.797  1.00  0.00    -0.036 A 
ATOM     89  H   UNL A   1      46.148  31.816  32.700  1.00  0.00     0.065 H 
ATOM     90  C   UNL A   1      46.164  28.990  31.086  1.00  0.00     0.049 A 
ATOM     91  H   UNL A   1      44.146  28.956  30.470  1.00  0.00     0.167 HD
ATOM     92  C   UNL A   1      45.944  26.834  29.873  1.00  0.00     0.074 A 
ATOM     93  C   UNL A   1      46.473  25.592  29.348  1.00  0.00    -0.034 C 
ATOM     94  H   UNL A   1      45.632  24.019  28.176  1.00  0.00     0.065 H 
ATOM     95  H   UNL A   1      47.845  29.950  32.039  1.00  0.00     0.065 H 
ATOM     96  C   UNL A   1      46.670  27.740  30.574  1.00  0.00     0.037 A 
ATOM     97  H   UNL A   1      47.446  25.274  29.476  1.00  0.00     0.065 H 
BRANCH  78  98
ATOM     98  C   UNL A   1      43.507  32.795  32.227  1.00  0.00     0.064 A 
ATOM     99  C   UNL A   1      43.361  32.973  33.612  1.00  0.00     0.173 A 
ATOM    100  C   UNL A   1      43.666  33.942  31.435  1.00  0.00     0.173 A 
ATOM    101  F   UNL A   1      43.197  31.911  34.416  1.00  0.00    -0.203 F 
ATOM    102  C   UNL A   1      43.321  34.247  34.173  1.00  0.00     0.198 A 
ATOM    103  C   UNL A   1      43.665  35.214  32.004  1.00  0.00     0.198 A 
ATOM    104  F   UNL A   1      43.820  33.834  30.107  1.00  0.00    -0.203 F 
ATOM    105  F   UNL A   1      43.104  34.392  35.488  1.00  0.00    -0.200 F 
ATOM    106  C   UNL A   1      43.478  35.366  33.370  1.00  0.00     0.200 A 
ATOM    107  F   UNL A   1      43.834  36.293  31.228  1.00  0.00    -0.200 F 
ATOM    108  F   UNL A   1      43.436  36.592  33.910  1.00  0.00    -0.200 F 
ENDBRANCH  78  98
BRANCH  81 109
ATOM    109  C   UNL A   1      43.005  23.992  27.524  1.00  0.00     0.064 A 
ATOM    110  C   UNL A   1      42.597  22.810  28.157  1.00  0.00     0.173 A 
ATOM    111  C   UNL A   1      43.316  23.927  26.158  1.00  0.00     0.173 A 
ATOM    112  F   UNL A   1      42.306  22.818  29.467  1.00  0.00    -0.203 F 
ATOM    113  C   UNL A   1      42.509  21.610  27.454  1.00  0.00     0.198 A 
ATOM    114  C   UNL A   1      43.201  22.732  25.450  1.00  0.00     0.198 A 
ATOM    115  F   UNL A   1      43.704  25.032  25.503  1.00  0.00    -0.203 F 
ATOM    116  F   UNL A   1      42.145  20.488  28.091  1.00  0.00    -0.200 F 
ATOM    117  C   UNL A   1      42.802  21.574  26.100  1.00  0.00     0.200 A 
ATOM    118  F   UNL A   1      43.468  22.706  24.138  1.00  0.00    -0.200 F 
ATOM    119  F   UNL A   1      42.703  20.423  25.420  1.00  0.00    -0.200 F 
ENDBRANCH  81 109
BRANCH  96 120
ATOM    120  C   UNL A   1      48.102  27.405  30.877  1.00  0.00     0.064 A 
ATOM    121  C   UNL A   1      49.155  27.834  30.057  1.00  0.00     0.173 A 
ATOM    122  C   UNL A   1      48.426  26.713  32.055  1.00  0.00     0.173 A 
ATOM    123  F   UNL A   1      48.898  28.486  28.913  1.00  0.00    -0.203 F 
ATOM    124  C   UNL A   1      50.479  27.573  30.399  1.00  0.00     0.198 A 
ATOM    125  C   UNL A   1      49.751  26.481  32.409  1.00  0.00     0.198 A 
ATOM    126  F   UNL A   1      47.455  26.287  32.877  1.00  0.00    -0.203 F 
ATOM    127  F   UNL A   1      51.469  27.964  29.585  1.00  0.00    -0.200 F 
ATOM    128  C   UNL A   1      50.777  26.908  31.581  1.00  0.00     0.200 A 
ATOM    129  F   UNL A   1      50.036  25.854  33.560  1.00  0.00    -0.200 F 
ATOM    130  F   UNL A   1      52.053  26.677  31.918  1.00  0.00    -0.200 F 
ENDBRANCH  96 120
ENDBRANCH  61  64
ENDBRANCH  51  54
ENDBRANCH  47  50
ENDBRANCH  44  47
ENDBRANCH   1  44
TORSDOF 15
ENDMDL
