MODEL 1
REMARK VINA RESULT:     -12.5      0.000      0.000
REMARK SMILES NS(=O)(=O)c1ccc(/N=C/c2ccc(O)c(C(=O)NCCCCCCNC(=O)c3ccc(-c4c5nc(c(-c6c(F)c(F)c(F)c(F)c6F)c6ccc([nH]6)c(-c6c(F)c(F)c(F)c(F)c6F)c6nc(c(-c7c(F)c(F)c(F)c(F)c7F)c7ccc4[nH]7)C=C6)C=C5)cc3)c2)cc1
REMARK SMILES IDX 21 1 20 4 19 7 17 8 18 9 16 11 11 12 12 13 92 14 13 15 14 18
REMARK SMILES IDX 10 20 9 21 8 23 5 24 6 25 94 26 7 27 93 29 2 33 3 34 4 35
REMARK SMILES IDX 1 36 15 39 22 41 23 44 24 47 25 50 26 53 27 54 28 56 29 57
REMARK SMILES IDX 30 58 91 59 31 60 90 62 32 64 33 67 34 68 84 69 35 70 89 71
REMARK SMILES IDX 83 72 85 73 36 74 88 75 82 77 81 79 37 81 69 84 49 85 68 86
REMARK SMILES IDX 50 87 53 88 67 89 86 90 51 91 52 93 66 95 87 96 54 99 38 101
REMARK SMILES IDX 39 102 47 103 40 104 41 105 45 106 48 107 42 108 43 109
REMARK SMILES IDX 46 110 44 111 70 112 71 113 79 114 72 115 73 116 77 117
REMARK SMILES IDX 80 118 74 119 75 120 78 121 76 122 55 123 56 124 64 125
REMARK SMILES IDX 57 126 58 127 62 128 65 129 59 130 60 131 63 132 61 133
REMARK H PARENT 21 2 21 3 20 5 20 6 19 10 12 16 92 17 13 19 10 22 6 28 94 30
REMARK H PARENT 7 31 93 32 1 37 1 38 15 40 22 42 22 43 23 45 23 46 24 48 24 49
REMARK H PARENT 25 51 25 52 26 55 30 61 91 63 31 65 90 66 89 76 83 78 85 80
REMARK H PARENT 88 82 82 83 50 92 53 94 86 97 51 98 87 100
REMARK Flexibility Score: inf
ROOT
ATOM      1  C   UNL A   1      34.961  24.404  24.904  1.00  0.00    -0.036 C 
ATOM      2  H   UNL A   1      35.999  24.666  24.887  1.00  0.00     0.028 H 
ATOM      3  H   UNL A   1      34.732  23.511  25.450  1.00  0.00     0.028 H 
ENDROOT
BRANCH   1   4
ATOM      4  C   UNL A   1      34.536  24.112  23.470  1.00  0.00     0.018 C 
ATOM      5  H   UNL A   1      33.760  24.800  23.205  1.00  0.00     0.049 H 
ATOM      6  H   UNL A   1      35.413  24.216  22.865  1.00  0.00     0.049 H 
BRANCH   4   7
ATOM      7  N   UNL A   1      34.040  22.763  23.251  1.00  0.00    -0.352 N 
ATOM      8  C   UNL A   1      32.926  22.128  23.753  1.00  0.00     0.255 C 
ATOM      9  O   UNL A   1      32.741  20.938  23.490  1.00  0.00    -0.269 OA
ATOM     10  H   UNL A   1      34.589  22.214  22.645  1.00  0.00     0.163 HD
BRANCH   8  11
ATOM     11  C   UNL A   1      31.969  22.794  24.674  1.00  0.00     0.082 A 
ATOM     12  C   UNL A   1      30.360  24.545  25.143  1.00  0.00    -0.006 A 
ATOM     13  C   UNL A   1      30.392  24.244  26.504  1.00  0.00    -0.050 A 
ATOM     14  C   UNL A   1      31.079  23.769  24.228  1.00  0.00    -0.037 A 
ATOM     15  C   UNL A   1      31.181  23.179  26.946  1.00  0.00    -0.019 A 
ATOM     16  H   UNL A   1      29.840  24.801  27.176  1.00  0.00     0.063 H 
ATOM     17  H   UNL A   1      30.949  23.919  23.215  1.00  0.00     0.064 H 
ATOM     18  C   UNL A   1      31.973  22.470  26.039  1.00  0.00     0.128 A 
ATOM     19  H   UNL A   1      31.180  22.916  27.944  1.00  0.00     0.066 H 
BRANCH  12  20
ATOM     20  C   UNL A   1      29.701  25.777  24.660  1.00  0.00     0.035 C 
ATOM     21  N   UNL A   1      30.083  26.301  23.539  1.00  0.00    -0.256 NA
ATOM     22  H   UNL A   1      28.946  26.215  25.210  1.00  0.00     0.085 H 
BRANCH  21  23
ATOM     23  C   UNL A   1      29.565  27.528  23.111  1.00  0.00     0.063 A 
ATOM     24  C   UNL A   1      28.692  30.110  22.468  1.00  0.00     0.082 A 
ATOM     25  C   UNL A   1      30.041  29.780  22.322  1.00  0.00    -0.040 A 
ATOM     26  C   UNL A   1      27.774  29.162  22.928  1.00  0.00    -0.040 A 
ATOM     27  C   UNL A   1      30.470  28.493  22.653  1.00  0.00    -0.035 A 
ATOM     28  H   UNL A   1      30.714  30.480  21.974  1.00  0.00     0.064 H 
ATOM     29  C   UNL A   1      28.217  27.877  23.256  1.00  0.00    -0.035 A 
ATOM     30  H   UNL A   1      26.777  29.409  23.025  1.00  0.00     0.064 H 
ATOM     31  H   UNL A   1      31.468  28.249  22.558  1.00  0.00     0.065 H 
ATOM     32  H   UNL A   1      27.543  27.179  23.608  1.00  0.00     0.065 H 
BRANCH  24  33
ATOM     33  S   UNL A   1      28.162  31.748  22.068  1.00  0.00     0.238 S 
ATOM     34  O   UNL A   1      27.325  32.245  23.139  1.00  0.00    -0.207 OA
ATOM     35  O   UNL A   1      27.770  31.773  20.683  1.00  0.00    -0.207 OA
BRANCH  33  36
ATOM     36  N   UNL A   1      29.571  32.661  22.175  1.00  0.00    -0.225 NA
ATOM     37  H   UNL A   1      30.351  32.054  22.431  1.00  0.00     0.137 HD
ATOM     38  H   UNL A   1      29.455  33.384  22.885  1.00  0.00     0.137 HD
ENDBRANCH  33  36
ENDBRANCH  24  33
ENDBRANCH  21  23
ENDBRANCH  12  20
BRANCH  18  39
ATOM     39  O   UNL A   1      32.748  21.469  26.564  1.00  0.00    -0.507 OA
ATOM     40  H   UNL A   1      32.447  20.984  27.305  1.00  0.00     0.293 HD
ENDBRANCH  18  39
ENDBRANCH   8  11
ENDBRANCH   4   7
ENDBRANCH   1   4
BRANCH   1  41
ATOM     41  C   UNL A   1      34.216  25.519  25.636  1.00  0.00    -0.052 C 
ATOM     42  H   UNL A   1      34.925  26.030  26.254  1.00  0.00     0.027 H 
ATOM     43  H   UNL A   1      33.429  25.026  26.168  1.00  0.00     0.027 H 
BRANCH  41  44
ATOM     44  C   UNL A   1      33.516  26.569  24.770  1.00  0.00    -0.052 C 
ATOM     45  H   UNL A   1      32.731  26.078  24.235  1.00  0.00     0.027 H 
ATOM     46  H   UNL A   1      34.286  26.983  24.153  1.00  0.00     0.027 H 
BRANCH  44  47
ATOM     47  C   UNL A   1      32.903  27.765  25.501  1.00  0.00    -0.036 C 
ATOM     48  H   UNL A   1      33.057  27.620  26.550  1.00  0.00     0.028 H 
ATOM     49  H   UNL A   1      31.874  27.784  25.207  1.00  0.00     0.028 H 
BRANCH  47  50
ATOM     50  C   UNL A   1      33.460  29.135  25.134  1.00  0.00     0.018 C 
ATOM     51  H   UNL A   1      33.377  29.263  24.075  1.00  0.00     0.049 H 
ATOM     52  H   UNL A   1      34.477  29.162  25.465  1.00  0.00     0.049 H 
BRANCH  50  53
ATOM     53  N   UNL A   1      32.765  30.232  25.786  1.00  0.00    -0.352 N 
ATOM     54  C   UNL A   1      33.140  30.961  26.889  1.00  0.00     0.251 C 
ATOM     55  H   UNL A   1      31.905  30.489  25.381  1.00  0.00     0.163 HD
ATOM     56  O   UNL A   1      32.377  31.790  27.377  1.00  0.00    -0.269 OA
BRANCH  54  57
ATOM     57  C   UNL A   1      34.460  30.724  27.514  1.00  0.00     0.039 A 
ATOM     58  C   UNL A   1      35.349  31.794  27.645  1.00  0.00    -0.049 A 
ATOM     59  C   UNL A   1      34.816  29.455  27.978  1.00  0.00    -0.049 A 
ATOM     60  C   UNL A   1      36.566  31.611  28.308  1.00  0.00    -0.053 A 
ATOM     61  H   UNL A   1      35.108  32.718  27.252  1.00  0.00     0.063 H 
ATOM     62  C   UNL A   1      35.998  29.288  28.694  1.00  0.00    -0.053 A 
ATOM     63  H   UNL A   1      34.203  28.644  27.792  1.00  0.00     0.063 H 
ATOM     64  C   UNL A   1      36.883  30.365  28.870  1.00  0.00    -0.014 A 
ATOM     65  H   UNL A   1      37.233  32.395  28.386  1.00  0.00     0.063 H 
ATOM     66  H   UNL A   1      36.227  28.366  29.097  1.00  0.00     0.063 H 
BRANCH  64  67
ATOM     67  C   UNL A   1      38.131  30.142  29.643  1.00  0.00     0.031 A 
ATOM     68  C   UNL A   1      39.178  29.207  29.110  1.00  0.00     0.074 A 
ATOM     69  C   UNL A   1      38.274  30.695  30.862  1.00  0.00     0.049 A 
ATOM     70  N   UNL A   1      40.245  28.731  29.698  1.00  0.00    -0.248 NA
ATOM     71  C   UNL A   1      38.981  28.722  27.735  1.00  0.00    -0.034 C 
ATOM     72  C   UNL A   1      37.322  31.607  31.497  1.00  0.00    -0.036 A 
ATOM     73  N   UNL A   1      39.266  30.544  31.800  1.00  0.00    -0.354 N 
ATOM     74  C   UNL A   1      40.826  27.866  28.781  1.00  0.00     0.074 A 
ATOM     75  C   UNL A   1      39.979  27.860  27.608  1.00  0.00    -0.034 C 
ATOM     76  H   UNL A   1      38.256  28.985  27.048  1.00  0.00     0.065 H 
ATOM     77  C   UNL A   1      37.774  31.932  32.718  1.00  0.00    -0.036 A 
ATOM     78  H   UNL A   1      36.444  31.945  31.072  1.00  0.00     0.065 H 
ATOM     79  C   UNL A   1      39.020  31.215  32.974  1.00  0.00     0.049 A 
ATOM     80  H   UNL A   1      40.076  30.006  31.646  1.00  0.00     0.167 HD
ATOM     81  C   UNL A   1      41.969  27.151  28.905  1.00  0.00     0.037 A 
ATOM     82  H   UNL A   1      40.133  27.264  26.780  1.00  0.00     0.065 H 
ATOM     83  H   UNL A   1      37.313  32.586  33.372  1.00  0.00     0.065 H 
ATOM     84  C   UNL A   1      39.707  31.229  34.132  1.00  0.00     0.037 A 
ATOM     85  C   UNL A   1      42.824  27.185  30.062  1.00  0.00     0.049 A 
ATOM     86  C   UNL A   1      40.968  30.412  34.249  1.00  0.00     0.074 A 
ATOM     87  C   UNL A   1      44.033  26.542  30.261  1.00  0.00    -0.036 A 
ATOM     88  N   UNL A   1      42.556  27.905  31.217  1.00  0.00    -0.354 N 
ATOM     89  N   UNL A   1      41.540  29.640  33.357  1.00  0.00    -0.248 NA
ATOM     90  C   UNL A   1      41.682  30.472  35.533  1.00  0.00    -0.034 C 
ATOM     91  C   UNL A   1      44.480  26.845  31.550  1.00  0.00    -0.036 A 
ATOM     92  H   UNL A   1      44.519  25.942  29.576  1.00  0.00     0.065 H 
ATOM     93  C   UNL A   1      43.574  27.713  32.138  1.00  0.00     0.049 A 
ATOM     94  H   UNL A   1      41.763  28.470  31.361  1.00  0.00     0.167 HD
ATOM     95  C   UNL A   1      42.695  29.154  33.955  1.00  0.00     0.074 A 
ATOM     96  C   UNL A   1      42.747  29.720  35.286  1.00  0.00    -0.034 C 
ATOM     97  H   UNL A   1      41.424  30.968  36.399  1.00  0.00     0.065 H 
ATOM     98  H   UNL A   1      45.342  26.484  31.990  1.00  0.00     0.065 H 
ATOM     99  C   UNL A   1      43.629  28.316  33.445  1.00  0.00     0.037 A 
ATOM    100  H   UNL A   1      43.514  29.560  35.957  1.00  0.00     0.065 H 
BRANCH  81 101
ATOM    101  C   UNL A   1      42.361  26.266  27.759  1.00  0.00     0.064 A 
ATOM    102  C   UNL A   1      43.313  26.669  26.810  1.00  0.00     0.173 A 
ATOM    103  C   UNL A   1      41.805  24.984  27.629  1.00  0.00     0.173 A 
ATOM    104  F   UNL A   1      43.865  27.889  26.885  1.00  0.00    -0.203 F 
ATOM    105  C   UNL A   1      43.672  25.833  25.756  1.00  0.00     0.198 A 
ATOM    106  C   UNL A   1      42.188  24.139  26.590  1.00  0.00     0.198 A 
ATOM    107  F   UNL A   1      40.897  24.546  28.513  1.00  0.00    -0.203 F 
ATOM    108  F   UNL A   1      44.548  26.258  24.837  1.00  0.00    -0.200 F 
ATOM    109  C   UNL A   1      43.116  24.567  25.651  1.00  0.00     0.200 A 
ATOM    110  F   UNL A   1      41.660  22.911  26.496  1.00  0.00    -0.200 F 
ATOM    111  F   UNL A   1      43.467  23.761  24.640  1.00  0.00    -0.200 F 
ENDBRANCH  81 101
BRANCH  84 112
ATOM    112  C   UNL A   1      39.227  32.056  35.271  1.00  0.00     0.064 A 
ATOM    113  C   UNL A   1      38.471  31.483  36.304  1.00  0.00     0.173 A 
ATOM    114  C   UNL A   1      39.510  33.427  35.355  1.00  0.00     0.173 A 
ATOM    115  F   UNL A   1      38.165  30.178  36.264  1.00  0.00    -0.203 F 
ATOM    116  C   UNL A   1      37.996  32.254  37.362  1.00  0.00     0.198 A 
ATOM    117  C   UNL A   1      39.053  34.193  36.424  1.00  0.00     0.198 A 
ATOM    118  F   UNL A   1      40.258  34.017  34.413  1.00  0.00    -0.203 F 
ATOM    119  F   UNL A   1      37.245  31.688  38.315  1.00  0.00    -0.200 F 
ATOM    120  C   UNL A   1      38.290  33.608  37.424  1.00  0.00     0.200 A 
ATOM    121  F   UNL A   1      39.357  35.496  36.493  1.00  0.00    -0.200 F 
ATOM    122  F   UNL A   1      37.836  34.348  38.444  1.00  0.00    -0.200 F 
ENDBRANCH  84 112
BRANCH  99 123
ATOM    123  C   UNL A   1      44.826  28.007  34.293  1.00  0.00     0.064 A 
ATOM    124  C   UNL A   1      44.867  26.883  35.130  1.00  0.00     0.173 A 
ATOM    125  C   UNL A   1      45.975  28.807  34.205  1.00  0.00     0.173 A 
ATOM    126  F   UNL A   1      43.788  26.097  35.259  1.00  0.00    -0.203 F 
ATOM    127  C   UNL A   1      46.014  26.578  35.857  1.00  0.00     0.198 A 
ATOM    128  C   UNL A   1      47.129  28.484  34.913  1.00  0.00     0.198 A 
ATOM    129  F   UNL A   1      45.987  29.889  33.412  1.00  0.00    -0.203 F 
ATOM    130  F   UNL A   1      46.024  25.515  36.673  1.00  0.00    -0.200 F 
ATOM    131  C   UNL A   1      47.147  27.371  35.741  1.00  0.00     0.200 A 
ATOM    132  F   UNL A   1      48.226  29.243  34.789  1.00  0.00    -0.200 F 
ATOM    133  F   UNL A   1      48.256  27.065  36.428  1.00  0.00    -0.200 F 
ENDBRANCH  99 123
ENDBRANCH  64  67
ENDBRANCH  54  57
ENDBRANCH  50  53
ENDBRANCH  47  50
ENDBRANCH  44  47
ENDBRANCH  41  44
ENDBRANCH   1  41
TORSDOF 18
ENDMDL
MODEL 2
REMARK VINA RESULT:     -12.3      3.381      6.050
REMARK SMILES NS(=O)(=O)c1ccc(/N=C/c2ccc(O)c(C(=O)NCCCCCCNC(=O)c3ccc(-c4c5nc(c(-c6c(F)c(F)c(F)c(F)c6F)c6ccc([nH]6)c(-c6c(F)c(F)c(F)c(F)c6F)c6nc(c(-c7c(F)c(F)c(F)c(F)c7F)c7ccc4[nH]7)C=C6)C=C5)cc3)c2)cc1
REMARK SMILES IDX 21 1 20 4 19 7 17 8 18 9 16 11 11 12 12 13 92 14 13 15 14 18
REMARK SMILES IDX 10 20 9 21 8 23 5 24 6 25 94 26 7 27 93 29 2 33 3 34 4 35
REMARK SMILES IDX 1 36 15 39 22 41 23 44 24 47 25 50 26 53 27 54 28 56 29 57
REMARK SMILES IDX 30 58 91 59 31 60 90 62 32 64 33 67 34 68 84 69 35 70 89 71
REMARK SMILES IDX 83 72 85 73 36 74 88 75 82 77 81 79 37 81 69 84 49 85 68 86
REMARK SMILES IDX 50 87 53 88 67 89 86 90 51 91 52 93 66 95 87 96 54 99 38 101
REMARK SMILES IDX 39 102 47 103 40 104 41 105 45 106 48 107 42 108 43 109
REMARK SMILES IDX 46 110 44 111 70 112 71 113 79 114 72 115 73 116 77 117
REMARK SMILES IDX 80 118 74 119 75 120 78 121 76 122 55 123 56 124 64 125
REMARK SMILES IDX 57 126 58 127 62 128 65 129 59 130 60 131 63 132 61 133
REMARK H PARENT 21 2 21 3 20 5 20 6 19 10 12 16 92 17 13 19 10 22 6 28 94 30
REMARK H PARENT 7 31 93 32 1 37 1 38 15 40 22 42 22 43 23 45 23 46 24 48 24 49
REMARK H PARENT 25 51 25 52 26 55 30 61 91 63 31 65 90 66 89 76 83 78 85 80
REMARK H PARENT 88 82 82 83 50 92 53 94 86 97 51 98 87 100
REMARK Flexibility Score: inf
ROOT
ATOM      1  C   UNL A   1      32.855  28.065  26.851  1.00  0.00    -0.036 C 
ATOM      2  H   UNL A   1      33.707  28.456  26.335  1.00  0.00     0.028 H 
ATOM      3  H   UNL A   1      33.078  27.562  27.770  1.00  0.00     0.028 H 
ENDROOT
BRANCH   1   4
ATOM      4  C   UNL A   1      32.225  27.001  25.960  1.00  0.00     0.018 C 
ATOM      5  H   UNL A   1      31.619  27.494  25.228  1.00  0.00     0.049 H 
ATOM      6  H   UNL A   1      33.033  26.447  25.529  1.00  0.00     0.049 H 
BRANCH   4   7
ATOM      7  N   UNL A   1      31.393  26.039  26.665  1.00  0.00    -0.352 N 
ATOM      8  C   UNL A   1      31.249  24.681  26.485  1.00  0.00     0.255 C 
ATOM      9  O   UNL A   1      30.416  24.071  27.157  1.00  0.00    -0.269 OA
ATOM     10  H   UNL A   1      30.845  26.420  27.388  1.00  0.00     0.163 HD
BRANCH   8  11
ATOM     11  C   UNL A   1      32.001  23.924  25.452  1.00  0.00     0.082 A 
ATOM     12  C   UNL A   1      34.050  22.908  24.652  1.00  0.00    -0.006 A 
ATOM     13  C   UNL A   1      33.511  22.767  23.374  1.00  0.00    -0.050 A 
ATOM     14  C   UNL A   1      33.269  23.405  25.700  1.00  0.00    -0.037 A 
ATOM     15  C   UNL A   1      32.191  23.162  23.146  1.00  0.00    -0.019 A 
ATOM     16  H   UNL A   1      34.080  22.374  22.606  1.00  0.00     0.063 H 
ATOM     17  H   UNL A   1      33.635  23.386  26.666  1.00  0.00     0.064 H 
ATOM     18  C   UNL A   1      31.448  23.749  24.174  1.00  0.00     0.128 A 
ATOM     19  H   UNL A   1      31.764  23.023  22.217  1.00  0.00     0.066 H 
BRANCH  12  20
ATOM     20  C   UNL A   1      35.493  22.689  24.888  1.00  0.00     0.035 C 
ATOM     21  N   UNL A   1      35.980  21.495  24.769  1.00  0.00    -0.256 NA
ATOM     22  H   UNL A   1      36.105  23.480  25.145  1.00  0.00     0.085 H 
BRANCH  21  23
ATOM     23  C   UNL A   1      37.313  21.231  25.101  1.00  0.00     0.063 A 
ATOM     24  C   UNL A   1      39.879  20.516  25.967  1.00  0.00     0.082 A 
ATOM     25  C   UNL A   1      39.056  19.555  25.375  1.00  0.00    -0.040 A 
ATOM     26  C   UNL A   1      39.435  21.831  26.127  1.00  0.00    -0.040 A 
ATOM     27  C   UNL A   1      37.775  19.919  24.954  1.00  0.00    -0.035 A 
ATOM     28  H   UNL A   1      39.390  18.587  25.251  1.00  0.00     0.064 H 
ATOM     29  C   UNL A   1      38.150  22.181  25.701  1.00  0.00    -0.035 A 
ATOM     30  H   UNL A   1      40.051  22.538  26.557  1.00  0.00     0.064 H 
ATOM     31  H   UNL A   1      37.160  19.209  24.527  1.00  0.00     0.065 H 
ATOM     32  H   UNL A   1      37.815  23.149  25.829  1.00  0.00     0.065 H 
BRANCH  24  33
ATOM     33  S   UNL A   1      41.489  20.041  26.518  1.00  0.00     0.238 S 
ATOM     34  O   UNL A   1      42.301  21.229  26.673  1.00  0.00    -0.207 OA
ATOM     35  O   UNL A   1      41.908  18.892  25.759  1.00  0.00    -0.207 OA
BRANCH  33  36
ATOM     36  N   UNL A   1      41.231  19.499  28.089  1.00  0.00    -0.225 NA
ATOM     37  H   UNL A   1      40.965  20.286  28.681  1.00  0.00     0.137 HD
ATOM     38  H   UNL A   1      42.086  19.076  28.448  1.00  0.00     0.137 HD
ENDBRANCH  33  36
ENDBRANCH  24  33
ENDBRANCH  21  23
ENDBRANCH  12  20
BRANCH  18  39
ATOM     39  O   UNL A   1      30.177  24.147  23.853  1.00  0.00    -0.507 OA
ATOM     40  H   UNL A   1      29.781  24.862  24.310  1.00  0.00     0.293 HD
ENDBRANCH  18  39
ENDBRANCH   8  11
ENDBRANCH   4   7
ENDBRANCH   1   4
BRANCH   1  41
ATOM     41  C   UNL A   1      31.973  29.248  27.249  1.00  0.00    -0.052 C 
ATOM     42  H   UNL A   1      32.383  29.669  28.143  1.00  0.00     0.027 H 
ATOM     43  H   UNL A   1      30.990  28.840  27.354  1.00  0.00     0.027 H 
BRANCH  41  44
ATOM     44  C   UNL A   1      31.830  30.379  26.229  1.00  0.00    -0.052 C 
ATOM     45  H   UNL A   1      31.035  30.117  25.563  1.00  0.00     0.027 H 
ATOM     46  H   UNL A   1      32.791  30.465  25.766  1.00  0.00     0.027 H 
BRANCH  44  47
ATOM     47  C   UNL A   1      31.528  31.772  26.785  1.00  0.00    -0.036 C 
ATOM     48  H   UNL A   1      30.847  31.656  27.603  1.00  0.00     0.028 H 
ATOM     49  H   UNL A   1      31.135  32.331  25.962  1.00  0.00     0.028 H 
BRANCH  47  50
ATOM     50  C   UNL A   1      32.726  32.569  27.287  1.00  0.00     0.018 C 
ATOM     51  H   UNL A   1      33.479  32.565  26.527  1.00  0.00     0.049 H 
ATOM     52  H   UNL A   1      33.062  32.102  28.190  1.00  0.00     0.049 H 
BRANCH  50  53
ATOM     53  N   UNL A   1      32.405  33.949  27.610  1.00  0.00    -0.352 N 
ATOM     54  C   UNL A   1      32.998  34.785  28.527  1.00  0.00     0.251 C 
ATOM     55  H   UNL A   1      31.657  34.340  27.102  1.00  0.00     0.163 HD
ATOM     56  O   UNL A   1      32.528  35.896  28.751  1.00  0.00    -0.269 OA
BRANCH  54  57
ATOM     57  C   UNL A   1      34.192  34.330  29.272  1.00  0.00     0.039 A 
ATOM     58  C   UNL A   1      34.026  33.786  30.549  1.00  0.00    -0.049 A 
ATOM     59  C   UNL A   1      35.468  34.431  28.713  1.00  0.00    -0.049 A 
ATOM     60  C   UNL A   1      35.130  33.273  31.235  1.00  0.00    -0.053 A 
ATOM     61  H   UNL A   1      33.090  33.763  30.984  1.00  0.00     0.063 H 
ATOM     62  C   UNL A   1      36.556  33.862  29.369  1.00  0.00    -0.053 A 
ATOM     63  H   UNL A   1      35.603  34.923  27.815  1.00  0.00     0.063 H 
ATOM     64  C   UNL A   1      36.398  33.274  30.634  1.00  0.00    -0.014 A 
ATOM     65  H   UNL A   1      35.013  32.891  32.187  1.00  0.00     0.063 H 
ATOM     66  H   UNL A   1      37.487  33.875  28.922  1.00  0.00     0.063 H 
BRANCH  64  67
ATOM     67  C   UNL A   1      37.586  32.677  31.296  1.00  0.00     0.031 A 
ATOM     68  C   UNL A   1      38.286  31.514  30.656  1.00  0.00     0.074 A 
ATOM     69  C   UNL A   1      37.965  33.110  32.513  1.00  0.00     0.049 A 
ATOM     70  N   UNL A   1      39.216  30.732  31.142  1.00  0.00    -0.248 NA
ATOM     71  C   UNL A   1      37.863  31.167  29.290  1.00  0.00    -0.034 C 
ATOM     72  C   UNL A   1      37.356  34.220  33.246  1.00  0.00    -0.036 A 
ATOM     73  N   UNL A   1      38.940  32.645  33.362  1.00  0.00    -0.354 N 
ATOM     74  C   UNL A   1      39.463  29.784  30.159  1.00  0.00     0.074 A 
ATOM     75  C   UNL A   1      38.567  30.069  29.060  1.00  0.00    -0.034 C 
ATOM     76  H   UNL A   1      37.193  31.653  28.672  1.00  0.00     0.065 H 
ATOM     77  C   UNL A   1      37.968  34.349  34.434  1.00  0.00    -0.036 A 
ATOM     78  H   UNL A   1      36.581  34.809  32.904  1.00  0.00     0.065 H 
ATOM     79  C   UNL A   1      38.977  33.302  34.568  1.00  0.00     0.049 A 
ATOM     80  H   UNL A   1      39.553  31.911  33.129  1.00  0.00     0.167 HD
ATOM     81  C   UNL A   1      40.365  28.774  30.171  1.00  0.00     0.037 A 
ATOM     82  H   UNL A   1      38.486  29.493  28.207  1.00  0.00     0.065 H 
ATOM     83  H   UNL A   1      37.758  35.073  35.140  1.00  0.00     0.065 H 
ATOM     84  C   UNL A   1      39.723  33.070  35.666  1.00  0.00     0.037 A 
ATOM     85  C   UNL A   1      41.276  28.515  31.254  1.00  0.00     0.049 A 
ATOM     86  C   UNL A   1      40.708  31.931  35.658  1.00  0.00     0.074 A 
ATOM     87  C   UNL A   1      42.266  27.552  31.337  1.00  0.00    -0.036 A 
ATOM     88  N   UNL A   1      41.305  29.226  32.445  1.00  0.00    -0.354 N 
ATOM     89  N   UNL A   1      40.974  31.072  34.704  1.00  0.00    -0.248 NA
ATOM     90  C   UNL A   1      41.501  31.728  36.880  1.00  0.00    -0.034 C 
ATOM     91  C   UNL A   1      42.873  27.657  32.592  1.00  0.00    -0.036 A 
ATOM     92  H   UNL A   1      42.514  26.873  30.600  1.00  0.00     0.065 H 
ATOM     93  C   UNL A   1      42.292  28.715  33.273  1.00  0.00     0.049 A 
ATOM     94  H   UNL A   1      40.715  29.981  32.667  1.00  0.00     0.167 HD
ATOM     95  C   UNL A   1      41.986  30.257  35.192  1.00  0.00     0.074 A 
ATOM     96  C   UNL A   1      42.291  30.723  36.528  1.00  0.00    -0.034 C 
ATOM     97  H   UNL A   1      41.456  32.236  37.777  1.00  0.00     0.065 H 
ATOM     98  H   UNL A   1      43.627  27.051  32.951  1.00  0.00     0.065 H 
ATOM     99  C   UNL A   1      42.607  29.217  34.586  1.00  0.00     0.037 A 
ATOM    100  H   UNL A   1      43.029  30.324  37.130  1.00  0.00     0.065 H 
BRANCH  81 101
ATOM    101  C   UNL A   1      40.409  27.870  28.975  1.00  0.00     0.064 A 
ATOM    102  C   UNL A   1      41.205  28.165  27.858  1.00  0.00     0.173 A 
ATOM    103  C   UNL A   1      39.674  26.674  28.960  1.00  0.00     0.173 A 
ATOM    104  F   UNL A   1      41.918  29.301  27.819  1.00  0.00    -0.203 F 
ATOM    105  C   UNL A   1      41.241  27.312  26.759  1.00  0.00     0.198 A 
ATOM    106  C   UNL A   1      39.735  25.809  27.871  1.00  0.00     0.198 A 
ATOM    107  F   UNL A   1      38.903  26.340  30.005  1.00  0.00    -0.203 F 
ATOM    108  F   UNL A   1      41.973  27.638  25.685  1.00  0.00    -0.200 F 
ATOM    109  C   UNL A   1      40.513  26.131  26.769  1.00  0.00     0.200 A 
ATOM    110  F   UNL A   1      39.041  24.662  27.887  1.00  0.00    -0.200 F 
ATOM    111  F   UNL A   1      40.554  25.308  25.713  1.00  0.00    -0.200 F 
ENDBRANCH  81 101
BRANCH  84 112
ATOM    112  C   UNL A   1      39.577  33.944  36.861  1.00  0.00     0.064 A 
ATOM    113  C   UNL A   1      40.247  35.173  36.935  1.00  0.00     0.173 A 
ATOM    114  C   UNL A   1      38.771  33.575  37.948  1.00  0.00     0.173 A 
ATOM    115  F   UNL A   1      41.038  35.566  35.926  1.00  0.00    -0.203 F 
ATOM    116  C   UNL A   1      40.137  35.986  38.060  1.00  0.00     0.198 A 
ATOM    117  C   UNL A   1      38.644  34.399  39.063  1.00  0.00     0.198 A 
ATOM    118  F   UNL A   1      38.081  32.427  37.913  1.00  0.00    -0.203 F 
ATOM    119  F   UNL A   1      40.819  37.138  38.120  1.00  0.00    -0.200 F 
ATOM    120  C   UNL A   1      39.334  35.601  39.123  1.00  0.00     0.200 A 
ATOM    121  F   UNL A   1      37.850  34.034  40.079  1.00  0.00    -0.200 F 
ATOM    122  F   UNL A   1      39.225  36.387  40.202  1.00  0.00    -0.200 F 
ENDBRANCH  84 112
BRANCH  99 123
ATOM    123  C   UNL A   1      43.727  28.547  35.325  1.00  0.00     0.064 A 
ATOM    124  C   UNL A   1      43.503  27.450  36.168  1.00  0.00     0.173 A 
ATOM    125  C   UNL A   1      45.051  28.966  35.124  1.00  0.00     0.173 A 
ATOM    126  F   UNL A   1      42.254  27.023  36.403  1.00  0.00    -0.203 F 
ATOM    127  C   UNL A   1      44.566  26.801  36.791  1.00  0.00     0.198 A 
ATOM    128  C   UNL A   1      46.113  28.298  35.727  1.00  0.00     0.198 A 
ATOM    129  F   UNL A   1      45.317  30.007  34.320  1.00  0.00    -0.203 F 
ATOM    130  F   UNL A   1      44.329  25.771  37.615  1.00  0.00    -0.200 F 
ATOM    131  C   UNL A   1      45.870  27.218  36.562  1.00  0.00     0.200 A 
ATOM    132  F   UNL A   1      47.372  28.694  35.494  1.00  0.00    -0.200 F 
ATOM    133  F   UNL A   1      46.892  26.581  37.149  1.00  0.00    -0.200 F 
ENDBRANCH  99 123
ENDBRANCH  64  67
ENDBRANCH  54  57
ENDBRANCH  50  53
ENDBRANCH  47  50
ENDBRANCH  44  47
ENDBRANCH  41  44
ENDBRANCH   1  41
TORSDOF 18
ENDMDL
MODEL 3
REMARK VINA RESULT:     -12.3      3.379      6.048
REMARK SMILES NS(=O)(=O)c1ccc(/N=C/c2ccc(O)c(C(=O)NCCCCCCNC(=O)c3ccc(-c4c5nc(c(-c6c(F)c(F)c(F)c(F)c6F)c6ccc([nH]6)c(-c6c(F)c(F)c(F)c(F)c6F)c6nc(c(-c7c(F)c(F)c(F)c(F)c7F)c7ccc4[nH]7)C=C6)C=C5)cc3)c2)cc1
REMARK SMILES IDX 21 1 20 4 19 7 17 8 18 9 16 11 11 12 12 13 92 14 13 15 14 18
REMARK SMILES IDX 10 20 9 21 8 23 5 24 6 25 94 26 7 27 93 29 2 33 3 34 4 35
REMARK SMILES IDX 1 36 15 39 22 41 23 44 24 47 25 50 26 53 27 54 28 56 29 57
REMARK SMILES IDX 30 58 91 59 31 60 90 62 32 64 33 67 34 68 84 69 35 70 89 71
REMARK SMILES IDX 83 72 85 73 36 74 88 75 82 77 81 79 37 81 69 84 49 85 68 86
REMARK SMILES IDX 50 87 53 88 67 89 86 90 51 91 52 93 66 95 87 96 54 99 38 101
REMARK SMILES IDX 39 102 47 103 40 104 41 105 45 106 48 107 42 108 43 109
REMARK SMILES IDX 46 110 44 111 70 112 71 113 79 114 72 115 73 116 77 117
REMARK SMILES IDX 80 118 74 119 75 120 78 121 76 122 55 123 56 124 64 125
REMARK SMILES IDX 57 126 58 127 62 128 65 129 59 130 60 131 63 132 61 133
REMARK H PARENT 21 2 21 3 20 5 20 6 19 10 12 16 92 17 13 19 10 22 6 28 94 30
REMARK H PARENT 7 31 93 32 1 37 1 38 15 40 22 42 22 43 23 45 23 46 24 48 24 49
REMARK H PARENT 25 51 25 52 26 55 30 61 91 63 31 65 90 66 89 76 83 78 85 80
REMARK H PARENT 88 82 82 83 50 92 53 94 86 97 51 98 87 100
REMARK Flexibility Score: inf
ROOT
ATOM      1  C   UNL A   1      32.533  27.959  26.526  1.00  0.00    -0.036 C 
ATOM      2  H   UNL A   1      33.352  28.277  25.914  1.00  0.00     0.028 H 
ATOM      3  H   UNL A   1      32.814  27.460  27.430  1.00  0.00     0.028 H 
ENDROOT
BRANCH   1   4
ATOM      4  C   UNL A   1      31.740  26.927  25.732  1.00  0.00     0.018 C 
ATOM      5  H   UNL A   1      30.992  27.443  25.167  1.00  0.00     0.049 H 
ATOM      6  H   UNL A   1      32.446  26.408  25.118  1.00  0.00     0.049 H 
BRANCH   4   7
ATOM      7  N   UNL A   1      31.079  25.919  26.546  1.00  0.00    -0.352 N 
ATOM      8  C   UNL A   1      31.131  24.544  26.481  1.00  0.00     0.255 C 
ATOM      9  O   UNL A   1      30.416  23.880  27.233  1.00  0.00    -0.269 OA
ATOM     10  H   UNL A   1      30.502  26.277  27.258  1.00  0.00     0.163 HD
BRANCH   8  11
ATOM     11  C   UNL A   1      31.956  23.818  25.482  1.00  0.00     0.082 A 
ATOM     12  C   UNL A   1      34.057  22.820  24.802  1.00  0.00    -0.006 A 
ATOM     13  C   UNL A   1      33.613  22.723  23.484  1.00  0.00    -0.050 A 
ATOM     14  C   UNL A   1      33.202  23.286  25.806  1.00  0.00    -0.037 A 
ATOM     15  C   UNL A   1      32.314  23.131  23.173  1.00  0.00    -0.019 A 
ATOM     16  H   UNL A   1      34.236  22.353  22.748  1.00  0.00     0.063 H 
ATOM     17  H   UNL A   1      33.495  23.234  26.795  1.00  0.00     0.064 H 
ATOM     18  C   UNL A   1      31.498  23.687  24.162  1.00  0.00     0.128 A 
ATOM     19  H   UNL A   1      31.956  23.023  22.211  1.00  0.00     0.066 H 
BRANCH  12  20
ATOM     20  C   UNL A   1      35.478  22.588  25.137  1.00  0.00     0.035 C 
ATOM     21  N   UNL A   1      36.089  21.566  24.628  1.00  0.00    -0.256 NA
ATOM     22  H   UNL A   1      35.977  23.233  25.769  1.00  0.00     0.085 H 
BRANCH  21  23
ATOM     23  C   UNL A   1      37.396  21.249  25.016  1.00  0.00     0.063 A 
ATOM     24  C   UNL A   1      39.891  20.435  25.992  1.00  0.00     0.082 A 
ATOM     25  C   UNL A   1      39.051  19.503  25.380  1.00  0.00    -0.040 A 
ATOM     26  C   UNL A   1      39.499  21.770  26.118  1.00  0.00    -0.040 A 
ATOM     27  C   UNL A   1      37.804  19.916  24.903  1.00  0.00    -0.035 A 
ATOM     28  H   UNL A   1      39.346  18.519  25.281  1.00  0.00     0.064 H 
ATOM     29  C   UNL A   1      38.249  22.170  25.637  1.00  0.00    -0.035 A 
ATOM     30  H   UNL A   1      40.129  22.456  26.564  1.00  0.00     0.064 H 
ATOM     31  H   UNL A   1      37.176  19.227  24.461  1.00  0.00     0.065 H 
ATOM     32  H   UNL A   1      37.952  23.154  25.740  1.00  0.00     0.065 H 
BRANCH  24  33
ATOM     33  S   UNL A   1      41.456  19.899  26.613  1.00  0.00     0.238 S 
ATOM     34  O   UNL A   1      42.296  21.057  26.833  1.00  0.00    -0.207 OA
ATOM     35  O   UNL A   1      41.878  18.752  25.850  1.00  0.00    -0.207 OA
BRANCH  33  36
ATOM     36  N   UNL A   1      41.102  19.333  28.156  1.00  0.00    -0.225 NA
ATOM     37  H   UNL A   1      40.230  18.803  28.132  1.00  0.00     0.137 HD
ATOM     38  H   UNL A   1      41.002  20.123  28.794  1.00  0.00     0.137 HD
ENDBRANCH  33  36
ENDBRANCH  24  33
ENDBRANCH  21  23
ENDBRANCH  12  20
BRANCH  18  39
ATOM     39  O   UNL A   1      30.255  24.100  23.761  1.00  0.00    -0.507 OA
ATOM     40  H   UNL A   1      29.496  23.616  24.017  1.00  0.00     0.293 HD
ENDBRANCH  18  39
ENDBRANCH   8  11
ENDBRANCH   4   7
ENDBRANCH   1   4
BRANCH   1  41
ATOM     41  C   UNL A   1      31.783  29.211  26.980  1.00  0.00    -0.052 C 
ATOM     42  H   UNL A   1      32.190  29.506  27.925  1.00  0.00     0.027 H 
ATOM     43  H   UNL A   1      30.752  28.925  27.005  1.00  0.00     0.027 H 
BRANCH  41  44
ATOM     44  C   UNL A   1      31.838  30.427  26.053  1.00  0.00    -0.052 C 
ATOM     45  H   UNL A   1      31.145  30.260  25.257  1.00  0.00     0.027 H 
ATOM     46  H   UNL A   1      32.861  30.501  25.748  1.00  0.00     0.027 H 
BRANCH  44  47
ATOM     47  C   UNL A   1      31.508  31.783  26.679  1.00  0.00    -0.036 C 
ATOM     48  H   UNL A   1      30.797  31.617  27.462  1.00  0.00     0.028 H 
ATOM     49  H   UNL A   1      31.144  32.389  25.876  1.00  0.00     0.028 H 
BRANCH  47  50
ATOM     50  C   UNL A   1      32.682  32.552  27.273  1.00  0.00     0.018 C 
ATOM     51  H   UNL A   1      33.485  32.548  26.566  1.00  0.00     0.049 H 
ATOM     52  H   UNL A   1      32.948  32.067  28.189  1.00  0.00     0.049 H 
BRANCH  50  53
ATOM     53  N   UNL A   1      32.361  33.933  27.595  1.00  0.00    -0.352 N 
ATOM     54  C   UNL A   1      32.962  34.773  28.503  1.00  0.00     0.251 C 
ATOM     55  H   UNL A   1      31.607  34.321  27.094  1.00  0.00     0.163 HD
ATOM     56  O   UNL A   1      32.492  35.884  28.729  1.00  0.00    -0.269 OA
BRANCH  54  57
ATOM     57  C   UNL A   1      34.165  34.323  29.237  1.00  0.00     0.039 A 
ATOM     58  C   UNL A   1      34.003  33.591  30.417  1.00  0.00    -0.049 A 
ATOM     59  C   UNL A   1      35.446  34.613  28.761  1.00  0.00    -0.049 A 
ATOM     60  C   UNL A   1      35.125  33.084  31.080  1.00  0.00    -0.053 A 
ATOM     61  H   UNL A   1      33.058  33.426  30.798  1.00  0.00     0.063 H 
ATOM     62  C   UNL A   1      36.557  34.054  29.386  1.00  0.00    -0.053 A 
ATOM     63  H   UNL A   1      35.567  35.237  27.947  1.00  0.00     0.063 H 
ATOM     64  C   UNL A   1      36.408  33.281  30.549  1.00  0.00    -0.014 A 
ATOM     65  H   UNL A   1      35.008  32.563  31.964  1.00  0.00     0.063 H 
ATOM     66  H   UNL A   1      37.498  34.210  28.992  1.00  0.00     0.063 H 
BRANCH  64  67
ATOM     67  C   UNL A   1      37.621  32.702  31.180  1.00  0.00     0.031 A 
ATOM     68  C   UNL A   1      38.332  31.560  30.514  1.00  0.00     0.074 A 
ATOM     69  C   UNL A   1      38.016  33.130  32.394  1.00  0.00     0.049 A 
ATOM     70  N   UNL A   1      39.287  30.793  30.973  1.00  0.00    -0.248 NA
ATOM     71  C   UNL A   1      37.888  31.219  29.153  1.00  0.00    -0.034 C 
ATOM     72  C   UNL A   1      37.400  34.220  33.151  1.00  0.00    -0.036 A 
ATOM     73  N   UNL A   1      39.018  32.678  33.218  1.00  0.00    -0.354 N 
ATOM     74  C   UNL A   1      39.534  29.860  29.976  1.00  0.00     0.074 A 
ATOM     75  C   UNL A   1      38.609  30.137  28.897  1.00  0.00    -0.034 C 
ATOM     76  H   UNL A   1      37.196  31.697  28.554  1.00  0.00     0.065 H 
ATOM     77  C   UNL A   1      38.033  34.350  34.327  1.00  0.00    -0.036 A 
ATOM     78  H   UNL A   1      36.606  34.796  32.831  1.00  0.00     0.065 H 
ATOM     79  C   UNL A   1      39.066  33.323  34.430  1.00  0.00     0.049 A 
ATOM     80  H   UNL A   1      39.640  31.958  32.965  1.00  0.00     0.167 HD
ATOM     81  C   UNL A   1      40.456  28.869  29.958  1.00  0.00     0.037 A 
ATOM     82  H   UNL A   1      38.524  29.568  28.041  1.00  0.00     0.065 H 
ATOM     83  H   UNL A   1      37.822  35.062  35.045  1.00  0.00     0.065 H 
ATOM     84  C   UNL A   1      39.838  33.095  35.510  1.00  0.00     0.037 A 
ATOM     85  C   UNL A   1      41.394  28.618  31.020  1.00  0.00     0.049 A 
ATOM     86  C   UNL A   1      40.846  31.976  35.471  1.00  0.00     0.074 A 
ATOM     87  C   UNL A   1      42.405  27.675  31.073  1.00  0.00    -0.036 A 
ATOM     88  N   UNL A   1      41.433  29.317  32.217  1.00  0.00    -0.354 N 
ATOM     89  N   UNL A   1      41.110  31.133  34.502  1.00  0.00    -0.248 NA
ATOM     90  C   UNL A   1      41.667  31.778  36.674  1.00  0.00    -0.034 C 
ATOM     91  C   UNL A   1      43.035  27.780  32.317  1.00  0.00    -0.036 A 
ATOM     92  H   UNL A   1      42.652  27.009  30.324  1.00  0.00     0.065 H 
ATOM     93  C   UNL A   1      42.446  28.819  33.021  1.00  0.00     0.049 A 
ATOM     94  H   UNL A   1      40.832  30.058  32.460  1.00  0.00     0.167 HD
ATOM     95  C   UNL A   1      42.148  30.334  34.962  1.00  0.00     0.074 A 
ATOM     96  C   UNL A   1      42.471  30.793  36.296  1.00  0.00    -0.034 C 
ATOM     97  H   UNL A   1      41.630  32.276  37.577  1.00  0.00     0.065 H 
ATOM     98  H   UNL A   1      43.809  27.186  32.654  1.00  0.00     0.065 H 
ATOM     99  C   UNL A   1      42.778  29.313  34.332  1.00  0.00     0.037 A 
ATOM    100  H   UNL A   1      43.228  30.403  36.878  1.00  0.00     0.065 H 
BRANCH  81 101
ATOM    101  C   UNL A   1      40.494  27.978  28.752  1.00  0.00     0.064 A 
ATOM    102  C   UNL A   1      41.272  28.294  27.628  1.00  0.00     0.173 A 
ATOM    103  C   UNL A   1      39.773  26.774  28.735  1.00  0.00     0.173 A 
ATOM    104  F   UNL A   1      41.971  29.439  27.592  1.00  0.00    -0.203 F 
ATOM    105  C   UNL A   1      41.303  27.453  26.519  1.00  0.00     0.198 A 
ATOM    106  C   UNL A   1      39.829  25.921  27.635  1.00  0.00     0.198 A 
ATOM    107  F   UNL A   1      39.020  26.420  29.786  1.00  0.00    -0.203 F 
ATOM    108  F   UNL A   1      42.016  27.799  25.439  1.00  0.00    -0.200 F 
ATOM    109  C   UNL A   1      40.588  26.264  26.526  1.00  0.00     0.200 A 
ATOM    110  F   UNL A   1      39.149  24.767  27.649  1.00  0.00    -0.200 F 
ATOM    111  F   UNL A   1      40.625  25.453  25.461  1.00  0.00    -0.200 F 
ENDBRANCH  81 101
BRANCH  84 112
ATOM    112  C   UNL A   1      39.699  33.953  36.717  1.00  0.00     0.064 A 
ATOM    113  C   UNL A   1      38.892  33.554  37.791  1.00  0.00     0.173 A 
ATOM    114  C   UNL A   1      40.365  35.182  36.826  1.00  0.00     0.173 A 
ATOM    115  F   UNL A   1      38.225  32.391  37.731  1.00  0.00    -0.203 F 
ATOM    116  C   UNL A   1      38.736  34.362  38.915  1.00  0.00     0.198 A 
ATOM    117  C   UNL A   1      40.226  35.980  37.959  1.00  0.00     0.198 A 
ATOM    118  F   UNL A   1      41.177  35.595  35.843  1.00  0.00    -0.203 F 
ATOM    119  F   UNL A   1      37.928  33.973  39.910  1.00  0.00    -0.200 F 
ATOM    120  C   UNL A   1      39.405  35.573  39.000  1.00  0.00     0.200 A 
ATOM    121  F   UNL A   1      40.892  37.140  38.047  1.00  0.00    -0.200 F 
ATOM    122  F   UNL A   1      39.258  36.348  40.083  1.00  0.00    -0.200 F 
ENDBRANCH  84 112
BRANCH  99 123
ATOM    123  C   UNL A   1      43.926  28.660  35.041  1.00  0.00     0.064 A 
ATOM    124  C   UNL A   1      45.234  29.154  34.939  1.00  0.00     0.173 A 
ATOM    125  C   UNL A   1      43.697  27.570  35.895  1.00  0.00     0.173 A 
ATOM    126  F   UNL A   1      45.505  30.185  34.125  1.00  0.00    -0.203 F 
ATOM    127  C   UNL A   1      46.273  28.572  35.661  1.00  0.00     0.198 A 
ATOM    128  C   UNL A   1      44.734  27.008  36.634  1.00  0.00     0.198 A 
ATOM    129  F   UNL A   1      42.461  27.065  36.031  1.00  0.00    -0.203 F 
ATOM    130  F   UNL A   1      47.522  29.042  35.529  1.00  0.00    -0.200 F 
ATOM    131  C   UNL A   1      46.021  27.508  36.515  1.00  0.00     0.200 A 
ATOM    132  F   UNL A   1      44.486  25.989  37.468  1.00  0.00    -0.200 F 
ATOM    133  F   UNL A   1      47.021  26.962  37.221  1.00  0.00    -0.200 F 
ENDBRANCH  99 123
ENDBRANCH  64  67
ENDBRANCH  54  57
ENDBRANCH  50  53
ENDBRANCH  47  50
ENDBRANCH  44  47
ENDBRANCH  41  44
ENDBRANCH   1  41
TORSDOF 18
ENDMDL
MODEL 4
REMARK VINA RESULT:     -12.3      2.699      5.388
REMARK SMILES NS(=O)(=O)c1ccc(/N=C/c2ccc(O)c(C(=O)NCCCCCCNC(=O)c3ccc(-c4c5nc(c(-c6c(F)c(F)c(F)c(F)c6F)c6ccc([nH]6)c(-c6c(F)c(F)c(F)c(F)c6F)c6nc(c(-c7c(F)c(F)c(F)c(F)c7F)c7ccc4[nH]7)C=C6)C=C5)cc3)c2)cc1
REMARK SMILES IDX 21 1 20 4 19 7 17 8 18 9 16 11 11 12 12 13 92 14 13 15 14 18
REMARK SMILES IDX 10 20 9 21 8 23 5 24 6 25 94 26 7 27 93 29 2 33 3 34 4 35
REMARK SMILES IDX 1 36 15 39 22 41 23 44 24 47 25 50 26 53 27 54 28 56 29 57
REMARK SMILES IDX 30 58 91 59 31 60 90 62 32 64 33 67 34 68 84 69 35 70 89 71
REMARK SMILES IDX 83 72 85 73 36 74 88 75 82 77 81 79 37 81 69 84 49 85 68 86
REMARK SMILES IDX 50 87 53 88 67 89 86 90 51 91 52 93 66 95 87 96 54 99 38 101
REMARK SMILES IDX 39 102 47 103 40 104 41 105 45 106 48 107 42 108 43 109
REMARK SMILES IDX 46 110 44 111 70 112 71 113 79 114 72 115 73 116 77 117
REMARK SMILES IDX 80 118 74 119 75 120 78 121 76 122 55 123 56 124 64 125
REMARK SMILES IDX 57 126 58 127 62 128 65 129 59 130 60 131 63 132 61 133
REMARK H PARENT 21 2 21 3 20 5 20 6 19 10 12 16 92 17 13 19 10 22 6 28 94 30
REMARK H PARENT 7 31 93 32 1 37 1 38 15 40 22 42 22 43 23 45 23 46 24 48 24 49
REMARK H PARENT 25 51 25 52 26 55 30 61 91 63 31 65 90 66 89 76 83 78 85 80
REMARK H PARENT 88 82 82 83 50 92 53 94 86 97 51 98 87 100
REMARK Flexibility Score: inf
ROOT
ATOM      1  C   UNL A   1      34.172  29.377  26.906  1.00  0.00    -0.036 C 
ATOM      2  H   UNL A   1      34.659  30.229  26.478  1.00  0.00     0.028 H 
ATOM      3  H   UNL A   1      34.709  28.902  27.701  1.00  0.00     0.028 H 
ENDROOT
BRANCH   1   4
ATOM      4  C   UNL A   1      34.058  28.317  25.816  1.00  0.00     0.018 C 
ATOM      5  H   UNL A   1      34.890  27.650  25.911  1.00  0.00     0.049 H 
ATOM      6  H   UNL A   1      33.115  27.833  25.960  1.00  0.00     0.049 H 
BRANCH   4   7
ATOM      7  N   UNL A   1      34.051  28.844  24.461  1.00  0.00    -0.352 N 
ATOM      8  C   UNL A   1      33.118  28.713  23.457  1.00  0.00     0.255 C 
ATOM      9  O   UNL A   1      33.360  29.187  22.345  1.00  0.00    -0.269 OA
ATOM     10  H   UNL A   1      34.841  29.381  24.223  1.00  0.00     0.163 HD
BRANCH   8  11
ATOM     11  C   UNL A   1      31.855  27.951  23.629  1.00  0.00     0.082 A 
ATOM     12  C   UNL A   1      30.662  25.846  23.782  1.00  0.00    -0.006 A 
ATOM     13  C   UNL A   1      29.439  26.501  23.643  1.00  0.00    -0.050 A 
ATOM     14  C   UNL A   1      31.852  26.577  23.859  1.00  0.00    -0.037 A 
ATOM     15  C   UNL A   1      29.421  27.894  23.546  1.00  0.00    -0.019 A 
ATOM     16  H   UNL A   1      28.558  25.963  23.614  1.00  0.00     0.063 H 
ATOM     17  H   UNL A   1      32.736  26.094  24.089  1.00  0.00     0.064 H 
ATOM     18  C   UNL A   1      30.621  28.611  23.525  1.00  0.00     0.128 A 
ATOM     19  H   UNL A   1      28.521  28.396  23.488  1.00  0.00     0.066 H 
BRANCH  12  20
ATOM     20  C   UNL A   1      30.742  24.373  23.690  1.00  0.00     0.035 C 
ATOM     21  N   UNL A   1      31.757  23.760  24.210  1.00  0.00    -0.256 NA
ATOM     22  H   UNL A   1      29.997  23.839  23.215  1.00  0.00     0.085 H 
BRANCH  21  23
ATOM     23  C   UNL A   1      31.925  22.382  24.037  1.00  0.00     0.063 A 
ATOM     24  C   UNL A   1      32.533  19.659  23.794  1.00  0.00     0.082 A 
ATOM     25  C   UNL A   1      32.513  20.253  25.057  1.00  0.00    -0.040 A 
ATOM     26  C   UNL A   1      32.249  20.411  22.651  1.00  0.00    -0.040 A 
ATOM     27  C   UNL A   1      32.216  21.614  25.169  1.00  0.00    -0.035 A 
ATOM     28  H   UNL A   1      32.715  19.693  25.900  1.00  0.00     0.064 H 
ATOM     29  C   UNL A   1      31.954  21.772  22.776  1.00  0.00    -0.035 A 
ATOM     30  H   UNL A   1      32.257  19.965  21.720  1.00  0.00     0.064 H 
ATOM     31  H   UNL A   1      32.212  22.058  26.100  1.00  0.00     0.065 H 
ATOM     32  H   UNL A   1      31.756  22.332  21.932  1.00  0.00     0.065 H 
BRANCH  24  33
ATOM     33  S   UNL A   1      32.932  17.943  23.660  1.00  0.00     0.238 S 
ATOM     34  O   UNL A   1      34.228  17.714  24.261  1.00  0.00    -0.207 OA
ATOM     35  O   UNL A   1      32.587  17.499  22.334  1.00  0.00    -0.207 OA
BRANCH  33  36
ATOM     36  N   UNL A   1      31.844  17.197  24.704  1.00  0.00    -0.225 NA
ATOM     37  H   UNL A   1      30.969  17.015  24.210  1.00  0.00     0.137 HD
ATOM     38  H   UNL A   1      31.664  17.808  25.501  1.00  0.00     0.137 HD
ENDBRANCH  33  36
ENDBRANCH  24  33
ENDBRANCH  21  23
ENDBRANCH  12  20
BRANCH  18  39
ATOM     39  O   UNL A   1      30.514  29.969  23.383  1.00  0.00    -0.507 OA
ATOM     40  H   UNL A   1      30.796  30.535  24.074  1.00  0.00     0.293 HD
ENDBRANCH  18  39
ENDBRANCH   8  11
ENDBRANCH   4   7
ENDBRANCH   1   4
BRANCH   1  41
ATOM     41  C   UNL A   1      32.869  29.861  27.541  1.00  0.00    -0.052 C 
ATOM     42  H   UNL A   1      33.122  30.592  28.280  1.00  0.00     0.027 H 
ATOM     43  H   UNL A   1      32.399  28.979  27.923  1.00  0.00     0.027 H 
BRANCH  41  44
ATOM     44  C   UNL A   1      31.834  30.490  26.605  1.00  0.00    -0.052 C 
ATOM     45  H   UNL A   1      30.903  29.991  26.769  1.00  0.00     0.027 H 
ATOM     46  H   UNL A   1      32.237  30.374  25.621  1.00  0.00     0.027 H 
BRANCH  44  47
ATOM     47  C   UNL A   1      31.589  31.992  26.763  1.00  0.00    -0.036 C 
ATOM     48  H   UNL A   1      30.796  32.121  27.471  1.00  0.00     0.028 H 
ATOM     49  H   UNL A   1      31.363  32.350  25.781  1.00  0.00     0.028 H 
BRANCH  47  50
ATOM     50  C   UNL A   1      32.776  32.820  27.239  1.00  0.00     0.018 C 
ATOM     51  H   UNL A   1      33.489  32.880  26.444  1.00  0.00     0.049 H 
ATOM     52  H   UNL A   1      33.176  32.333  28.104  1.00  0.00     0.049 H 
BRANCH  50  53
ATOM     53  N   UNL A   1      32.414  34.171  27.635  1.00  0.00    -0.352 N 
ATOM     54  C   UNL A   1      32.975  34.969  28.604  1.00  0.00     0.251 C 
ATOM     55  H   UNL A   1      31.661  34.569  27.141  1.00  0.00     0.163 HD
ATOM     56  O   UNL A   1      32.472  36.053  28.885  1.00  0.00    -0.269 OA
BRANCH  54  57
ATOM     57  C   UNL A   1      34.174  34.506  29.336  1.00  0.00     0.039 A 
ATOM     58  C   UNL A   1      34.010  33.891  30.581  1.00  0.00    -0.049 A 
ATOM     59  C   UNL A   1      35.451  34.668  28.795  1.00  0.00    -0.049 A 
ATOM     60  C   UNL A   1      35.121  33.369  31.250  1.00  0.00    -0.053 A 
ATOM     61  H   UNL A   1      33.072  33.821  31.005  1.00  0.00     0.063 H 
ATOM     62  C   UNL A   1      36.548  34.093  29.431  1.00  0.00    -0.053 A 
ATOM     63  H   UNL A   1      35.582  35.211  27.926  1.00  0.00     0.063 H 
ATOM     64  C   UNL A   1      36.394  33.434  30.662  1.00  0.00    -0.014 A 
ATOM     65  H   UNL A   1      35.005  32.935  32.179  1.00  0.00     0.063 H 
ATOM     66  H   UNL A   1      37.482  34.152  28.996  1.00  0.00     0.063 H 
BRANCH  64  67
ATOM     67  C   UNL A   1      37.590  32.833  31.304  1.00  0.00     0.031 A 
ATOM     68  C   UNL A   1      38.282  31.674  30.646  1.00  0.00     0.074 A 
ATOM     69  C   UNL A   1      37.987  33.258  32.518  1.00  0.00     0.049 A 
ATOM     70  N   UNL A   1      39.218  30.889  31.114  1.00  0.00    -0.248 NA
ATOM     71  C   UNL A   1      37.839  31.336  29.284  1.00  0.00    -0.034 C 
ATOM     72  C   UNL A   1      37.389  34.363  33.267  1.00  0.00    -0.036 A 
ATOM     73  N   UNL A   1      38.974  32.788  33.351  1.00  0.00    -0.354 N 
ATOM     74  C   UNL A   1      39.451  29.947  30.122  1.00  0.00     0.074 A 
ATOM     75  C   UNL A   1      38.539  30.239  29.037  1.00  0.00    -0.034 C 
ATOM     76  H   UNL A   1      37.161  31.826  28.679  1.00  0.00     0.065 H 
ATOM     77  C   UNL A   1      38.017  34.485  34.447  1.00  0.00    -0.036 A 
ATOM     78  H   UNL A   1      36.609  34.954  32.940  1.00  0.00     0.065 H 
ATOM     79  C   UNL A   1      39.028  33.437  34.560  1.00  0.00     0.049 A 
ATOM     80  H   UNL A   1      39.583  32.055  33.104  1.00  0.00     0.167 HD
ATOM     81  C   UNL A   1      40.353  28.937  30.115  1.00  0.00     0.037 A 
ATOM     82  H   UNL A   1      38.447  29.668  28.182  1.00  0.00     0.065 H 
ATOM     83  H   UNL A   1      37.817  35.204  35.160  1.00  0.00     0.065 H 
ATOM     84  C   UNL A   1      39.788  33.197  35.646  1.00  0.00     0.037 A 
ATOM     85  C   UNL A   1      41.278  28.671  31.184  1.00  0.00     0.049 A 
ATOM     86  C   UNL A   1      40.773  32.058  35.617  1.00  0.00     0.074 A 
ATOM     87  C   UNL A   1      42.270  27.707  31.247  1.00  0.00    -0.036 A 
ATOM     88  N   UNL A   1      41.325  29.374  32.378  1.00  0.00    -0.354 N 
ATOM     89  N   UNL A   1      41.026  31.206  34.654  1.00  0.00    -0.248 NA
ATOM     90  C   UNL A   1      41.583  31.848  36.827  1.00  0.00    -0.034 C 
ATOM     91  C   UNL A   1      42.894  27.804  32.494  1.00  0.00    -0.036 A 
ATOM     92  H   UNL A   1      42.507  27.033  30.501  1.00  0.00     0.065 H 
ATOM     93  C   UNL A   1      42.323  28.858  33.190  1.00  0.00     0.049 A 
ATOM     94  H   UNL A   1      40.738  30.128  32.614  1.00  0.00     0.167 HD
ATOM     95  C   UNL A   1      42.044  30.387  35.123  1.00  0.00     0.074 A 
ATOM     96  C   UNL A   1      42.368  30.844  36.457  1.00  0.00    -0.034 C 
ATOM     97  H   UNL A   1      41.550  32.349  37.727  1.00  0.00     0.065 H 
ATOM     98  H   UNL A   1      43.653  27.195  32.838  1.00  0.00     0.065 H 
ATOM     99  C   UNL A   1      42.656  29.351  34.501  1.00  0.00     0.037 A 
ATOM    100  H   UNL A   1      43.113  30.442  37.046  1.00  0.00     0.065 H 
BRANCH  81 101
ATOM    101  C   UNL A   1      40.380  28.040  28.912  1.00  0.00     0.064 A 
ATOM    102  C   UNL A   1      41.140  28.356  27.776  1.00  0.00     0.173 A 
ATOM    103  C   UNL A   1      39.666  26.832  28.911  1.00  0.00     0.173 A 
ATOM    104  F   UNL A   1      41.832  29.505  27.725  1.00  0.00    -0.203 F 
ATOM    105  C   UNL A   1      41.161  27.510  26.671  1.00  0.00     0.198 A 
ATOM    106  C   UNL A   1      39.712  25.974  27.815  1.00  0.00     0.198 A 
ATOM    107  F   UNL A   1      38.929  26.479  29.974  1.00  0.00    -0.203 F 
ATOM    108  F   UNL A   1      41.857  27.855  25.580  1.00  0.00    -0.200 F 
ATOM    109  C   UNL A   1      40.454  26.317  26.693  1.00  0.00     0.200 A 
ATOM    110  F   UNL A   1      39.039  24.816  27.842  1.00  0.00    -0.200 F 
ATOM    111  F   UNL A   1      40.481  25.501  25.632  1.00  0.00    -0.200 F 
ENDBRANCH  81 101
BRANCH  84 112
ATOM    112  C   UNL A   1      39.660  34.063  36.849  1.00  0.00     0.064 A 
ATOM    113  C   UNL A   1      40.351  35.280  36.932  1.00  0.00     0.173 A 
ATOM    114  C   UNL A   1      38.849  33.699  37.934  1.00  0.00     0.173 A 
ATOM    115  F   UNL A   1      41.147  35.668  35.925  1.00  0.00    -0.203 F 
ATOM    116  C   UNL A   1      40.256  36.086  38.064  1.00  0.00     0.198 A 
ATOM    117  C   UNL A   1      38.738  34.516  39.056  1.00  0.00     0.198 A 
ATOM    118  F   UNL A   1      38.140  32.563  37.891  1.00  0.00    -0.203 F 
ATOM    119  F   UNL A   1      40.957  37.225  38.132  1.00  0.00    -0.200 F 
ATOM    120  C   UNL A   1      39.448  35.706  39.125  1.00  0.00     0.200 A 
ATOM    121  F   UNL A   1      37.939  34.156  40.070  1.00  0.00    -0.200 F 
ATOM    122  F   UNL A   1      39.355  36.484  40.211  1.00  0.00    -0.200 F 
ENDBRANCH  84 112
BRANCH  99 123
ATOM    123  C   UNL A   1      43.786  28.676  35.220  1.00  0.00     0.064 A 
ATOM    124  C   UNL A   1      45.116  29.090  35.058  1.00  0.00     0.173 A 
ATOM    125  C   UNL A   1      43.521  27.652  36.141  1.00  0.00     0.173 A 
ATOM    126  F   UNL A   1      45.420  30.056  34.178  1.00  0.00    -0.203 F 
ATOM    127  C   UNL A   1      46.141  28.495  35.788  1.00  0.00     0.198 A 
ATOM    128  C   UNL A   1      44.546  27.077  36.888  1.00  0.00     0.198 A 
ATOM    129  F   UNL A   1      42.264  27.226  36.337  1.00  0.00    -0.203 F 
ATOM    130  F   UNL A   1      47.409  28.886  35.598  1.00  0.00    -0.200 F 
ATOM    131  C   UNL A   1      45.855  27.497  36.708  1.00  0.00     0.200 A 
ATOM    132  F   UNL A   1      44.266  26.123  37.786  1.00  0.00    -0.200 F 
ATOM    133  F   UNL A   1      46.842  26.938  37.422  1.00  0.00    -0.200 F 
ENDBRANCH  99 123
ENDBRANCH  64  67
ENDBRANCH  54  57
ENDBRANCH  50  53
ENDBRANCH  47  50
ENDBRANCH  44  47
ENDBRANCH  41  44
ENDBRANCH   1  41
TORSDOF 18
ENDMDL
MODEL 5
REMARK VINA RESULT:     -12.3      1.280      2.590
REMARK SMILES NS(=O)(=O)c1ccc(/N=C/c2ccc(O)c(C(=O)NCCCCCCNC(=O)c3ccc(-c4c5nc(c(-c6c(F)c(F)c(F)c(F)c6F)c6ccc([nH]6)c(-c6c(F)c(F)c(F)c(F)c6F)c6nc(c(-c7c(F)c(F)c(F)c(F)c7F)c7ccc4[nH]7)C=C6)C=C5)cc3)c2)cc1
REMARK SMILES IDX 21 1 20 4 19 7 17 8 18 9 16 11 11 12 12 13 92 14 13 15 14 18
REMARK SMILES IDX 10 20 9 21 8 23 5 24 6 25 94 26 7 27 93 29 2 33 3 34 4 35
REMARK SMILES IDX 1 36 15 39 22 41 23 44 24 47 25 50 26 53 27 54 28 56 29 57
REMARK SMILES IDX 30 58 91 59 31 60 90 62 32 64 33 67 34 68 84 69 35 70 89 71
REMARK SMILES IDX 83 72 85 73 36 74 88 75 82 77 81 79 37 81 69 84 49 85 68 86
REMARK SMILES IDX 50 87 53 88 67 89 86 90 51 91 52 93 66 95 87 96 54 99 38 101
REMARK SMILES IDX 39 102 47 103 40 104 41 105 45 106 48 107 42 108 43 109
REMARK SMILES IDX 46 110 44 111 70 112 71 113 79 114 72 115 73 116 77 117
REMARK SMILES IDX 80 118 74 119 75 120 78 121 76 122 55 123 56 124 64 125
REMARK SMILES IDX 57 126 58 127 62 128 65 129 59 130 60 131 63 132 61 133
REMARK H PARENT 21 2 21 3 20 5 20 6 19 10 12 16 92 17 13 19 10 22 6 28 94 30
REMARK H PARENT 7 31 93 32 1 37 1 38 15 40 22 42 22 43 23 45 23 46 24 48 24 49
REMARK H PARENT 25 51 25 52 26 55 30 61 91 63 31 65 90 66 89 76 83 78 85 80
REMARK H PARENT 88 82 82 83 50 92 53 94 86 97 51 98 87 100
REMARK Flexibility Score: inf
ROOT
ATOM      1  C   UNL A   1      35.570  24.606  25.718  1.00  0.00    -0.036 C 
ATOM      2  H   UNL A   1      36.143  24.371  24.845  1.00  0.00     0.028 H 
ATOM      3  H   UNL A   1      36.046  25.278  26.402  1.00  0.00     0.028 H 
ENDROOT
BRANCH   1   4
ATOM      4  C   UNL A   1      35.376  23.313  26.503  1.00  0.00     0.018 C 
ATOM      5  H   UNL A   1      35.576  23.516  27.535  1.00  0.00     0.049 H 
ATOM      6  H   UNL A   1      34.369  22.998  26.326  1.00  0.00     0.049 H 
BRANCH   4   7
ATOM      7  N   UNL A   1      36.233  22.217  26.081  1.00  0.00    -0.352 N 
ATOM      8  C   UNL A   1      35.968  21.139  25.265  1.00  0.00     0.255 C 
ATOM      9  O   UNL A   1      36.836  20.279  25.105  1.00  0.00    -0.269 OA
ATOM     10  H   UNL A   1      37.151  22.251  26.434  1.00  0.00     0.163 HD
BRANCH   8  11
ATOM     11  C   UNL A   1      34.645  20.921  24.627  1.00  0.00     0.082 A 
ATOM     12  C   UNL A   1      32.571  21.784  23.718  1.00  0.00    -0.006 A 
ATOM     13  C   UNL A   1      32.015  20.506  23.707  1.00  0.00    -0.050 A 
ATOM     14  C   UNL A   1      33.904  21.975  24.096  1.00  0.00    -0.037 A 
ATOM     15  C   UNL A   1      32.796  19.422  24.113  1.00  0.00    -0.019 A 
ATOM     16  H   UNL A   1      31.039  20.363  23.402  1.00  0.00     0.063 H 
ATOM     17  H   UNL A   1      34.342  22.902  23.979  1.00  0.00     0.064 H 
ATOM     18  C   UNL A   1      34.095  19.631  24.582  1.00  0.00     0.128 A 
ATOM     19  H   UNL A   1      32.413  18.464  24.068  1.00  0.00     0.066 H 
BRANCH  12  20
ATOM     20  C   UNL A   1      31.725  22.975  23.488  1.00  0.00     0.035 C 
ATOM     21  N   UNL A   1      32.264  24.051  23.011  1.00  0.00    -0.256 NA
ATOM     22  H   UNL A   1      30.716  22.948  23.706  1.00  0.00     0.085 H 
BRANCH  21  23
ATOM     23  C   UNL A   1      31.520  25.230  22.894  1.00  0.00     0.063 A 
ATOM     24  C   UNL A   1      30.265  27.731  22.769  1.00  0.00     0.082 A 
ATOM     25  C   UNL A   1      31.401  27.489  21.995  1.00  0.00    -0.040 A 
ATOM     26  C   UNL A   1      29.747  26.736  23.601  1.00  0.00    -0.040 A 
ATOM     27  C   UNL A   1      32.026  26.241  22.069  1.00  0.00    -0.035 A 
ATOM     28  H   UNL A   1      31.777  28.223  21.375  1.00  0.00     0.064 H 
ATOM     29  C   UNL A   1      30.382  25.492  23.667  1.00  0.00    -0.035 A 
ATOM     30  H   UNL A   1      28.901  26.918  24.165  1.00  0.00     0.064 H 
ATOM     31  H   UNL A   1      32.873  26.063  21.507  1.00  0.00     0.065 H 
ATOM     32  H   UNL A   1      30.008  24.759  24.291  1.00  0.00     0.065 H 
BRANCH  24  33
ATOM     33  S   UNL A   1      29.495  29.319  22.686  1.00  0.00     0.238 S 
ATOM     34  O   UNL A   1      29.876  30.087  23.852  1.00  0.00    -0.207 OA
ATOM     35  O   UNL A   1      28.127  29.139  22.272  1.00  0.00    -0.207 OA
BRANCH  33  36
ATOM     36  N   UNL A   1      30.279  30.077  21.405  1.00  0.00    -0.225 NA
ATOM     37  H   UNL A   1      30.358  29.427  20.622  1.00  0.00     0.137 HD
ATOM     38  H   UNL A   1      31.210  30.369  21.701  1.00  0.00     0.137 HD
ENDBRANCH  33  36
ENDBRANCH  24  33
ENDBRANCH  21  23
ENDBRANCH  12  20
BRANCH  18  39
ATOM     39  O   UNL A   1      34.776  18.518  25.001  1.00  0.00    -0.507 OA
ATOM     40  H   UNL A   1      35.709  18.540  25.073  1.00  0.00     0.293 HD
ENDBRANCH  18  39
ENDBRANCH   8  11
ENDBRANCH   4   7
ENDBRANCH   1   4
BRANCH   1  41
ATOM     41  C   UNL A   1      34.307  25.335  25.260  1.00  0.00    -0.052 C 
ATOM     42  H   UNL A   1      33.509  24.622  25.248  1.00  0.00     0.027 H 
ATOM     43  H   UNL A   1      34.555  25.748  24.305  1.00  0.00     0.027 H 
BRANCH  41  44
ATOM     44  C   UNL A   1      33.849  26.526  26.105  1.00  0.00    -0.052 C 
ATOM     45  H   UNL A   1      34.724  27.023  26.466  1.00  0.00     0.027 H 
ATOM     46  H   UNL A   1      33.225  26.107  26.866  1.00  0.00     0.027 H 
BRANCH  44  47
ATOM     47  C   UNL A   1      32.979  27.571  25.404  1.00  0.00    -0.036 C 
ATOM     48  H   UNL A   1      32.126  27.754  26.024  1.00  0.00     0.028 H 
ATOM     49  H   UNL A   1      32.745  27.154  24.447  1.00  0.00     0.028 H 
BRANCH  47  50
ATOM     50  C   UNL A   1      33.641  28.913  25.116  1.00  0.00     0.018 C 
ATOM     51  H   UNL A   1      33.672  29.057  24.057  1.00  0.00     0.049 H 
ATOM     52  H   UNL A   1      34.620  28.882  25.549  1.00  0.00     0.049 H 
BRANCH  50  53
ATOM     53  N   UNL A   1      32.942  30.038  25.714  1.00  0.00    -0.352 N 
ATOM     54  C   UNL A   1      33.304  30.809  26.794  1.00  0.00     0.251 C 
ATOM     55  H   UNL A   1      32.090  30.283  25.286  1.00  0.00     0.163 HD
ATOM     56  O   UNL A   1      32.538  31.660  27.236  1.00  0.00    -0.269 OA
BRANCH  54  57
ATOM     57  C   UNL A   1      34.613  30.590  27.448  1.00  0.00     0.039 A 
ATOM     58  C   UNL A   1      35.470  31.679  27.630  1.00  0.00    -0.049 A 
ATOM     59  C   UNL A   1      34.990  29.319  27.889  1.00  0.00    -0.049 A 
ATOM     60  C   UNL A   1      36.673  31.510  28.321  1.00  0.00    -0.053 A 
ATOM     61  H   UNL A   1      35.215  32.606  27.254  1.00  0.00     0.063 H 
ATOM     62  C   UNL A   1      36.157  29.165  28.632  1.00  0.00    -0.053 A 
ATOM     63  H   UNL A   1      34.405  28.498  27.666  1.00  0.00     0.063 H 
ATOM     64  C   UNL A   1      37.007  30.259  28.860  1.00  0.00    -0.014 A 
ATOM     65  H   UNL A   1      37.316  32.309  28.436  1.00  0.00     0.063 H 
ATOM     66  H   UNL A   1      36.399  28.239  29.018  1.00  0.00     0.063 H 
BRANCH  64  67
ATOM     67  C   UNL A   1      38.240  30.049  29.661  1.00  0.00     0.031 A 
ATOM     68  C   UNL A   1      39.312  29.131  29.148  1.00  0.00     0.074 A 
ATOM     69  C   UNL A   1      38.347  30.596  30.886  1.00  0.00     0.049 A 
ATOM     70  N   UNL A   1      40.371  28.666  29.758  1.00  0.00    -0.248 NA
ATOM     71  C   UNL A   1      39.154  28.651  27.765  1.00  0.00    -0.034 C 
ATOM     72  C   UNL A   1      37.368  31.491  31.503  1.00  0.00    -0.036 A 
ATOM     73  N   UNL A   1      39.319  30.454  31.846  1.00  0.00    -0.354 N 
ATOM     74  C   UNL A   1      40.986  27.814  28.850  1.00  0.00     0.074 A 
ATOM     75  C   UNL A   1      40.167  27.804  27.657  1.00  0.00    -0.034 C 
ATOM     76  H   UNL A   1      38.442  28.908  27.064  1.00  0.00     0.065 H 
ATOM     77  C   UNL A   1      37.786  31.816  32.736  1.00  0.00    -0.036 A 
ATOM     78  H   UNL A   1      36.496  31.820  31.060  1.00  0.00     0.065 H 
ATOM     79  C   UNL A   1      39.036  31.114  33.017  1.00  0.00     0.049 A 
ATOM     80  H   UNL A   1      40.139  29.927  31.709  1.00  0.00     0.167 HD
ATOM     81  C   UNL A   1      42.135  27.114  28.997  1.00  0.00     0.037 A 
ATOM     82  H   UNL A   1      40.348  27.214  26.830  1.00  0.00     0.065 H 
ATOM     83  H   UNL A   1      37.302  32.459  33.383  1.00  0.00     0.065 H 
ATOM     84  C   UNL A   1      39.696  31.130  34.191  1.00  0.00     0.037 A 
ATOM     85  C   UNL A   1      42.962  27.153  30.174  1.00  0.00     0.049 A 
ATOM     86  C   UNL A   1      40.964  30.331  34.334  1.00  0.00     0.074 A 
ATOM     87  C   UNL A   1      44.174  26.525  30.398  1.00  0.00    -0.036 A 
ATOM     88  N   UNL A   1      42.658  27.863  31.326  1.00  0.00    -0.354 N 
ATOM     89  N   UNL A   1      41.568  29.571  33.452  1.00  0.00    -0.248 NA
ATOM     90  C   UNL A   1      41.648  30.392  35.634  1.00  0.00    -0.034 C 
ATOM     91  C   UNL A   1      44.588  26.827  31.699  1.00  0.00    -0.036 A 
ATOM     92  H   UNL A   1      44.685  25.936  29.722  1.00  0.00     0.065 H 
ATOM     93  C   UNL A   1      43.656  27.680  32.270  1.00  0.00     0.049 A 
ATOM     94  H   UNL A   1      41.854  28.416  31.454  1.00  0.00     0.167 HD
ATOM     95  C   UNL A   1      42.715  29.098  34.074  1.00  0.00     0.074 A 
ATOM     96  C   UNL A   1      42.728  29.657  35.408  1.00  0.00    -0.034 C 
ATOM     97  H   UNL A   1      41.362  30.880  36.497  1.00  0.00     0.065 H 
ATOM     98  H   UNL A   1      45.444  26.475  32.157  1.00  0.00     0.065 H 
ATOM     99  C   UNL A   1      43.672  28.275  33.581  1.00  0.00     0.037 A 
ATOM    100  H   UNL A   1      43.481  29.503  36.097  1.00  0.00     0.065 H 
BRANCH  81 101
ATOM    101  C   UNL A   1      42.566  26.241  27.856  1.00  0.00     0.064 A 
ATOM    102  C   UNL A   1      42.033  24.957  27.670  1.00  0.00     0.173 A 
ATOM    103  C   UNL A   1      43.496  26.709  26.914  1.00  0.00     0.173 A 
ATOM    104  F   UNL A   1      41.148  24.460  28.549  1.00  0.00    -0.203 F 
ATOM    105  C   UNL A   1      42.436  24.161  26.601  1.00  0.00     0.198 A 
ATOM    106  C   UNL A   1      43.875  25.922  25.830  1.00  0.00     0.198 A 
ATOM    107  F   UNL A   1      44.030  27.932  27.040  1.00  0.00    -0.203 F 
ATOM    108  F   UNL A   1      41.948  22.921  26.471  1.00  0.00    -0.200 F 
ATOM    109  C   UNL A   1      43.351  24.646  25.678  1.00  0.00     0.200 A 
ATOM    110  F   UNL A   1      44.749  26.397  24.932  1.00  0.00    -0.200 F 
ATOM    111  F   UNL A   1      43.733  23.882  24.647  1.00  0.00    -0.200 F 
ENDBRANCH  81 101
BRANCH  84 112
ATOM    112  C   UNL A   1      39.177  31.944  35.323  1.00  0.00     0.064 A 
ATOM    113  C   UNL A   1      39.455  33.316  35.406  1.00  0.00     0.173 A 
ATOM    114  C   UNL A   1      38.397  31.376  36.341  1.00  0.00     0.173 A 
ATOM    115  F   UNL A   1      40.206  33.904  34.462  1.00  0.00    -0.203 F 
ATOM    116  C   UNL A   1      38.995  34.081  36.474  1.00  0.00     0.198 A 
ATOM    117  C   UNL A   1      37.919  32.147  37.398  1.00  0.00     0.198 A 
ATOM    118  F   UNL A   1      38.073  30.077  36.293  1.00  0.00    -0.203 F 
ATOM    119  F   UNL A   1      39.308  35.382  36.547  1.00  0.00    -0.200 F 
ATOM    120  C   UNL A   1      38.225  33.498  37.469  1.00  0.00     0.200 A 
ATOM    121  F   UNL A   1      37.157  31.584  38.346  1.00  0.00    -0.200 F 
ATOM    122  F   UNL A   1      37.780  34.236  38.494  1.00  0.00    -0.200 F 
ENDBRANCH  84 112
BRANCH  99 123
ATOM    123  C   UNL A   1      44.853  27.978  34.455  1.00  0.00     0.064 A 
ATOM    124  C   UNL A   1      45.979  28.811  34.483  1.00  0.00     0.173 A 
ATOM    125  C   UNL A   1      44.820  26.883  35.332  1.00  0.00     0.173 A 
ATOM    126  F   UNL A   1      46.063  29.862  33.654  1.00  0.00    -0.203 F 
ATOM    127  C   UNL A   1      47.035  28.553  35.353  1.00  0.00     0.198 A 
ATOM    128  C   UNL A   1      45.866  26.643  36.218  1.00  0.00     0.198 A 
ATOM    129  F   UNL A   1      43.760  26.059  35.348  1.00  0.00    -0.203 F 
ATOM    130  F   UNL A   1      48.115  29.347  35.346  1.00  0.00    -0.200 F 
ATOM    131  C   UNL A   1      46.974  27.477  36.227  1.00  0.00     0.200 A 
ATOM    132  F   UNL A   1      45.799  25.611  37.071  1.00  0.00    -0.200 F 
ATOM    133  F   UNL A   1      47.984  27.241  37.075  1.00  0.00    -0.200 F 
ENDBRANCH  99 123
ENDBRANCH  64  67
ENDBRANCH  54  57
ENDBRANCH  50  53
ENDBRANCH  47  50
ENDBRANCH  44  47
ENDBRANCH  41  44
ENDBRANCH   1  41
TORSDOF 18
ENDMDL
MODEL 6
REMARK VINA RESULT:     -12.2      4.529      9.495
REMARK SMILES NS(=O)(=O)c1ccc(/N=C/c2ccc(O)c(C(=O)NCCCCCCNC(=O)c3ccc(-c4c5nc(c(-c6c(F)c(F)c(F)c(F)c6F)c6ccc([nH]6)c(-c6c(F)c(F)c(F)c(F)c6F)c6nc(c(-c7c(F)c(F)c(F)c(F)c7F)c7ccc4[nH]7)C=C6)C=C5)cc3)c2)cc1
REMARK SMILES IDX 21 1 20 4 19 7 17 8 18 9 16 11 11 12 12 13 92 14 13 15 14 18
REMARK SMILES IDX 10 20 9 21 8 23 5 24 6 25 94 26 7 27 93 29 2 33 3 34 4 35
REMARK SMILES IDX 1 36 15 39 22 41 23 44 24 47 25 50 26 53 27 54 28 56 29 57
REMARK SMILES IDX 30 58 91 59 31 60 90 62 32 64 33 67 34 68 84 69 35 70 89 71
REMARK SMILES IDX 83 72 85 73 36 74 88 75 82 77 81 79 37 81 69 84 49 85 68 86
REMARK SMILES IDX 50 87 53 88 67 89 86 90 51 91 52 93 66 95 87 96 54 99 38 101
REMARK SMILES IDX 39 102 47 103 40 104 41 105 45 106 48 107 42 108 43 109
REMARK SMILES IDX 46 110 44 111 70 112 71 113 79 114 72 115 73 116 77 117
REMARK SMILES IDX 80 118 74 119 75 120 78 121 76 122 55 123 56 124 64 125
REMARK SMILES IDX 57 126 58 127 62 128 65 129 59 130 60 131 63 132 61 133
REMARK H PARENT 21 2 21 3 20 5 20 6 19 10 12 16 92 17 13 19 10 22 6 28 94 30
REMARK H PARENT 7 31 93 32 1 37 1 38 15 40 22 42 22 43 23 45 23 46 24 48 24 49
REMARK H PARENT 25 51 25 52 26 55 30 61 91 63 31 65 90 66 89 76 83 78 85 80
REMARK H PARENT 88 82 82 83 50 92 53 94 86 97 51 98 87 100
REMARK Flexibility Score: inf
ROOT
ATOM      1  C   UNL A   1      37.343  22.937  25.354  1.00  0.00    -0.036 C 
ATOM      2  H   UNL A   1      37.862  22.513  26.189  1.00  0.00     0.028 H 
ATOM      3  H   UNL A   1      37.890  23.684  24.817  1.00  0.00     0.028 H 
ENDROOT
BRANCH   1   4
ATOM      4  C   UNL A   1      36.113  23.657  25.894  1.00  0.00     0.018 C 
ATOM      5  H   UNL A   1      36.434  24.566  26.359  1.00  0.00     0.049 H 
ATOM      6  H   UNL A   1      35.465  23.820  25.058  1.00  0.00     0.049 H 
BRANCH   4   7
ATOM      7  N   UNL A   1      35.347  22.895  26.868  1.00  0.00    -0.352 N 
ATOM      8  C   UNL A   1      34.201  22.147  26.716  1.00  0.00     0.255 C 
ATOM      9  O   UNL A   1      33.675  21.644  27.710  1.00  0.00    -0.269 OA
ATOM     10  H   UNL A   1      35.707  22.917  27.784  1.00  0.00     0.163 HD
BRANCH   8  11
ATOM     11  C   UNL A   1      33.517  21.984  25.407  1.00  0.00     0.082 A 
ATOM     12  C   UNL A   1      32.152  22.871  23.612  1.00  0.00    -0.006 A 
ATOM     13  C   UNL A   1      31.965  21.593  23.089  1.00  0.00    -0.050 A 
ATOM     14  C   UNL A   1      32.992  23.071  24.713  1.00  0.00    -0.037 A 
ATOM     15  C   UNL A   1      32.598  20.509  23.701  1.00  0.00    -0.019 A 
ATOM     16  H   UNL A   1      31.367  21.449  22.260  1.00  0.00     0.063 H 
ATOM     17  H   UNL A   1      33.224  24.032  25.013  1.00  0.00     0.064 H 
ATOM     18  C   UNL A   1      33.356  20.702  24.859  1.00  0.00     0.128 A 
ATOM     19  H   UNL A   1      32.505  19.563  23.299  1.00  0.00     0.066 H 
BRANCH  12  20
ATOM     20  C   UNL A   1      31.349  24.011  23.121  1.00  0.00     0.035 C 
ATOM     21  N   UNL A   1      31.395  25.138  23.756  1.00  0.00    -0.256 NA
ATOM     22  H   UNL A   1      30.758  23.908  22.280  1.00  0.00     0.085 H 
BRANCH  21  23
ATOM     23  C   UNL A   1      30.559  26.198  23.390  1.00  0.00     0.063 A 
ATOM     24  C   UNL A   1      29.061  28.494  22.816  1.00  0.00     0.082 A 
ATOM     25  C   UNL A   1      30.382  28.403  22.375  1.00  0.00    -0.040 A 
ATOM     26  C   UNL A   1      28.479  27.449  23.538  1.00  0.00    -0.040 A 
ATOM     27  C   UNL A   1      31.125  27.258  22.672  1.00  0.00    -0.035 A 
ATOM     28  H   UNL A   1      30.806  29.173  21.835  1.00  0.00     0.064 H 
ATOM     29  C   UNL A   1      29.233  26.309  23.829  1.00  0.00    -0.035 A 
ATOM     30  H   UNL A   1      27.499  27.518  23.854  1.00  0.00     0.064 H 
ATOM     31  H   UNL A   1      32.105  27.192  22.357  1.00  0.00     0.065 H 
ATOM     32  H   UNL A   1      28.809  25.540  24.373  1.00  0.00     0.065 H 
BRANCH  24  33
ATOM     33  S   UNL A   1      28.136  29.956  22.455  1.00  0.00     0.238 S 
ATOM     34  O   UNL A   1      26.993  30.019  23.340  1.00  0.00    -0.207 OA
ATOM     35  O   UNL A   1      28.035  30.088  21.025  1.00  0.00    -0.207 OA
BRANCH  33  36
ATOM     36  N   UNL A   1      29.140  31.202  22.972  1.00  0.00    -0.225 NA
ATOM     37  H   UNL A   1      30.104  30.868  23.013  1.00  0.00     0.137 HD
ATOM     38  H   UNL A   1      28.849  31.512  23.899  1.00  0.00     0.137 HD
ENDBRANCH  33  36
ENDBRANCH  24  33
ENDBRANCH  21  23
ENDBRANCH  12  20
BRANCH  18  39
ATOM     39  O   UNL A   1      33.907  19.579  25.419  1.00  0.00    -0.507 OA
ATOM     40  H   UNL A   1      34.739  19.269  25.124  1.00  0.00     0.293 HD
ENDBRANCH  18  39
ENDBRANCH   8  11
ENDBRANCH   4   7
ENDBRANCH   1   4
BRANCH   1  41
ATOM     41  C   UNL A   1      37.103  21.817  24.343  1.00  0.00    -0.052 C 
ATOM     42  H   UNL A   1      37.902  21.847  23.631  1.00  0.00     0.027 H 
ATOM     43  H   UNL A   1      36.132  22.010  23.937  1.00  0.00     0.027 H 
BRANCH  41  44
ATOM     44  C   UNL A   1      37.030  20.390  24.893  1.00  0.00    -0.052 C 
ATOM     45  H   UNL A   1      36.282  19.866  24.336  1.00  0.00     0.027 H 
ATOM     46  H   UNL A   1      36.816  20.501  25.935  1.00  0.00     0.027 H 
BRANCH  44  47
ATOM     47  C   UNL A   1      38.316  19.564  24.834  1.00  0.00    -0.036 C 
ATOM     48  H   UNL A   1      38.834  19.831  23.936  1.00  0.00     0.028 H 
ATOM     49  H   UNL A   1      38.002  18.542  24.873  1.00  0.00     0.028 H 
BRANCH  47  50
ATOM     50  C   UNL A   1      39.282  19.742  25.999  1.00  0.00     0.018 C 
ATOM     51  H   UNL A   1      38.775  19.481  26.904  1.00  0.00     0.049 H 
ATOM     52  H   UNL A   1      39.600  20.763  25.994  1.00  0.00     0.049 H 
BRANCH  50  53
ATOM     53  N   UNL A   1      40.475  18.919  25.887  1.00  0.00    -0.352 N 
ATOM     54  C   UNL A   1      41.795  19.287  26.003  1.00  0.00     0.251 C 
ATOM     55  H   UNL A   1      40.317  17.966  25.701  1.00  0.00     0.163 HD
ATOM     56  O   UNL A   1      42.690  18.479  25.771  1.00  0.00    -0.269 OA
BRANCH  54  57
ATOM     57  C   UNL A   1      42.141  20.676  26.380  1.00  0.00     0.039 A 
ATOM     58  C   UNL A   1      42.326  20.984  27.731  1.00  0.00    -0.049 A 
ATOM     59  C   UNL A   1      42.293  21.666  25.406  1.00  0.00    -0.049 A 
ATOM     60  C   UNL A   1      42.736  22.268  28.101  1.00  0.00    -0.053 A 
ATOM     61  H   UNL A   1      42.159  20.266  28.453  1.00  0.00     0.063 H 
ATOM     62  C   UNL A   1      42.763  22.925  25.770  1.00  0.00    -0.053 A 
ATOM     63  H   UNL A   1      42.059  21.464  24.421  1.00  0.00     0.063 H 
ATOM     64  C   UNL A   1      42.993  23.237  27.120  1.00  0.00    -0.014 A 
ATOM     65  H   UNL A   1      42.851  22.504  29.100  1.00  0.00     0.063 H 
ATOM     66  H   UNL A   1      42.942  23.634  25.042  1.00  0.00     0.063 H 
BRANCH  64  67
ATOM     67  C   UNL A   1      43.497  24.592  27.462  1.00  0.00     0.031 A 
ATOM     68  C   UNL A   1      42.551  25.620  28.011  1.00  0.00     0.074 A 
ATOM     69  C   UNL A   1      44.771  24.925  27.181  1.00  0.00     0.049 A 
ATOM     70  N   UNL A   1      42.733  26.901  28.202  1.00  0.00    -0.248 NA
ATOM     71  C   UNL A   1      41.206  25.143  28.370  1.00  0.00    -0.034 C 
ATOM     72  C   UNL A   1      45.783  24.022  26.632  1.00  0.00    -0.036 A 
ATOM     73  N   UNL A   1      45.425  26.128  27.294  1.00  0.00    -0.354 N 
ATOM     74  C   UNL A   1      41.521  27.389  28.669  1.00  0.00     0.074 A 
ATOM     75  C   UNL A   1      40.600  26.273  28.705  1.00  0.00    -0.034 C 
ATOM     76  H   UNL A   1      40.832  24.181  28.363  1.00  0.00     0.065 H 
ATOM     77  C   UNL A   1      46.927  24.702  26.453  1.00  0.00    -0.036 A 
ATOM     78  H   UNL A   1      45.639  23.023  26.417  1.00  0.00     0.065 H 
ATOM     79  C   UNL A   1      46.717  26.098  26.827  1.00  0.00     0.049 A 
ATOM     80  H   UNL A   1      45.007  26.936  27.672  1.00  0.00     0.167 HD
ATOM     81  C   UNL A   1      41.209  28.652  29.042  1.00  0.00     0.037 A 
ATOM     82  H   UNL A   1      39.603  26.347  28.961  1.00  0.00     0.065 H 
ATOM     83  H   UNL A   1      47.813  24.301  26.106  1.00  0.00     0.065 H 
ATOM     84  C   UNL A   1      47.619  27.088  26.692  1.00  0.00     0.037 A 
ATOM     85  C   UNL A   1      42.137  29.751  29.033  1.00  0.00     0.049 A 
ATOM     86  C   UNL A   1      47.242  28.488  27.101  1.00  0.00     0.074 A 
ATOM     87  C   UNL A   1      41.934  31.056  29.447  1.00  0.00    -0.036 A 
ATOM     88  N   UNL A   1      43.448  29.671  28.586  1.00  0.00    -0.354 N 
ATOM     89  N   UNL A   1      46.110  28.931  27.593  1.00  0.00    -0.248 NA
ATOM     90  C   UNL A   1      48.269  29.528  26.940  1.00  0.00    -0.034 C 
ATOM     91  C   UNL A   1      43.111  31.774  29.219  1.00  0.00    -0.036 A 
ATOM     92  H   UNL A   1      41.064  31.433  29.855  1.00  0.00     0.065 H 
ATOM     93  C   UNL A   1      44.062  30.907  28.705  1.00  0.00     0.049 A 
ATOM     94  H   UNL A   1      43.877  28.857  28.238  1.00  0.00     0.167 HD
ATOM     95  C   UNL A   1      46.300  30.284  27.835  1.00  0.00     0.074 A 
ATOM     96  C   UNL A   1      47.657  30.594  27.439  1.00  0.00    -0.034 C 
ATOM     97  H   UNL A   1      49.218  29.450  26.543  1.00  0.00     0.065 H 
ATOM     98  H   UNL A   1      43.249  32.781  29.403  1.00  0.00     0.065 H 
ATOM     99  C   UNL A   1      45.427  31.188  28.341  1.00  0.00     0.037 A 
ATOM    100  H   UNL A   1      48.093  31.524  27.533  1.00  0.00     0.065 H 
BRANCH  81 101
ATOM    101  C   UNL A   1      39.801  28.915  29.490  1.00  0.00     0.064 A 
ATOM    102  C   UNL A   1      38.804  29.311  28.586  1.00  0.00     0.173 A 
ATOM    103  C   UNL A   1      39.437  28.733  30.833  1.00  0.00     0.173 A 
ATOM    104  F   UNL A   1      39.104  29.509  27.294  1.00  0.00    -0.203 F 
ATOM    105  C   UNL A   1      37.500  29.543  29.015  1.00  0.00     0.198 A 
ATOM    106  C   UNL A   1      38.125  28.939  31.253  1.00  0.00     0.198 A 
ATOM    107  F   UNL A   1      40.350  28.349  31.737  1.00  0.00    -0.203 F 
ATOM    108  F   UNL A   1      36.575  29.965  28.143  1.00  0.00    -0.200 F 
ATOM    109  C   UNL A   1      37.160  29.350  30.346  1.00  0.00     0.200 A 
ATOM    110  F   UNL A   1      37.795  28.739  32.537  1.00  0.00    -0.200 F 
ATOM    111  F   UNL A   1      35.903  29.568  30.756  1.00  0.00    -0.200 F 
ENDBRANCH  81 101
BRANCH  84 112
ATOM    112  C   UNL A   1      48.975  26.790  26.158  1.00  0.00     0.064 A 
ATOM    113  C   UNL A   1      49.271  26.988  24.802  1.00  0.00     0.173 A 
ATOM    114  C   UNL A   1      50.000  26.305  26.983  1.00  0.00     0.173 A 
ATOM    115  F   UNL A   1      48.322  27.441  23.970  1.00  0.00    -0.203 F 
ATOM    116  C   UNL A   1      50.530  26.689  24.288  1.00  0.00     0.198 A 
ATOM    117  C   UNL A   1      51.265  26.026  26.473  1.00  0.00     0.198 A 
ATOM    118  F   UNL A   1      49.781  26.131  28.294  1.00  0.00    -0.203 F 
ATOM    119  F   UNL A   1      50.774  26.852  22.981  1.00  0.00    -0.200 F 
ATOM    120  C   UNL A   1      51.528  26.210  25.124  1.00  0.00     0.200 A 
ATOM    121  F   UNL A   1      52.234  25.585  27.288  1.00  0.00    -0.200 F 
ATOM    122  F   UNL A   1      52.740  25.926  24.629  1.00  0.00    -0.200 F 
ENDBRANCH  84 112
BRANCH  99 123
ATOM    123  C   UNL A   1      45.923  32.585  28.565  1.00  0.00     0.064 A 
ATOM    124  C   UNL A   1      45.724  33.600  27.619  1.00  0.00     0.173 A 
ATOM    125  C   UNL A   1      46.537  32.927  29.780  1.00  0.00     0.173 A 
ATOM    126  F   UNL A   1      45.155  33.319  26.437  1.00  0.00    -0.203 F 
ATOM    127  C   UNL A   1      46.132  34.906  27.877  1.00  0.00     0.198 A 
ATOM    128  C   UNL A   1      46.920  34.239  30.045  1.00  0.00     0.198 A 
ATOM    129  F   UNL A   1      46.743  31.993  30.721  1.00  0.00    -0.203 F 
ATOM    130  F   UNL A   1      45.958  35.855  26.948  1.00  0.00    -0.200 F 
ATOM    131  C   UNL A   1      46.720  35.226  29.093  1.00  0.00     0.200 A 
ATOM    132  F   UNL A   1      47.475  34.549  31.225  1.00  0.00    -0.200 F 
ATOM    133  F   UNL A   1      47.096  36.488  29.346  1.00  0.00    -0.200 F 
ENDBRANCH  99 123
ENDBRANCH  64  67
ENDBRANCH  54  57
ENDBRANCH  50  53
ENDBRANCH  47  50
ENDBRANCH  44  47
ENDBRANCH  41  44
ENDBRANCH   1  41
TORSDOF 18
ENDMDL
MODEL 7
REMARK VINA RESULT:     -12.2      4.535      9.443
REMARK SMILES NS(=O)(=O)c1ccc(/N=C/c2ccc(O)c(C(=O)NCCCCCCNC(=O)c3ccc(-c4c5nc(c(-c6c(F)c(F)c(F)c(F)c6F)c6ccc([nH]6)c(-c6c(F)c(F)c(F)c(F)c6F)c6nc(c(-c7c(F)c(F)c(F)c(F)c7F)c7ccc4[nH]7)C=C6)C=C5)cc3)c2)cc1
REMARK SMILES IDX 21 1 20 4 19 7 17 8 18 9 16 11 11 12 12 13 92 14 13 15 14 18
REMARK SMILES IDX 10 20 9 21 8 23 5 24 6 25 94 26 7 27 93 29 2 33 3 34 4 35
REMARK SMILES IDX 1 36 15 39 22 41 23 44 24 47 25 50 26 53 27 54 28 56 29 57
REMARK SMILES IDX 30 58 91 59 31 60 90 62 32 64 33 67 34 68 84 69 35 70 89 71
REMARK SMILES IDX 83 72 85 73 36 74 88 75 82 77 81 79 37 81 69 84 49 85 68 86
REMARK SMILES IDX 50 87 53 88 67 89 86 90 51 91 52 93 66 95 87 96 54 99 38 101
REMARK SMILES IDX 39 102 47 103 40 104 41 105 45 106 48 107 42 108 43 109
REMARK SMILES IDX 46 110 44 111 70 112 71 113 79 114 72 115 73 116 77 117
REMARK SMILES IDX 80 118 74 119 75 120 78 121 76 122 55 123 56 124 64 125
REMARK SMILES IDX 57 126 58 127 62 128 65 129 59 130 60 131 63 132 61 133
REMARK H PARENT 21 2 21 3 20 5 20 6 19 10 12 16 92 17 13 19 10 22 6 28 94 30
REMARK H PARENT 7 31 93 32 1 37 1 38 15 40 22 42 22 43 23 45 23 46 24 48 24 49
REMARK H PARENT 25 51 25 52 26 55 30 61 91 63 31 65 90 66 89 76 83 78 85 80
REMARK H PARENT 88 82 82 83 50 92 53 94 86 97 51 98 87 100
REMARK Flexibility Score: inf
ROOT
ATOM      1  C   UNL A   1      37.404  22.894  25.500  1.00  0.00    -0.036 C 
ATOM      2  H   UNL A   1      37.874  22.458  26.357  1.00  0.00     0.028 H 
ATOM      3  H   UNL A   1      37.969  23.669  25.023  1.00  0.00     0.028 H 
ENDROOT
BRANCH   1   4
ATOM      4  C   UNL A   1      36.122  23.571  25.972  1.00  0.00     0.018 C 
ATOM      5  H   UNL A   1      36.386  24.500  26.434  1.00  0.00     0.049 H 
ATOM      6  H   UNL A   1      35.506  23.693  25.106  1.00  0.00     0.049 H 
BRANCH   4   7
ATOM      7  N   UNL A   1      35.346  22.794  26.926  1.00  0.00    -0.352 N 
ATOM      8  C   UNL A   1      34.203  22.047  26.749  1.00  0.00     0.255 C 
ATOM      9  O   UNL A   1      33.665  21.529  27.730  1.00  0.00    -0.269 OA
ATOM     10  H   UNL A   1      35.695  22.803  27.846  1.00  0.00     0.163 HD
BRANCH   8  11
ATOM     11  C   UNL A   1      33.534  21.902  25.431  1.00  0.00     0.082 A 
ATOM     12  C   UNL A   1      32.202  22.819  23.626  1.00  0.00    -0.006 A 
ATOM     13  C   UNL A   1      32.009  21.547  23.088  1.00  0.00    -0.050 A 
ATOM     14  C   UNL A   1      33.028  23.001  24.740  1.00  0.00    -0.037 A 
ATOM     15  C   UNL A   1      32.625  20.452  23.698  1.00  0.00    -0.019 A 
ATOM     16  H   UNL A   1      31.421  21.417  22.250  1.00  0.00     0.063 H 
ATOM     17  H   UNL A   1      33.265  23.957  25.051  1.00  0.00     0.064 H 
ATOM     18  C   UNL A   1      33.369  20.628  24.868  1.00  0.00     0.128 A 
ATOM     19  H   UNL A   1      32.529  19.511  23.286  1.00  0.00     0.066 H 
BRANCH  12  20
ATOM     20  C   UNL A   1      31.415  23.971  23.135  1.00  0.00     0.035 C 
ATOM     21  N   UNL A   1      31.463  25.091  23.781  1.00  0.00    -0.256 NA
ATOM     22  H   UNL A   1      30.835  23.882  22.285  1.00  0.00     0.085 H 
BRANCH  21  23
ATOM     23  C   UNL A   1      30.641  26.163  23.414  1.00  0.00     0.063 A 
ATOM     24  C   UNL A   1      29.172  28.477  22.842  1.00  0.00     0.082 A 
ATOM     25  C   UNL A   1      30.497  28.377  22.415  1.00  0.00    -0.040 A 
ATOM     26  C   UNL A   1      28.572  27.432  23.548  1.00  0.00    -0.040 A 
ATOM     27  C   UNL A   1      31.225  27.222  22.711  1.00  0.00    -0.035 A 
ATOM     28  H   UNL A   1      30.935  29.147  21.886  1.00  0.00     0.064 H 
ATOM     29  C   UNL A   1      29.312  26.282  23.839  1.00  0.00    -0.035 A 
ATOM     30  H   UNL A   1      27.589  27.509  23.854  1.00  0.00     0.064 H 
ATOM     31  H   UNL A   1      32.209  27.149  22.407  1.00  0.00     0.065 H 
ATOM     32  H   UNL A   1      28.874  25.514  24.372  1.00  0.00     0.065 H 
BRANCH  24  33
ATOM     33  S   UNL A   1      28.266  29.951  22.482  1.00  0.00     0.238 S 
ATOM     34  O   UNL A   1      27.155  30.056  23.404  1.00  0.00    -0.207 OA
ATOM     35  O   UNL A   1      28.119  30.056  21.054  1.00  0.00    -0.207 OA
BRANCH  33  36
ATOM     36  N   UNL A   1      29.312  31.186  22.939  1.00  0.00    -0.225 NA
ATOM     37  H   UNL A   1      29.123  32.017  22.379  1.00  0.00     0.137 HD
ATOM     38  H   UNL A   1      30.276  30.887  22.790  1.00  0.00     0.137 HD
ENDBRANCH  33  36
ENDBRANCH  24  33
ENDBRANCH  21  23
ENDBRANCH  12  20
BRANCH  18  39
ATOM     39  O   UNL A   1      33.902  19.495  25.424  1.00  0.00    -0.507 OA
ATOM     40  H   UNL A   1      33.687  18.654  25.072  1.00  0.00     0.293 HD
ENDBRANCH  18  39
ENDBRANCH   8  11
ENDBRANCH   4   7
ENDBRANCH   1   4
BRANCH   1  41
ATOM     41  C   UNL A   1      37.261  21.799  24.444  1.00  0.00    -0.052 C 
ATOM     42  H   UNL A   1      38.150  21.808  23.847  1.00  0.00     0.027 H 
ATOM     43  H   UNL A   1      36.362  22.036  23.915  1.00  0.00     0.027 H 
BRANCH  41  44
ATOM     44  C   UNL A   1      37.061  20.369  24.951  1.00  0.00    -0.052 C 
ATOM     45  H   UNL A   1      36.300  19.916  24.351  1.00  0.00     0.027 H 
ATOM     46  H   UNL A   1      36.813  20.470  25.987  1.00  0.00     0.027 H 
BRANCH  44  47
ATOM     47  C   UNL A   1      38.285  19.451  24.919  1.00  0.00    -0.036 C 
ATOM     48  H   UNL A   1      38.772  19.589  23.976  1.00  0.00     0.028 H 
ATOM     49  H   UNL A   1      37.906  18.463  25.079  1.00  0.00     0.028 H 
BRANCH  47  50
ATOM     50  C   UNL A   1      39.320  19.675  26.015  1.00  0.00     0.018 C 
ATOM     51  H   UNL A   1      38.878  19.427  26.957  1.00  0.00     0.049 H 
ATOM     52  H   UNL A   1      39.616  20.703  25.966  1.00  0.00     0.049 H 
BRANCH  50  53
ATOM     53  N   UNL A   1      40.521  18.874  25.843  1.00  0.00    -0.352 N 
ATOM     54  C   UNL A   1      41.838  19.258  25.932  1.00  0.00     0.251 C 
ATOM     55  H   UNL A   1      40.370  17.924  25.634  1.00  0.00     0.163 HD
ATOM     56  O   UNL A   1      42.736  18.470  25.650  1.00  0.00    -0.269 OA
BRANCH  54  57
ATOM     57  C   UNL A   1      42.177  20.639  26.339  1.00  0.00     0.039 A 
ATOM     58  C   UNL A   1      42.339  20.924  27.698  1.00  0.00    -0.049 A 
ATOM     59  C   UNL A   1      42.343  21.647  25.386  1.00  0.00    -0.049 A 
ATOM     60  C   UNL A   1      42.741  22.201  28.098  1.00  0.00    -0.053 A 
ATOM     61  H   UNL A   1      42.161  20.193  28.405  1.00  0.00     0.063 H 
ATOM     62  C   UNL A   1      42.805  22.900  25.780  1.00  0.00    -0.053 A 
ATOM     63  H   UNL A   1      42.125  21.463  24.393  1.00  0.00     0.063 H 
ATOM     64  C   UNL A   1      43.013  23.188  27.139  1.00  0.00    -0.014 A 
ATOM     65  H   UNL A   1      42.839  22.419  29.102  1.00  0.00     0.063 H 
ATOM     66  H   UNL A   1      42.995  23.622  25.068  1.00  0.00     0.063 H 
BRANCH  64  67
ATOM     67  C   UNL A   1      43.510  24.537  27.513  1.00  0.00     0.031 A 
ATOM     68  C   UNL A   1      42.548  25.562  28.041  1.00  0.00     0.074 A 
ATOM     69  C   UNL A   1      44.794  24.869  27.280  1.00  0.00     0.049 A 
ATOM     70  N   UNL A   1      42.729  26.840  28.252  1.00  0.00    -0.248 NA
ATOM     71  C   UNL A   1      41.190  25.087  28.348  1.00  0.00    -0.034 C 
ATOM     72  C   UNL A   1      45.821  23.968  26.756  1.00  0.00    -0.036 A 
ATOM     73  N   UNL A   1      45.447  26.068  27.429  1.00  0.00    -0.354 N 
ATOM     74  C   UNL A   1      41.502  27.328  28.682  1.00  0.00     0.074 A 
ATOM     75  C   UNL A   1      40.577  26.215  28.674  1.00  0.00    -0.034 C 
ATOM     76  H   UNL A   1      40.813  24.126  28.317  1.00  0.00     0.065 H 
ATOM     77  C   UNL A   1      46.972  24.645  26.625  1.00  0.00    -0.036 A 
ATOM     78  H   UNL A   1      45.681  22.972  26.526  1.00  0.00     0.065 H 
ATOM     79  C   UNL A   1      46.754  26.037  27.006  1.00  0.00     0.049 A 
ATOM     80  H   UNL A   1      45.019  26.872  27.801  1.00  0.00     0.167 HD
ATOM     81  C   UNL A   1      41.182  28.589  29.059  1.00  0.00     0.037 A 
ATOM     82  H   UNL A   1      39.572  26.290  28.896  1.00  0.00     0.065 H 
ATOM     83  H   UNL A   1      47.869  24.244  26.305  1.00  0.00     0.065 H 
ATOM     84  C   UNL A   1      47.665  27.026  26.914  1.00  0.00     0.037 A 
ATOM     85  C   UNL A   1      42.114  29.684  29.094  1.00  0.00     0.049 A 
ATOM     86  C   UNL A   1      47.278  28.422  27.325  1.00  0.00     0.074 A 
ATOM     87  C   UNL A   1      41.902  30.985  29.516  1.00  0.00    -0.036 A 
ATOM     88  N   UNL A   1      43.439  29.603  28.692  1.00  0.00    -0.354 N 
ATOM     89  N   UNL A   1      46.132  28.864  27.783  1.00  0.00    -0.248 NA
ATOM     90  C   UNL A   1      48.314  29.460  27.212  1.00  0.00    -0.034 C 
ATOM     91  C   UNL A   1      43.088  31.701  29.336  1.00  0.00    -0.036 A 
ATOM     92  H   UNL A   1      41.019  31.361  29.897  1.00  0.00     0.065 H 
ATOM     93  C   UNL A   1      44.054  30.836  28.846  1.00  0.00     0.049 A 
ATOM     94  H   UNL A   1      43.878  28.792  28.349  1.00  0.00     0.167 HD
ATOM     95  C   UNL A   1      46.318  30.214  28.046  1.00  0.00     0.074 A 
ATOM     96  C   UNL A   1      47.689  30.523  27.702  1.00  0.00    -0.034 C 
ATOM     97  H   UNL A   1      49.276  29.382  26.847  1.00  0.00     0.065 H 
ATOM     98  H   UNL A   1      43.224  32.705  29.536  1.00  0.00     0.065 H 
ATOM     99  C   UNL A   1      45.432  31.116  28.533  1.00  0.00     0.037 A 
ATOM    100  H   UNL A   1      48.125  31.450  27.821  1.00  0.00     0.065 H 
BRANCH  81 101
ATOM    101  C   UNL A   1      39.761  28.852  29.461  1.00  0.00     0.064 A 
ATOM    102  C   UNL A   1      39.325  28.674  30.782  1.00  0.00     0.173 A 
ATOM    103  C   UNL A   1      38.833  29.325  28.520  1.00  0.00     0.173 A 
ATOM    104  F   UNL A   1      40.172  28.214  31.716  1.00  0.00    -0.203 F 
ATOM    105  C   UNL A   1      38.005  28.930  31.142  1.00  0.00     0.198 A 
ATOM    106  C   UNL A   1      37.520  29.608  28.890  1.00  0.00     0.198 A 
ATOM    107  F   UNL A   1      39.199  29.520  27.246  1.00  0.00    -0.203 F 
ATOM    108  F   UNL A   1      37.600  28.708  32.399  1.00  0.00    -0.200 F 
ATOM    109  C   UNL A   1      37.106  29.404  30.198  1.00  0.00     0.200 A 
ATOM    110  F   UNL A   1      36.656  30.078  27.980  1.00  0.00    -0.200 F 
ATOM    111  F   UNL A   1      35.837  29.657  30.547  1.00  0.00    -0.200 F 
ENDBRANCH  81 101
BRANCH  84 112
ATOM    112  C   UNL A   1      49.037  26.728  26.424  1.00  0.00     0.064 A 
ATOM    113  C   UNL A   1      49.383  26.946  25.083  1.00  0.00     0.173 A 
ATOM    114  C   UNL A   1      50.029  26.223  27.278  1.00  0.00     0.173 A 
ATOM    115  F   UNL A   1      48.466  27.418  24.225  1.00  0.00    -0.203 F 
ATOM    116  C   UNL A   1      50.657  26.648  24.610  1.00  0.00     0.198 A 
ATOM    117  C   UNL A   1      51.310  25.945  26.809  1.00  0.00     0.198 A 
ATOM    118  F   UNL A   1      49.762  26.029  28.576  1.00  0.00    -0.203 F 
ATOM    119  F   UNL A   1      50.949  26.831  23.315  1.00  0.00    -0.200 F 
ATOM    120  C   UNL A   1      51.622  26.150  25.473  1.00  0.00     0.200 A 
ATOM    121  F   UNL A   1      52.247  25.485  27.650  1.00  0.00    -0.200 F 
ATOM    122  F   UNL A   1      52.850  25.867  25.017  1.00  0.00    -0.200 F 
ENDBRANCH  84 112
BRANCH  99 123
ATOM    123  C   UNL A   1      45.924  32.508  28.789  1.00  0.00     0.064 A 
ATOM    124  C   UNL A   1      46.533  32.864  30.001  1.00  0.00     0.173 A 
ATOM    125  C   UNL A   1      45.852  33.477  27.777  1.00  0.00     0.173 A 
ATOM    126  F   UNL A   1      46.612  31.977  31.003  1.00  0.00    -0.203 F 
ATOM    127  C   UNL A   1      47.045  34.145  30.192  1.00  0.00     0.198 A 
ATOM    128  C   UNL A   1      46.388  34.748  27.963  1.00  0.00     0.198 A 
ATOM    129  F   UNL A   1      45.285  33.183  26.597  1.00  0.00    -0.203 F 
ATOM    130  F   UNL A   1      47.599  34.473  31.367  1.00  0.00    -0.200 F 
ATOM    131  C   UNL A   1      46.981  35.082  29.171  1.00  0.00     0.200 A 
ATOM    132  F   UNL A   1      46.338  35.648  26.970  1.00  0.00    -0.200 F 
ATOM    133  F   UNL A   1      47.490  36.308  29.351  1.00  0.00    -0.200 F 
ENDBRANCH  99 123
ENDBRANCH  64  67
ENDBRANCH  54  57
ENDBRANCH  50  53
ENDBRANCH  47  50
ENDBRANCH  44  47
ENDBRANCH  41  44
ENDBRANCH   1  41
TORSDOF 18
ENDMDL
MODEL 8
REMARK VINA RESULT:     -12.1      5.134      8.584
REMARK SMILES NS(=O)(=O)c1ccc(/N=C/c2ccc(O)c(C(=O)NCCCCCCNC(=O)c3ccc(-c4c5nc(c(-c6c(F)c(F)c(F)c(F)c6F)c6ccc([nH]6)c(-c6c(F)c(F)c(F)c(F)c6F)c6nc(c(-c7c(F)c(F)c(F)c(F)c7F)c7ccc4[nH]7)C=C6)C=C5)cc3)c2)cc1
REMARK SMILES IDX 21 1 20 4 19 7 17 8 18 9 16 11 11 12 12 13 92 14 13 15 14 18
REMARK SMILES IDX 10 20 9 21 8 23 5 24 6 25 94 26 7 27 93 29 2 33 3 34 4 35
REMARK SMILES IDX 1 36 15 39 22 41 23 44 24 47 25 50 26 53 27 54 28 56 29 57
REMARK SMILES IDX 30 58 91 59 31 60 90 62 32 64 33 67 34 68 84 69 35 70 89 71
REMARK SMILES IDX 83 72 85 73 36 74 88 75 82 77 81 79 37 81 69 84 49 85 68 86
REMARK SMILES IDX 50 87 53 88 67 89 86 90 51 91 52 93 66 95 87 96 54 99 38 101
REMARK SMILES IDX 39 102 47 103 40 104 41 105 45 106 48 107 42 108 43 109
REMARK SMILES IDX 46 110 44 111 70 112 71 113 79 114 72 115 73 116 77 117
REMARK SMILES IDX 80 118 74 119 75 120 78 121 76 122 55 123 56 124 64 125
REMARK SMILES IDX 57 126 58 127 62 128 65 129 59 130 60 131 63 132 61 133
REMARK H PARENT 21 2 21 3 20 5 20 6 19 10 12 16 92 17 13 19 10 22 6 28 94 30
REMARK H PARENT 7 31 93 32 1 37 1 38 15 40 22 42 22 43 23 45 23 46 24 48 24 49
REMARK H PARENT 25 51 25 52 26 55 30 61 91 63 31 65 90 66 89 76 83 78 85 80
REMARK H PARENT 88 82 82 83 50 92 53 94 86 97 51 98 87 100
REMARK Flexibility Score: inf
ROOT
ATOM      1  C   UNL A   1      39.346  23.312  26.752  1.00  0.00    -0.036 C 
ATOM      2  H   UNL A   1      39.256  23.355  27.818  1.00  0.00     0.028 H 
ATOM      3  H   UNL A   1      40.178  23.852  26.348  1.00  0.00     0.028 H 
ENDROOT
BRANCH   1   4
ATOM      4  C   UNL A   1      38.112  23.981  26.158  1.00  0.00     0.018 C 
ATOM      5  H   UNL A   1      37.269  23.729  26.767  1.00  0.00     0.049 H 
ATOM      6  H   UNL A   1      38.315  25.031  26.139  1.00  0.00     0.049 H 
BRANCH   4   7
ATOM      7  N   UNL A   1      37.815  23.592  24.789  1.00  0.00    -0.352 N 
ATOM      8  C   UNL A   1      36.609  23.349  24.170  1.00  0.00     0.255 C 
ATOM      9  O   UNL A   1      36.600  22.949  23.005  1.00  0.00    -0.269 OA
ATOM     10  H   UNL A   1      38.604  23.484  24.210  1.00  0.00     0.163 HD
BRANCH   8  11
ATOM     11  C   UNL A   1      35.307  23.472  24.875  1.00  0.00     0.082 A 
ATOM     12  C   UNL A   1      33.228  24.648  25.282  1.00  0.00    -0.006 A 
ATOM     13  C   UNL A   1      32.988  23.882  26.421  1.00  0.00    -0.050 A 
ATOM     14  C   UNL A   1      34.336  24.385  24.470  1.00  0.00    -0.037 A 
ATOM     15  C   UNL A   1      33.889  22.870  26.762  1.00  0.00    -0.019 A 
ATOM     16  H   UNL A   1      32.154  24.058  27.005  1.00  0.00     0.063 H 
ATOM     17  H   UNL A   1      34.435  24.871  23.565  1.00  0.00     0.064 H 
ATOM     18  C   UNL A   1      35.046  22.677  26.002  1.00  0.00     0.128 A 
ATOM     19  H   UNL A   1      33.701  22.265  27.577  1.00  0.00     0.066 H 
BRANCH  12  20
ATOM     20  C   UNL A   1      32.413  25.849  24.997  1.00  0.00     0.035 C 
ATOM     21  N   UNL A   1      31.561  25.818  24.023  1.00  0.00    -0.256 NA
ATOM     22  H   UNL A   1      32.523  26.701  25.569  1.00  0.00     0.085 H 
BRANCH  21  23
ATOM     23  C   UNL A   1      30.861  26.971  23.650  1.00  0.00     0.063 A 
ATOM     24  C   UNL A   1      29.320  29.112  22.708  1.00  0.00     0.082 A 
ATOM     25  C   UNL A   1      28.694  28.030  23.331  1.00  0.00    -0.040 A 
ATOM     26  C   UNL A   1      30.709  29.137  22.556  1.00  0.00    -0.040 A 
ATOM     27  C   UNL A   1      29.469  26.963  23.790  1.00  0.00    -0.035 A 
ATOM     28  H   UNL A   1      27.669  28.019  23.449  1.00  0.00     0.064 H 
ATOM     29  C   UNL A   1      31.473  28.062  23.020  1.00  0.00    -0.035 A 
ATOM     30  H   UNL A   1      31.167  29.943  22.102  1.00  0.00     0.064 H 
ATOM     31  H   UNL A   1      29.008  26.157  24.240  1.00  0.00     0.065 H 
ATOM     32  H   UNL A   1      32.498  28.072  22.897  1.00  0.00     0.065 H 
BRANCH  24  33
ATOM     33  S   UNL A   1      28.330  30.447  22.109  1.00  0.00     0.238 S 
ATOM     34  O   UNL A   1      27.352  30.795  23.118  1.00  0.00    -0.207 OA
ATOM     35  O   UNL A   1      27.987  30.177  20.737  1.00  0.00    -0.207 OA
BRANCH  33  36
ATOM     36  N   UNL A   1      29.391  31.751  22.080  1.00  0.00    -0.225 NA
ATOM     37  H   UNL A   1      28.960  32.530  21.581  1.00  0.00     0.137 HD
ATOM     38  H   UNL A   1      30.253  31.479  21.607  1.00  0.00     0.137 HD
ENDBRANCH  33  36
ENDBRANCH  24  33
ENDBRANCH  21  23
ENDBRANCH  12  20
BRANCH  18  39
ATOM     39  O   UNL A   1      35.897  21.693  26.431  1.00  0.00    -0.507 OA
ATOM     40  H   UNL A   1      36.516  21.873  27.110  1.00  0.00     0.293 HD
ENDBRANCH  18  39
ENDBRANCH   8  11
ENDBRANCH   4   7
ENDBRANCH   1   4
BRANCH   1  41
ATOM     41  C   UNL A   1      39.596  21.854  26.369  1.00  0.00    -0.052 C 
ATOM     42  H   UNL A   1      39.275  21.727  25.355  1.00  0.00     0.027 H 
ATOM     43  H   UNL A   1      39.052  21.278  27.088  1.00  0.00     0.027 H 
BRANCH  41  44
ATOM     44  C   UNL A   1      41.038  21.350  26.462  1.00  0.00    -0.052 C 
ATOM     45  H   UNL A   1      41.341  21.423  27.485  1.00  0.00     0.027 H 
ATOM     46  H   UNL A   1      41.595  21.963  25.785  1.00  0.00     0.027 H 
BRANCH  44  47
ATOM     47  C   UNL A   1      41.295  19.913  26.005  1.00  0.00    -0.036 C 
ATOM     48  H   UNL A   1      41.295  19.906  24.934  1.00  0.00     0.028 H 
ATOM     49  H   UNL A   1      40.516  19.328  26.447  1.00  0.00     0.028 H 
BRANCH  47  50
ATOM     50  C   UNL A   1      42.600  19.282  26.474  1.00  0.00     0.018 C 
ATOM     51  H   UNL A   1      42.368  18.463  27.122  1.00  0.00     0.049 H 
ATOM     52  H   UNL A   1      43.160  20.045  26.973  1.00  0.00     0.049 H 
BRANCH  50  53
ATOM     53  N   UNL A   1      43.424  18.787  25.384  1.00  0.00    -0.352 N 
ATOM     54  C   UNL A   1      44.320  19.471  24.596  1.00  0.00     0.251 C 
ATOM     55  H   UNL A   1      43.327  17.829  25.180  1.00  0.00     0.163 HD
ATOM     56  O   UNL A   1      44.857  18.918  23.640  1.00  0.00    -0.269 OA
BRANCH  54  57
ATOM     57  C   UNL A   1      44.616  20.892  24.881  1.00  0.00     0.039 A 
ATOM     58  C   UNL A   1      44.202  21.866  23.968  1.00  0.00    -0.049 A 
ATOM     59  C   UNL A   1      45.289  21.264  26.047  1.00  0.00    -0.049 A 
ATOM     60  C   UNL A   1      44.395  23.219  24.259  1.00  0.00    -0.053 A 
ATOM     61  H   UNL A   1      43.754  21.586  23.081  1.00  0.00     0.063 H 
ATOM     62  C   UNL A   1      45.424  22.612  26.366  1.00  0.00    -0.053 A 
ATOM     63  H   UNL A   1      45.684  20.542  26.671  1.00  0.00     0.063 H 
ATOM     64  C   UNL A   1      44.975  23.603  25.477  1.00  0.00    -0.014 A 
ATOM     65  H   UNL A   1      44.110  23.938  23.575  1.00  0.00     0.063 H 
ATOM     66  H   UNL A   1      45.859  22.886  27.261  1.00  0.00     0.063 H 
BRANCH  64  67
ATOM     67  C   UNL A   1      45.137  25.029  25.859  1.00  0.00     0.031 A 
ATOM     68  C   UNL A   1      46.493  25.669  25.784  1.00  0.00     0.074 A 
ATOM     69  C   UNL A   1      44.094  25.711  26.369  1.00  0.00     0.049 A 
ATOM     70  N   UNL A   1      46.892  26.830  26.237  1.00  0.00    -0.248 NA
ATOM     71  C   UNL A   1      47.551  24.882  25.132  1.00  0.00    -0.034 C 
ATOM     72  C   UNL A   1      42.732  25.196  26.509  1.00  0.00    -0.036 A 
ATOM     73  N   UNL A   1      44.026  26.979  26.893  1.00  0.00    -0.354 N 
ATOM     74  C   UNL A   1      48.250  26.898  25.957  1.00  0.00     0.074 A 
ATOM     75  C   UNL A   1      48.614  25.650  25.320  1.00  0.00    -0.034 C 
ATOM     76  H   UNL A   1      47.484  23.970  24.652  1.00  0.00     0.065 H 
ATOM     77  C   UNL A   1      41.964  26.137  27.082  1.00  0.00    -0.036 A 
ATOM     78  H   UNL A   1      42.413  24.261  26.213  1.00  0.00     0.065 H 
ATOM     79  C   UNL A   1      42.789  27.300  27.397  1.00  0.00     0.049 A 
ATOM     80  H   UNL A   1      44.792  27.598  26.908  1.00  0.00     0.167 HD
ATOM     81  C   UNL A   1      49.110  27.914  26.200  1.00  0.00     0.037 A 
ATOM     82  H   UNL A   1      49.576  25.392  25.048  1.00  0.00     0.065 H 
ATOM     83  H   UNL A   1      40.953  26.051  27.271  1.00  0.00     0.065 H 
ATOM     84  C   UNL A   1      42.374  28.398  28.058  1.00  0.00     0.037 A 
ATOM     85  C   UNL A   1      48.735  29.165  26.805  1.00  0.00     0.049 A 
ATOM     86  C   UNL A   1      43.355  29.508  28.329  1.00  0.00     0.074 A 
ATOM     87  C   UNL A   1      49.521  30.279  27.041  1.00  0.00    -0.036 A 
ATOM     88  N   UNL A   1      47.463  29.464  27.268  1.00  0.00    -0.354 N 
ATOM     89  N   UNL A   1      44.625  29.587  28.012  1.00  0.00    -0.248 NA
ATOM     90  C   UNL A   1      42.846  30.686  29.048  1.00  0.00    -0.034 C 
ATOM     91  C   UNL A   1      48.733  31.241  27.679  1.00  0.00    -0.036 A 
ATOM     92  H   UNL A   1      50.517  30.382  26.789  1.00  0.00     0.065 H 
ATOM     93  C   UNL A   1      47.445  30.744  27.799  1.00  0.00     0.049 A 
ATOM     94  H   UNL A   1      46.688  28.859  27.225  1.00  0.00     0.167 HD
ATOM     95  C   UNL A   1      45.054  30.830  28.455  1.00  0.00     0.074 A 
ATOM     96  C   UNL A   1      43.910  31.477  29.062  1.00  0.00    -0.034 C 
ATOM     97  H   UNL A   1      41.906  30.854  29.438  1.00  0.00     0.065 H 
ATOM     98  H   UNL A   1      49.056  32.166  28.004  1.00  0.00     0.065 H 
ATOM     99  C   UNL A   1      46.286  31.386  28.365  1.00  0.00     0.037 A 
ATOM    100  H   UNL A   1      43.921  32.431  29.455  1.00  0.00     0.065 H 
BRANCH  81 101
ATOM    101  C   UNL A   1      50.546  27.714  25.814  1.00  0.00     0.064 A 
ATOM    102  C   UNL A   1      51.514  27.330  26.754  1.00  0.00     0.173 A 
ATOM    103  C   UNL A   1      50.952  27.873  24.480  1.00  0.00     0.173 A 
ATOM    104  F   UNL A   1      51.178  27.176  28.044  1.00  0.00    -0.203 F 
ATOM    105  C   UNL A   1      52.841  27.140  26.379  1.00  0.00     0.198 A 
ATOM    106  C   UNL A   1      52.275  27.654  24.103  1.00  0.00     0.198 A 
ATOM    107  F   UNL A   1      50.066  28.231  23.540  1.00  0.00    -0.203 F 
ATOM    108  F   UNL A   1      53.756  26.819  27.303  1.00  0.00    -0.200 F 
ATOM    109  C   UNL A   1      53.219  27.295  25.053  1.00  0.00     0.200 A 
ATOM    110  F   UNL A   1      52.636  27.791  22.820  1.00  0.00    -0.200 F 
ATOM    111  F   UNL A   1      54.495  27.106  24.693  1.00  0.00    -0.200 F 
ENDBRANCH  81 101
BRANCH  84 112
ATOM    112  C   UNL A   1      40.958  28.508  28.499  1.00  0.00     0.064 A 
ATOM    113  C   UNL A   1      39.974  29.004  27.631  1.00  0.00     0.173 A 
ATOM    114  C   UNL A   1      40.556  28.124  29.786  1.00  0.00     0.173 A 
ATOM    115  F   UNL A   1      40.310  29.395  26.393  1.00  0.00    -0.203 F 
ATOM    116  C   UNL A   1      38.650  29.134  28.042  1.00  0.00     0.198 A 
ATOM    117  C   UNL A   1      39.227  28.234  30.189  1.00  0.00     0.198 A 
ATOM    118  F   UNL A   1      41.448  27.611  30.643  1.00  0.00    -0.203 F 
ATOM    119  F   UNL A   1      37.739  29.646  27.205  1.00  0.00    -0.200 F 
ATOM    120  C   UNL A   1      38.276  28.747  29.320  1.00  0.00     0.200 A 
ATOM    121  F   UNL A   1      38.865  27.838  31.417  1.00  0.00    -0.200 F 
ATOM    122  F   UNL A   1      37.001  28.869  29.713  1.00  0.00    -0.200 F 
ENDBRANCH  84 112
BRANCH  99 123
ATOM    123  C   UNL A   1      46.457  32.788  28.870  1.00  0.00     0.064 A 
ATOM    124  C   UNL A   1      46.870  33.054  30.183  1.00  0.00     0.173 A 
ATOM    125  C   UNL A   1      46.277  33.875  28.001  1.00  0.00     0.173 A 
ATOM    126  F   UNL A   1      47.041  32.049  31.054  1.00  0.00    -0.203 F 
ATOM    127  C   UNL A   1      47.089  34.362  30.609  1.00  0.00     0.198 A 
ATOM    128  C   UNL A   1      46.522  35.178  28.424  1.00  0.00     0.198 A 
ATOM    129  F   UNL A   1      45.889  33.671  26.733  1.00  0.00    -0.203 F 
ATOM    130  F   UNL A   1      47.457  34.597  31.876  1.00  0.00    -0.200 F 
ATOM    131  C   UNL A   1      46.924  35.421  29.728  1.00  0.00     0.200 A 
ATOM    132  F   UNL A   1      46.376  36.199  27.567  1.00  0.00    -0.200 F 
ATOM    133  F   UNL A   1      47.152  36.676  30.137  1.00  0.00    -0.200 F 
ENDBRANCH  99 123
ENDBRANCH  64  67
ENDBRANCH  54  57
ENDBRANCH  50  53
ENDBRANCH  47  50
ENDBRANCH  44  47
ENDBRANCH  41  44
ENDBRANCH   1  41
TORSDOF 18
ENDMDL
MODEL 9
REMARK VINA RESULT:     -12.0      4.508      7.644
REMARK SMILES NS(=O)(=O)c1ccc(/N=C/c2ccc(O)c(C(=O)NCCCCCCNC(=O)c3ccc(-c4c5nc(c(-c6c(F)c(F)c(F)c(F)c6F)c6ccc([nH]6)c(-c6c(F)c(F)c(F)c(F)c6F)c6nc(c(-c7c(F)c(F)c(F)c(F)c7F)c7ccc4[nH]7)C=C6)C=C5)cc3)c2)cc1
REMARK SMILES IDX 21 1 20 4 19 7 17 8 18 9 16 11 11 12 12 13 92 14 13 15 14 18
REMARK SMILES IDX 10 20 9 21 8 23 5 24 6 25 94 26 7 27 93 29 2 33 3 34 4 35
REMARK SMILES IDX 1 36 15 39 22 41 23 44 24 47 25 50 26 53 27 54 28 56 29 57
REMARK SMILES IDX 30 58 91 59 31 60 90 62 32 64 33 67 34 68 84 69 35 70 89 71
REMARK SMILES IDX 83 72 85 73 36 74 88 75 82 77 81 79 37 81 69 84 49 85 68 86
REMARK SMILES IDX 50 87 53 88 67 89 86 90 51 91 52 93 66 95 87 96 54 99 38 101
REMARK SMILES IDX 39 102 47 103 40 104 41 105 45 106 48 107 42 108 43 109
REMARK SMILES IDX 46 110 44 111 70 112 71 113 79 114 72 115 73 116 77 117
REMARK SMILES IDX 80 118 74 119 75 120 78 121 76 122 55 123 56 124 64 125
REMARK SMILES IDX 57 126 58 127 62 128 65 129 59 130 60 131 63 132 61 133
REMARK H PARENT 21 2 21 3 20 5 20 6 19 10 12 16 92 17 13 19 10 22 6 28 94 30
REMARK H PARENT 7 31 93 32 1 37 1 38 15 40 22 42 22 43 23 45 23 46 24 48 24 49
REMARK H PARENT 25 51 25 52 26 55 30 61 91 63 31 65 90 66 89 76 83 78 85 80
REMARK H PARENT 88 82 82 83 50 92 53 94 86 97 51 98 87 100
REMARK Flexibility Score: inf
ROOT
ATOM      1  C   UNL A   1      37.379  22.887  25.383  1.00  0.00    -0.036 C 
ATOM      2  H   UNL A   1      37.906  22.524  26.242  1.00  0.00     0.028 H 
ATOM      3  H   UNL A   1      37.887  23.655  24.836  1.00  0.00     0.028 H 
ENDROOT
BRANCH   1   4
ATOM      4  C   UNL A   1      36.090  23.535  25.874  1.00  0.00     0.018 C 
ATOM      5  H   UNL A   1      36.338  24.474  26.324  1.00  0.00     0.049 H 
ATOM      6  H   UNL A   1      35.455  23.635  25.019  1.00  0.00     0.049 H 
BRANCH   4   7
ATOM      7  N   UNL A   1      35.351  22.746  26.847  1.00  0.00    -0.352 N 
ATOM      8  C   UNL A   1      34.191  22.016  26.711  1.00  0.00     0.255 C 
ATOM      9  O   UNL A   1      33.696  21.483  27.705  1.00  0.00    -0.269 OA
ATOM     10  H   UNL A   1      35.744  22.731  27.750  1.00  0.00     0.163 HD
BRANCH   8  11
ATOM     11  C   UNL A   1      33.458  21.908  25.423  1.00  0.00     0.082 A 
ATOM     12  C   UNL A   1      31.947  22.832  23.769  1.00  0.00    -0.006 A 
ATOM     13  C   UNL A   1      31.828  21.590  23.148  1.00  0.00    -0.050 A 
ATOM     14  C   UNL A   1      32.822  23.005  24.847  1.00  0.00    -0.037 A 
ATOM     15  C   UNL A   1      32.568  20.511  23.638  1.00  0.00    -0.019 A 
ATOM     16  H   UNL A   1      31.203  21.469  22.335  1.00  0.00     0.063 H 
ATOM     17  H   UNL A   1      32.998  23.953  25.217  1.00  0.00     0.064 H 
ATOM     18  C   UNL A   1      33.365  20.667  24.775  1.00  0.00     0.128 A 
ATOM     19  H   UNL A   1      32.525  19.597  23.161  1.00  0.00     0.066 H 
BRANCH  12  20
ATOM     20  C   UNL A   1      31.040  23.943  23.411  1.00  0.00     0.035 C 
ATOM     21  N   UNL A   1      31.506  25.149  23.361  1.00  0.00    -0.256 NA
ATOM     22  H   UNL A   1      30.046  23.757  23.202  1.00  0.00     0.085 H 
BRANCH  21  23
ATOM     23  C   UNL A   1      30.652  26.236  23.143  1.00  0.00     0.063 A 
ATOM     24  C   UNL A   1      29.124  28.568  22.876  1.00  0.00     0.082 A 
ATOM     25  C   UNL A   1      30.428  28.535  22.376  1.00  0.00    -0.040 A 
ATOM     26  C   UNL A   1      28.575  27.448  23.504  1.00  0.00    -0.040 A 
ATOM     27  C   UNL A   1      31.185  27.370  22.521  1.00  0.00    -0.035 A 
ATOM     28  H   UNL A   1      30.827  29.361  21.905  1.00  0.00     0.064 H 
ATOM     29  C   UNL A   1      29.344  26.289  23.643  1.00  0.00    -0.035 A 
ATOM     30  H   UNL A   1      27.608  27.476  23.864  1.00  0.00     0.064 H 
ATOM     31  H   UNL A   1      32.153  27.346  22.163  1.00  0.00     0.065 H 
ATOM     32  H   UNL A   1      28.945  25.463  24.118  1.00  0.00     0.065 H 
BRANCH  24  33
ATOM     33  S   UNL A   1      28.181  30.053  22.709  1.00  0.00     0.238 S 
ATOM     34  O   UNL A   1      29.052  31.189  22.923  1.00  0.00    -0.207 OA
ATOM     35  O   UNL A   1      26.931  29.876  23.402  1.00  0.00    -0.207 OA
BRANCH  33  36
ATOM     36  N   UNL A   1      27.808  30.108  21.071  1.00  0.00    -0.225 NA
ATOM     37  H   UNL A   1      27.670  31.078  20.785  1.00  0.00     0.137 HD
ATOM     38  H   UNL A   1      26.954  29.578  20.898  1.00  0.00     0.137 HD
ENDBRANCH  33  36
ENDBRANCH  24  33
ENDBRANCH  21  23
ENDBRANCH  12  20
BRANCH  18  39
ATOM     39  O   UNL A   1      34.023  19.548  25.214  1.00  0.00    -0.507 OA
ATOM     40  H   UNL A   1      33.670  19.045  25.920  1.00  0.00     0.293 HD
ENDBRANCH  18  39
ENDBRANCH   8  11
ENDBRANCH   4   7
ENDBRANCH   1   4
BRANCH   1  41
ATOM     41  C   UNL A   1      37.241  21.724  24.401  1.00  0.00    -0.052 C 
ATOM     42  H   UNL A   1      38.104  21.734  23.767  1.00  0.00     0.027 H 
ATOM     43  H   UNL A   1      36.312  21.893  23.898  1.00  0.00     0.027 H 
BRANCH  41  44
ATOM     44  C   UNL A   1      37.124  20.321  25.000  1.00  0.00    -0.052 C 
ATOM     45  H   UNL A   1      36.378  19.793  24.444  1.00  0.00     0.027 H 
ATOM     46  H   UNL A   1      36.888  20.474  26.032  1.00  0.00     0.027 H 
BRANCH  44  47
ATOM     47  C   UNL A   1      38.392  19.466  25.002  1.00  0.00    -0.036 C 
ATOM     48  H   UNL A   1      38.831  19.531  24.027  1.00  0.00     0.028 H 
ATOM     49  H   UNL A   1      38.075  18.482  25.276  1.00  0.00     0.028 H 
BRANCH  47  50
ATOM     50  C   UNL A   1      39.460  19.851  26.019  1.00  0.00     0.018 C 
ATOM     51  H   UNL A   1      39.010  19.879  26.989  1.00  0.00     0.049 H 
ATOM     52  H   UNL A   1      39.847  20.805  25.726  1.00  0.00     0.049 H 
BRANCH  50  53
ATOM     53  N   UNL A   1      40.579  18.925  26.056  1.00  0.00    -0.352 N 
ATOM     54  C   UNL A   1      41.924  19.195  26.157  1.00  0.00     0.251 C 
ATOM     55  H   UNL A   1      40.342  17.971  26.001  1.00  0.00     0.163 HD
ATOM     56  O   UNL A   1      42.749  18.291  26.065  1.00  0.00    -0.269 OA
BRANCH  54  57
ATOM     57  C   UNL A   1      42.382  20.589  26.345  1.00  0.00     0.039 A 
ATOM     58  C   UNL A   1      42.728  21.345  25.222  1.00  0.00    -0.049 A 
ATOM     59  C   UNL A   1      42.463  21.151  27.621  1.00  0.00    -0.049 A 
ATOM     60  C   UNL A   1      43.082  22.689  25.370  1.00  0.00    -0.053 A 
ATOM     61  H   UNL A   1      42.722  20.912  24.284  1.00  0.00     0.063 H 
ATOM     62  C   UNL A   1      42.753  22.505  27.762  1.00  0.00    -0.053 A 
ATOM     63  H   UNL A   1      42.306  20.565  28.457  1.00  0.00     0.063 H 
ATOM     64  C   UNL A   1      43.061  23.289  26.638  1.00  0.00    -0.014 A 
ATOM     65  H   UNL A   1      43.359  23.243  24.543  1.00  0.00     0.063 H 
ATOM     66  H   UNL A   1      42.743  22.936  28.700  1.00  0.00     0.063 H 
BRANCH  64  67
ATOM     67  C   UNL A   1      43.362  24.730  26.834  1.00  0.00     0.031 A 
ATOM     68  C   UNL A   1      44.750  25.241  26.578  1.00  0.00     0.074 A 
ATOM     69  C   UNL A   1      42.421  25.550  27.340  1.00  0.00     0.049 A 
ATOM     70  N   UNL A   1      45.272  26.407  26.857  1.00  0.00    -0.248 NA
ATOM     71  C   UNL A   1      45.685  24.299  25.942  1.00  0.00    -0.034 C 
ATOM     72  C   UNL A   1      41.042  25.170  27.647  1.00  0.00    -0.036 A 
ATOM     73  N   UNL A   1      42.494  26.869  27.714  1.00  0.00    -0.354 N 
ATOM     74  C   UNL A   1      46.602  26.328  26.466  1.00  0.00     0.074 A 
ATOM     75  C   UNL A   1      46.815  24.991  25.955  1.00  0.00    -0.034 C 
ATOM     76  H   UNL A   1      45.508  23.348  25.581  1.00  0.00     0.065 H 
ATOM     77  C   UNL A   1      40.400  26.230  28.163  1.00  0.00    -0.036 A 
ATOM     78  H   UNL A   1      40.629  24.238  27.490  1.00  0.00     0.065 H 
ATOM     79  C   UNL A   1      41.333  27.348  28.271  1.00  0.00     0.049 A 
ATOM     80  H   UNL A   1      43.302  27.419  27.596  1.00  0.00     0.167 HD
ATOM     81  C   UNL A   1      47.554  27.290  26.519  1.00  0.00     0.037 A 
ATOM     82  H   UNL A   1      47.727  24.625  25.641  1.00  0.00     0.065 H 
ATOM     83  H   UNL A   1      39.405  26.251  28.439  1.00  0.00     0.065 H 
ATOM     84  C   UNL A   1      41.061  28.543  28.829  1.00  0.00     0.037 A 
ATOM     85  C   UNL A   1      47.327  28.627  26.998  1.00  0.00     0.049 A 
ATOM     86  C   UNL A   1      42.142  29.590  28.889  1.00  0.00     0.074 A 
ATOM     87  C   UNL A   1      48.212  29.691  27.038  1.00  0.00    -0.036 A 
ATOM     88  N   UNL A   1      46.126  29.083  27.521  1.00  0.00    -0.354 N 
ATOM     89  N   UNL A   1      43.381  29.526  28.466  1.00  0.00    -0.248 NA
ATOM     90  C   UNL A   1      41.787  30.880  29.500  1.00  0.00    -0.034 C 
ATOM     91  C   UNL A   1      47.557  30.781  27.618  1.00  0.00    -0.036 A 
ATOM     92  H   UNL A   1      49.187  29.680  26.699  1.00  0.00     0.065 H 
ATOM     93  C   UNL A   1      46.250  30.411  27.897  1.00  0.00     0.049 A 
ATOM     94  H   UNL A   1      45.308  28.544  27.611  1.00  0.00     0.167 HD
ATOM     95  C   UNL A   1      43.940  30.771  28.723  1.00  0.00     0.074 A 
ATOM     96  C   UNL A   1      42.905  31.575  29.337  1.00  0.00    -0.034 C 
ATOM     97  H   UNL A   1      40.900  31.169  29.940  1.00  0.00     0.065 H 
ATOM     98  H   UNL A   1      47.975  31.706  27.805  1.00  0.00     0.065 H 
ATOM     99  C   UNL A   1      45.197  31.208  28.472  1.00  0.00     0.037 A 
ATOM    100  H   UNL A   1      43.021  32.563  29.613  1.00  0.00     0.065 H 
BRANCH  81 101
ATOM    101  C   UNL A   1      48.931  26.928  26.047  1.00  0.00     0.064 A 
ATOM    102  C   UNL A   1      49.890  26.394  26.921  1.00  0.00     0.173 A 
ATOM    103  C   UNL A   1      49.284  27.081  24.698  1.00  0.00     0.173 A 
ATOM    104  F   UNL A   1      49.605  26.237  28.223  1.00  0.00    -0.203 F 
ATOM    105  C   UNL A   1      51.162  26.055  26.467  1.00  0.00     0.198 A 
ATOM    106  C   UNL A   1      50.548  26.714  24.242  1.00  0.00     0.198 A 
ATOM    107  F   UNL A   1      48.402  27.580  23.820  1.00  0.00    -0.203 F 
ATOM    108  F   UNL A   1      52.077  25.591  27.329  1.00  0.00    -0.200 F 
ATOM    109  C   UNL A   1      51.488  26.208  25.128  1.00  0.00     0.200 A 
ATOM    110  F   UNL A   1      50.856  26.851  22.945  1.00  0.00    -0.200 F 
ATOM    111  F   UNL A   1      52.710  25.876  24.691  1.00  0.00    -0.200 F 
ENDBRANCH  81 101
BRANCH  84 112
ATOM    112  C   UNL A   1      39.701  28.822  29.363  1.00  0.00     0.064 A 
ATOM    113  C   UNL A   1      38.708  29.373  28.541  1.00  0.00     0.173 A 
ATOM    114  C   UNL A   1      39.363  28.544  30.695  1.00  0.00     0.173 A 
ATOM    115  F   UNL A   1      38.985  29.666  27.262  1.00  0.00    -0.203 F 
ATOM    116  C   UNL A   1      37.439  29.660  29.038  1.00  0.00     0.198 A 
ATOM    117  C   UNL A   1      38.087  28.811  31.186  1.00  0.00     0.198 A 
ATOM    118  F   UNL A   1      40.264  27.984  31.514  1.00  0.00    -0.203 F 
ATOM    119  F   UNL A   1      36.521  30.222  28.241  1.00  0.00    -0.200 F 
ATOM    120  C   UNL A   1      37.128  29.376  30.360  1.00  0.00     0.200 A 
ATOM    121  F   UNL A   1      37.783  28.515  32.457  1.00  0.00    -0.200 F 
ATOM    122  F   UNL A   1      35.905  29.649  30.835  1.00  0.00    -0.200 F 
ENDBRANCH  84 112
BRANCH  99 123
ATOM    123  C   UNL A   1      45.516  32.637  28.792  1.00  0.00     0.064 A 
ATOM    124  C   UNL A   1      45.269  33.671  27.878  1.00  0.00     0.173 A 
ATOM    125  C   UNL A   1      46.004  32.981  30.062  1.00  0.00     0.173 A 
ATOM    126  F   UNL A   1      44.816  33.391  26.647  1.00  0.00    -0.203 F 
ATOM    127  C   UNL A   1      45.508  34.999  28.222  1.00  0.00     0.198 A 
ATOM    128  C   UNL A   1      46.217  34.312  30.411  1.00  0.00     0.198 A 
ATOM    129  F   UNL A   1      46.249  32.028  30.974  1.00  0.00    -0.203 F 
ATOM    130  F   UNL A   1      45.291  35.970  27.325  1.00  0.00    -0.200 F 
ATOM    131  C   UNL A   1      45.972  35.319  29.490  1.00  0.00     0.200 A 
ATOM    132  F   UNL A   1      46.652  34.620  31.641  1.00  0.00    -0.200 F 
ATOM    133  F   UNL A   1      46.185  36.599  29.825  1.00  0.00    -0.200 F 
ENDBRANCH  99 123
ENDBRANCH  64  67
ENDBRANCH  54  57
ENDBRANCH  50  53
ENDBRANCH  47  50
ENDBRANCH  44  47
ENDBRANCH  41  44
ENDBRANCH   1  41
TORSDOF 18
ENDMDL
MODEL 10
REMARK VINA RESULT:     -12.0      4.685      9.775
REMARK SMILES NS(=O)(=O)c1ccc(/N=C/c2ccc(O)c(C(=O)NCCCCCCNC(=O)c3ccc(-c4c5nc(c(-c6c(F)c(F)c(F)c(F)c6F)c6ccc([nH]6)c(-c6c(F)c(F)c(F)c(F)c6F)c6nc(c(-c7c(F)c(F)c(F)c(F)c7F)c7ccc4[nH]7)C=C6)C=C5)cc3)c2)cc1
REMARK SMILES IDX 21 1 20 4 19 7 17 8 18 9 16 11 11 12 12 13 92 14 13 15 14 18
REMARK SMILES IDX 10 20 9 21 8 23 5 24 6 25 94 26 7 27 93 29 2 33 3 34 4 35
REMARK SMILES IDX 1 36 15 39 22 41 23 44 24 47 25 50 26 53 27 54 28 56 29 57
REMARK SMILES IDX 30 58 91 59 31 60 90 62 32 64 33 67 34 68 84 69 35 70 89 71
REMARK SMILES IDX 83 72 85 73 36 74 88 75 82 77 81 79 37 81 69 84 49 85 68 86
REMARK SMILES IDX 50 87 53 88 67 89 86 90 51 91 52 93 66 95 87 96 54 99 38 101
REMARK SMILES IDX 39 102 47 103 40 104 41 105 45 106 48 107 42 108 43 109
REMARK SMILES IDX 46 110 44 111 70 112 71 113 79 114 72 115 73 116 77 117
REMARK SMILES IDX 80 118 74 119 75 120 78 121 76 122 55 123 56 124 64 125
REMARK SMILES IDX 57 126 58 127 62 128 65 129 59 130 60 131 63 132 61 133
REMARK H PARENT 21 2 21 3 20 5 20 6 19 10 12 16 92 17 13 19 10 22 6 28 94 30
REMARK H PARENT 7 31 93 32 1 37 1 38 15 40 22 42 22 43 23 45 23 46 24 48 24 49
REMARK H PARENT 25 51 25 52 26 55 30 61 91 63 31 65 90 66 89 76 83 78 85 80
REMARK H PARENT 88 82 82 83 50 92 53 94 86 97 51 98 87 100
REMARK Flexibility Score: inf
ROOT
ATOM      1  C   UNL A   1      36.106  23.405  25.623  1.00  0.00    -0.036 C 
ATOM      2  H   UNL A   1      35.875  22.963  26.570  1.00  0.00     0.028 H 
ATOM      3  H   UNL A   1      36.850  24.175  25.655  1.00  0.00     0.028 H 
ENDROOT
BRANCH   1   4
ATOM      4  C   UNL A   1      34.844  24.094  25.116  1.00  0.00     0.018 C 
ATOM      5  H   UNL A   1      34.012  23.721  25.677  1.00  0.00     0.049 H 
ATOM      6  H   UNL A   1      34.998  25.145  25.246  1.00  0.00     0.049 H 
BRANCH   4   7
ATOM      7  N   UNL A   1      34.569  23.887  23.703  1.00  0.00    -0.352 N 
ATOM      8  C   UNL A   1      33.599  24.432  22.892  1.00  0.00     0.255 C 
ATOM      9  O   UNL A   1      33.504  24.047  21.726  1.00  0.00    -0.269 OA
ATOM     10  H   UNL A   1      35.175  23.255  23.254  1.00  0.00     0.163 HD
BRANCH   8  11
ATOM     11  C   UNL A   1      32.600  25.414  23.386  1.00  0.00     0.082 A 
ATOM     12  C   UNL A   1      32.048  27.438  24.600  1.00  0.00    -0.006 A 
ATOM     13  C   UNL A   1      30.694  27.108  24.585  1.00  0.00    -0.050 A 
ATOM     14  C   UNL A   1      32.981  26.638  23.931  1.00  0.00    -0.037 A 
ATOM     15  C   UNL A   1      30.285  25.948  23.923  1.00  0.00    -0.019 A 
ATOM     16  H   UNL A   1      30.003  27.713  25.056  1.00  0.00     0.063 H 
ATOM     17  H   UNL A   1      33.959  26.958  23.841  1.00  0.00     0.064 H 
ATOM     18  C   UNL A   1      31.232  25.102  23.341  1.00  0.00     0.128 A 
ATOM     19  H   UNL A   1      29.281  25.714  23.864  1.00  0.00     0.066 H 
BRANCH  12  20
ATOM     20  C   UNL A   1      32.545  28.541  25.451  1.00  0.00     0.035 C 
ATOM     21  N   UNL A   1      31.710  29.429  25.887  1.00  0.00    -0.256 NA
ATOM     22  H   UNL A   1      33.546  28.601  25.694  1.00  0.00     0.085 H 
BRANCH  21  23
ATOM     23  C   UNL A   1      32.162  30.549  26.592  1.00  0.00     0.063 A 
ATOM     24  C   UNL A   1      33.086  32.928  27.746  1.00  0.00     0.082 A 
ATOM     25  C   UNL A   1      31.856  32.912  27.086  1.00  0.00    -0.040 A 
ATOM     26  C   UNL A   1      33.857  31.767  27.839  1.00  0.00    -0.040 A 
ATOM     27  C   UNL A   1      31.406  31.723  26.506  1.00  0.00    -0.035 A 
ATOM     28  H   UNL A   1      31.285  33.769  27.026  1.00  0.00     0.064 H 
ATOM     29  C   UNL A   1      33.396  30.583  27.254  1.00  0.00    -0.035 A 
ATOM     30  H   UNL A   1      34.762  31.782  28.336  1.00  0.00     0.064 H 
ATOM     31  H   UNL A   1      30.503  31.711  26.007  1.00  0.00     0.065 H 
ATOM     32  H   UNL A   1      33.970  29.727  27.311  1.00  0.00     0.065 H 
BRANCH  24  33
ATOM     33  S   UNL A   1      33.658  34.442  28.456  1.00  0.00     0.238 S 
ATOM     34  O   UNL A   1      34.587  34.138  29.523  1.00  0.00    -0.207 OA
ATOM     35  O   UNL A   1      32.529  35.321  28.618  1.00  0.00    -0.207 OA
BRANCH  33  36
ATOM     36  N   UNL A   1      34.610  35.116  27.245  1.00  0.00    -0.225 NA
ATOM     37  H   UNL A   1      35.472  34.578  27.150  1.00  0.00     0.137 HD
ATOM     38  H   UNL A   1      34.837  36.081  27.488  1.00  0.00     0.137 HD
ENDBRANCH  33  36
ENDBRANCH  24  33
ENDBRANCH  21  23
ENDBRANCH  12  20
BRANCH  18  39
ATOM     39  O   UNL A   1      30.749  23.964  22.750  1.00  0.00    -0.507 OA
ATOM     40  H   UNL A   1      30.166  23.404  23.222  1.00  0.00     0.293 HD
ENDBRANCH  18  39
ENDBRANCH   8  11
ENDBRANCH   4   7
ENDBRANCH   1   4
BRANCH   1  41
ATOM     41  C   UNL A   1      36.703  22.314  24.736  1.00  0.00    -0.052 C 
ATOM     42  H   UNL A   1      37.739  22.544  24.593  1.00  0.00     0.027 H 
ATOM     43  H   UNL A   1      36.113  22.325  23.843  1.00  0.00     0.027 H 
BRANCH  41  44
ATOM     44  C   UNL A   1      36.618  20.876  25.253  1.00  0.00    -0.052 C 
ATOM     45  H   UNL A   1      35.772  20.414  24.790  1.00  0.00     0.027 H 
ATOM     46  H   UNL A   1      36.552  20.964  26.318  1.00  0.00     0.027 H 
BRANCH  44  47
ATOM     47  C   UNL A   1      37.833  19.981  24.999  1.00  0.00    -0.036 C 
ATOM     48  H   UNL A   1      38.048  20.013  23.952  1.00  0.00     0.028 H 
ATOM     49  H   UNL A   1      37.556  19.013  25.361  1.00  0.00     0.028 H 
BRANCH  47  50
ATOM     50  C   UNL A   1      39.107  20.350  25.749  1.00  0.00     0.018 C 
ATOM     51  H   UNL A   1      38.843  20.650  26.741  1.00  0.00     0.049 H 
ATOM     52  H   UNL A   1      39.579  21.139  25.201  1.00  0.00     0.049 H 
BRANCH  50  53
ATOM     53  N   UNL A   1      40.060  19.256  25.836  1.00  0.00    -0.352 N 
ATOM     54  C   UNL A   1      41.411  19.302  26.089  1.00  0.00     0.251 C 
ATOM     55  H   UNL A   1      39.686  18.357  25.694  1.00  0.00     0.163 HD
ATOM     56  O   UNL A   1      42.092  18.283  26.020  1.00  0.00    -0.269 OA
BRANCH  54  57
ATOM     57  C   UNL A   1      42.055  20.594  26.414  1.00  0.00     0.039 A 
ATOM     58  C   UNL A   1      42.454  21.433  25.369  1.00  0.00    -0.049 A 
ATOM     59  C   UNL A   1      42.257  20.980  27.741  1.00  0.00    -0.049 A 
ATOM     60  C   UNL A   1      42.987  22.693  25.655  1.00  0.00    -0.053 A 
ATOM     61  H   UNL A   1      42.356  21.122  24.390  1.00  0.00     0.063 H 
ATOM     62  C   UNL A   1      42.727  22.259  28.023  1.00  0.00    -0.053 A 
ATOM     63  H   UNL A   1      42.056  20.320  28.510  1.00  0.00     0.063 H 
ATOM     64  C   UNL A   1      43.093  23.130  26.983  1.00  0.00    -0.014 A 
ATOM     65  H   UNL A   1      43.302  23.305  24.885  1.00  0.00     0.063 H 
ATOM     66  H   UNL A   1      42.809  22.570  29.004  1.00  0.00     0.063 H 
BRANCH  64  67
ATOM     67  C   UNL A   1      43.587  24.487  27.331  1.00  0.00     0.031 A 
ATOM     68  C   UNL A   1      42.619  25.530  27.809  1.00  0.00     0.074 A 
ATOM     69  C   UNL A   1      44.877  24.808  27.116  1.00  0.00     0.049 A 
ATOM     70  N   UNL A   1      42.799  26.813  27.989  1.00  0.00    -0.248 NA
ATOM     71  C   UNL A   1      41.252  25.068  28.101  1.00  0.00    -0.034 C 
ATOM     72  C   UNL A   1      45.911  23.889  26.639  1.00  0.00    -0.036 A 
ATOM     73  N   UNL A   1      45.532  26.008  27.245  1.00  0.00    -0.354 N 
ATOM     74  C   UNL A   1      41.567  27.317  28.379  1.00  0.00     0.074 A 
ATOM     75  C   UNL A   1      40.637  26.207  28.383  1.00  0.00    -0.034 C 
ATOM     76  H   UNL A   1      40.872  24.108  28.089  1.00  0.00     0.065 H 
ATOM     77  C   UNL A   1      47.068  24.559  26.513  1.00  0.00    -0.036 A 
ATOM     78  H   UNL A   1      45.772  22.888  26.433  1.00  0.00     0.065 H 
ATOM     79  C   UNL A   1      46.847  25.962  26.851  1.00  0.00     0.049 A 
ATOM     80  H   UNL A   1      45.099  26.824  27.586  1.00  0.00     0.167 HD
ATOM     81  C   UNL A   1      41.243  28.588  28.714  1.00  0.00     0.037 A 
ATOM     82  H   UNL A   1      39.628  26.291  28.581  1.00  0.00     0.065 H 
ATOM     83  H   UNL A   1      47.969  24.146  26.223  1.00  0.00     0.065 H 
ATOM     84  C   UNL A   1      47.763  26.944  26.751  1.00  0.00     0.037 A 
ATOM     85  C   UNL A   1      42.179  29.681  28.739  1.00  0.00     0.049 A 
ATOM     86  C   UNL A   1      47.374  28.353  27.115  1.00  0.00     0.074 A 
ATOM     87  C   UNL A   1      41.963  30.994  29.120  1.00  0.00    -0.036 A 
ATOM     88  N   UNL A   1      43.512  29.585  28.367  1.00  0.00    -0.354 N 
ATOM     89  N   UNL A   1      46.220  28.811  27.536  1.00  0.00    -0.248 NA
ATOM     90  C   UNL A   1      48.416  29.384  26.994  1.00  0.00    -0.034 C 
ATOM     91  C   UNL A   1      43.156  31.701  28.945  1.00  0.00    -0.036 A 
ATOM     92  H   UNL A   1      41.074  31.383  29.472  1.00  0.00     0.065 H 
ATOM     93  C   UNL A   1      44.128  30.819  28.500  1.00  0.00     0.049 A 
ATOM     94  H   UNL A   1      43.954  28.763  28.056  1.00  0.00     0.167 HD
ATOM     95  C   UNL A   1      46.406  30.167  27.766  1.00  0.00     0.074 A 
ATOM     96  C   UNL A   1      47.785  30.462  27.441  1.00  0.00    -0.034 C 
ATOM     97  H   UNL A   1      49.385  29.293  26.652  1.00  0.00     0.065 H 
ATOM     98  H   UNL A   1      43.291  32.709  29.120  1.00  0.00     0.065 H 
ATOM     99  C   UNL A   1      45.513  31.085  28.208  1.00  0.00     0.037 A 
ATOM    100  H   UNL A   1      48.222  31.391  27.544  1.00  0.00     0.065 H 
BRANCH  81 101
ATOM    101  C   UNL A   1      39.815  28.867  29.079  1.00  0.00     0.064 A 
ATOM    102  C   UNL A   1      38.888  29.315  28.126  1.00  0.00     0.173 A 
ATOM    103  C   UNL A   1      39.360  28.649  30.388  1.00  0.00     0.173 A 
ATOM    104  F   UNL A   1      39.276  29.550  26.864  1.00  0.00    -0.203 F 
ATOM    105  C   UNL A   1      37.563  29.563  28.478  1.00  0.00     0.198 A 
ATOM    106  C   UNL A   1      38.028  28.869  30.729  1.00  0.00     0.198 A 
ATOM    107  F   UNL A   1      40.203  28.213  31.335  1.00  0.00    -0.203 F 
ATOM    108  F   UNL A   1      36.706  30.034  27.562  1.00  0.00    -0.200 F 
ATOM    109  C   UNL A   1      37.133  29.333  29.776  1.00  0.00     0.200 A 
ATOM    110  F   UNL A   1      37.610  28.634  31.981  1.00  0.00    -0.200 F 
ATOM    111  F   UNL A   1      35.857  29.565  30.111  1.00  0.00    -0.200 F 
ENDBRANCH  81 101
BRANCH  84 112
ATOM    112  C   UNL A   1      49.144  26.628  26.298  1.00  0.00     0.064 A 
ATOM    113  C   UNL A   1      49.528  26.838  24.966  1.00  0.00     0.173 A 
ATOM    114  C   UNL A   1      50.107  26.115  27.179  1.00  0.00     0.173 A 
ATOM    115  F   UNL A   1      48.640  27.318  24.082  1.00  0.00    -0.203 F 
ATOM    116  C   UNL A   1      50.811  26.523  24.527  1.00  0.00     0.198 A 
ATOM    117  C   UNL A   1      51.397  25.820  26.745  1.00  0.00     0.198 A 
ATOM    118  F   UNL A   1      49.804  25.928  28.471  1.00  0.00    -0.203 F 
ATOM    119  F   UNL A   1      51.139  26.698  23.240  1.00  0.00    -0.200 F 
ATOM    120  C   UNL A   1      51.747  26.016  25.417  1.00  0.00     0.200 A 
ATOM    121  F   UNL A   1      52.305  25.351  27.612  1.00  0.00    -0.200 F 
ATOM    122  F   UNL A   1      52.982  25.717  24.995  1.00  0.00    -0.200 F 
ENDBRANCH  84 112
BRANCH  99 123
ATOM    123  C   UNL A   1      46.005  32.483  28.436  1.00  0.00     0.064 A 
ATOM    124  C   UNL A   1      46.584  32.872  29.652  1.00  0.00     0.173 A 
ATOM    125  C   UNL A   1      45.965  33.421  27.394  1.00  0.00     0.173 A 
ATOM    126  F   UNL A   1      46.633  32.014  30.682  1.00  0.00    -0.203 F 
ATOM    127  C   UNL A   1      47.097  34.156  29.819  1.00  0.00     0.198 A 
ATOM    128  C   UNL A   1      46.502  34.695  27.556  1.00  0.00     0.198 A 
ATOM    129  F   UNL A   1      45.427  33.095  26.209  1.00  0.00    -0.203 F 
ATOM    130  F   UNL A   1      47.622  34.517  30.998  1.00  0.00    -0.200 F 
ATOM    131  C   UNL A   1      47.065  35.062  28.769  1.00  0.00     0.200 A 
ATOM    132  F   UNL A   1      46.482  35.565  26.537  1.00  0.00    -0.200 F 
ATOM    133  F   UNL A   1      47.575  36.291  28.927  1.00  0.00    -0.200 F 
ENDBRANCH  99 123
ENDBRANCH  64  67
ENDBRANCH  54  57
ENDBRANCH  50  53
ENDBRANCH  47  50
ENDBRANCH  44  47
ENDBRANCH  41  44
ENDBRANCH   1  41
TORSDOF 18
ENDMDL
