MODEL 1
REMARK VINA RESULT:     -12.3      0.000      0.000
REMARK SMILES C/C(=N/OCc1ccccc1Nc1c(Cl)cccc1Cl)C(=O)NCCCCCCNC(=O)c1ccc(-c2c3nc(c(-c4c(F)c(F)c(F)c(F)c4F)c4ccc([nH]4)c(-c4c(F)c(F)c(F)c(F)c4F)c4nc(c(-c5c(F)c(F)c(F)c(F)c5F)c5ccc2[nH]5)C=C4)C=C3)cc1
REMARK SMILES IDX 25 1 24 4 23 7 21 8 22 9 2 11 3 12 1 13 4 17 5 18 6 21 7 22
REMARK SMILES IDX 11 23 8 24 10 26 9 27 12 31 13 33 14 34 19 35 15 36 16 37
REMARK SMILES IDX 18 38 20 39 17 40 26 44 27 47 28 50 29 53 30 56 31 57 32 59
REMARK SMILES IDX 33 60 34 61 95 62 35 63 94 65 36 67 37 70 38 71 88 72 39 73
REMARK SMILES IDX 93 74 87 75 89 76 40 77 92 78 86 80 85 82 41 84 73 87 53 88
REMARK SMILES IDX 72 89 54 90 57 91 71 92 90 93 55 94 56 96 70 98 91 99 58 102
REMARK SMILES IDX 42 104 43 105 51 106 44 107 45 108 49 109 52 110 46 111
REMARK SMILES IDX 47 112 50 113 48 114 74 115 75 116 83 117 76 118 77 119
REMARK SMILES IDX 81 120 84 121 78 122 79 123 82 124 80 125 59 126 60 127
REMARK SMILES IDX 68 128 61 129 62 130 66 131 69 132 63 133 64 134 67 135
REMARK SMILES IDX 65 136
REMARK H PARENT 25 2 25 3 24 5 24 6 23 10 1 14 1 15 1 16 5 19 5 20 7 25 8 28
REMARK H PARENT 10 29 9 30 12 32 16 41 18 42 17 43 26 45 26 46 27 48 27 49
REMARK H PARENT 28 51 28 52 29 54 29 55 30 58 34 64 95 66 35 68 94 69 93 79
REMARK H PARENT 87 81 89 83 92 85 86 86 54 95 57 97 90 100 55 101 91 103
REMARK Flexibility Score: inf
ROOT
ATOM      1  C   UNL A   1      31.911  28.739  27.518  1.00  0.00    -0.036 C 
ATOM      2  H   UNL A   1      32.520  28.456  28.351  1.00  0.00     0.028 H 
ATOM      3  H   UNL A   1      30.887  28.876  27.794  1.00  0.00     0.028 H 
ENDROOT
BRANCH   1   4
ATOM      4  C   UNL A   1      31.953  27.608  26.479  1.00  0.00     0.018 C 
ATOM      5  H   UNL A   1      31.720  28.003  25.511  1.00  0.00     0.049 H 
ATOM      6  H   UNL A   1      32.933  27.178  26.459  1.00  0.00     0.049 H 
BRANCH   4   7
ATOM      7  N   UNL A   1      30.985  26.595  26.833  1.00  0.00    -0.351 N 
ATOM      8  C   UNL A   1      30.581  25.457  26.187  1.00  0.00     0.268 C 
ATOM      9  O   UNL A   1      29.547  24.916  26.589  1.00  0.00    -0.268 OA
ATOM     10  H   UNL A   1      30.537  26.750  27.695  1.00  0.00     0.163 HD
BRANCH   8  11
ATOM     11  C   UNL A   1      31.357  24.707  25.116  1.00  0.00     0.141 C 
ATOM     12  N   UNL A   1      32.538  24.163  25.126  1.00  0.00    -0.086 NA
BRANCH  11  13
ATOM     13  C   UNL A   1      30.622  24.633  23.792  1.00  0.00    -0.013 C 
ATOM     14  H   UNL A   1      31.072  23.881  23.177  1.00  0.00     0.030 H 
ATOM     15  H   UNL A   1      30.681  25.580  23.297  1.00  0.00     0.030 H 
ATOM     16  H   UNL A   1      29.597  24.384  23.966  1.00  0.00     0.030 H 
ENDBRANCH  11  13
BRANCH  12  17
ATOM     17  O   UNL A   1      33.185  24.133  26.351  1.00  0.00    -0.390 OA
BRANCH  17  18
ATOM     18  C   UNL A   1      33.733  22.816  26.587  1.00  0.00     0.144 C 
ATOM     19  H   UNL A   1      33.016  22.099  26.247  1.00  0.00     0.079 H 
ATOM     20  H   UNL A   1      33.937  22.777  27.637  1.00  0.00     0.079 H 
BRANCH  18  21
ATOM     21  C   UNL A   1      35.067  22.502  25.903  1.00  0.00     0.016 A 
ATOM     22  C   UNL A   1      36.054  23.503  25.776  1.00  0.00    -0.053 A 
ATOM     23  C   UNL A   1      35.412  21.182  25.526  1.00  0.00     0.045 A 
ATOM     24  C   UNL A   1      37.337  23.228  25.307  1.00  0.00    -0.062 A 
ATOM     25  H   UNL A   1      35.816  24.473  26.039  1.00  0.00     0.063 H 
ATOM     26  C   UNL A   1      36.722  20.922  25.071  1.00  0.00    -0.038 A 
ATOM     27  C   UNL A   1      37.677  21.931  24.964  1.00  0.00    -0.060 A 
ATOM     28  H   UNL A   1      38.031  23.986  25.215  1.00  0.00     0.062 H 
ATOM     29  H   UNL A   1      36.981  19.958  24.810  1.00  0.00     0.064 H 
ATOM     30  H   UNL A   1      38.629  21.713  24.632  1.00  0.00     0.062 H 
BRANCH  23  31
ATOM     31  N   UNL A   1      34.474  20.125  25.621  1.00  0.00    -0.353 N 
ATOM     32  H   UNL A   1      34.139  19.931  26.526  1.00  0.00     0.167 HD
BRANCH  31  33
ATOM     33  C   UNL A   1      33.952  19.305  24.584  1.00  0.00     0.076 A 
ATOM     34  C   UNL A   1      34.542  18.047  24.328  1.00  0.00     0.066 A 
ATOM     35  C   UNL A   1      32.804  19.644  23.839  1.00  0.00     0.066 A 
ATOM     36  Cl  UNL A   1      35.962  17.545  25.190  1.00  0.00    -0.082 Cl
ATOM     37  C   UNL A   1      34.003  17.162  23.390  1.00  0.00    -0.041 A 
ATOM     38  C   UNL A   1      32.265  18.757  22.898  1.00  0.00    -0.041 A 
ATOM     39  Cl  UNL A   1      32.043  21.196  23.975  1.00  0.00    -0.082 Cl
ATOM     40  C   UNL A   1      32.858  17.515  22.679  1.00  0.00    -0.059 A 
ATOM     41  H   UNL A   1      34.452  16.248  23.222  1.00  0.00     0.064 H 
ATOM     42  H   UNL A   1      31.424  19.025  22.363  1.00  0.00     0.064 H 
ATOM     43  H   UNL A   1      32.451  16.861  21.994  1.00  0.00     0.062 H 
ENDBRANCH  31  33
ENDBRANCH  23  31
ENDBRANCH  18  21
ENDBRANCH  17  18
ENDBRANCH  12  17
ENDBRANCH   8  11
ENDBRANCH   4   7
ENDBRANCH   1   4
BRANCH   1  44
ATOM     44  C   UNL A   1      32.417  30.082  26.977  1.00  0.00    -0.052 C 
ATOM     45  H   UNL A   1      33.248  29.891  26.330  1.00  0.00     0.027 H 
ATOM     46  H   UNL A   1      32.680  30.675  27.829  1.00  0.00     0.027 H 
BRANCH  44  47
ATOM     47  C   UNL A   1      31.373  30.884  26.193  1.00  0.00    -0.052 C 
ATOM     48  H   UNL A   1      30.408  30.475  26.411  1.00  0.00     0.027 H 
ATOM     49  H   UNL A   1      31.645  30.801  25.162  1.00  0.00     0.027 H 
BRANCH  47  50
ATOM     50  C   UNL A   1      31.335  32.382  26.507  1.00  0.00    -0.036 C 
ATOM     51  H   UNL A   1      30.488  32.572  27.133  1.00  0.00     0.028 H 
ATOM     52  H   UNL A   1      31.281  32.890  25.566  1.00  0.00     0.028 H 
BRANCH  50  53
ATOM     53  C   UNL A   1      32.579  32.911  27.215  1.00  0.00     0.018 C 
ATOM     54  H   UNL A   1      33.414  32.837  26.550  1.00  0.00     0.049 H 
ATOM     55  H   UNL A   1      32.737  32.324  28.096  1.00  0.00     0.049 H 
BRANCH  53  56
ATOM     56  N   UNL A   1      32.417  34.300  27.618  1.00  0.00    -0.352 N 
ATOM     57  C   UNL A   1      33.010  34.980  28.652  1.00  0.00     0.251 C 
ATOM     58  H   UNL A   1      31.793  34.828  27.069  1.00  0.00     0.163 HD
ATOM     59  O   UNL A   1      32.582  36.075  29.001  1.00  0.00    -0.269 OA
BRANCH  57  60
ATOM     60  C   UNL A   1      34.169  34.387  29.353  1.00  0.00     0.039 A 
ATOM     61  C   UNL A   1      33.952  33.648  30.519  1.00  0.00    -0.049 A 
ATOM     62  C   UNL A   1      35.468  34.588  28.877  1.00  0.00    -0.049 A 
ATOM     63  C   UNL A   1      35.035  33.069  31.182  1.00  0.00    -0.053 A 
ATOM     64  H   UNL A   1      32.995  33.532  30.888  1.00  0.00     0.063 H 
ATOM     65  C   UNL A   1      36.539  33.955  29.501  1.00  0.00    -0.053 A 
ATOM     66  H   UNL A   1      35.633  35.205  28.066  1.00  0.00     0.063 H 
ATOM     67  C   UNL A   1      36.334  33.197  30.664  1.00  0.00    -0.014 A 
ATOM     68  H   UNL A   1      34.881  32.543  32.056  1.00  0.00     0.063 H 
ATOM     69  H   UNL A   1      37.489  34.044  29.107  1.00  0.00     0.063 H 
BRANCH  67  70
ATOM     70  C   UNL A   1      37.495  32.561  31.331  1.00  0.00     0.031 A 
ATOM     71  C   UNL A   1      38.207  31.413  30.670  1.00  0.00     0.074 A 
ATOM     72  C   UNL A   1      37.866  32.973  32.557  1.00  0.00     0.049 A 
ATOM     73  N   UNL A   1      39.191  30.677  31.122  1.00  0.00    -0.248 NA
ATOM     74  C   UNL A   1      37.730  31.023  29.334  1.00  0.00    -0.034 C 
ATOM     75  C   UNL A   1      37.226  34.048  33.317  1.00  0.00    -0.036 A 
ATOM     76  N   UNL A   1      38.869  32.532  33.384  1.00  0.00    -0.354 N 
ATOM     77  C   UNL A   1      39.435  29.729  30.138  1.00  0.00     0.074 A 
ATOM     78  C   UNL A   1      38.468  29.952  29.084  1.00  0.00    -0.034 C 
ATOM     79  H   UNL A   1      37.010  31.469  28.744  1.00  0.00     0.065 H 
ATOM     80  C   UNL A   1      37.866  34.200  34.486  1.00  0.00    -0.036 A 
ATOM     81  H   UNL A   1      36.412  34.599  33.004  1.00  0.00     0.065 H 
ATOM     82  C   UNL A   1      38.937  33.211  34.576  1.00  0.00     0.049 A 
ATOM     83  H   UNL A   1      39.481  31.799  33.145  1.00  0.00     0.167 HD
ATOM     84  C   UNL A   1      40.393  28.772  30.106  1.00  0.00     0.037 A 
ATOM     85  H   UNL A   1      38.366  29.354  28.249  1.00  0.00     0.065 H 
ATOM     86  H   UNL A   1      37.639  34.904  35.207  1.00  0.00     0.065 H 
ATOM     87  C   UNL A   1      39.767  33.047  35.623  1.00  0.00     0.037 A 
ATOM     88  C   UNL A   1      41.371  28.573  31.143  1.00  0.00     0.049 A 
ATOM     89  C   UNL A   1      40.828  31.983  35.560  1.00  0.00     0.074 A 
ATOM     90  C   UNL A   1      42.419  27.670  31.180  1.00  0.00    -0.036 A 
ATOM     91  N   UNL A   1      41.421  29.294  32.328  1.00  0.00    -0.354 N 
ATOM     92  N   UNL A   1      41.086  31.127  34.601  1.00  0.00    -0.248 NA
ATOM     93  C   UNL A   1      41.715  31.862  36.725  1.00  0.00    -0.034 C 
ATOM     94  C   UNL A   1      43.077  27.815  32.407  1.00  0.00    -0.036 A 
ATOM     95  H   UNL A   1      42.672  27.006  30.433  1.00  0.00     0.065 H 
ATOM     96  C   UNL A   1      42.470  28.841  33.113  1.00  0.00     0.049 A 
ATOM     97  H   UNL A   1      40.803  30.019  32.574  1.00  0.00     0.167 HD
ATOM     98  C   UNL A   1      42.177  30.387  35.031  1.00  0.00     0.074 A 
ATOM     99  C   UNL A   1      42.543  30.903  36.335  1.00  0.00    -0.034 C 
ATOM    100  H   UNL A   1      41.699  32.387  37.613  1.00  0.00     0.065 H 
ATOM    101  H   UNL A   1      43.878  27.252  32.731  1.00  0.00     0.065 H 
ATOM    102  C   UNL A   1      42.820  29.371  34.405  1.00  0.00     0.037 A 
ATOM    103  H   UNL A   1      43.345  30.566  36.889  1.00  0.00     0.065 H 
BRANCH  84 104
ATOM    104  C   UNL A   1      40.430  27.864  28.910  1.00  0.00     0.064 A 
ATOM    105  C   UNL A   1      41.214  28.159  27.785  1.00  0.00     0.173 A 
ATOM    106  C   UNL A   1      39.699  26.666  28.903  1.00  0.00     0.173 A 
ATOM    107  F   UNL A   1      41.924  29.296  27.736  1.00  0.00    -0.203 F 
ATOM    108  C   UNL A   1      41.243  27.303  26.687  1.00  0.00     0.198 A 
ATOM    109  C   UNL A   1      39.755  25.798  27.816  1.00  0.00     0.198 A 
ATOM    110  F   UNL A   1      38.937  26.332  29.956  1.00  0.00    -0.203 F 
ATOM    111  F   UNL A   1      41.962  27.630  25.603  1.00  0.00    -0.200 F 
ATOM    112  C   UNL A   1      40.520  26.121  26.705  1.00  0.00     0.200 A 
ATOM    113  F   UNL A   1      39.065  24.649  27.842  1.00  0.00    -0.200 F 
ATOM    114  F   UNL A   1      40.554  25.295  25.651  1.00  0.00    -0.200 F 
ENDBRANCH  84 104
BRANCH  87 115
ATOM    115  C   UNL A   1      39.640  33.928  36.813  1.00  0.00     0.064 A 
ATOM    116  C   UNL A   1      38.858  33.544  37.912  1.00  0.00     0.173 A 
ATOM    117  C   UNL A   1      40.293  35.166  36.876  1.00  0.00     0.173 A 
ATOM    118  F   UNL A   1      38.196  32.377  37.886  1.00  0.00    -0.203 F 
ATOM    119  C   UNL A   1      38.718  34.375  39.020  1.00  0.00     0.198 A 
ATOM    120  C   UNL A   1      40.175  35.985  37.998  1.00  0.00     0.198 A 
ATOM    121  F   UNL A   1      41.052  35.578  35.851  1.00  0.00    -0.203 F 
ATOM    122  F   UNL A   1      37.928  34.005  40.037  1.00  0.00    -0.200 F 
ATOM    123  C   UNL A   1      39.383  35.592  39.066  1.00  0.00     0.200 A 
ATOM    124  F   UNL A   1      40.828  37.153  38.041  1.00  0.00    -0.200 F 
ATOM    125  F   UNL A   1      39.251  36.390  40.133  1.00  0.00    -0.200 F 
ENDBRANCH  87 115
BRANCH 102 126
ATOM    126  C   UNL A   1      44.002  28.770  35.107  1.00  0.00     0.064 A 
ATOM    127  C   UNL A   1      45.304  29.251  34.902  1.00  0.00     0.173 A 
ATOM    128  C   UNL A   1      43.825  27.727  36.030  1.00  0.00     0.173 A 
ATOM    129  F   UNL A   1      45.526  30.236  34.018  1.00  0.00    -0.203 F 
ATOM    130  C   UNL A   1      46.387  28.694  35.575  1.00  0.00     0.198 A 
ATOM    131  C   UNL A   1      44.906  27.193  36.723  1.00  0.00     0.198 A 
ATOM    132  F   UNL A   1      42.600  27.235  36.267  1.00  0.00    -0.203 F 
ATOM    133  F   UNL A   1      47.627  29.139  35.328  1.00  0.00    -0.200 F 
ATOM    134  C   UNL A   1      46.187  27.672  36.490  1.00  0.00     0.200 A 
ATOM    135  F   UNL A   1      44.710  26.212  37.616  1.00  0.00    -0.200 F 
ATOM    136  F   UNL A   1      47.230  27.141  37.143  1.00  0.00    -0.200 F 
ENDBRANCH 102 126
ENDBRANCH  67  70
ENDBRANCH  57  60
ENDBRANCH  53  56
ENDBRANCH  50  53
ENDBRANCH  47  50
ENDBRANCH  44  47
ENDBRANCH   1  44
TORSDOF 19
ENDMDL
MODEL 2
REMARK VINA RESULT:     -12.0      1.538      3.134
REMARK SMILES C/C(=N/OCc1ccccc1Nc1c(Cl)cccc1Cl)C(=O)NCCCCCCNC(=O)c1ccc(-c2c3nc(c(-c4c(F)c(F)c(F)c(F)c4F)c4ccc([nH]4)c(-c4c(F)c(F)c(F)c(F)c4F)c4nc(c(-c5c(F)c(F)c(F)c(F)c5F)c5ccc2[nH]5)C=C4)C=C3)cc1
REMARK SMILES IDX 25 1 24 4 23 7 21 8 22 9 2 11 3 12 1 13 4 17 5 18 6 21 7 22
REMARK SMILES IDX 11 23 8 24 10 26 9 27 12 31 13 33 14 34 19 35 15 36 16 37
REMARK SMILES IDX 18 38 20 39 17 40 26 44 27 47 28 50 29 53 30 56 31 57 32 59
REMARK SMILES IDX 33 60 34 61 95 62 35 63 94 65 36 67 37 70 38 71 88 72 39 73
REMARK SMILES IDX 93 74 87 75 89 76 40 77 92 78 86 80 85 82 41 84 73 87 53 88
REMARK SMILES IDX 72 89 54 90 57 91 71 92 90 93 55 94 56 96 70 98 91 99 58 102
REMARK SMILES IDX 42 104 43 105 51 106 44 107 45 108 49 109 52 110 46 111
REMARK SMILES IDX 47 112 50 113 48 114 74 115 75 116 83 117 76 118 77 119
REMARK SMILES IDX 81 120 84 121 78 122 79 123 82 124 80 125 59 126 60 127
REMARK SMILES IDX 68 128 61 129 62 130 66 131 69 132 63 133 64 134 67 135
REMARK SMILES IDX 65 136
REMARK H PARENT 25 2 25 3 24 5 24 6 23 10 1 14 1 15 1 16 5 19 5 20 7 25 8 28
REMARK H PARENT 10 29 9 30 12 32 16 41 18 42 17 43 26 45 26 46 27 48 27 49
REMARK H PARENT 28 51 28 52 29 54 29 55 30 58 34 64 95 66 35 68 94 69 93 79
REMARK H PARENT 87 81 89 83 92 85 86 86 54 95 57 97 90 100 55 101 91 103
REMARK Flexibility Score: inf
ROOT
ATOM      1  C   UNL A   1      31.778  28.649  27.362  1.00  0.00    -0.036 C 
ATOM      2  H   UNL A   1      32.500  28.158  27.981  1.00  0.00     0.028 H 
ATOM      3  H   UNL A   1      30.880  28.880  27.895  1.00  0.00     0.028 H 
ENDROOT
BRANCH   1   4
ATOM      4  C   UNL A   1      31.395  27.701  26.216  1.00  0.00     0.018 C 
ATOM      5  H   UNL A   1      30.698  28.189  25.566  1.00  0.00     0.049 H 
ATOM      6  H   UNL A   1      32.272  27.438  25.661  1.00  0.00     0.049 H 
BRANCH   4   7
ATOM      7  N   UNL A   1      30.791  26.507  26.762  1.00  0.00    -0.351 N 
ATOM      8  C   UNL A   1      30.195  25.431  26.160  1.00  0.00     0.268 C 
ATOM      9  O   UNL A   1      29.528  24.680  26.876  1.00  0.00    -0.268 OA
ATOM     10  H   UNL A   1      30.814  26.458  27.745  1.00  0.00     0.163 HD
BRANCH   8  11
ATOM     11  C   UNL A   1      30.393  24.983  24.721  1.00  0.00     0.141 C 
ATOM     12  N   UNL A   1      31.004  23.954  24.212  1.00  0.00    -0.086 NA
BRANCH  11  13
ATOM     13  C   UNL A   1      29.803  25.948  23.711  1.00  0.00    -0.013 C 
ATOM     14  H   UNL A   1      29.171  25.412  23.033  1.00  0.00     0.030 H 
ATOM     15  H   UNL A   1      30.593  26.418  23.164  1.00  0.00     0.030 H 
ATOM     16  H   UNL A   1      29.230  26.692  24.221  1.00  0.00     0.030 H 
ENDBRANCH  11  13
BRANCH  12  17
ATOM     17  O   UNL A   1      31.464  23.009  25.117  1.00  0.00    -0.390 OA
BRANCH  17  18
ATOM     18  C   UNL A   1      32.172  21.961  24.418  1.00  0.00     0.144 C 
ATOM     19  H   UNL A   1      31.810  21.937  23.411  1.00  0.00     0.079 H 
ATOM     20  H   UNL A   1      31.985  21.069  24.978  1.00  0.00     0.079 H 
BRANCH  18  21
ATOM     21  C   UNL A   1      33.697  22.091  24.360  1.00  0.00     0.016 A 
ATOM     22  C   UNL A   1      34.517  21.137  25.000  1.00  0.00    -0.053 A 
ATOM     23  C   UNL A   1      34.327  23.062  23.544  1.00  0.00     0.045 A 
ATOM     24  C   UNL A   1      35.902  21.122  24.845  1.00  0.00    -0.062 A 
ATOM     25  H   UNL A   1      34.075  20.426  25.605  1.00  0.00     0.063 H 
ATOM     26  C   UNL A   1      35.728  23.017  23.387  1.00  0.00    -0.038 A 
ATOM     27  C   UNL A   1      36.510  22.057  24.026  1.00  0.00    -0.060 A 
ATOM     28  H   UNL A   1      36.472  20.417  25.338  1.00  0.00     0.062 H 
ATOM     29  H   UNL A   1      36.188  23.715  22.781  1.00  0.00     0.064 H 
ATOM     30  H   UNL A   1      37.532  22.044  23.891  1.00  0.00     0.062 H 
BRANCH  23  31
ATOM     31  N   UNL A   1      33.571  24.055  22.873  1.00  0.00    -0.353 N 
ATOM     32  H   UNL A   1      32.901  23.722  22.234  1.00  0.00     0.167 HD
BRANCH  31  33
ATOM     33  C   UNL A   1      33.653  25.468  22.998  1.00  0.00     0.076 A 
ATOM     34  C   UNL A   1      33.311  26.284  21.896  1.00  0.00     0.066 A 
ATOM     35  C   UNL A   1      33.978  26.116  24.207  1.00  0.00     0.066 A 
ATOM     36  Cl  UNL A   1      32.903  25.578  20.365  1.00  0.00    -0.082 Cl
ATOM     37  C   UNL A   1      33.277  27.678  22.001  1.00  0.00    -0.041 A 
ATOM     38  C   UNL A   1      33.944  27.513  24.310  1.00  0.00    -0.041 A 
ATOM     39  Cl  UNL A   1      34.517  25.243  25.604  1.00  0.00    -0.082 Cl
ATOM     40  C   UNL A   1      33.587  28.293  23.212  1.00  0.00    -0.059 A 
ATOM     41  H   UNL A   1      33.023  28.252  21.181  1.00  0.00     0.064 H 
ATOM     42  H   UNL A   1      34.186  27.968  25.205  1.00  0.00     0.064 H 
ATOM     43  H   UNL A   1      33.552  29.320  23.295  1.00  0.00     0.062 H 
ENDBRANCH  31  33
ENDBRANCH  23  31
ENDBRANCH  18  21
ENDBRANCH  17  18
ENDBRANCH  12  17
ENDBRANCH   8  11
ENDBRANCH   4   7
ENDBRANCH   1   4
BRANCH   1  44
ATOM     44  C   UNL A   1      32.373  29.978  26.881  1.00  0.00    -0.052 C 
ATOM     45  H   UNL A   1      33.216  29.762  26.258  1.00  0.00     0.027 H 
ATOM     46  H   UNL A   1      32.635  30.531  27.759  1.00  0.00     0.027 H 
BRANCH  44  47
ATOM     47  C   UNL A   1      31.402  30.856  26.084  1.00  0.00    -0.052 C 
ATOM     48  H   UNL A   1      30.418  30.451  26.200  1.00  0.00     0.027 H 
ATOM     49  H   UNL A   1      31.749  30.843  25.073  1.00  0.00     0.027 H 
BRANCH  47  50
ATOM     50  C   UNL A   1      31.363  32.328  26.505  1.00  0.00    -0.036 C 
ATOM     51  H   UNL A   1      30.559  32.455  27.201  1.00  0.00     0.028 H 
ATOM     52  H   UNL A   1      31.234  32.898  25.609  1.00  0.00     0.028 H 
BRANCH  50  53
ATOM     53  C   UNL A   1      32.645  32.831  27.161  1.00  0.00     0.018 C 
ATOM     54  H   UNL A   1      33.441  32.785  26.447  1.00  0.00     0.049 H 
ATOM     55  H   UNL A   1      32.854  32.210  28.007  1.00  0.00     0.049 H 
BRANCH  53  56
ATOM     56  N   UNL A   1      32.507  34.203  27.626  1.00  0.00    -0.352 N 
ATOM     57  C   UNL A   1      33.103  34.823  28.695  1.00  0.00     0.251 C 
ATOM     58  H   UNL A   1      31.899  34.768  27.097  1.00  0.00     0.163 HD
ATOM     59  O   UNL A   1      32.693  35.909  29.091  1.00  0.00    -0.269 OA
BRANCH  57  60
ATOM     60  C   UNL A   1      34.243  34.175  29.378  1.00  0.00     0.039 A 
ATOM     61  C   UNL A   1      35.541  34.434  28.928  1.00  0.00    -0.049 A 
ATOM     62  C   UNL A   1      34.028  33.292  30.440  1.00  0.00    -0.049 A 
ATOM     63  C   UNL A   1      36.627  33.843  29.575  1.00  0.00    -0.053 A 
ATOM     64  H   UNL A   1      35.694  35.058  28.121  1.00  0.00     0.063 H 
ATOM     65  C   UNL A   1      35.114  32.756  31.125  1.00  0.00    -0.053 A 
ATOM     66  H   UNL A   1      33.067  33.036  30.715  1.00  0.00     0.063 H 
ATOM     67  C   UNL A   1      36.423  33.020  30.694  1.00  0.00    -0.014 A 
ATOM     68  H   UNL A   1      37.585  34.012  29.230  1.00  0.00     0.063 H 
ATOM     69  H   UNL A   1      34.957  32.162  31.955  1.00  0.00     0.063 H 
BRANCH  67  70
ATOM     70  C   UNL A   1      37.565  32.410  31.419  1.00  0.00     0.031 A 
ATOM     71  C   UNL A   1      38.318  31.262  30.806  1.00  0.00     0.074 A 
ATOM     72  C   UNL A   1      37.879  32.847  32.652  1.00  0.00     0.049 A 
ATOM     73  N   UNL A   1      39.292  30.546  31.310  1.00  0.00    -0.248 NA
ATOM     74  C   UNL A   1      37.902  30.845  29.459  1.00  0.00    -0.034 C 
ATOM     75  C   UNL A   1      37.194  33.924  33.368  1.00  0.00    -0.036 A 
ATOM     76  N   UNL A   1      38.853  32.433  33.527  1.00  0.00    -0.354 N 
ATOM     77  C   UNL A   1      39.589  29.587  30.353  1.00  0.00     0.074 A 
ATOM     78  C   UNL A   1      38.663  29.779  29.257  1.00  0.00    -0.034 C 
ATOM     79  H   UNL A   1      37.201  31.271  28.832  1.00  0.00     0.065 H 
ATOM     80  C   UNL A   1      37.784  34.104  34.560  1.00  0.00    -0.036 A 
ATOM     81  H   UNL A   1      36.387  34.460  33.012  1.00  0.00     0.065 H 
ATOM     82  C   UNL A   1      38.863  33.131  34.709  1.00  0.00     0.049 A 
ATOM     83  H   UNL A   1      39.484  31.705  33.325  1.00  0.00     0.167 HD
ATOM     84  C   UNL A   1      40.560  28.642  30.376  1.00  0.00     0.037 A 
ATOM     85  H   UNL A   1      38.603  29.167  28.428  1.00  0.00     0.065 H 
ATOM     86  H   UNL A   1      37.518  34.816  35.259  1.00  0.00     0.065 H 
ATOM     87  C   UNL A   1      39.651  32.995  35.792  1.00  0.00     0.037 A 
ATOM     88  C   UNL A   1      41.497  28.474  31.455  1.00  0.00     0.049 A 
ATOM     89  C   UNL A   1      40.728  31.944  35.790  1.00  0.00     0.074 A 
ATOM     90  C   UNL A   1      42.554  27.586  31.550  1.00  0.00    -0.036 A 
ATOM     91  N   UNL A   1      41.488  29.213  32.629  1.00  0.00    -0.354 N 
ATOM     92  N   UNL A   1      41.036  31.078  34.856  1.00  0.00    -0.248 NA
ATOM     93  C   UNL A   1      41.568  31.855  36.992  1.00  0.00    -0.034 C 
ATOM     94  C   UNL A   1      43.159  27.759  32.800  1.00  0.00    -0.036 A 
ATOM     95  H   UNL A   1      42.847  26.913  30.825  1.00  0.00     0.065 H 
ATOM     96  C   UNL A   1      42.510  28.788  33.464  1.00  0.00     0.049 A 
ATOM     97  H   UNL A   1      40.852  29.934  32.838  1.00  0.00     0.167 HD
ATOM     98  C   UNL A   1      42.118  30.359  35.343  1.00  0.00     0.074 A 
ATOM     99  C   UNL A   1      42.423  30.901  36.652  1.00  0.00    -0.034 C 
ATOM    100  H   UNL A   1      41.508  32.393  37.870  1.00  0.00     0.065 H 
ATOM    101  H   UNL A   1      43.953  27.212  33.166  1.00  0.00     0.065 H 
ATOM    102  C   UNL A   1      42.799  29.343  34.761  1.00  0.00     0.037 A 
ATOM    103  H   UNL A   1      43.207  30.584  37.244  1.00  0.00     0.065 H 
BRANCH  84 104
ATOM    104  C   UNL A   1      40.658  27.716  29.198  1.00  0.00     0.064 A 
ATOM    105  C   UNL A   1      39.806  26.610  29.056  1.00  0.00     0.173 A 
ATOM    106  C   UNL A   1      41.591  27.958  28.178  1.00  0.00     0.173 A 
ATOM    107  F   UNL A   1      38.903  26.328  30.007  1.00  0.00    -0.203 F 
ATOM    108  C   UNL A   1      39.905  25.766  27.954  1.00  0.00     0.198 A 
ATOM    109  C   UNL A   1      41.666  27.129  27.063  1.00  0.00     0.198 A 
ATOM    110  F   UNL A   1      42.426  29.006  28.260  1.00  0.00    -0.203 F 
ATOM    111  F   UNL A   1      39.113  24.687  27.865  1.00  0.00    -0.200 F 
ATOM    112  C   UNL A   1      40.828  26.029  26.955  1.00  0.00     0.200 A 
ATOM    113  F   UNL A   1      42.551  27.393  26.091  1.00  0.00    -0.200 F 
ATOM    114  F   UNL A   1      40.917  25.219  25.891  1.00  0.00    -0.200 F 
ENDBRANCH  84 104
BRANCH  87 115
ATOM    115  C   UNL A   1      39.464  33.893  36.961  1.00  0.00     0.064 A 
ATOM    116  C   UNL A   1      40.042  35.169  36.989  1.00  0.00     0.173 A 
ATOM    117  C   UNL A   1      38.707  33.494  38.072  1.00  0.00     0.173 A 
ATOM    118  F   UNL A   1      40.793  35.585  35.958  1.00  0.00    -0.203 F 
ATOM    119  C   UNL A   1      39.887  36.006  38.092  1.00  0.00     0.198 A 
ATOM    120  C   UNL A   1      38.528  34.342  39.163  1.00  0.00     0.198 A 
ATOM    121  F   UNL A   1      38.133  32.282  38.094  1.00  0.00    -0.203 F 
ATOM    122  F   UNL A   1      40.488  37.203  38.111  1.00  0.00    -0.200 F 
ATOM    123  C   UNL A   1      39.124  35.595  39.175  1.00  0.00     0.200 A 
ATOM    124  F   UNL A   1      37.781  33.945  40.201  1.00  0.00    -0.200 F 
ATOM    125  F   UNL A   1      38.972  36.400  40.234  1.00  0.00    -0.200 F 
ENDBRANCH  87 115
BRANCH 102 126
ATOM    126  C   UNL A   1      43.959  28.769  35.520  1.00  0.00     0.064 A 
ATOM    127  C   UNL A   1      45.263  29.258  35.353  1.00  0.00     0.173 A 
ATOM    128  C   UNL A   1      43.756  27.745  36.459  1.00  0.00     0.173 A 
ATOM    129  F   UNL A   1      45.511  30.224  34.456  1.00  0.00    -0.203 F 
ATOM    130  C   UNL A   1      46.325  28.726  36.079  1.00  0.00     0.198 A 
ATOM    131  C   UNL A   1      44.815  27.237  37.205  1.00  0.00     0.198 A 
ATOM    132  F   UNL A   1      42.528  27.247  36.662  1.00  0.00    -0.203 F 
ATOM    133  F   UNL A   1      47.570  29.177  35.869  1.00  0.00    -0.200 F 
ATOM    134  C   UNL A   1      46.100  27.723  37.009  1.00  0.00     0.200 A 
ATOM    135  F   UNL A   1      44.594  26.275  38.112  1.00  0.00    -0.200 F 
ATOM    136  F   UNL A   1      47.122  27.218  37.713  1.00  0.00    -0.200 F 
ENDBRANCH 102 126
ENDBRANCH  67  70
ENDBRANCH  57  60
ENDBRANCH  53  56
ENDBRANCH  50  53
ENDBRANCH  47  50
ENDBRANCH  44  47
ENDBRANCH   1  44
TORSDOF 19
ENDMDL
MODEL 3
REMARK VINA RESULT:     -12.0      4.270      8.589
REMARK SMILES C/C(=N/OCc1ccccc1Nc1c(Cl)cccc1Cl)C(=O)NCCCCCCNC(=O)c1ccc(-c2c3nc(c(-c4c(F)c(F)c(F)c(F)c4F)c4ccc([nH]4)c(-c4c(F)c(F)c(F)c(F)c4F)c4nc(c(-c5c(F)c(F)c(F)c(F)c5F)c5ccc2[nH]5)C=C4)C=C3)cc1
REMARK SMILES IDX 25 1 24 4 23 7 21 8 22 9 2 11 3 12 1 13 4 17 5 18 6 21 7 22
REMARK SMILES IDX 11 23 8 24 10 26 9 27 12 31 13 33 14 34 19 35 15 36 16 37
REMARK SMILES IDX 18 38 20 39 17 40 26 44 27 47 28 50 29 53 30 56 31 57 32 59
REMARK SMILES IDX 33 60 34 61 95 62 35 63 94 65 36 67 37 70 38 71 88 72 39 73
REMARK SMILES IDX 93 74 87 75 89 76 40 77 92 78 86 80 85 82 41 84 73 87 53 88
REMARK SMILES IDX 72 89 54 90 57 91 71 92 90 93 55 94 56 96 70 98 91 99 58 102
REMARK SMILES IDX 42 104 43 105 51 106 44 107 45 108 49 109 52 110 46 111
REMARK SMILES IDX 47 112 50 113 48 114 74 115 75 116 83 117 76 118 77 119
REMARK SMILES IDX 81 120 84 121 78 122 79 123 82 124 80 125 59 126 60 127
REMARK SMILES IDX 68 128 61 129 62 130 66 131 69 132 63 133 64 134 67 135
REMARK SMILES IDX 65 136
REMARK H PARENT 25 2 25 3 24 5 24 6 23 10 1 14 1 15 1 16 5 19 5 20 7 25 8 28
REMARK H PARENT 10 29 9 30 12 32 16 41 18 42 17 43 26 45 26 46 27 48 27 49
REMARK H PARENT 28 51 28 52 29 54 29 55 30 58 34 64 95 66 35 68 94 69 93 79
REMARK H PARENT 87 81 89 83 92 85 86 86 54 95 57 97 90 100 55 101 91 103
REMARK Flexibility Score: inf
ROOT
ATOM      1  C   UNL A   1      33.148  22.579  22.870  1.00  0.00    -0.036 C 
ATOM      2  H   UNL A   1      32.271  23.194  22.875  1.00  0.00     0.028 H 
ATOM      3  H   UNL A   1      33.165  21.906  22.040  1.00  0.00     0.028 H 
ENDROOT
BRANCH   1   4
ATOM      4  C   UNL A   1      33.149  21.726  24.148  1.00  0.00     0.018 C 
ATOM      5  H   UNL A   1      33.484  20.736  23.916  1.00  0.00     0.049 H 
ATOM      6  H   UNL A   1      33.809  22.164  24.868  1.00  0.00     0.049 H 
BRANCH   4   7
ATOM      7  N   UNL A   1      31.810  21.668  24.688  1.00  0.00    -0.351 N 
ATOM      8  C   UNL A   1      31.263  22.201  25.824  1.00  0.00     0.268 C 
ATOM      9  O   UNL A   1      30.162  21.772  26.177  1.00  0.00    -0.268 OA
ATOM     10  H   UNL A   1      31.176  21.154  24.138  1.00  0.00     0.163 HD
BRANCH   8  11
ATOM     11  C   UNL A   1      31.810  23.376  26.619  1.00  0.00     0.141 C 
ATOM     12  N   UNL A   1      31.315  24.552  26.875  1.00  0.00    -0.086 NA
BRANCH  11  13
ATOM     13  C   UNL A   1      33.203  23.131  27.163  1.00  0.00    -0.013 C 
ATOM     14  H   UNL A   1      33.821  22.724  26.390  1.00  0.00     0.030 H 
ATOM     15  H   UNL A   1      33.151  22.439  27.978  1.00  0.00     0.030 H 
ATOM     16  H   UNL A   1      33.621  24.054  27.505  1.00  0.00     0.030 H 
ENDBRANCH  11  13
BRANCH  12  17
ATOM     17  O   UNL A   1      30.005  24.763  26.472  1.00  0.00    -0.390 OA
BRANCH  17  18
ATOM     18  C   UNL A   1      29.878  26.073  25.874  1.00  0.00     0.144 C 
ATOM     19  H   UNL A   1      30.124  26.798  26.621  1.00  0.00     0.079 H 
ATOM     20  H   UNL A   1      28.871  26.126  25.519  1.00  0.00     0.079 H 
BRANCH  18  21
ATOM     21  C   UNL A   1      30.755  26.349  24.650  1.00  0.00     0.016 A 
ATOM     22  C   UNL A   1      30.805  25.422  23.587  1.00  0.00    -0.053 A 
ATOM     23  C   UNL A   1      31.409  27.593  24.473  1.00  0.00     0.045 A 
ATOM     24  C   UNL A   1      31.459  25.700  22.387  1.00  0.00    -0.062 A 
ATOM     25  H   UNL A   1      30.340  24.507  23.701  1.00  0.00     0.063 H 
ATOM     26  C   UNL A   1      32.049  27.860  23.244  1.00  0.00    -0.038 A 
ATOM     27  C   UNL A   1      32.074  26.926  22.210  1.00  0.00    -0.060 A 
ATOM     28  H   UNL A   1      31.486  24.994  21.635  1.00  0.00     0.062 H 
ATOM     29  H   UNL A   1      32.513  28.771  23.108  1.00  0.00     0.064 H 
ATOM     30  H   UNL A   1      32.547  27.148  21.320  1.00  0.00     0.062 H 
BRANCH  23  31
ATOM     31  N   UNL A   1      31.407  28.572  25.497  1.00  0.00    -0.353 N 
ATOM     32  H   UNL A   1      30.520  28.885  25.787  1.00  0.00     0.167 HD
BRANCH  31  33
ATOM     33  C   UNL A   1      32.515  29.166  26.159  1.00  0.00     0.076 A 
ATOM     34  C   UNL A   1      32.459  30.531  26.521  1.00  0.00     0.066 A 
ATOM     35  C   UNL A   1      33.653  28.436  26.560  1.00  0.00     0.066 A 
ATOM     36  Cl  UNL A   1      31.102  31.511  26.067  1.00  0.00    -0.082 Cl
ATOM     37  C   UNL A   1      33.479  31.133  27.264  1.00  0.00    -0.041 A 
ATOM     38  C   UNL A   1      34.675  29.042  27.303  1.00  0.00    -0.041 A 
ATOM     39  Cl  UNL A   1      33.900  26.785  26.093  1.00  0.00    -0.082 Cl
ATOM     40  C   UNL A   1      34.585  30.385  27.661  1.00  0.00    -0.059 A 
ATOM     41  H   UNL A   1      33.414  32.132  27.517  1.00  0.00     0.064 H 
ATOM     42  H   UNL A   1      35.500  28.489  27.587  1.00  0.00     0.064 H 
ATOM     43  H   UNL A   1      35.334  30.824  28.218  1.00  0.00     0.062 H 
ENDBRANCH  31  33
ENDBRANCH  23  31
ENDBRANCH  18  21
ENDBRANCH  17  18
ENDBRANCH  12  17
ENDBRANCH   8  11
ENDBRANCH   4   7
ENDBRANCH   1   4
BRANCH   1  44
ATOM     44  C   UNL A   1      34.378  23.487  22.742  1.00  0.00    -0.052 C 
ATOM     45  H   UNL A   1      34.104  24.341  22.158  1.00  0.00     0.027 H 
ATOM     46  H   UNL A   1      35.146  22.898  22.286  1.00  0.00     0.027 H 
BRANCH  44  47
ATOM     47  C   UNL A   1      34.942  23.982  24.078  1.00  0.00    -0.052 C 
ATOM     48  H   UNL A   1      34.347  23.565  24.864  1.00  0.00     0.027 H 
ATOM     49  H   UNL A   1      34.907  25.050  24.040  1.00  0.00     0.027 H 
BRANCH  47  50
ATOM     50  C   UNL A   1      36.404  23.611  24.342  1.00  0.00    -0.036 C 
ATOM     51  H   UNL A   1      37.025  24.356  23.889  1.00  0.00     0.028 H 
ATOM     52  H   UNL A   1      36.551  22.635  23.928  1.00  0.00     0.028 H 
BRANCH  50  53
ATOM     53  C   UNL A   1      36.775  23.517  25.819  1.00  0.00     0.018 C 
ATOM     54  H   UNL A   1      35.915  23.202  26.374  1.00  0.00     0.049 H 
ATOM     55  H   UNL A   1      37.107  24.481  26.143  1.00  0.00     0.049 H 
BRANCH  53  56
ATOM     56  N   UNL A   1      37.853  22.566  26.042  1.00  0.00    -0.352 N 
ATOM     57  C   UNL A   1      39.152  22.796  26.419  1.00  0.00     0.251 C 
ATOM     58  H   UNL A   1      37.617  21.620  25.902  1.00  0.00     0.163 HD
ATOM     59  O   UNL A   1      39.993  21.909  26.326  1.00  0.00    -0.269 OA
BRANCH  57  60
ATOM     60  C   UNL A   1      39.542  24.125  26.937  1.00  0.00     0.039 A 
ATOM     61  C   UNL A   1      39.283  24.436  28.275  1.00  0.00    -0.049 A 
ATOM     62  C   UNL A   1      40.133  25.072  26.095  1.00  0.00    -0.049 A 
ATOM     63  C   UNL A   1      39.662  25.680  28.781  1.00  0.00    -0.053 A 
ATOM     64  H   UNL A   1      38.814  23.748  28.885  1.00  0.00     0.063 H 
ATOM     65  C   UNL A   1      40.570  26.285  26.617  1.00  0.00    -0.053 A 
ATOM     66  H   UNL A   1      40.244  24.871  25.089  1.00  0.00     0.063 H 
ATOM     67  C   UNL A   1      40.331  26.604  27.962  1.00  0.00    -0.014 A 
ATOM     68  H   UNL A   1      39.451  25.922  29.762  1.00  0.00     0.063 H 
ATOM     69  H   UNL A   1      41.072  26.954  26.012  1.00  0.00     0.063 H 
BRANCH  67  70
ATOM     70  C   UNL A   1      40.775  27.918  28.488  1.00  0.00     0.031 A 
ATOM     71  C   UNL A   1      42.229  28.157  28.785  1.00  0.00     0.074 A 
ATOM     72  C   UNL A   1      39.862  28.870  28.757  1.00  0.00     0.049 A 
ATOM     73  N   UNL A   1      42.804  29.206  29.318  1.00  0.00    -0.248 NA
ATOM     74  C   UNL A   1      43.156  27.061  28.467  1.00  0.00    -0.034 C 
ATOM     75  C   UNL A   1      38.419  28.739  28.550  1.00  0.00    -0.036 A 
ATOM     76  N   UNL A   1      40.011  30.134  29.269  1.00  0.00    -0.354 N 
ATOM     77  C   UNL A   1      44.152  28.887  29.416  1.00  0.00     0.074 A 
ATOM     78  C   UNL A   1      44.303  27.532  28.933  1.00  0.00    -0.034 C 
ATOM     79  H   UNL A   1      42.963  26.159  28.002  1.00  0.00     0.065 H 
ATOM     80  C   UNL A   1      37.819  29.885  28.907  1.00  0.00    -0.036 A 
ATOM     81  H   UNL A   1      37.940  27.900  28.188  1.00  0.00     0.065 H 
ATOM     82  C   UNL A   1      38.827  30.817  29.403  1.00  0.00     0.049 A 
ATOM     83  H   UNL A   1      40.885  30.515  29.516  1.00  0.00     0.167 HD
ATOM     84  C   UNL A   1      45.174  29.663  29.852  1.00  0.00     0.037 A 
ATOM     85  H   UNL A   1      45.189  27.001  28.949  1.00  0.00     0.065 H 
ATOM     86  H   UNL A   1      36.806  30.077  28.842  1.00  0.00     0.065 H 
ATOM     87  C   UNL A   1      38.586  32.054  29.878  1.00  0.00     0.037 A 
ATOM     88  C   UNL A   1      45.022  31.020  30.304  1.00  0.00     0.049 A 
ATOM     89  C   UNL A   1      39.739  32.898  30.348  1.00  0.00     0.074 A 
ATOM     90  C   UNL A   1      46.000  31.910  30.710  1.00  0.00    -0.036 A 
ATOM     91  N   UNL A   1      43.808  31.685  30.408  1.00  0.00    -0.354 N 
ATOM     92  N   UNL A   1      41.017  32.606  30.386  1.00  0.00    -0.248 NA
ATOM     93  C   UNL A   1      39.417  34.244  30.840  1.00  0.00    -0.034 C 
ATOM     94  C   UNL A   1      45.375  33.100  31.101  1.00  0.00    -0.036 A 
ATOM     95  H   UNL A   1      47.016  31.729  30.723  1.00  0.00     0.065 H 
ATOM     96  C   UNL A   1      44.012  32.968  30.891  1.00  0.00     0.049 A 
ATOM     97  H   UNL A   1      42.933  31.303  30.171  1.00  0.00     0.167 HD
ATOM     98  C   UNL A   1      41.653  33.737  30.877  1.00  0.00     0.074 A 
ATOM     99  C   UNL A   1      40.621  34.727  31.112  1.00  0.00    -0.034 C 
ATOM    100  H   UNL A   1      38.495  34.696  30.945  1.00  0.00     0.065 H 
ATOM    101  H   UNL A   1      45.849  33.933  31.482  1.00  0.00     0.065 H 
ATOM    102  C   UNL A   1      42.972  33.939  31.114  1.00  0.00     0.037 A 
ATOM    103  H   UNL A   1      40.801  35.685  31.449  1.00  0.00     0.065 H 
BRANCH  84 104
ATOM    104  C   UNL A   1      46.549  29.060  29.860  1.00  0.00     0.064 A 
ATOM    105  C   UNL A   1      47.391  29.129  28.741  1.00  0.00     0.173 A 
ATOM    106  C   UNL A   1      47.045  28.436  31.015  1.00  0.00     0.173 A 
ATOM    107  F   UNL A   1      46.962  29.706  27.608  1.00  0.00    -0.203 F 
ATOM    108  C   UNL A   1      48.667  28.571  28.767  1.00  0.00     0.198 A 
ATOM    109  C   UNL A   1      48.332  27.906  31.048  1.00  0.00     0.198 A 
ATOM    110  F   UNL A   1      46.284  28.347  32.117  1.00  0.00    -0.203 F 
ATOM    111  F   UNL A   1      49.435  28.607  27.669  1.00  0.00    -0.200 F 
ATOM    112  C   UNL A   1      49.139  27.967  29.921  1.00  0.00     0.200 A 
ATOM    113  F   UNL A   1      48.792  27.334  32.169  1.00  0.00    -0.200 F 
ATOM    114  F   UNL A   1      50.370  27.437  29.948  1.00  0.00    -0.200 F 
ENDBRANCH  84 104
BRANCH  87 115
ATOM    115  C   UNL A   1      37.195  32.574  29.914  1.00  0.00     0.064 A 
ATOM    116  C   UNL A   1      36.686  33.340  28.855  1.00  0.00     0.173 A 
ATOM    117  C   UNL A   1      36.350  32.320  31.002  1.00  0.00     0.173 A 
ATOM    118  F   UNL A   1      37.467  33.627  27.803  1.00  0.00    -0.203 F 
ATOM    119  C   UNL A   1      35.390  33.848  28.894  1.00  0.00     0.198 A 
ATOM    120  C   UNL A   1      35.043  32.805  31.027  1.00  0.00     0.198 A 
ATOM    121  F   UNL A   1      36.790  31.593  32.039  1.00  0.00    -0.203 F 
ATOM    122  F   UNL A   1      34.944  34.615  27.890  1.00  0.00    -0.200 F 
ATOM    123  C   UNL A   1      34.567  33.574  29.976  1.00  0.00     0.200 A 
ATOM    124  F   UNL A   1      34.250  32.528  32.070  1.00  0.00    -0.200 F 
ATOM    125  F   UNL A   1      33.320  34.061  30.012  1.00  0.00    -0.200 F 
ENDBRANCH  87 115
BRANCH 102 126
ATOM    126  C   UNL A   1      43.379  35.290  31.626  1.00  0.00     0.064 A 
ATOM    127  C   UNL A   1      43.734  36.331  30.755  1.00  0.00     0.173 A 
ATOM    128  C   UNL A   1      43.372  35.559  33.003  1.00  0.00     0.173 A 
ATOM    129  F   UNL A   1      43.772  36.119  29.431  1.00  0.00    -0.203 F 
ATOM    130  C   UNL A   1      44.092  37.583  31.246  1.00  0.00     0.198 A 
ATOM    131  C   UNL A   1      43.700  36.821  33.489  1.00  0.00     0.198 A 
ATOM    132  F   UNL A   1      43.032  34.600  33.877  1.00  0.00    -0.203 F 
ATOM    133  F   UNL A   1      44.473  38.549  30.398  1.00  0.00    -0.200 F 
ATOM    134  C   UNL A   1      44.067  37.829  32.611  1.00  0.00     0.200 A 
ATOM    135  F   UNL A   1      43.664  37.060  34.807  1.00  0.00    -0.200 F 
ATOM    136  F   UNL A   1      44.404  39.038  33.081  1.00  0.00    -0.200 F 
ENDBRANCH 102 126
ENDBRANCH  67  70
ENDBRANCH  57  60
ENDBRANCH  53  56
ENDBRANCH  50  53
ENDBRANCH  47  50
ENDBRANCH  44  47
ENDBRANCH   1  44
TORSDOF 19
ENDMDL
MODEL 4
REMARK VINA RESULT:     -11.9      5.532     11.399
REMARK SMILES C/C(=N/OCc1ccccc1Nc1c(Cl)cccc1Cl)C(=O)NCCCCCCNC(=O)c1ccc(-c2c3nc(c(-c4c(F)c(F)c(F)c(F)c4F)c4ccc([nH]4)c(-c4c(F)c(F)c(F)c(F)c4F)c4nc(c(-c5c(F)c(F)c(F)c(F)c5F)c5ccc2[nH]5)C=C4)C=C3)cc1
REMARK SMILES IDX 25 1 24 4 23 7 21 8 22 9 2 11 3 12 1 13 4 17 5 18 6 21 7 22
REMARK SMILES IDX 11 23 8 24 10 26 9 27 12 31 13 33 14 34 19 35 15 36 16 37
REMARK SMILES IDX 18 38 20 39 17 40 26 44 27 47 28 50 29 53 30 56 31 57 32 59
REMARK SMILES IDX 33 60 34 61 95 62 35 63 94 65 36 67 37 70 38 71 88 72 39 73
REMARK SMILES IDX 93 74 87 75 89 76 40 77 92 78 86 80 85 82 41 84 73 87 53 88
REMARK SMILES IDX 72 89 54 90 57 91 71 92 90 93 55 94 56 96 70 98 91 99 58 102
REMARK SMILES IDX 42 104 43 105 51 106 44 107 45 108 49 109 52 110 46 111
REMARK SMILES IDX 47 112 50 113 48 114 74 115 75 116 83 117 76 118 77 119
REMARK SMILES IDX 81 120 84 121 78 122 79 123 82 124 80 125 59 126 60 127
REMARK SMILES IDX 68 128 61 129 62 130 66 131 69 132 63 133 64 134 67 135
REMARK SMILES IDX 65 136
REMARK H PARENT 25 2 25 3 24 5 24 6 23 10 1 14 1 15 1 16 5 19 5 20 7 25 8 28
REMARK H PARENT 10 29 9 30 12 32 16 41 18 42 17 43 26 45 26 46 27 48 27 49
REMARK H PARENT 28 51 28 52 29 54 29 55 30 58 34 64 95 66 35 68 94 69 93 79
REMARK H PARENT 87 81 89 83 92 85 86 86 54 95 57 97 90 100 55 101 91 103
REMARK Flexibility Score: inf
ROOT
ATOM      1  C   UNL A   1      35.933  22.490  24.116  1.00  0.00    -0.036 C 
ATOM      2  H   UNL A   1      36.076  22.703  23.077  1.00  0.00     0.028 H 
ATOM      3  H   UNL A   1      35.077  21.872  24.288  1.00  0.00     0.028 H 
ENDROOT
BRANCH   1   4
ATOM      4  C   UNL A   1      35.692  23.815  24.855  1.00  0.00     0.018 C 
ATOM      5  H   UNL A   1      36.514  24.013  25.511  1.00  0.00     0.049 H 
ATOM      6  H   UNL A   1      35.607  24.610  24.144  1.00  0.00     0.049 H 
BRANCH   4   7
ATOM      7  N   UNL A   1      34.472  23.720  25.624  1.00  0.00    -0.351 N 
ATOM      8  C   UNL A   1      33.204  24.176  25.381  1.00  0.00     0.268 C 
ATOM      9  O   UNL A   1      32.416  24.189  26.329  1.00  0.00    -0.268 OA
ATOM     10  H   UNL A   1      34.571  23.239  26.478  1.00  0.00     0.163 HD
BRANCH   8  11
ATOM     11  C   UNL A   1      32.623  24.533  24.022  1.00  0.00     0.141 C 
ATOM     12  N   UNL A   1      32.863  25.522  23.212  1.00  0.00    -0.086 NA
BRANCH  11  13
ATOM     13  C   UNL A   1      31.535  23.578  23.571  1.00  0.00    -0.013 C 
ATOM     14  H   UNL A   1      31.402  22.815  24.309  1.00  0.00     0.030 H 
ATOM     15  H   UNL A   1      31.818  23.130  22.641  1.00  0.00     0.030 H 
ATOM     16  H   UNL A   1      30.619  24.115  23.443  1.00  0.00     0.030 H 
ENDBRANCH  11  13
BRANCH  12  17
ATOM     17  O   UNL A   1      33.920  26.350  23.557  1.00  0.00    -0.390 OA
BRANCH  17  18
ATOM     18  C   UNL A   1      33.502  27.733  23.501  1.00  0.00     0.144 C 
ATOM     19  H   UNL A   1      32.664  27.793  22.838  1.00  0.00     0.079 H 
ATOM     20  H   UNL A   1      34.363  28.277  23.176  1.00  0.00     0.079 H 
BRANCH  18  21
ATOM     21  C   UNL A   1      33.092  28.374  24.829  1.00  0.00     0.016 A 
ATOM     22  C   UNL A   1      33.820  28.097  26.006  1.00  0.00    -0.053 A 
ATOM     23  C   UNL A   1      32.090  29.373  24.891  1.00  0.00     0.045 A 
ATOM     24  C   UNL A   1      33.587  28.775  27.202  1.00  0.00    -0.062 A 
ATOM     25  H   UNL A   1      34.549  27.367  25.981  1.00  0.00     0.063 H 
ATOM     26  C   UNL A   1      31.884  30.059  26.107  1.00  0.00    -0.038 A 
ATOM     27  C   UNL A   1      32.625  29.768  27.251  1.00  0.00    -0.060 A 
ATOM     28  H   UNL A   1      34.130  28.539  28.047  1.00  0.00     0.062 H 
ATOM     29  H   UNL A   1      31.164  30.797  26.150  1.00  0.00     0.064 H 
ATOM     30  H   UNL A   1      32.456  30.287  28.126  1.00  0.00     0.062 H 
BRANCH  23  31
ATOM     31  N   UNL A   1      31.315  29.703  23.753  1.00  0.00    -0.353 N 
ATOM     32  H   UNL A   1      31.821  30.009  22.966  1.00  0.00     0.167 HD
BRANCH  31  33
ATOM     33  C   UNL A   1      29.904  29.653  23.594  1.00  0.00     0.076 A 
ATOM     34  C   UNL A   1      29.144  30.834  23.750  1.00  0.00     0.066 A 
ATOM     35  C   UNL A   1      29.214  28.488  23.198  1.00  0.00     0.066 A 
ATOM     36  Cl  UNL A   1      29.903  32.315  24.241  1.00  0.00    -0.082 Cl
ATOM     37  C   UNL A   1      27.768  30.857  23.504  1.00  0.00    -0.041 A 
ATOM     38  C   UNL A   1      27.835  28.513  22.953  1.00  0.00    -0.041 A 
ATOM     39  Cl  UNL A   1      30.003  26.950  23.073  1.00  0.00    -0.082 Cl
ATOM     40  C   UNL A   1      27.114  29.696  23.098  1.00  0.00    -0.059 A 
ATOM     41  H   UNL A   1      27.236  31.734  23.624  1.00  0.00     0.064 H 
ATOM     42  H   UNL A   1      27.350  27.648  22.665  1.00  0.00     0.064 H 
ATOM     43  H   UNL A   1      26.101  29.712  22.906  1.00  0.00     0.062 H 
ENDBRANCH  31  33
ENDBRANCH  23  31
ENDBRANCH  18  21
ENDBRANCH  17  18
ENDBRANCH  12  17
ENDBRANCH   8  11
ENDBRANCH   4   7
ENDBRANCH   1   4
BRANCH   1  44
ATOM     44  C   UNL A   1      37.157  21.720  24.628  1.00  0.00    -0.052 C 
ATOM     45  H   UNL A   1      37.512  22.206  25.513  1.00  0.00     0.027 H 
ATOM     46  H   UNL A   1      37.874  21.725  23.834  1.00  0.00     0.027 H 
BRANCH  44  47
ATOM     47  C   UNL A   1      36.886  20.250  24.964  1.00  0.00    -0.052 C 
ATOM     48  H   UNL A   1      36.217  19.859  24.225  1.00  0.00     0.027 H 
ATOM     49  H   UNL A   1      36.479  20.240  25.953  1.00  0.00     0.027 H 
BRANCH  47  50
ATOM     50  C   UNL A   1      38.127  19.353  25.002  1.00  0.00    -0.036 C 
ATOM     51  H   UNL A   1      38.444  19.177  23.996  1.00  0.00     0.028 H 
ATOM     52  H   UNL A   1      37.840  18.457  25.513  1.00  0.00     0.028 H 
BRANCH  50  53
ATOM     53  C   UNL A   1      39.304  19.938  25.777  1.00  0.00     0.018 C 
ATOM     54  H   UNL A   1      38.971  20.217  26.756  1.00  0.00     0.049 H 
ATOM     55  H   UNL A   1      39.669  20.788  25.240  1.00  0.00     0.049 H 
BRANCH  53  56
ATOM     56  N   UNL A   1      40.391  18.979  25.904  1.00  0.00    -0.352 N 
ATOM     57  C   UNL A   1      41.740  19.204  26.013  1.00  0.00     0.251 C 
ATOM     58  H   UNL A   1      40.120  18.033  25.913  1.00  0.00     0.163 HD
ATOM     59  O   UNL A   1      42.538  18.284  25.867  1.00  0.00    -0.269 OA
BRANCH  57  60
ATOM     60  C   UNL A   1      42.237  20.566  26.304  1.00  0.00     0.039 A 
ATOM     61  C   UNL A   1      42.581  21.406  25.241  1.00  0.00    -0.049 A 
ATOM     62  C   UNL A   1      42.394  21.000  27.624  1.00  0.00    -0.049 A 
ATOM     63  C   UNL A   1      43.035  22.699  25.501  1.00  0.00    -0.053 A 
ATOM     64  H   UNL A   1      42.499  21.070  24.269  1.00  0.00     0.063 H 
ATOM     65  C   UNL A   1      42.783  22.311  27.880  1.00  0.00    -0.053 A 
ATOM     66  H   UNL A   1      42.222  20.349  28.407  1.00  0.00     0.063 H 
ATOM     67  C   UNL A   1      43.115  23.170  26.822  1.00  0.00    -0.014 A 
ATOM     68  H   UNL A   1      43.312  23.314  24.720  1.00  0.00     0.063 H 
ATOM     69  H   UNL A   1      42.828  22.653  28.853  1.00  0.00     0.063 H 
BRANCH  67  70
ATOM     70  C   UNL A   1      43.561  24.553  27.121  1.00  0.00     0.031 A 
ATOM     71  C   UNL A   1      42.573  25.571  27.619  1.00  0.00     0.074 A 
ATOM     72  C   UNL A   1      44.838  24.906  26.882  1.00  0.00     0.049 A 
ATOM     73  N   UNL A   1      42.749  26.845  27.864  1.00  0.00    -0.248 NA
ATOM     74  C   UNL A   1      41.198  25.100  27.845  1.00  0.00    -0.034 C 
ATOM     75  C   UNL A   1      45.877  24.018  26.359  1.00  0.00    -0.036 A 
ATOM     76  N   UNL A   1      45.478  26.110  27.042  1.00  0.00    -0.354 N 
ATOM     77  C   UNL A   1      41.507  27.328  28.252  1.00  0.00     0.074 A 
ATOM     78  C   UNL A   1      40.575  26.224  28.165  1.00  0.00    -0.034 C 
ATOM     79  H   UNL A   1      40.818  24.142  27.773  1.00  0.00     0.065 H 
ATOM     80  C   UNL A   1      47.030  24.699  26.266  1.00  0.00    -0.036 A 
ATOM     81  H   UNL A   1      45.744  23.027  26.103  1.00  0.00     0.065 H 
ATOM     82  C   UNL A   1      46.804  26.079  26.685  1.00  0.00     0.049 A 
ATOM     83  H   UNL A   1      45.029  26.918  27.380  1.00  0.00     0.167 HD
ATOM     84  C   UNL A   1      41.177  28.577  28.662  1.00  0.00     0.037 A 
ATOM     85  H   UNL A   1      39.559  26.302  28.331  1.00  0.00     0.065 H 
ATOM     86  H   UNL A   1      47.932  24.309  25.948  1.00  0.00     0.065 H 
ATOM     87  C   UNL A   1      47.728  27.058  26.691  1.00  0.00     0.037 A 
ATOM     88  C   UNL A   1      42.112  29.664  28.775  1.00  0.00     0.049 A 
ATOM     89  C   UNL A   1      47.338  28.434  27.159  1.00  0.00     0.074 A 
ATOM     90  C   UNL A   1      41.891  30.950  29.235  1.00  0.00    -0.036 A 
ATOM     91  N   UNL A   1      43.452  29.590  28.422  1.00  0.00    -0.354 N 
ATOM     92  N   UNL A   1      46.173  28.867  27.576  1.00  0.00    -0.248 NA
ATOM     93  C   UNL A   1      48.393  29.456  27.160  1.00  0.00    -0.034 C 
ATOM     94  C   UNL A   1      43.088  31.667  29.121  1.00  0.00    -0.036 A 
ATOM     95  H   UNL A   1      40.999  31.317  29.601  1.00  0.00     0.065 H 
ATOM     96  C   UNL A   1      44.066  30.814  28.636  1.00  0.00     0.049 A 
ATOM     97  H   UNL A   1      43.901  28.787  28.073  1.00  0.00     0.167 HD
ATOM     98  C   UNL A   1      46.359  30.199  27.913  1.00  0.00     0.074 A 
ATOM     99  C   UNL A   1      47.754  30.502  27.665  1.00  0.00    -0.034 C 
ATOM    100  H   UNL A   1      49.374  29.381  26.849  1.00  0.00     0.065 H 
ATOM    101  H   UNL A   1      43.219  32.662  29.357  1.00  0.00     0.065 H 
ATOM    102  C   UNL A   1      45.457  31.093  28.386  1.00  0.00     0.037 A 
ATOM    103  H   UNL A   1      48.193  31.415  27.857  1.00  0.00     0.065 H 
BRANCH  84 104
ATOM    104  C   UNL A   1      39.741  28.834  29.021  1.00  0.00     0.064 A 
ATOM    105  C   UNL A   1      39.263  28.646  30.326  1.00  0.00     0.173 A 
ATOM    106  C   UNL A   1      38.840  29.308  28.056  1.00  0.00     0.173 A 
ATOM    107  F   UNL A   1      40.080  28.184  31.285  1.00  0.00    -0.203 F 
ATOM    108  C   UNL A   1      37.930  28.895  30.645  1.00  0.00     0.198 A 
ATOM    109  C   UNL A   1      37.517  29.586  28.385  1.00  0.00     0.198 A 
ATOM    110  F   UNL A   1      39.247  29.511  26.793  1.00  0.00    -0.203 F 
ATOM    111  F   UNL A   1      37.485  28.661  31.887  1.00  0.00    -0.200 F 
ATOM    112  C   UNL A   1      37.060  29.372  29.677  1.00  0.00     0.200 A 
ATOM    113  F   UNL A   1      36.680  30.059  27.450  1.00  0.00    -0.200 F 
ATOM    114  F   UNL A   1      35.780  29.618  29.986  1.00  0.00    -0.200 F 
ENDBRANCH  84 104
BRANCH  87 115
ATOM    115  C   UNL A   1      49.118  26.766  26.256  1.00  0.00     0.064 A 
ATOM    116  C   UNL A   1      49.517  26.976  24.929  1.00  0.00     0.173 A 
ATOM    117  C   UNL A   1      50.073  26.270  27.155  1.00  0.00     0.173 A 
ATOM    118  F   UNL A   1      48.631  27.427  24.028  1.00  0.00    -0.203 F 
ATOM    119  C   UNL A   1      50.813  26.683  24.512  1.00  0.00     0.198 A 
ATOM    120  C   UNL A   1      51.378  26.004  26.744  1.00  0.00     0.198 A 
ATOM    121  F   UNL A   1      49.741  26.053  28.436  1.00  0.00    -0.203 F 
ATOM    122  F   UNL A   1      51.155  26.849  23.228  1.00  0.00    -0.200 F 
ATOM    123  C   UNL A   1      51.745  26.204  25.422  1.00  0.00     0.200 A 
ATOM    124  F   UNL A   1      52.276  25.553  27.629  1.00  0.00    -0.200 F 
ATOM    125  F   UNL A   1      52.992  25.925  25.022  1.00  0.00    -0.200 F 
ENDBRANCH  87 115
BRANCH 102 126
ATOM    126  C   UNL A   1      45.955  32.475  28.694  1.00  0.00     0.064 A 
ATOM    127  C   UNL A   1      46.472  32.807  29.956  1.00  0.00     0.173 A 
ATOM    128  C   UNL A   1      45.956  33.467  27.701  1.00  0.00     0.173 A 
ATOM    129  F   UNL A   1      46.477  31.898  30.942  1.00  0.00    -0.203 F 
ATOM    130  C   UNL A   1      46.947  34.089  30.219  1.00  0.00     0.198 A 
ATOM    131  C   UNL A   1      46.460  34.738  27.959  1.00  0.00     0.198 A 
ATOM    132  F   UNL A   1      45.480  33.198  26.477  1.00  0.00    -0.203 F 
ATOM    133  F   UNL A   1      47.392  34.397  31.445  1.00  0.00    -0.200 F 
ATOM    134  C   UNL A   1      46.948  35.050  29.219  1.00  0.00     0.200 A 
ATOM    135  F   UNL A   1      46.471  35.663  26.989  1.00  0.00    -0.200 F 
ATOM    136  F   UNL A   1      47.413  36.281  29.472  1.00  0.00    -0.200 F 
ENDBRANCH 102 126
ENDBRANCH  67  70
ENDBRANCH  57  60
ENDBRANCH  53  56
ENDBRANCH  50  53
ENDBRANCH  47  50
ENDBRANCH  44  47
ENDBRANCH   1  44
TORSDOF 19
ENDMDL
MODEL 5
REMARK VINA RESULT:     -11.9      0.585      7.242
REMARK SMILES C/C(=N/OCc1ccccc1Nc1c(Cl)cccc1Cl)C(=O)NCCCCCCNC(=O)c1ccc(-c2c3nc(c(-c4c(F)c(F)c(F)c(F)c4F)c4ccc([nH]4)c(-c4c(F)c(F)c(F)c(F)c4F)c4nc(c(-c5c(F)c(F)c(F)c(F)c5F)c5ccc2[nH]5)C=C4)C=C3)cc1
REMARK SMILES IDX 25 1 24 4 23 7 21 8 22 9 2 11 3 12 1 13 4 17 5 18 6 21 7 22
REMARK SMILES IDX 11 23 8 24 10 26 9 27 12 31 13 33 14 34 19 35 15 36 16 37
REMARK SMILES IDX 18 38 20 39 17 40 26 44 27 47 28 50 29 53 30 56 31 57 32 59
REMARK SMILES IDX 33 60 34 61 95 62 35 63 94 65 36 67 37 70 38 71 88 72 39 73
REMARK SMILES IDX 93 74 87 75 89 76 40 77 92 78 86 80 85 82 41 84 73 87 53 88
REMARK SMILES IDX 72 89 54 90 57 91 71 92 90 93 55 94 56 96 70 98 91 99 58 102
REMARK SMILES IDX 42 104 43 105 51 106 44 107 45 108 49 109 52 110 46 111
REMARK SMILES IDX 47 112 50 113 48 114 74 115 75 116 83 117 76 118 77 119
REMARK SMILES IDX 81 120 84 121 78 122 79 123 82 124 80 125 59 126 60 127
REMARK SMILES IDX 68 128 61 129 62 130 66 131 69 132 63 133 64 134 67 135
REMARK SMILES IDX 65 136
REMARK H PARENT 25 2 25 3 24 5 24 6 23 10 1 14 1 15 1 16 5 19 5 20 7 25 8 28
REMARK H PARENT 10 29 9 30 12 32 16 41 18 42 17 43 26 45 26 46 27 48 27 49
REMARK H PARENT 28 51 28 52 29 54 29 55 30 58 34 64 95 66 35 68 94 69 93 79
REMARK H PARENT 87 81 89 83 92 85 86 86 54 95 57 97 90 100 55 101 91 103
REMARK Flexibility Score: inf
ROOT
ATOM      1  C   UNL A   1      31.913  28.813  27.270  1.00  0.00    -0.036 C 
ATOM      2  H   UNL A   1      32.624  28.435  27.975  1.00  0.00     0.028 H 
ATOM      3  H   UNL A   1      30.947  28.956  27.706  1.00  0.00     0.028 H 
ENDROOT
BRANCH   1   4
ATOM      4  C   UNL A   1      31.754  27.784  26.140  1.00  0.00     0.018 C 
ATOM      5  H   UNL A   1      31.249  28.238  25.313  1.00  0.00     0.049 H 
ATOM      6  H   UNL A   1      32.720  27.448  25.825  1.00  0.00     0.049 H 
BRANCH   4   7
ATOM      7  N   UNL A   1      30.982  26.661  26.621  1.00  0.00    -0.351 N 
ATOM      8  C   UNL A   1      30.916  25.358  26.205  1.00  0.00     0.268 C 
ATOM      9  O   UNL A   1      29.975  24.678  26.623  1.00  0.00    -0.268 OA
ATOM     10  H   UNL A   1      30.400  26.870  27.386  1.00  0.00     0.163 HD
BRANCH   8  11
ATOM     11  C   UNL A   1      31.968  24.618  25.394  1.00  0.00     0.141 C 
ATOM     12  N   UNL A   1      32.941  23.833  25.753  1.00  0.00    -0.086 NA
BRANCH  11  13
ATOM     13  C   UNL A   1      31.879  24.897  23.907  1.00  0.00    -0.013 C 
ATOM     14  H   UNL A   1      31.283  24.142  23.438  1.00  0.00     0.030 H 
ATOM     15  H   UNL A   1      32.861  24.890  23.482  1.00  0.00     0.030 H 
ATOM     16  H   UNL A   1      31.430  25.855  23.750  1.00  0.00     0.030 H 
ENDBRANCH  11  13
BRANCH  12  17
ATOM     17  O   UNL A   1      32.983  23.486  27.094  1.00  0.00    -0.390 OA
BRANCH  17  18
ATOM     18  C   UNL A   1      33.936  22.419  27.299  1.00  0.00     0.144 C 
ATOM     19  H   UNL A   1      33.395  21.496  27.313  1.00  0.00     0.079 H 
ATOM     20  H   UNL A   1      34.434  22.655  28.216  1.00  0.00     0.079 H 
BRANCH  18  21
ATOM     21  C   UNL A   1      35.048  22.291  26.254  1.00  0.00     0.016 A 
ATOM     22  C   UNL A   1      35.972  23.341  26.067  1.00  0.00    -0.053 A 
ATOM     23  C   UNL A   1      35.281  21.076  25.566  1.00  0.00     0.045 A 
ATOM     24  C   UNL A   1      37.091  23.211  25.246  1.00  0.00    -0.062 A 
ATOM     25  H   UNL A   1      35.813  24.237  26.555  1.00  0.00     0.063 H 
ATOM     26  C   UNL A   1      36.429  20.959  24.754  1.00  0.00    -0.038 A 
ATOM     27  C   UNL A   1      37.328  22.013  24.596  1.00  0.00    -0.060 A 
ATOM     28  H   UNL A   1      37.740  24.004  25.123  1.00  0.00     0.062 H 
ATOM     29  H   UNL A   1      36.609  20.069  24.264  1.00  0.00     0.064 H 
ATOM     30  H   UNL A   1      38.162  21.900  24.000  1.00  0.00     0.062 H 
BRANCH  23  31
ATOM     31  N   UNL A   1      34.395  19.978  25.699  1.00  0.00    -0.353 N 
ATOM     32  H   UNL A   1      34.137  19.747  26.620  1.00  0.00     0.167 HD
BRANCH  31  33
ATOM     33  C   UNL A   1      33.830  19.164  24.680  1.00  0.00     0.076 A 
ATOM     34  C   UNL A   1      32.718  19.637  23.949  1.00  0.00     0.066 A 
ATOM     35  C   UNL A   1      34.381  17.925  24.291  1.00  0.00     0.066 A 
ATOM     36  Cl  UNL A   1      31.968  21.147  24.358  1.00  0.00    -0.082 Cl
ATOM     37  C   UNL A   1      32.191  18.919  22.871  1.00  0.00    -0.041 A 
ATOM     38  C   UNL A   1      33.852  17.207  23.211  1.00  0.00    -0.041 A 
ATOM     39  Cl  UNL A   1      35.678  17.179  25.166  1.00  0.00    -0.082 Cl
ATOM     40  C   UNL A   1      32.764  17.706  22.497  1.00  0.00    -0.059 A 
ATOM     41  H   UNL A   1      31.378  19.287  22.353  1.00  0.00     0.064 H 
ATOM     42  H   UNL A   1      34.270  16.302  22.943  1.00  0.00     0.064 H 
ATOM     43  H   UNL A   1      32.385  17.179  21.696  1.00  0.00     0.062 H 
ENDBRANCH  31  33
ENDBRANCH  23  31
ENDBRANCH  18  21
ENDBRANCH  17  18
ENDBRANCH  12  17
ENDBRANCH   8  11
ENDBRANCH   4   7
ENDBRANCH   1   4
BRANCH   1  44
ATOM     44  C   UNL A   1      32.396  30.185  26.781  1.00  0.00    -0.052 C 
ATOM     45  H   UNL A   1      33.186  30.031  26.076  1.00  0.00     0.027 H 
ATOM     46  H   UNL A   1      32.711  30.725  27.649  1.00  0.00     0.027 H 
BRANCH  44  47
ATOM     47  C   UNL A   1      31.312  31.035  26.108  1.00  0.00    -0.052 C 
ATOM     48  H   UNL A   1      30.360  30.611  26.350  1.00  0.00     0.027 H 
ATOM     49  H   UNL A   1      31.528  31.020  25.060  1.00  0.00     0.027 H 
BRANCH  47  50
ATOM     50  C   UNL A   1      31.294  32.510  26.520  1.00  0.00    -0.036 C 
ATOM     51  H   UNL A   1      30.515  32.646  27.240  1.00  0.00     0.028 H 
ATOM     52  H   UNL A   1      31.139  33.074  25.624  1.00  0.00     0.028 H 
BRANCH  50  53
ATOM     53  C   UNL A   1      32.600  33.010  27.130  1.00  0.00     0.018 C 
ATOM     54  H   UNL A   1      33.357  33.015  26.373  1.00  0.00     0.049 H 
ATOM     55  H   UNL A   1      32.866  32.356  27.934  1.00  0.00     0.049 H 
BRANCH  53  56
ATOM     56  N   UNL A   1      32.460  34.355  27.667  1.00  0.00    -0.352 N 
ATOM     57  C   UNL A   1      33.066  34.924  28.758  1.00  0.00     0.251 C 
ATOM     58  H   UNL A   1      31.841  34.943  27.175  1.00  0.00     0.163 HD
ATOM     59  O   UNL A   1      32.655  35.985  29.215  1.00  0.00    -0.269 OA
BRANCH  57  60
ATOM     60  C   UNL A   1      34.220  34.250  29.392  1.00  0.00     0.039 A 
ATOM     61  C   UNL A   1      33.987  33.302  30.393  1.00  0.00    -0.049 A 
ATOM     62  C   UNL A   1      35.527  34.577  29.021  1.00  0.00    -0.049 A 
ATOM     63  C   UNL A   1      35.066  32.646  30.987  1.00  0.00    -0.053 A 
ATOM     64  H   UNL A   1      33.022  33.089  30.690  1.00  0.00     0.063 H 
ATOM     65  C   UNL A   1      36.597  33.876  29.567  1.00  0.00    -0.053 A 
ATOM     66  H   UNL A   1      35.698  35.338  28.345  1.00  0.00     0.063 H 
ATOM     67  C   UNL A   1      36.378  32.910  30.561  1.00  0.00    -0.014 A 
ATOM     68  H   UNL A   1      34.899  31.963  31.743  1.00  0.00     0.063 H 
ATOM     69  H   UNL A   1      37.558  34.067  29.240  1.00  0.00     0.063 H 
BRANCH  67  70
ATOM     70  C   UNL A   1      37.537  32.200  31.154  1.00  0.00     0.031 A 
ATOM     71  C   UNL A   1      38.042  32.589  32.515  1.00  0.00     0.074 A 
ATOM     72  C   UNL A   1      38.172  31.252  30.440  1.00  0.00     0.049 A 
ATOM     73  N   UNL A   1      39.083  32.143  33.172  1.00  0.00    -0.248 NA
ATOM     74  C   UNL A   1      37.292  33.639  33.222  1.00  0.00    -0.034 C 
ATOM     75  C   UNL A   1      37.801  30.819  29.092  1.00  0.00    -0.036 A 
ATOM     76  N   UNL A   1      39.269  30.486  30.746  1.00  0.00    -0.354 N 
ATOM     77  C   UNL A   1      39.124  32.870  34.354  1.00  0.00     0.074 A 
ATOM     78  C   UNL A   1      38.032  33.818  34.306  1.00  0.00    -0.034 C 
ATOM     79  H   UNL A   1      36.417  34.112  32.945  1.00  0.00     0.065 H 
ATOM     80  C   UNL A   1      38.639  29.847  28.698  1.00  0.00    -0.036 A 
ATOM     81  H   UNL A   1      37.022  31.200  28.534  1.00  0.00     0.065 H 
ATOM     82  C   UNL A   1      39.627  29.614  29.747  1.00  0.00     0.049 A 
ATOM     83  H   UNL A   1      39.752  30.554  31.601  1.00  0.00     0.167 HD
ATOM     84  C   UNL A   1      39.982  32.743  35.394  1.00  0.00     0.037 A 
ATOM     85  H   UNL A   1      37.853  34.540  35.022  1.00  0.00     0.065 H 
ATOM     86  H   UNL A   1      38.592  29.344  27.797  1.00  0.00     0.065 H 
ATOM     87  C   UNL A   1      40.644  28.733  29.685  1.00  0.00     0.037 A 
ATOM     88  C   UNL A   1      41.048  31.779  35.449  1.00  0.00     0.049 A 
ATOM     89  C   UNL A   1      41.578  28.607  30.857  1.00  0.00     0.074 A 
ATOM     90  C   UNL A   1      41.936  31.531  36.481  1.00  0.00    -0.036 A 
ATOM     91  N   UNL A   1      41.369  30.899  34.426  1.00  0.00    -0.354 N 
ATOM     92  N   UNL A   1      41.574  29.261  31.993  1.00  0.00    -0.248 NA
ATOM     93  C   UNL A   1      42.657  27.617  30.740  1.00  0.00    -0.034 C 
ATOM     94  C   UNL A   1      42.823  30.531  36.065  1.00  0.00    -0.036 A 
ATOM     95  H   UNL A   1      41.944  32.001  37.399  1.00  0.00     0.065 H 
ATOM     96  C   UNL A   1      42.455  30.121  34.793  1.00  0.00     0.049 A 
ATOM     97  H   UNL A   1      40.895  30.837  33.565  1.00  0.00     0.167 HD
ATOM     98  C   UNL A   1      42.628  28.747  32.735  1.00  0.00     0.074 A 
ATOM     99  C   UNL A   1      43.243  27.715  31.925  1.00  0.00    -0.034 C 
ATOM    100  H   UNL A   1      42.897  27.005  29.944  1.00  0.00     0.065 H 
ATOM    101  H   UNL A   1      43.615  30.162  36.612  1.00  0.00     0.065 H 
ATOM    102  C   UNL A   1      43.050  29.096  33.974  1.00  0.00     0.037 A 
ATOM    103  H   UNL A   1      44.036  27.130  32.232  1.00  0.00     0.065 H 
BRANCH  84 104
ATOM    104  C   UNL A   1      39.803  33.674  36.559  1.00  0.00     0.064 A 
ATOM    105  C   UNL A   1      40.467  34.908  36.627  1.00  0.00     0.173 A 
ATOM    106  C   UNL A   1      38.929  33.343  37.606  1.00  0.00     0.173 A 
ATOM    107  F   UNL A   1      41.322  35.267  35.657  1.00  0.00    -0.203 F 
ATOM    108  C   UNL A   1      40.285  35.762  37.711  1.00  0.00     0.198 A 
ATOM    109  C   UNL A   1      38.726  34.214  38.673  1.00  0.00     0.198 A 
ATOM    110  F   UNL A   1      38.264  32.178  37.590  1.00  0.00    -0.203 F 
ATOM    111  F   UNL A   1      40.967  36.914  37.776  1.00  0.00    -0.200 F 
ATOM    112  C   UNL A   1      39.410  35.419  38.729  1.00  0.00     0.200 A 
ATOM    113  F   UNL A   1      37.869  33.885  39.650  1.00  0.00    -0.200 F 
ATOM    114  F   UNL A   1      39.230  36.246  39.768  1.00  0.00    -0.200 F 
ENDBRANCH  84 104
BRANCH  87 115
ATOM    115  C   UNL A   1      40.817  27.887  28.476  1.00  0.00     0.064 A 
ATOM    116  C   UNL A   1      41.610  28.319  27.404  1.00  0.00     0.173 A 
ATOM    117  C   UNL A   1      40.195  26.636  28.367  1.00  0.00     0.173 A 
ATOM    118  F   UNL A   1      42.207  29.519  27.454  1.00  0.00    -0.203 F 
ATOM    119  C   UNL A   1      41.759  27.538  26.260  1.00  0.00     0.198 A 
ATOM    120  C   UNL A   1      40.367  25.843  27.234  1.00  0.00     0.198 A 
ATOM    121  F   UNL A   1      39.426  26.179  29.366  1.00  0.00    -0.203 F 
ATOM    122  F   UNL A   1      42.485  27.995  25.231  1.00  0.00    -0.200 F 
ATOM    123  C   UNL A   1      41.143  26.298  26.178  1.00  0.00     0.200 A 
ATOM    124  F   UNL A   1      39.779  24.642  27.166  1.00  0.00    -0.200 F 
ATOM    125  F   UNL A   1      41.288  25.547  25.079  1.00  0.00    -0.200 F 
ENDBRANCH  87 115
BRANCH 102 126
ATOM    126  C   UNL A   1      44.213  28.338  34.543  1.00  0.00     0.064 A 
ATOM    127  C   UNL A   1      44.035  27.140  35.252  1.00  0.00     0.173 A 
ATOM    128  C   UNL A   1      45.525  28.793  34.340  1.00  0.00     0.173 A 
ATOM    129  F   UNL A   1      42.799  26.673  35.486  1.00  0.00    -0.203 F 
ATOM    130  C   UNL A   1      45.126  26.440  35.758  1.00  0.00     0.198 A 
ATOM    131  C   UNL A   1      46.615  28.074  34.821  1.00  0.00     0.198 A 
ATOM    132  F   UNL A   1      45.749  29.929  33.663  1.00  0.00    -0.203 F 
ATOM    133  F   UNL A   1      44.930  25.323  36.472  1.00  0.00    -0.200 F 
ATOM    134  C   UNL A   1      46.414  26.902  35.535  1.00  0.00     0.200 A 
ATOM    135  F   UNL A   1      47.860  28.516  34.595  1.00  0.00    -0.200 F 
ATOM    136  F   UNL A   1      47.465  26.222  36.016  1.00  0.00    -0.200 F 
ENDBRANCH 102 126
ENDBRANCH  67  70
ENDBRANCH  57  60
ENDBRANCH  53  56
ENDBRANCH  50  53
ENDBRANCH  47  50
ENDBRANCH  44  47
ENDBRANCH   1  44
TORSDOF 19
ENDMDL
MODEL 6
REMARK VINA RESULT:     -11.9      4.430      8.520
REMARK SMILES C/C(=N/OCc1ccccc1Nc1c(Cl)cccc1Cl)C(=O)NCCCCCCNC(=O)c1ccc(-c2c3nc(c(-c4c(F)c(F)c(F)c(F)c4F)c4ccc([nH]4)c(-c4c(F)c(F)c(F)c(F)c4F)c4nc(c(-c5c(F)c(F)c(F)c(F)c5F)c5ccc2[nH]5)C=C4)C=C3)cc1
REMARK SMILES IDX 25 1 24 4 23 7 21 8 22 9 2 11 3 12 1 13 4 17 5 18 6 21 7 22
REMARK SMILES IDX 11 23 8 24 10 26 9 27 12 31 13 33 14 34 19 35 15 36 16 37
REMARK SMILES IDX 18 38 20 39 17 40 26 44 27 47 28 50 29 53 30 56 31 57 32 59
REMARK SMILES IDX 33 60 34 61 95 62 35 63 94 65 36 67 37 70 38 71 88 72 39 73
REMARK SMILES IDX 93 74 87 75 89 76 40 77 92 78 86 80 85 82 41 84 73 87 53 88
REMARK SMILES IDX 72 89 54 90 57 91 71 92 90 93 55 94 56 96 70 98 91 99 58 102
REMARK SMILES IDX 42 104 43 105 51 106 44 107 45 108 49 109 52 110 46 111
REMARK SMILES IDX 47 112 50 113 48 114 74 115 75 116 83 117 76 118 77 119
REMARK SMILES IDX 81 120 84 121 78 122 79 123 82 124 80 125 59 126 60 127
REMARK SMILES IDX 68 128 61 129 62 130 66 131 69 132 63 133 64 134 67 135
REMARK SMILES IDX 65 136
REMARK H PARENT 25 2 25 3 24 5 24 6 23 10 1 14 1 15 1 16 5 19 5 20 7 25 8 28
REMARK H PARENT 10 29 9 30 12 32 16 41 18 42 17 43 26 45 26 46 27 48 27 49
REMARK H PARENT 28 51 28 52 29 54 29 55 30 58 34 64 95 66 35 68 94 69 93 79
REMARK H PARENT 87 81 89 83 92 85 86 86 54 95 57 97 90 100 55 101 91 103
REMARK Flexibility Score: inf
ROOT
ATOM      1  C   UNL A   1      32.549  22.754  26.884  1.00  0.00    -0.036 C 
ATOM      2  H   UNL A   1      32.530  21.991  26.132  1.00  0.00     0.028 H 
ATOM      3  H   UNL A   1      31.905  22.526  27.707  1.00  0.00     0.028 H 
ENDROOT
BRANCH   1   4
ATOM      4  C   UNL A   1      32.044  24.064  26.260  1.00  0.00     0.018 C 
ATOM      5  H   UNL A   1      31.541  24.644  27.006  1.00  0.00     0.049 H 
ATOM      6  H   UNL A   1      32.874  24.621  25.879  1.00  0.00     0.049 H 
BRANCH   4   7
ATOM      7  N   UNL A   1      31.128  23.761  25.185  1.00  0.00    -0.351 N 
ATOM      8  C   UNL A   1      31.294  23.741  23.826  1.00  0.00     0.268 C 
ATOM      9  O   UNL A   1      30.274  23.709  23.132  1.00  0.00    -0.268 OA
ATOM     10  H   UNL A   1      30.220  23.526  25.484  1.00  0.00     0.163 HD
BRANCH   8  11
ATOM     11  C   UNL A   1      32.613  23.606  23.083  1.00  0.00     0.141 C 
ATOM     12  N   UNL A   1      33.228  24.404  22.262  1.00  0.00    -0.086 NA
BRANCH  11  13
ATOM     13  C   UNL A   1      33.296  22.273  23.321  1.00  0.00    -0.013 C 
ATOM     14  H   UNL A   1      33.624  22.217  24.339  1.00  0.00     0.030 H 
ATOM     15  H   UNL A   1      34.141  22.184  22.670  1.00  0.00     0.030 H 
ATOM     16  H   UNL A   1      32.608  21.479  23.124  1.00  0.00     0.030 H 
ENDBRANCH  11  13
BRANCH  12  17
ATOM     17  O   UNL A   1      32.673  25.665  22.106  1.00  0.00    -0.390 OA
BRANCH  17  18
ATOM     18  C   UNL A   1      33.477  26.647  22.798  1.00  0.00     0.144 C 
ATOM     19  H   UNL A   1      33.466  27.546  22.218  1.00  0.00     0.079 H 
ATOM     20  H   UNL A   1      34.443  26.199  22.903  1.00  0.00     0.079 H 
BRANCH  18  21
ATOM     21  C   UNL A   1      33.039  27.005  24.221  1.00  0.00     0.016 A 
ATOM     22  C   UNL A   1      34.002  27.200  25.234  1.00  0.00    -0.053 A 
ATOM     23  C   UNL A   1      31.689  27.304  24.526  1.00  0.00     0.045 A 
ATOM     24  C   UNL A   1      33.665  27.680  26.499  1.00  0.00    -0.062 A 
ATOM     25  H   UNL A   1      34.990  26.980  25.030  1.00  0.00     0.063 H 
ATOM     26  C   UNL A   1      31.373  27.805  25.807  1.00  0.00    -0.038 A 
ATOM     27  C   UNL A   1      32.349  27.995  26.783  1.00  0.00    -0.060 A 
ATOM     28  H   UNL A   1      34.394  27.800  27.219  1.00  0.00     0.062 H 
ATOM     29  H   UNL A   1      30.392  28.037  26.027  1.00  0.00     0.064 H 
ATOM     30  H   UNL A   1      32.091  28.367  27.710  1.00  0.00     0.062 H 
BRANCH  23  31
ATOM     31  N   UNL A   1      30.665  27.128  23.563  1.00  0.00    -0.353 N 
ATOM     32  H   UNL A   1      30.635  26.245  23.129  1.00  0.00     0.167 HD
BRANCH  31  33
ATOM     33  C   UNL A   1      29.676  28.056  23.139  1.00  0.00     0.076 A 
ATOM     34  C   UNL A   1      28.317  27.806  23.430  1.00  0.00     0.066 A 
ATOM     35  C   UNL A   1      29.989  29.278  22.508  1.00  0.00     0.066 A 
ATOM     36  Cl  UNL A   1      27.834  26.327  24.199  1.00  0.00    -0.082 Cl
ATOM     37  C   UNL A   1      27.319  28.737  23.125  1.00  0.00    -0.041 A 
ATOM     38  C   UNL A   1      28.988  30.209  22.202  1.00  0.00    -0.041 A 
ATOM     39  Cl  UNL A   1      31.599  29.666  22.000  1.00  0.00    -0.082 Cl
ATOM     40  C   UNL A   1      27.657  29.943  22.516  1.00  0.00    -0.059 A 
ATOM     41  H   UNL A   1      26.333  28.531  23.349  1.00  0.00     0.064 H 
ATOM     42  H   UNL A   1      29.238  31.098  21.740  1.00  0.00     0.064 H 
ATOM     43  H   UNL A   1      26.925  30.637  22.300  1.00  0.00     0.062 H 
ENDBRANCH  31  33
ENDBRANCH  23  31
ENDBRANCH  18  21
ENDBRANCH  17  18
ENDBRANCH  12  17
ENDBRANCH   8  11
ENDBRANCH   4   7
ENDBRANCH   1   4
BRANCH   1  44
ATOM     44  C   UNL A   1      33.976  22.853  27.439  1.00  0.00    -0.052 C 
ATOM     45  H   UNL A   1      34.097  22.100  28.189  1.00  0.00     0.027 H 
ATOM     46  H   UNL A   1      34.086  23.846  27.823  1.00  0.00     0.027 H 
BRANCH  44  47
ATOM     47  C   UNL A   1      35.078  22.666  26.390  1.00  0.00    -0.052 C 
ATOM     48  H   UNL A   1      34.691  22.047  25.608  1.00  0.00     0.027 H 
ATOM     49  H   UNL A   1      35.909  22.230  26.905  1.00  0.00     0.027 H 
BRANCH  47  50
ATOM     50  C   UNL A   1      35.598  23.960  25.758  1.00  0.00    -0.036 C 
ATOM     51  H   UNL A   1      35.734  24.682  26.536  1.00  0.00     0.028 H 
ATOM     52  H   UNL A   1      34.870  24.259  25.033  1.00  0.00     0.028 H 
BRANCH  50  53
ATOM     53  C   UNL A   1      36.920  23.811  25.010  1.00  0.00     0.018 C 
ATOM     54  H   UNL A   1      37.476  24.721  25.104  1.00  0.00     0.049 H 
ATOM     55  H   UNL A   1      36.702  23.600  23.984  1.00  0.00     0.049 H 
BRANCH  53  56
ATOM     56  N   UNL A   1      37.715  22.714  25.541  1.00  0.00    -0.352 N 
ATOM     57  C   UNL A   1      38.892  22.754  26.245  1.00  0.00     0.251 C 
ATOM     58  H   UNL A   1      37.356  21.813  25.370  1.00  0.00     0.163 HD
ATOM     59  O   UNL A   1      39.555  21.735  26.405  1.00  0.00    -0.269 OA
BRANCH  57  60
ATOM     60  C   UNL A   1      39.368  24.035  26.809  1.00  0.00     0.039 A 
ATOM     61  C   UNL A   1      40.121  24.894  26.004  1.00  0.00    -0.049 A 
ATOM     62  C   UNL A   1      39.098  24.371  28.139  1.00  0.00    -0.049 A 
ATOM     63  C   UNL A   1      40.561  26.114  26.519  1.00  0.00    -0.053 A 
ATOM     64  H   UNL A   1      40.349  24.628  25.034  1.00  0.00     0.063 H 
ATOM     65  C   UNL A   1      39.481  25.615  28.630  1.00  0.00    -0.053 A 
ATOM     66  H   UNL A   1      38.617  23.697  28.756  1.00  0.00     0.063 H 
ATOM     67  C   UNL A   1      40.223  26.495  27.828  1.00  0.00    -0.014 A 
ATOM     68  H   UNL A   1      41.138  26.741  25.935  1.00  0.00     0.063 H 
ATOM     69  H   UNL A   1      39.218  25.892  29.589  1.00  0.00     0.063 H 
BRANCH  67  70
ATOM     70  C   UNL A   1      40.651  27.801  28.384  1.00  0.00     0.031 A 
ATOM     71  C   UNL A   1      42.094  28.034  28.734  1.00  0.00     0.074 A 
ATOM     72  C   UNL A   1      39.731  28.751  28.633  1.00  0.00     0.049 A 
ATOM     73  N   UNL A   1      42.653  29.075  29.299  1.00  0.00    -0.248 NA
ATOM     74  C   UNL A   1      43.030  26.940  28.435  1.00  0.00    -0.034 C 
ATOM     75  C   UNL A   1      38.295  28.626  28.376  1.00  0.00    -0.036 A 
ATOM     76  N   UNL A   1      39.865  30.009  29.166  1.00  0.00    -0.354 N 
ATOM     77  C   UNL A   1      43.996  28.753  29.439  1.00  0.00     0.074 A 
ATOM     78  C   UNL A   1      44.162  27.403  28.944  1.00  0.00    -0.034 C 
ATOM     79  H   UNL A   1      42.852  26.044  27.952  1.00  0.00     0.065 H 
ATOM     80  C   UNL A   1      37.685  29.768  28.727  1.00  0.00    -0.036 A 
ATOM     81  H   UNL A   1      37.828  27.792  27.988  1.00  0.00     0.065 H 
ATOM     82  C   UNL A   1      38.678  30.692  29.268  1.00  0.00     0.049 A 
ATOM     83  H   UNL A   1      40.729  30.385  29.448  1.00  0.00     0.167 HD
ATOM     84  C   UNL A   1      45.003  29.521  29.919  1.00  0.00     0.037 A 
ATOM     85  H   UNL A   1      45.046  26.871  28.984  1.00  0.00     0.065 H 
ATOM     86  H   UNL A   1      36.676  29.963  28.629  1.00  0.00     0.065 H 
ATOM     87  C   UNL A   1      38.422  31.923  29.750  1.00  0.00     0.037 A 
ATOM     88  C   UNL A   1      44.838  30.873  30.382  1.00  0.00     0.049 A 
ATOM     89  C   UNL A   1      39.560  32.760  30.269  1.00  0.00     0.074 A 
ATOM     90  C   UNL A   1      45.803  31.756  30.832  1.00  0.00    -0.036 A 
ATOM     91  N   UNL A   1      43.623  31.539  30.452  1.00  0.00    -0.354 N 
ATOM     92  N   UNL A   1      40.835  32.465  30.347  1.00  0.00    -0.248 NA
ATOM     93  C   UNL A   1      39.223  34.101  30.766  1.00  0.00    -0.034 C 
ATOM     94  C   UNL A   1      45.167  32.942  31.216  1.00  0.00    -0.036 A 
ATOM     95  H   UNL A   1      46.818  31.573  30.877  1.00  0.00     0.065 H 
ATOM     96  C   UNL A   1      43.811  32.816  30.958  1.00  0.00     0.049 A 
ATOM     97  H   UNL A   1      42.755  31.161  30.182  1.00  0.00     0.167 HD
ATOM     98  C   UNL A   1      41.455  33.589  30.873  1.00  0.00     0.074 A 
ATOM     99  C   UNL A   1      40.417  34.578  31.085  1.00  0.00    -0.034 C 
ATOM    100  H   UNL A   1      38.298  34.553  30.845  1.00  0.00     0.065 H 
ATOM    101  H   UNL A   1      45.629  33.770  31.623  1.00  0.00     0.065 H 
ATOM    102  C   UNL A   1      42.766  33.786  31.157  1.00  0.00     0.037 A 
ATOM    103  H   UNL A   1      40.588  35.532  31.439  1.00  0.00     0.065 H 
BRANCH  84 104
ATOM    104  C   UNL A   1      46.376  28.915  29.967  1.00  0.00     0.064 A 
ATOM    105  C   UNL A   1      46.806  28.149  31.060  1.00  0.00     0.173 A 
ATOM    106  C   UNL A   1      47.262  29.073  28.890  1.00  0.00     0.173 A 
ATOM    107  F   UNL A   1      46.003  27.976  32.120  1.00  0.00    -0.203 F 
ATOM    108  C   UNL A   1      48.080  27.588  31.087  1.00  0.00     0.198 A 
ATOM    109  C   UNL A   1      48.524  28.485  28.906  1.00  0.00     0.198 A 
ATOM    110  F   UNL A   1      46.900  29.792  27.816  1.00  0.00    -0.203 F 
ATOM    111  F   UNL A   1      48.486  26.900  32.164  1.00  0.00    -0.200 F 
ATOM    112  C   UNL A   1      48.935  27.750  30.008  1.00  0.00     0.200 A 
ATOM    113  F   UNL A   1      49.344  28.632  27.856  1.00  0.00    -0.200 F 
ATOM    114  F   UNL A   1      50.159  27.203  30.031  1.00  0.00    -0.200 F 
ENDBRANCH  84 104
BRANCH  87 115
ATOM    115  C   UNL A   1      37.031  32.446  29.744  1.00  0.00     0.064 A 
ATOM    116  C   UNL A   1      36.546  33.187  28.657  1.00  0.00     0.173 A 
ATOM    117  C   UNL A   1      36.163  32.219  30.821  1.00  0.00     0.173 A 
ATOM    118  F   UNL A   1      37.348  33.448  27.614  1.00  0.00    -0.203 F 
ATOM    119  C   UNL A   1      35.249  33.697  28.657  1.00  0.00     0.198 A 
ATOM    120  C   UNL A   1      34.858  32.706  30.808  1.00  0.00     0.198 A 
ATOM    121  F   UNL A   1      36.581  31.517  31.884  1.00  0.00    -0.203 F 
ATOM    122  F   UNL A   1      34.825  34.440  27.626  1.00  0.00    -0.200 F 
ATOM    123  C   UNL A   1      34.404  33.450  29.729  1.00  0.00     0.200 A 
ATOM    124  F   UNL A   1      34.043  32.455  31.840  1.00  0.00    -0.200 F 
ATOM    125  F   UNL A   1      33.157  33.939  29.727  1.00  0.00    -0.200 F 
ENDBRANCH  87 115
BRANCH 102 126
ATOM    126  C   UNL A   1      43.157  35.129  31.699  1.00  0.00     0.064 A 
ATOM    127  C   UNL A   1      43.599  36.162  30.859  1.00  0.00     0.173 A 
ATOM    128  C   UNL A   1      43.047  35.400  33.072  1.00  0.00     0.173 A 
ATOM    129  F   UNL A   1      43.736  35.947  29.541  1.00  0.00    -0.203 F 
ATOM    130  C   UNL A   1      43.940  37.408  31.376  1.00  0.00     0.198 A 
ATOM    131  C   UNL A   1      43.361  36.657  33.581  1.00  0.00     0.198 A 
ATOM    132  F   UNL A   1      42.623  34.449  33.917  1.00  0.00    -0.203 F 
ATOM    133  F   UNL A   1      44.404  38.365  30.560  1.00  0.00    -0.200 F 
ATOM    134  C   UNL A   1      43.814  37.657  32.734  1.00  0.00     0.200 A 
ATOM    135  F   UNL A   1      43.227  36.899  34.893  1.00  0.00    -0.200 F 
ATOM    136  F   UNL A   1      44.136  38.860  33.230  1.00  0.00    -0.200 F 
ENDBRANCH 102 126
ENDBRANCH  67  70
ENDBRANCH  57  60
ENDBRANCH  53  56
ENDBRANCH  50  53
ENDBRANCH  47  50
ENDBRANCH  44  47
ENDBRANCH   1  44
TORSDOF 19
ENDMDL
MODEL 7
REMARK VINA RESULT:     -11.8      2.547      8.172
REMARK SMILES C/C(=N/OCc1ccccc1Nc1c(Cl)cccc1Cl)C(=O)NCCCCCCNC(=O)c1ccc(-c2c3nc(c(-c4c(F)c(F)c(F)c(F)c4F)c4ccc([nH]4)c(-c4c(F)c(F)c(F)c(F)c4F)c4nc(c(-c5c(F)c(F)c(F)c(F)c5F)c5ccc2[nH]5)C=C4)C=C3)cc1
REMARK SMILES IDX 25 1 24 4 23 7 21 8 22 9 2 11 3 12 1 13 4 17 5 18 6 21 7 22
REMARK SMILES IDX 11 23 8 24 10 26 9 27 12 31 13 33 14 34 19 35 15 36 16 37
REMARK SMILES IDX 18 38 20 39 17 40 26 44 27 47 28 50 29 53 30 56 31 57 32 59
REMARK SMILES IDX 33 60 34 61 95 62 35 63 94 65 36 67 37 70 38 71 88 72 39 73
REMARK SMILES IDX 93 74 87 75 89 76 40 77 92 78 86 80 85 82 41 84 73 87 53 88
REMARK SMILES IDX 72 89 54 90 57 91 71 92 90 93 55 94 56 96 70 98 91 99 58 102
REMARK SMILES IDX 42 104 43 105 51 106 44 107 45 108 49 109 52 110 46 111
REMARK SMILES IDX 47 112 50 113 48 114 74 115 75 116 83 117 76 118 77 119
REMARK SMILES IDX 81 120 84 121 78 122 79 123 82 124 80 125 59 126 60 127
REMARK SMILES IDX 68 128 61 129 62 130 66 131 69 132 63 133 64 134 67 135
REMARK SMILES IDX 65 136
REMARK H PARENT 25 2 25 3 24 5 24 6 23 10 1 14 1 15 1 16 5 19 5 20 7 25 8 28
REMARK H PARENT 10 29 9 30 12 32 16 41 18 42 17 43 26 45 26 46 27 48 27 49
REMARK H PARENT 28 51 28 52 29 54 29 55 30 58 34 64 95 66 35 68 94 69 93 79
REMARK H PARENT 87 81 89 83 92 85 86 86 54 95 57 97 90 100 55 101 91 103
REMARK Flexibility Score: inf
ROOT
ATOM      1  C   UNL A   1      35.556  31.929  27.912  1.00  0.00    -0.036 C 
ATOM      2  H   UNL A   1      36.193  31.771  27.066  1.00  0.00     0.028 H 
ATOM      3  H   UNL A   1      36.016  31.618  28.827  1.00  0.00     0.028 H 
ENDROOT
BRANCH   1   4
ATOM      4  C   UNL A   1      34.287  31.083  27.730  1.00  0.00     0.018 C 
ATOM      5  H   UNL A   1      33.885  30.831  28.690  1.00  0.00     0.049 H 
ATOM      6  H   UNL A   1      33.561  31.643  27.178  1.00  0.00     0.049 H 
BRANCH   4   7
ATOM      7  N   UNL A   1      34.615  29.873  27.011  1.00  0.00    -0.351 N 
ATOM      8  C   UNL A   1      33.843  28.820  26.602  1.00  0.00     0.268 C 
ATOM      9  O   UNL A   1      34.428  27.795  26.242  1.00  0.00    -0.268 OA
ATOM     10  H   UNL A   1      35.567  29.793  26.772  1.00  0.00     0.163 HD
BRANCH   8  11
ATOM     11  C   UNL A   1      32.335  28.834  26.405  1.00  0.00     0.141 C 
ATOM     12  N   UNL A   1      31.600  29.156  25.382  1.00  0.00    -0.086 NA
BRANCH  11  13
ATOM     13  C   UNL A   1      31.568  28.444  27.653  1.00  0.00    -0.013 C 
ATOM     14  H   UNL A   1      31.413  29.311  28.261  1.00  0.00     0.030 H 
ATOM     15  H   UNL A   1      32.129  27.718  28.205  1.00  0.00     0.030 H 
ATOM     16  H   UNL A   1      30.623  28.029  27.376  1.00  0.00     0.030 H 
ENDBRANCH  11  13
BRANCH  12  17
ATOM     17  O   UNL A   1      32.279  29.420  24.202  1.00  0.00    -0.390 OA
BRANCH  17  18
ATOM     18  C   UNL A   1      31.532  28.904  23.077  1.00  0.00     0.144 C 
ATOM     19  H   UNL A   1      32.137  28.166  22.594  1.00  0.00     0.079 H 
ATOM     20  H   UNL A   1      31.306  29.757  22.472  1.00  0.00     0.079 H 
BRANCH  18  21
ATOM     21  C   UNL A   1      30.179  28.262  23.396  1.00  0.00     0.016 A 
ATOM     22  C   UNL A   1      28.980  28.921  23.051  1.00  0.00    -0.053 A 
ATOM     23  C   UNL A   1      30.087  26.939  23.892  1.00  0.00     0.045 A 
ATOM     24  C   UNL A   1      27.733  28.311  23.175  1.00  0.00    -0.062 A 
ATOM     25  H   UNL A   1      29.029  29.889  22.695  1.00  0.00     0.063 H 
ATOM     26  C   UNL A   1      28.816  26.334  23.993  1.00  0.00    -0.038 A 
ATOM     27  C   UNL A   1      27.650  27.009  23.636  1.00  0.00    -0.060 A 
ATOM     28  H   UNL A   1      26.875  28.827  22.925  1.00  0.00     0.062 H 
ATOM     29  H   UNL A   1      28.748  25.365  24.340  1.00  0.00     0.064 H 
ATOM     30  H   UNL A   1      26.734  26.542  23.716  1.00  0.00     0.062 H 
BRANCH  23  31
ATOM     31  N   UNL A   1      31.246  26.214  24.264  1.00  0.00    -0.353 N 
ATOM     32  H   UNL A   1      31.908  26.712  24.795  1.00  0.00     0.167 HD
BRANCH  31  33
ATOM     33  C   UNL A   1      31.581  24.865  23.972  1.00  0.00     0.076 A 
ATOM     34  C   UNL A   1      32.257  24.561  22.769  1.00  0.00     0.066 A 
ATOM     35  C   UNL A   1      31.350  23.803  24.871  1.00  0.00     0.066 A 
ATOM     36  Cl  UNL A   1      32.580  25.800  21.599  1.00  0.00    -0.082 Cl
ATOM     37  C   UNL A   1      32.699  23.265  22.485  1.00  0.00    -0.041 A 
ATOM     38  C   UNL A   1      31.793  22.504  24.584  1.00  0.00    -0.041 A 
ATOM     39  Cl  UNL A   1      30.442  24.014  26.331  1.00  0.00    -0.082 Cl
ATOM     40  C   UNL A   1      32.472  22.237  23.397  1.00  0.00    -0.059 A 
ATOM     41  H   UNL A   1      33.192  23.069  21.599  1.00  0.00     0.064 H 
ATOM     42  H   UNL A   1      31.613  21.741  25.256  1.00  0.00     0.064 H 
ATOM     43  H   UNL A   1      32.806  21.282  23.196  1.00  0.00     0.062 H 
ENDBRANCH  31  33
ENDBRANCH  23  31
ENDBRANCH  18  21
ENDBRANCH  17  18
ENDBRANCH  12  17
ENDBRANCH   8  11
ENDBRANCH   4   7
ENDBRANCH   1   4
BRANCH   1  44
ATOM     44  C   UNL A   1      35.276  33.432  28.035  1.00  0.00    -0.052 C 
ATOM     45  H   UNL A   1      34.653  33.725  27.216  1.00  0.00     0.027 H 
ATOM     46  H   UNL A   1      36.227  33.922  28.032  1.00  0.00     0.027 H 
BRANCH  44  47
ATOM     47  C   UNL A   1      34.578  33.841  29.337  1.00  0.00    -0.052 C 
ATOM     48  H   UNL A   1      35.261  34.434  29.908  1.00  0.00     0.027 H 
ATOM     49  H   UNL A   1      34.297  32.931  29.824  1.00  0.00     0.027 H 
BRANCH  47  50
ATOM     50  C   UNL A   1      33.287  34.646  29.157  1.00  0.00    -0.036 C 
ATOM     51  H   UNL A   1      32.505  34.148  29.691  1.00  0.00     0.028 H 
ATOM     52  H   UNL A   1      33.106  34.698  28.103  1.00  0.00     0.028 H 
BRANCH  50  53
ATOM     53  C   UNL A   1      33.365  36.085  29.657  1.00  0.00     0.018 C 
ATOM     54  H   UNL A   1      33.058  36.743  28.871  1.00  0.00     0.049 H 
ATOM     55  H   UNL A   1      34.376  36.283  29.949  1.00  0.00     0.049 H 
BRANCH  53  56
ATOM     56  N   UNL A   1      32.508  36.298  30.813  1.00  0.00    -0.352 N 
ATOM     57  C   UNL A   1      32.584  35.744  32.066  1.00  0.00     0.251 C 
ATOM     58  H   UNL A   1      31.767  36.932  30.677  1.00  0.00     0.163 HD
ATOM     59  O   UNL A   1      31.644  35.844  32.848  1.00  0.00    -0.269 OA
BRANCH  57  60
ATOM     60  C   UNL A   1      33.804  35.017  32.476  1.00  0.00     0.039 A 
ATOM     61  C   UNL A   1      33.689  33.706  32.946  1.00  0.00    -0.049 A 
ATOM     62  C   UNL A   1      35.055  35.641  32.426  1.00  0.00    -0.049 A 
ATOM     63  C   UNL A   1      34.835  33.003  33.320  1.00  0.00    -0.053 A 
ATOM     64  H   UNL A   1      32.761  33.260  33.016  1.00  0.00     0.063 H 
ATOM     65  C   UNL A   1      36.202  34.917  32.736  1.00  0.00    -0.053 A 
ATOM     66  H   UNL A   1      35.127  36.636  32.162  1.00  0.00     0.063 H 
ATOM     67  C   UNL A   1      36.102  33.594  33.194  1.00  0.00    -0.014 A 
ATOM     68  H   UNL A   1      34.751  32.043  33.690  1.00  0.00     0.063 H 
ATOM     69  H   UNL A   1      37.130  35.355  32.629  1.00  0.00     0.063 H 
BRANCH  67  70
ATOM     70  C   UNL A   1      37.337  32.854  33.552  1.00  0.00     0.031 A 
ATOM     71  C   UNL A   1      38.049  33.157  34.840  1.00  0.00     0.074 A 
ATOM     72  C   UNL A   1      37.848  31.957  32.689  1.00  0.00     0.049 A 
ATOM     73  N   UNL A   1      39.178  32.676  35.296  1.00  0.00    -0.248 NA
ATOM     74  C   UNL A   1      37.424  34.156  35.720  1.00  0.00    -0.034 C 
ATOM     75  C   UNL A   1      37.270  31.609  31.390  1.00  0.00    -0.036 A 
ATOM     76  N   UNL A   1      38.976  31.179  32.770  1.00  0.00    -0.354 N 
ATOM     77  C   UNL A   1      39.406  33.326  36.502  1.00  0.00     0.074 A 
ATOM     78  C   UNL A   1      38.324  34.270  36.685  1.00  0.00    -0.034 C 
ATOM     79  H   UNL A   1      36.519  34.642  35.614  1.00  0.00     0.065 H 
ATOM     80  C   UNL A   1      38.031  30.669  30.808  1.00  0.00    -0.036 A 
ATOM     81  H   UNL A   1      36.414  32.021  30.986  1.00  0.00     0.065 H 
ATOM     82  C   UNL A   1      39.170  30.375  31.673  1.00  0.00     0.049 A 
ATOM     83  H   UNL A   1      39.586  31.195  33.542  1.00  0.00     0.167 HD
ATOM     84  C   UNL A   1      40.416  33.138  37.385  1.00  0.00     0.037 A 
ATOM     85  H   UNL A   1      38.263  34.943  37.465  1.00  0.00     0.065 H 
ATOM     86  H   UNL A   1      37.841  30.224  29.896  1.00  0.00     0.065 H 
ATOM     87  C   UNL A   1      40.160  29.506  31.398  1.00  0.00     0.037 A 
ATOM     88  C   UNL A   1      41.473  32.178  37.212  1.00  0.00     0.049 A 
ATOM     89  C   UNL A   1      41.265  29.309  32.399  1.00  0.00     0.074 A 
ATOM     90  C   UNL A   1      42.510  31.870  38.074  1.00  0.00    -0.036 A 
ATOM     91  N   UNL A   1      41.626  31.368  36.096  1.00  0.00    -0.354 N 
ATOM     92  N   UNL A   1      41.442  29.890  33.561  1.00  0.00    -0.248 NA
ATOM     93  C   UNL A   1      42.308  28.335  32.052  1.00  0.00    -0.034 C 
ATOM     94  C   UNL A   1      43.316  30.903  37.462  1.00  0.00    -0.036 A 
ATOM     95  H   UNL A   1      42.662  32.280  39.008  1.00  0.00     0.065 H 
ATOM     96  C   UNL A   1      42.753  30.573  36.239  1.00  0.00     0.049 A 
ATOM     97  H   UNL A   1      41.023  31.358  35.318  1.00  0.00     0.167 HD
ATOM     98  C   UNL A   1      42.596  29.334  34.095  1.00  0.00     0.074 A 
ATOM     99  C   UNL A   1      43.072  28.360  33.135  1.00  0.00    -0.034 C 
ATOM    100  H   UNL A   1      42.418  27.777  31.190  1.00  0.00     0.065 H 
ATOM    101  H   UNL A   1      44.182  30.504  37.854  1.00  0.00     0.065 H 
ATOM    102  C   UNL A   1      43.207  29.606  35.273  1.00  0.00     0.037 A 
ATOM    103  H   UNL A   1      43.901  27.761  33.277  1.00  0.00     0.065 H 
BRANCH  84 104
ATOM    104  C   UNL A   1      40.425  33.991  38.621  1.00  0.00     0.064 A 
ATOM    105  C   UNL A   1      41.105  35.217  38.666  1.00  0.00     0.173 A 
ATOM    106  C   UNL A   1      39.714  33.595  39.765  1.00  0.00     0.173 A 
ATOM    107  F   UNL A   1      41.808  35.638  37.604  1.00  0.00    -0.203 F 
ATOM    108  C   UNL A   1      41.098  36.000  39.818  1.00  0.00     0.198 A 
ATOM    109  C   UNL A   1      39.684  34.394  40.904  1.00  0.00     0.198 A 
ATOM    110  F   UNL A   1      39.041  32.434  39.774  1.00  0.00    -0.203 F 
ATOM    111  F   UNL A   1      41.796  37.144  39.853  1.00  0.00    -0.200 F 
ATOM    112  C   UNL A   1      40.383  35.592  40.933  1.00  0.00     0.200 A 
ATOM    113  F   UNL A   1      38.981  34.004  41.976  1.00  0.00    -0.200 F 
ATOM    114  F   UNL A   1      40.371  36.350  42.038  1.00  0.00    -0.200 F 
ENDBRANCH  84 104
BRANCH  87 115
ATOM    115  C   UNL A   1      40.139  28.739  30.125  1.00  0.00     0.064 A 
ATOM    116  C   UNL A   1      40.752  29.246  28.970  1.00  0.00     0.173 A 
ATOM    117  C   UNL A   1      39.507  27.491  30.036  1.00  0.00     0.173 A 
ATOM    118  F   UNL A   1      41.349  30.447  29.002  1.00  0.00    -0.203 F 
ATOM    119  C   UNL A   1      40.716  28.541  27.769  1.00  0.00     0.198 A 
ATOM    120  C   UNL A   1      39.496  26.774  28.841  1.00  0.00     0.198 A 
ATOM    121  F   UNL A   1      38.907  26.964  31.113  1.00  0.00    -0.203 F 
ATOM    122  F   UNL A   1      41.270  29.069  26.669  1.00  0.00    -0.200 F 
ATOM    123  C   UNL A   1      40.095  27.303  27.707  1.00  0.00     0.200 A 
ATOM    124  F   UNL A   1      38.905  25.574  28.791  1.00  0.00    -0.200 F 
ATOM    125  F   UNL A   1      40.063  26.624  26.553  1.00  0.00    -0.200 F 
ENDBRANCH  87 115
BRANCH 102 126
ATOM    126  C   UNL A   1      44.441  28.819  35.604  1.00  0.00     0.064 A 
ATOM    127  C   UNL A   1      44.375  27.608  36.309  1.00  0.00     0.173 A 
ATOM    128  C   UNL A   1      45.702  29.262  35.174  1.00  0.00     0.173 A 
ATOM    129  F   UNL A   1      43.195  27.152  36.756  1.00  0.00    -0.203 F 
ATOM    130  C   UNL A   1      45.528  26.881  36.592  1.00  0.00     0.198 A 
ATOM    131  C   UNL A   1      46.849  28.517  35.432  1.00  0.00     0.198 A 
ATOM    132  F   UNL A   1      45.819  30.410  34.491  1.00  0.00    -0.203 F 
ATOM    133  F   UNL A   1      45.446  25.750  37.307  1.00  0.00    -0.200 F 
ATOM    134  C   UNL A   1      46.762  27.332  36.147  1.00  0.00     0.200 A 
ATOM    135  F   UNL A   1      48.039  28.948  34.991  1.00  0.00    -0.200 F 
ATOM    136  F   UNL A   1      47.870  26.627  36.414  1.00  0.00    -0.200 F 
ENDBRANCH 102 126
ENDBRANCH  67  70
ENDBRANCH  57  60
ENDBRANCH  53  56
ENDBRANCH  50  53
ENDBRANCH  47  50
ENDBRANCH  44  47
ENDBRANCH   1  44
TORSDOF 19
ENDMDL
MODEL 8
REMARK VINA RESULT:     -11.7      2.328      8.038
REMARK SMILES C/C(=N/OCc1ccccc1Nc1c(Cl)cccc1Cl)C(=O)NCCCCCCNC(=O)c1ccc(-c2c3nc(c(-c4c(F)c(F)c(F)c(F)c4F)c4ccc([nH]4)c(-c4c(F)c(F)c(F)c(F)c4F)c4nc(c(-c5c(F)c(F)c(F)c(F)c5F)c5ccc2[nH]5)C=C4)C=C3)cc1
REMARK SMILES IDX 25 1 24 4 23 7 21 8 22 9 2 11 3 12 1 13 4 17 5 18 6 21 7 22
REMARK SMILES IDX 11 23 8 24 10 26 9 27 12 31 13 33 14 34 19 35 15 36 16 37
REMARK SMILES IDX 18 38 20 39 17 40 26 44 27 47 28 50 29 53 30 56 31 57 32 59
REMARK SMILES IDX 33 60 34 61 95 62 35 63 94 65 36 67 37 70 38 71 88 72 39 73
REMARK SMILES IDX 93 74 87 75 89 76 40 77 92 78 86 80 85 82 41 84 73 87 53 88
REMARK SMILES IDX 72 89 54 90 57 91 71 92 90 93 55 94 56 96 70 98 91 99 58 102
REMARK SMILES IDX 42 104 43 105 51 106 44 107 45 108 49 109 52 110 46 111
REMARK SMILES IDX 47 112 50 113 48 114 74 115 75 116 83 117 76 118 77 119
REMARK SMILES IDX 81 120 84 121 78 122 79 123 82 124 80 125 59 126 60 127
REMARK SMILES IDX 68 128 61 129 62 130 66 131 69 132 63 133 64 134 67 135
REMARK SMILES IDX 65 136
REMARK H PARENT 25 2 25 3 24 5 24 6 23 10 1 14 1 15 1 16 5 19 5 20 7 25 8 28
REMARK H PARENT 10 29 9 30 12 32 16 41 18 42 17 43 26 45 26 46 27 48 27 49
REMARK H PARENT 28 51 28 52 29 54 29 55 30 58 34 64 95 66 35 68 94 69 93 79
REMARK H PARENT 87 81 89 83 92 85 86 86 54 95 57 97 90 100 55 101 91 103
REMARK Flexibility Score: inf
ROOT
ATOM      1  C   UNL A   1      34.756  31.461  28.676  1.00  0.00    -0.036 C 
ATOM      2  H   UNL A   1      35.441  31.537  29.496  1.00  0.00     0.028 H 
ATOM      3  H   UNL A   1      33.773  31.185  28.995  1.00  0.00     0.028 H 
ENDROOT
BRANCH   1   4
ATOM      4  C   UNL A   1      35.253  30.359  27.729  1.00  0.00     0.018 C 
ATOM      5  H   UNL A   1      35.322  30.747  26.734  1.00  0.00     0.049 H 
ATOM      6  H   UNL A   1      36.218  30.023  28.047  1.00  0.00     0.049 H 
BRANCH   4   7
ATOM      7  N   UNL A   1      34.323  29.252  27.751  1.00  0.00    -0.351 N 
ATOM      8  C   UNL A   1      33.070  29.105  27.219  1.00  0.00     0.268 C 
ATOM      9  O   UNL A   1      32.395  28.153  27.617  1.00  0.00    -0.268 OA
ATOM     10  H   UNL A   1      34.652  28.461  28.235  1.00  0.00     0.163 HD
BRANCH   8  11
ATOM     11  C   UNL A   1      32.478  29.914  26.076  1.00  0.00     0.141 C 
ATOM     12  N   UNL A   1      32.558  29.773  24.786  1.00  0.00    -0.086 NA
BRANCH  11  13
ATOM     13  C   UNL A   1      31.697  31.126  26.546  1.00  0.00    -0.013 C 
ATOM     14  H   UNL A   1      31.551  31.067  27.605  1.00  0.00     0.030 H 
ATOM     15  H   UNL A   1      30.746  31.150  26.056  1.00  0.00     0.030 H 
ATOM     16  H   UNL A   1      32.242  32.015  26.310  1.00  0.00     0.030 H 
ENDBRANCH  11  13
BRANCH  12  17
ATOM     17  O   UNL A   1      33.183  28.620  24.335  1.00  0.00    -0.390 OA
BRANCH  17  18
ATOM     18  C   UNL A   1      32.430  28.046  23.243  1.00  0.00     0.144 C 
ATOM     19  H   UNL A   1      32.959  27.181  22.901  1.00  0.00     0.079 H 
ATOM     20  H   UNL A   1      32.341  28.828  22.518  1.00  0.00     0.079 H 
BRANCH  18  21
ATOM     21  C   UNL A   1      30.993  27.619  23.558  1.00  0.00     0.016 A 
ATOM     22  C   UNL A   1      29.906  28.410  23.130  1.00  0.00    -0.053 A 
ATOM     23  C   UNL A   1      30.706  26.359  24.138  1.00  0.00     0.045 A 
ATOM     24  C   UNL A   1      28.583  27.986  23.252  1.00  0.00    -0.062 A 
ATOM     25  H   UNL A   1      30.097  29.335  22.712  1.00  0.00     0.063 H 
ATOM     26  C   UNL A   1      29.362  25.943  24.236  1.00  0.00    -0.038 A 
ATOM     27  C   UNL A   1      28.310  26.744  23.796  1.00  0.00    -0.060 A 
ATOM     28  H   UNL A   1      27.812  28.596  22.939  1.00  0.00     0.062 H 
ATOM     29  H   UNL A   1      29.151  25.019  24.644  1.00  0.00     0.064 H 
ATOM     30  H   UNL A   1      27.336  26.413  23.875  1.00  0.00     0.062 H 
BRANCH  23  31
ATOM     31  N   UNL A   1      31.744  25.511  24.597  1.00  0.00    -0.353 N 
ATOM     32  H   UNL A   1      32.444  25.946  25.135  1.00  0.00     0.167 HD
BRANCH  31  33
ATOM     33  C   UNL A   1      31.911  24.116  24.382  1.00  0.00     0.076 A 
ATOM     34  C   UNL A   1      32.539  23.665  23.199  1.00  0.00     0.066 A 
ATOM     35  C   UNL A   1      31.558  23.142  25.339  1.00  0.00     0.066 A 
ATOM     36  Cl  UNL A   1      33.004  24.788  21.961  1.00  0.00    -0.082 Cl
ATOM     37  C   UNL A   1      32.818  22.311  22.989  1.00  0.00    -0.041 A 
ATOM     38  C   UNL A   1      31.838  21.786  25.126  1.00  0.00    -0.041 A 
ATOM     39  Cl  UNL A   1      30.689  23.544  26.784  1.00  0.00    -0.082 Cl
ATOM     40  C   UNL A   1      32.474  21.372  23.958  1.00  0.00    -0.059 A 
ATOM     41  H   UNL A   1      33.279  22.008  22.117  1.00  0.00     0.064 H 
ATOM     42  H   UNL A   1      31.570  21.089  25.840  1.00  0.00     0.064 H 
ATOM     43  H   UNL A   1      32.688  20.374  23.811  1.00  0.00     0.062 H 
ENDBRANCH  31  33
ENDBRANCH  23  31
ENDBRANCH  18  21
ENDBRANCH  17  18
ENDBRANCH  12  17
ENDBRANCH   8  11
ENDBRANCH   4   7
ENDBRANCH   1   4
BRANCH   1  44
ATOM     44  C   UNL A   1      34.645  32.836  28.006  1.00  0.00    -0.052 C 
ATOM     45  H   UNL A   1      33.755  32.848  27.413  1.00  0.00     0.027 H 
ATOM     46  H   UNL A   1      35.534  32.967  27.426  1.00  0.00     0.027 H 
BRANCH  44  47
ATOM     47  C   UNL A   1      34.584  34.014  28.985  1.00  0.00    -0.052 C 
ATOM     48  H   UNL A   1      35.302  34.744  28.671  1.00  0.00     0.027 H 
ATOM     49  H   UNL A   1      34.787  33.608  29.953  1.00  0.00     0.027 H 
BRANCH  47  50
ATOM     50  C   UNL A   1      33.221  34.704  29.087  1.00  0.00    -0.036 C 
ATOM     51  H   UNL A   1      32.611  34.140  29.762  1.00  0.00     0.028 H 
ATOM     52  H   UNL A   1      32.822  34.740  28.095  1.00  0.00     0.028 H 
BRANCH  50  53
ATOM     53  C   UNL A   1      33.278  36.145  29.586  1.00  0.00     0.018 C 
ATOM     54  H   UNL A   1      32.899  36.792  28.822  1.00  0.00     0.049 H 
ATOM     55  H   UNL A   1      34.296  36.379  29.815  1.00  0.00     0.049 H 
BRANCH  53  56
ATOM     56  N   UNL A   1      32.486  36.326  30.793  1.00  0.00    -0.352 N 
ATOM     57  C   UNL A   1      32.620  35.724  32.019  1.00  0.00     0.251 C 
ATOM     58  H   UNL A   1      31.749  36.975  30.721  1.00  0.00     0.163 HD
ATOM     59  O   UNL A   1      31.724  35.808  32.853  1.00  0.00    -0.269 OA
BRANCH  57  60
ATOM     60  C   UNL A   1      33.848  34.965  32.336  1.00  0.00     0.039 A 
ATOM     61  C   UNL A   1      35.086  35.606  32.240  1.00  0.00    -0.049 A 
ATOM     62  C   UNL A   1      33.778  33.616  32.696  1.00  0.00    -0.049 A 
ATOM     63  C   UNL A   1      36.252  34.906  32.553  1.00  0.00    -0.053 A 
ATOM     64  H   UNL A   1      35.138  36.592  31.939  1.00  0.00     0.063 H 
ATOM     65  C   UNL A   1      34.935  32.940  33.071  1.00  0.00    -0.053 A 
ATOM     66  H   UNL A   1      32.872  33.123  32.682  1.00  0.00     0.063 H 
ATOM     67  C   UNL A   1      36.183  33.575  32.995  1.00  0.00    -0.014 A 
ATOM     68  H   UNL A   1      37.170  35.369  32.460  1.00  0.00     0.063 H 
ATOM     69  H   UNL A   1      34.874  31.965  33.407  1.00  0.00     0.063 H 
BRANCH  67  70
ATOM     70  C   UNL A   1      37.406  32.823  33.367  1.00  0.00     0.031 A 
ATOM     71  C   UNL A   1      38.104  33.117  34.666  1.00  0.00     0.074 A 
ATOM     72  C   UNL A   1      37.921  31.924  32.508  1.00  0.00     0.049 A 
ATOM     73  N   UNL A   1      39.223  32.625  35.136  1.00  0.00    -0.248 NA
ATOM     74  C   UNL A   1      37.476  34.119  35.541  1.00  0.00    -0.034 C 
ATOM     75  C   UNL A   1      37.357  31.585  31.201  1.00  0.00    -0.036 A 
ATOM     76  N   UNL A   1      39.041  31.136  32.603  1.00  0.00    -0.354 N 
ATOM     77  C   UNL A   1      39.440  33.270  36.346  1.00  0.00     0.074 A 
ATOM     78  C   UNL A   1      38.364  34.222  36.518  1.00  0.00    -0.034 C 
ATOM     79  H   UNL A   1      36.576  34.613  35.424  1.00  0.00     0.065 H 
ATOM     80  C   UNL A   1      38.118  30.639  30.627  1.00  0.00    -0.036 A 
ATOM     81  H   UNL A   1      36.510  32.005  30.787  1.00  0.00     0.065 H 
ATOM     82  C   UNL A   1      39.243  30.334  31.507  1.00  0.00     0.049 A 
ATOM     83  H   UNL A   1      39.641  31.145  33.383  1.00  0.00     0.167 HD
ATOM     84  C   UNL A   1      40.436  33.071  37.242  1.00  0.00     0.037 A 
ATOM     85  H   UNL A   1      38.298  34.894  37.299  1.00  0.00     0.065 H 
ATOM     86  H   UNL A   1      37.937  30.199  29.711  1.00  0.00     0.065 H 
ATOM     87  C   UNL A   1      40.229  29.456  31.242  1.00  0.00     0.037 A 
ATOM     88  C   UNL A   1      41.487  32.102  37.080  1.00  0.00     0.049 A 
ATOM     89  C   UNL A   1      41.319  29.248  32.257  1.00  0.00     0.074 A 
ATOM     90  C   UNL A   1      42.510  31.782  37.955  1.00  0.00    -0.036 A 
ATOM     91  N   UNL A   1      41.648  31.293  35.964  1.00  0.00    -0.354 N 
ATOM     92  N   UNL A   1      41.485  29.823  33.423  1.00  0.00    -0.248 NA
ATOM     93  C   UNL A   1      42.358  28.265  31.921  1.00  0.00    -0.034 C 
ATOM     94  C   UNL A   1      43.315  30.810  37.351  1.00  0.00    -0.036 A 
ATOM     95  H   UNL A   1      42.654  32.189  38.892  1.00  0.00     0.065 H 
ATOM     96  C   UNL A   1      42.766  30.488  36.120  1.00  0.00     0.049 A 
ATOM     97  H   UNL A   1      41.056  31.290  35.178  1.00  0.00     0.167 HD
ATOM     98  C   UNL A   1      42.627  29.257  33.970  1.00  0.00     0.074 A 
ATOM     99  C   UNL A   1      43.107  28.281  33.014  1.00  0.00    -0.034 C 
ATOM    100  H   UNL A   1      42.474  27.708  31.059  1.00  0.00     0.065 H 
ATOM    101  H   UNL A   1      44.173  30.403  37.753  1.00  0.00     0.065 H 
ATOM    102  C   UNL A   1      43.225  29.520  35.158  1.00  0.00     0.037 A 
ATOM    103  H   UNL A   1      43.929  27.675  33.165  1.00  0.00     0.065 H 
BRANCH  84 104
ATOM    104  C   UNL A   1      40.436  33.920  38.480  1.00  0.00     0.064 A 
ATOM    105  C   UNL A   1      39.758  33.527  39.644  1.00  0.00     0.173 A 
ATOM    106  C   UNL A   1      41.154  35.125  38.517  1.00  0.00     0.173 A 
ATOM    107  F   UNL A   1      39.048  32.389  39.659  1.00  0.00    -0.203 F 
ATOM    108  C   UNL A   1      39.773  34.323  40.786  1.00  0.00     0.198 A 
ATOM    109  C   UNL A   1      41.193  35.903  39.671  1.00  0.00     0.198 A 
ATOM    110  F   UNL A   1      41.826  35.546  37.434  1.00  0.00    -0.203 F 
ATOM    111  F   UNL A   1      39.077  33.950  41.870  1.00  0.00    -0.200 F 
ATOM    112  C   UNL A   1      40.496  35.505  40.802  1.00  0.00     0.200 A 
ATOM    113  F   UNL A   1      41.903  37.039  39.688  1.00  0.00    -0.200 F 
ATOM    114  F   UNL A   1      40.516  36.266  41.905  1.00  0.00    -0.200 F 
ENDBRANCH  84 104
BRANCH  87 115
ATOM    115  C   UNL A   1      40.218  28.694  29.967  1.00  0.00     0.064 A 
ATOM    116  C   UNL A   1      40.853  29.197  28.822  1.00  0.00     0.173 A 
ATOM    117  C   UNL A   1      39.574  27.453  29.865  1.00  0.00     0.173 A 
ATOM    118  F   UNL A   1      41.462  30.391  28.866  1.00  0.00    -0.203 F 
ATOM    119  C   UNL A   1      40.827  28.495  27.619  1.00  0.00     0.198 A 
ATOM    120  C   UNL A   1      39.573  26.738  28.668  1.00  0.00     0.198 A 
ATOM    121  F   UNL A   1      38.953  26.929  30.932  1.00  0.00    -0.203 F 
ATOM    122  F   UNL A   1      41.402  29.020  26.529  1.00  0.00    -0.200 F 
ATOM    123  C   UNL A   1      40.193  27.264  27.545  1.00  0.00     0.200 A 
ATOM    124  F   UNL A   1      38.970  25.545  28.606  1.00  0.00    -0.200 F 
ATOM    125  F   UNL A   1      40.171  26.588  26.388  1.00  0.00    -0.200 F 
ENDBRANCH  87 115
BRANCH 102 126
ATOM    126  C   UNL A   1      44.448  28.722  35.503  1.00  0.00     0.064 A 
ATOM    127  C   UNL A   1      45.738  29.180  35.197  1.00  0.00     0.173 A 
ATOM    128  C   UNL A   1      44.329  27.501  36.187  1.00  0.00     0.173 A 
ATOM    129  F   UNL A   1      45.902  30.333  34.530  1.00  0.00    -0.203 F 
ATOM    130  C   UNL A   1      46.862  28.435  35.541  1.00  0.00     0.198 A 
ATOM    131  C   UNL A   1      45.456  26.774  36.556  1.00  0.00     0.198 A 
ATOM    132  F   UNL A   1      43.118  27.022  36.509  1.00  0.00    -0.203 F 
ATOM    133  F   UNL A   1      48.082  28.871  35.197  1.00  0.00    -0.200 F 
ATOM    134  C   UNL A   1      46.721  27.238  36.226  1.00  0.00     0.200 A 
ATOM    135  F   UNL A   1      45.319  25.623  37.228  1.00  0.00    -0.200 F 
ATOM    136  F   UNL A   1      47.805  26.526  36.563  1.00  0.00    -0.200 F 
ENDBRANCH 102 126
ENDBRANCH  67  70
ENDBRANCH  57  60
ENDBRANCH  53  56
ENDBRANCH  50  53
ENDBRANCH  47  50
ENDBRANCH  44  47
ENDBRANCH   1  44
TORSDOF 19
ENDMDL
MODEL 9
REMARK VINA RESULT:     -11.7      1.134      1.776
REMARK SMILES C/C(=N/OCc1ccccc1Nc1c(Cl)cccc1Cl)C(=O)NCCCCCCNC(=O)c1ccc(-c2c3nc(c(-c4c(F)c(F)c(F)c(F)c4F)c4ccc([nH]4)c(-c4c(F)c(F)c(F)c(F)c4F)c4nc(c(-c5c(F)c(F)c(F)c(F)c5F)c5ccc2[nH]5)C=C4)C=C3)cc1
REMARK SMILES IDX 25 1 24 4 23 7 21 8 22 9 2 11 3 12 1 13 4 17 5 18 6 21 7 22
REMARK SMILES IDX 11 23 8 24 10 26 9 27 12 31 13 33 14 34 19 35 15 36 16 37
REMARK SMILES IDX 18 38 20 39 17 40 26 44 27 47 28 50 29 53 30 56 31 57 32 59
REMARK SMILES IDX 33 60 34 61 95 62 35 63 94 65 36 67 37 70 38 71 88 72 39 73
REMARK SMILES IDX 93 74 87 75 89 76 40 77 92 78 86 80 85 82 41 84 73 87 53 88
REMARK SMILES IDX 72 89 54 90 57 91 71 92 90 93 55 94 56 96 70 98 91 99 58 102
REMARK SMILES IDX 42 104 43 105 51 106 44 107 45 108 49 109 52 110 46 111
REMARK SMILES IDX 47 112 50 113 48 114 74 115 75 116 83 117 76 118 77 119
REMARK SMILES IDX 81 120 84 121 78 122 79 123 82 124 80 125 59 126 60 127
REMARK SMILES IDX 68 128 61 129 62 130 66 131 69 132 63 133 64 134 67 135
REMARK SMILES IDX 65 136
REMARK H PARENT 25 2 25 3 24 5 24 6 23 10 1 14 1 15 1 16 5 19 5 20 7 25 8 28
REMARK H PARENT 10 29 9 30 12 32 16 41 18 42 17 43 26 45 26 46 27 48 27 49
REMARK H PARENT 28 51 28 52 29 54 29 55 30 58 34 64 95 66 35 68 94 69 93 79
REMARK H PARENT 87 81 89 83 92 85 86 86 54 95 57 97 90 100 55 101 91 103
REMARK Flexibility Score: inf
ROOT
ATOM      1  C   UNL A   1      32.508  28.603  26.371  1.00  0.00    -0.036 C 
ATOM      2  H   UNL A   1      33.173  28.098  27.040  1.00  0.00     0.028 H 
ATOM      3  H   UNL A   1      31.496  28.276  26.484  1.00  0.00     0.028 H 
ENDROOT
BRANCH   1   4
ATOM      4  C   UNL A   1      32.931  28.281  24.930  1.00  0.00     0.018 C 
ATOM      5  H   UNL A   1      33.466  29.113  24.520  1.00  0.00     0.049 H 
ATOM      6  H   UNL A   1      33.563  27.417  24.928  1.00  0.00     0.049 H 
BRANCH   4   7
ATOM      7  N   UNL A   1      31.754  28.023  24.131  1.00  0.00    -0.351 N 
ATOM      8  C   UNL A   1      31.534  27.167  23.086  1.00  0.00     0.268 C 
ATOM      9  O   UNL A   1      30.513  27.343  22.415  1.00  0.00    -0.268 OA
ATOM     10  H   UNL A   1      30.970  28.560  24.385  1.00  0.00     0.163 HD
BRANCH   8  11
ATOM     11  C   UNL A   1      32.345  25.925  22.755  1.00  0.00     0.141 C 
ATOM     12  N   UNL A   1      32.698  24.904  23.479  1.00  0.00    -0.086 NA
BRANCH  11  13
ATOM     13  C   UNL A   1      32.869  25.918  21.332  1.00  0.00    -0.013 C 
ATOM     14  H   UNL A   1      33.371  26.841  21.132  1.00  0.00     0.030 H 
ATOM     15  H   UNL A   1      32.051  25.803  20.651  1.00  0.00     0.030 H 
ATOM     16  H   UNL A   1      33.553  25.105  21.207  1.00  0.00     0.030 H 
ENDBRANCH  11  13
BRANCH  12  17
ATOM     17  O   UNL A   1      32.150  24.841  24.751  1.00  0.00    -0.390 OA
BRANCH  17  18
ATOM     18  C   UNL A   1      33.167  24.465  25.708  1.00  0.00     0.144 C 
ATOM     19  H   UNL A   1      32.738  23.748  26.376  1.00  0.00     0.079 H 
ATOM     20  H   UNL A   1      33.470  25.379  26.174  1.00  0.00     0.079 H 
BRANCH  18  21
ATOM     21  C   UNL A   1      34.449  23.858  25.133  1.00  0.00     0.016 A 
ATOM     22  C   UNL A   1      35.702  24.447  25.410  1.00  0.00    -0.053 A 
ATOM     23  C   UNL A   1      34.440  22.617  24.451  1.00  0.00     0.045 A 
ATOM     24  C   UNL A   1      36.905  23.845  25.045  1.00  0.00    -0.062 A 
ATOM     25  H   UNL A   1      35.727  25.356  25.900  1.00  0.00     0.063 H 
ATOM     26  C   UNL A   1      35.670  22.017  24.107  1.00  0.00    -0.038 A 
ATOM     27  C   UNL A   1      36.890  22.621  24.402  1.00  0.00    -0.060 A 
ATOM     28  H   UNL A   1      37.802  24.311  25.252  1.00  0.00     0.062 H 
ATOM     29  H   UNL A   1      35.665  21.105  23.623  1.00  0.00     0.064 H 
ATOM     30  H   UNL A   1      37.775  22.158  24.142  1.00  0.00     0.062 H 
BRANCH  23  31
ATOM     31  N   UNL A   1      33.222  21.966  24.133  1.00  0.00    -0.353 N 
ATOM     32  H   UNL A   1      32.526  22.535  23.733  1.00  0.00     0.167 HD
BRANCH  31  33
ATOM     33  C   UNL A   1      32.870  20.602  24.317  1.00  0.00     0.076 A 
ATOM     34  C   UNL A   1      32.351  19.865  23.229  1.00  0.00     0.066 A 
ATOM     35  C   UNL A   1      33.095  19.905  25.523  1.00  0.00     0.066 A 
ATOM     36  Cl  UNL A   1      32.036  20.637  21.708  1.00  0.00    -0.082 Cl
ATOM     37  C   UNL A   1      32.087  18.495  23.333  1.00  0.00    -0.041 A 
ATOM     38  C   UNL A   1      32.829  18.533  25.624  1.00  0.00    -0.041 A 
ATOM     39  Cl  UNL A   1      33.628  20.706  26.964  1.00  0.00    -0.082 Cl
ATOM     40  C   UNL A   1      32.333  17.828  24.530  1.00  0.00    -0.059 A 
ATOM     41  H   UNL A   1      31.709  17.979  22.522  1.00  0.00     0.064 H 
ATOM     42  H   UNL A   1      33.000  18.042  26.517  1.00  0.00     0.064 H 
ATOM     43  H   UNL A   1      32.149  16.816  24.606  1.00  0.00     0.062 H 
ENDBRANCH  31  33
ENDBRANCH  23  31
ENDBRANCH  18  21
ENDBRANCH  17  18
ENDBRANCH  12  17
ENDBRANCH   8  11
ENDBRANCH   4   7
ENDBRANCH   1   4
BRANCH   1  44
ATOM     44  C   UNL A   1      32.537  30.102  26.695  1.00  0.00    -0.052 C 
ATOM     45  H   UNL A   1      33.468  30.501  26.349  1.00  0.00     0.027 H 
ATOM     46  H   UNL A   1      32.414  30.188  27.754  1.00  0.00     0.027 H 
BRANCH  44  47
ATOM     47  C   UNL A   1      31.402  30.910  26.056  1.00  0.00    -0.052 C 
ATOM     48  H   UNL A   1      30.478  30.417  26.277  1.00  0.00     0.027 H 
ATOM     49  H   UNL A   1      31.619  30.955  25.010  1.00  0.00     0.027 H 
BRANCH  47  50
ATOM     50  C   UNL A   1      31.290  32.361  26.533  1.00  0.00    -0.036 C 
ATOM     51  H   UNL A   1      30.475  32.425  27.223  1.00  0.00     0.028 H 
ATOM     52  H   UNL A   1      31.145  32.960  25.658  1.00  0.00     0.028 H 
BRANCH  50  53
ATOM     53  C   UNL A   1      32.541  32.897  27.223  1.00  0.00     0.018 C 
ATOM     54  H   UNL A   1      33.369  32.820  26.550  1.00  0.00     0.049 H 
ATOM     55  H   UNL A   1      32.711  32.316  28.106  1.00  0.00     0.049 H 
BRANCH  53  56
ATOM     56  N   UNL A   1      32.382  34.288  27.618  1.00  0.00    -0.352 N 
ATOM     57  C   UNL A   1      32.980  34.975  28.645  1.00  0.00     0.251 C 
ATOM     58  H   UNL A   1      31.754  34.813  27.070  1.00  0.00     0.163 HD
ATOM     59  O   UNL A   1      32.553  36.072  28.989  1.00  0.00    -0.269 OA
BRANCH  57  60
ATOM     60  C   UNL A   1      34.142  34.387  29.343  1.00  0.00     0.039 A 
ATOM     61  C   UNL A   1      33.944  33.736  30.564  1.00  0.00    -0.049 A 
ATOM     62  C   UNL A   1      35.429  34.507  28.809  1.00  0.00    -0.049 A 
ATOM     63  C   UNL A   1      35.030  33.162  31.225  1.00  0.00    -0.053 A 
ATOM     64  H   UNL A   1      32.998  33.680  30.973  1.00  0.00     0.063 H 
ATOM     65  C   UNL A   1      36.500  33.878  29.436  1.00  0.00    -0.053 A 
ATOM     66  H   UNL A   1      35.585  35.062  27.953  1.00  0.00     0.063 H 
ATOM     67  C   UNL A   1      36.312  33.206  30.654  1.00  0.00    -0.014 A 
ATOM     68  H   UNL A   1      34.891  32.701  32.138  1.00  0.00     0.063 H 
ATOM     69  H   UNL A   1      37.437  33.905  29.004  1.00  0.00     0.063 H 
BRANCH  67  70
ATOM     70  C   UNL A   1      37.475  32.572  31.322  1.00  0.00     0.031 A 
ATOM     71  C   UNL A   1      38.190  31.428  30.660  1.00  0.00     0.074 A 
ATOM     72  C   UNL A   1      37.844  32.985  32.548  1.00  0.00     0.049 A 
ATOM     73  N   UNL A   1      39.176  30.693  31.112  1.00  0.00    -0.248 NA
ATOM     74  C   UNL A   1      37.716  31.038  29.323  1.00  0.00    -0.034 C 
ATOM     75  C   UNL A   1      37.200  34.057  33.309  1.00  0.00    -0.036 A 
ATOM     76  N   UNL A   1      38.847  32.546  33.376  1.00  0.00    -0.354 N 
ATOM     77  C   UNL A   1      39.424  29.748  30.127  1.00  0.00     0.074 A 
ATOM     78  C   UNL A   1      38.456  29.969  29.073  1.00  0.00    -0.034 C 
ATOM     79  H   UNL A   1      36.995  31.483  28.733  1.00  0.00     0.065 H 
ATOM     80  C   UNL A   1      37.839  34.210  34.479  1.00  0.00    -0.036 A 
ATOM     81  H   UNL A   1      36.385  34.606  32.996  1.00  0.00     0.065 H 
ATOM     82  C   UNL A   1      38.912  33.224  34.568  1.00  0.00     0.049 A 
ATOM     83  H   UNL A   1      39.461  31.815  33.136  1.00  0.00     0.167 HD
ATOM     84  C   UNL A   1      40.385  28.793  30.095  1.00  0.00     0.037 A 
ATOM     85  H   UNL A   1      38.357  29.371  28.237  1.00  0.00     0.065 H 
ATOM     86  H   UNL A   1      37.609  34.912  35.200  1.00  0.00     0.065 H 
ATOM     87  C   UNL A   1      39.742  33.061  35.616  1.00  0.00     0.037 A 
ATOM     88  C   UNL A   1      41.362  28.596  31.132  1.00  0.00     0.049 A 
ATOM     89  C   UNL A   1      40.806  31.999  35.553  1.00  0.00     0.074 A 
ATOM     90  C   UNL A   1      42.412  27.696  31.169  1.00  0.00    -0.036 A 
ATOM     91  N   UNL A   1      41.409  29.315  32.318  1.00  0.00    -0.354 N 
ATOM     92  N   UNL A   1      41.067  31.145  34.593  1.00  0.00    -0.248 NA
ATOM     93  C   UNL A   1      41.693  31.880  36.718  1.00  0.00    -0.034 C 
ATOM     94  C   UNL A   1      43.070  27.841  32.397  1.00  0.00    -0.036 A 
ATOM     95  H   UNL A   1      42.668  27.033  30.421  1.00  0.00     0.065 H 
ATOM     96  C   UNL A   1      42.459  28.865  33.103  1.00  0.00     0.049 A 
ATOM     97  H   UNL A   1      40.789  30.039  32.564  1.00  0.00     0.167 HD
ATOM     98  C   UNL A   1      42.160  30.408  35.023  1.00  0.00     0.074 A 
ATOM     99  C   UNL A   1      42.523  30.923  36.328  1.00  0.00    -0.034 C 
ATOM    100  H   UNL A   1      41.675  32.403  37.607  1.00  0.00     0.065 H 
ATOM    101  H   UNL A   1      43.872  27.280  32.721  1.00  0.00     0.065 H 
ATOM    102  C   UNL A   1      42.806  29.395  34.396  1.00  0.00     0.037 A 
ATOM    103  H   UNL A   1      43.327  30.588  36.882  1.00  0.00     0.065 H 
BRANCH  84 104
ATOM    104  C   UNL A   1      40.425  27.887  28.898  1.00  0.00     0.064 A 
ATOM    105  C   UNL A   1      41.197  28.192  27.768  1.00  0.00     0.173 A 
ATOM    106  C   UNL A   1      39.710  26.679  28.895  1.00  0.00     0.173 A 
ATOM    107  F   UNL A   1      41.892  29.339  27.715  1.00  0.00    -0.203 F 
ATOM    108  C   UNL A   1      41.229  27.338  26.668  1.00  0.00     0.198 A 
ATOM    109  C   UNL A   1      39.769  25.813  27.807  1.00  0.00     0.198 A 
ATOM    110  F   UNL A   1      38.959  26.335  29.953  1.00  0.00    -0.203 F 
ATOM    111  F   UNL A   1      41.936  27.675  25.580  1.00  0.00    -0.200 F 
ATOM    112  C   UNL A   1      40.522  26.147  26.691  1.00  0.00     0.200 A 
ATOM    113  F   UNL A   1      39.094  24.655  27.836  1.00  0.00    -0.200 F 
ATOM    114  F   UNL A   1      40.560  25.322  25.635  1.00  0.00    -0.200 F 
ENDBRANCH  84 104
BRANCH  87 115
ATOM    115  C   UNL A   1      39.611  33.939  36.807  1.00  0.00     0.064 A 
ATOM    116  C   UNL A   1      40.238  35.193  36.848  1.00  0.00     0.173 A 
ATOM    117  C   UNL A   1      38.863  33.546  37.924  1.00  0.00     0.173 A 
ATOM    118  F   UNL A   1      40.983  35.602  35.811  1.00  0.00    -0.203 F 
ATOM    119  C   UNL A   1      40.135  36.011  37.971  1.00  0.00     0.198 A 
ATOM    120  C   UNL A   1      38.738  34.377  39.036  1.00  0.00     0.198 A 
ATOM    121  F   UNL A   1      38.244  32.356  37.934  1.00  0.00    -0.203 F 
ATOM    122  F   UNL A   1      40.782  37.184  38.002  1.00  0.00    -0.200 F 
ATOM    123  C   UNL A   1      39.380  35.606  39.061  1.00  0.00     0.200 A 
ATOM    124  F   UNL A   1      37.997  33.985  40.081  1.00  0.00    -0.200 F 
ATOM    125  F   UNL A   1      39.280  36.394  40.140  1.00  0.00    -0.200 F 
ENDBRANCH  87 115
BRANCH 102 126
ATOM    126  C   UNL A   1      43.989  28.796  35.099  1.00  0.00     0.064 A 
ATOM    127  C   UNL A   1      45.287  29.296  34.913  1.00  0.00     0.173 A 
ATOM    128  C   UNL A   1      43.817  27.735  36.001  1.00  0.00     0.173 A 
ATOM    129  F   UNL A   1      45.505  30.299  34.048  1.00  0.00    -0.203 F 
ATOM    130  C   UNL A   1      46.371  28.741  35.586  1.00  0.00     0.198 A 
ATOM    131  C   UNL A   1      44.899  27.202  36.696  1.00  0.00     0.198 A 
ATOM    132  F   UNL A   1      42.596  27.224  36.220  1.00  0.00    -0.203 F 
ATOM    133  F   UNL A   1      47.607  29.205  35.358  1.00  0.00    -0.200 F 
ATOM    134  C   UNL A   1      46.175  27.700  36.482  1.00  0.00     0.200 A 
ATOM    135  F   UNL A   1      44.707  26.204  37.570  1.00  0.00    -0.200 F 
ATOM    136  F   UNL A   1      47.219  27.172  37.135  1.00  0.00    -0.200 F 
ENDBRANCH 102 126
ENDBRANCH  67  70
ENDBRANCH  57  60
ENDBRANCH  53  56
ENDBRANCH  50  53
ENDBRANCH  47  50
ENDBRANCH  44  47
ENDBRANCH   1  44
TORSDOF 19
ENDMDL
MODEL 10
REMARK VINA RESULT:     -11.6      6.175     10.992
REMARK SMILES C/C(=N/OCc1ccccc1Nc1c(Cl)cccc1Cl)C(=O)NCCCCCCNC(=O)c1ccc(-c2c3nc(c(-c4c(F)c(F)c(F)c(F)c4F)c4ccc([nH]4)c(-c4c(F)c(F)c(F)c(F)c4F)c4nc(c(-c5c(F)c(F)c(F)c(F)c5F)c5ccc2[nH]5)C=C4)C=C3)cc1
REMARK SMILES IDX 25 1 24 4 23 7 21 8 22 9 2 11 3 12 1 13 4 17 5 18 6 21 7 22
REMARK SMILES IDX 11 23 8 24 10 26 9 27 12 31 13 33 14 34 19 35 15 36 16 37
REMARK SMILES IDX 18 38 20 39 17 40 26 44 27 47 28 50 29 53 30 56 31 57 32 59
REMARK SMILES IDX 33 60 34 61 95 62 35 63 94 65 36 67 37 70 38 71 88 72 39 73
REMARK SMILES IDX 93 74 87 75 89 76 40 77 92 78 86 80 85 82 41 84 73 87 53 88
REMARK SMILES IDX 72 89 54 90 57 91 71 92 90 93 55 94 56 96 70 98 91 99 58 102
REMARK SMILES IDX 42 104 43 105 51 106 44 107 45 108 49 109 52 110 46 111
REMARK SMILES IDX 47 112 50 113 48 114 74 115 75 116 83 117 76 118 77 119
REMARK SMILES IDX 81 120 84 121 78 122 79 123 82 124 80 125 59 126 60 127
REMARK SMILES IDX 68 128 61 129 62 130 66 131 69 132 63 133 64 134 67 135
REMARK SMILES IDX 65 136
REMARK H PARENT 25 2 25 3 24 5 24 6 23 10 1 14 1 15 1 16 5 19 5 20 7 25 8 28
REMARK H PARENT 10 29 9 30 12 32 16 41 18 42 17 43 26 45 26 46 27 48 27 49
REMARK H PARENT 28 51 28 52 29 54 29 55 30 58 34 64 95 66 35 68 94 69 93 79
REMARK H PARENT 87 81 89 83 92 85 86 86 54 95 57 97 90 100 55 101 91 103
REMARK Flexibility Score: inf
ROOT
ATOM      1  C   UNL A   1      40.317  22.445  27.479  1.00  0.00    -0.036 C 
ATOM      2  H   UNL A   1      39.764  22.353  28.391  1.00  0.00     0.028 H 
ATOM      3  H   UNL A   1      40.783  23.402  27.383  1.00  0.00     0.028 H 
ENDROOT
BRANCH   1   4
ATOM      4  C   UNL A   1      39.341  22.295  26.301  1.00  0.00     0.018 C 
ATOM      5  H   UNL A   1      39.826  22.595  25.395  1.00  0.00     0.049 H 
ATOM      6  H   UNL A   1      39.036  21.273  26.219  1.00  0.00     0.049 H 
BRANCH   4   7
ATOM      7  N   UNL A   1      38.184  23.131  26.528  1.00  0.00    -0.351 N 
ATOM      8  C   UNL A   1      37.041  23.320  25.799  1.00  0.00     0.268 C 
ATOM      9  O   UNL A   1      36.339  24.292  26.090  1.00  0.00    -0.268 OA
ATOM     10  H   UNL A   1      38.225  23.658  27.359  1.00  0.00     0.163 HD
BRANCH   8  11
ATOM     11  C   UNL A   1      36.471  22.370  24.758  1.00  0.00     0.141 C 
ATOM     12  N   UNL A   1      35.666  21.354  24.864  1.00  0.00    -0.086 NA
BRANCH  11  13
ATOM     13  C   UNL A   1      36.983  22.645  23.357  1.00  0.00    -0.013 C 
ATOM     14  H   UNL A   1      36.705  21.837  22.712  1.00  0.00     0.030 H 
ATOM     15  H   UNL A   1      38.049  22.733  23.378  1.00  0.00     0.030 H 
ATOM     16  H   UNL A   1      36.556  23.555  22.993  1.00  0.00     0.030 H 
ENDBRANCH  11  13
BRANCH  12  17
ATOM     17  O   UNL A   1      35.110  21.145  26.117  1.00  0.00    -0.390 OA
BRANCH  17  18
ATOM     18  C   UNL A   1      33.714  20.792  25.983  1.00  0.00     0.144 C 
ATOM     19  H   UNL A   1      33.146  21.476  26.578  1.00  0.00     0.079 H 
ATOM     20  H   UNL A   1      33.649  19.771  26.297  1.00  0.00     0.079 H 
BRANCH  18  21
ATOM     21  C   UNL A   1      33.139  20.818  24.565  1.00  0.00     0.016 A 
ATOM     22  C   UNL A   1      32.823  19.612  23.903  1.00  0.00    -0.053 A 
ATOM     23  C   UNL A   1      32.760  22.032  23.941  1.00  0.00     0.045 A 
ATOM     24  C   UNL A   1      32.152  19.586  22.681  1.00  0.00    -0.062 A 
ATOM     25  H   UNL A   1      33.098  18.717  24.340  1.00  0.00     0.063 H 
ATOM     26  C   UNL A   1      32.067  21.982  22.713  1.00  0.00    -0.038 A 
ATOM     27  C   UNL A   1      31.763  20.774  22.089  1.00  0.00    -0.060 A 
ATOM     28  H   UNL A   1      31.948  18.686  22.220  1.00  0.00     0.062 H 
ATOM     29  H   UNL A   1      31.778  22.865  22.265  1.00  0.00     0.064 H 
ATOM     30  H   UNL A   1      31.252  20.766  21.193  1.00  0.00     0.062 H 
BRANCH  23  31
ATOM     31  N   UNL A   1      33.048  23.283  24.541  1.00  0.00    -0.353 N 
ATOM     32  H   UNL A   1      33.960  23.386  24.896  1.00  0.00     0.167 HD
BRANCH  31  33
ATOM     33  C   UNL A   1      32.195  24.408  24.701  1.00  0.00     0.076 A 
ATOM     34  C   UNL A   1      32.347  25.523  23.847  1.00  0.00     0.066 A 
ATOM     35  C   UNL A   1      31.128  24.439  25.623  1.00  0.00     0.066 A 
ATOM     36  Cl  UNL A   1      33.634  25.578  22.685  1.00  0.00    -0.082 Cl
ATOM     37  C   UNL A   1      31.468  26.609  23.897  1.00  0.00    -0.041 A 
ATOM     38  C   UNL A   1      30.248  25.529  25.672  1.00  0.00    -0.041 A 
ATOM     39  Cl  UNL A   1      30.889  23.188  26.798  1.00  0.00    -0.082 Cl
ATOM     40  C   UNL A   1      30.413  26.608  24.806  1.00  0.00    -0.059 A 
ATOM     41  H   UNL A   1      31.600  27.411  23.262  1.00  0.00     0.064 H 
ATOM     42  H   UNL A   1      29.474  25.532  26.355  1.00  0.00     0.064 H 
ATOM     43  H   UNL A   1      29.756  27.402  24.838  1.00  0.00     0.062 H 
ENDBRANCH  31  33
ENDBRANCH  23  31
ENDBRANCH  18  21
ENDBRANCH  17  18
ENDBRANCH  12  17
ENDBRANCH   8  11
ENDBRANCH   4   7
ENDBRANCH   1   4
BRANCH   1  44
ATOM     44  C   UNL A   1      41.435  21.395  27.481  1.00  0.00    -0.052 C 
ATOM     45  H   UNL A   1      41.091  20.540  28.024  1.00  0.00     0.027 H 
ATOM     46  H   UNL A   1      42.289  21.858  27.930  1.00  0.00     0.027 H 
BRANCH  44  47
ATOM     47  C   UNL A   1      41.872  20.932  26.086  1.00  0.00    -0.052 C 
ATOM     48  H   UNL A   1      42.836  21.352  25.884  1.00  0.00     0.027 H 
ATOM     49  H   UNL A   1      41.114  21.266  25.410  1.00  0.00     0.027 H 
BRANCH  47  50
ATOM     50  C   UNL A   1      41.969  19.414  25.907  1.00  0.00    -0.036 C 
ATOM     51  H   UNL A   1      41.707  19.180  24.896  1.00  0.00     0.028 H 
ATOM     52  H   UNL A   1      41.303  18.980  26.623  1.00  0.00     0.028 H 
BRANCH  50  53
ATOM     53  C   UNL A   1      43.351  18.832  26.188  1.00  0.00     0.018 C 
ATOM     54  H   UNL A   1      43.237  17.911  26.721  1.00  0.00     0.049 H 
ATOM     55  H   UNL A   1      43.902  19.544  26.766  1.00  0.00     0.049 H 
BRANCH  53  56
ATOM     56  N   UNL A   1      44.086  18.578  24.958  1.00  0.00    -0.352 N 
ATOM     57  C   UNL A   1      44.705  19.467  24.116  1.00  0.00     0.251 C 
ATOM     58  H   UNL A   1      44.149  17.632  24.692  1.00  0.00     0.163 HD
ATOM     59  O   UNL A   1      45.070  19.114  22.999  1.00  0.00    -0.269 OA
BRANCH  57  60
ATOM     60  C   UNL A   1      44.930  20.861  24.554  1.00  0.00     0.039 A 
ATOM     61  C   UNL A   1      44.551  21.908  23.710  1.00  0.00    -0.049 A 
ATOM     62  C   UNL A   1      45.543  21.131  25.781  1.00  0.00    -0.049 A 
ATOM     63  C   UNL A   1      44.741  23.229  24.119  1.00  0.00    -0.053 A 
ATOM     64  H   UNL A   1      44.131  21.705  22.789  1.00  0.00     0.063 H 
ATOM     65  C   UNL A   1      45.672  22.447  26.215  1.00  0.00    -0.053 A 
ATOM     66  H   UNL A   1      45.900  20.357  26.363  1.00  0.00     0.063 H 
ATOM     67  C   UNL A   1      45.281  23.508  25.385  1.00  0.00    -0.014 A 
ATOM     68  H   UNL A   1      44.485  24.004  23.488  1.00  0.00     0.063 H 
ATOM     69  H   UNL A   1      46.058  22.643  27.153  1.00  0.00     0.063 H 
BRANCH  67  70
ATOM     70  C   UNL A   1      45.460  24.903  25.855  1.00  0.00     0.031 A 
ATOM     71  C   UNL A   1      46.814  25.553  25.783  1.00  0.00     0.074 A 
ATOM     72  C   UNL A   1      44.420  25.559  26.404  1.00  0.00     0.049 A 
ATOM     73  N   UNL A   1      47.191  26.732  26.211  1.00  0.00    -0.248 NA
ATOM     74  C   UNL A   1      47.894  24.761  25.175  1.00  0.00    -0.034 C 
ATOM     75  C   UNL A   1      43.070  25.017  26.567  1.00  0.00    -0.036 A 
ATOM     76  N   UNL A   1      44.339  26.822  26.933  1.00  0.00    -0.354 N 
ATOM     77  C   UNL A   1      48.550  26.813  25.942  1.00  0.00     0.074 A 
ATOM     78  C   UNL A   1      48.943  25.548  25.358  1.00  0.00    -0.034 C 
ATOM     79  H   UNL A   1      47.847  23.834  24.723  1.00  0.00     0.065 H 
ATOM     80  C   UNL A   1      42.289  25.951  27.132  1.00  0.00    -0.036 A 
ATOM     81  H   UNL A   1      42.768  24.070  26.291  1.00  0.00     0.065 H 
ATOM     82  C   UNL A   1      43.089  27.141  27.406  1.00  0.00     0.049 A 
ATOM     83  H   UNL A   1      45.103  27.441  26.970  1.00  0.00     0.167 HD
ATOM     84  C   UNL A   1      49.391  27.856  26.146  1.00  0.00     0.037 A 
ATOM     85  H   UNL A   1      49.914  25.294  25.115  1.00  0.00     0.065 H 
ATOM     86  H   UNL A   1      41.283  25.845  27.339  1.00  0.00     0.065 H 
ATOM     87  C   UNL A   1      42.645  28.265  27.998  1.00  0.00     0.037 A 
ATOM     88  C   UNL A   1      48.989  29.121  26.700  1.00  0.00     0.049 A 
ATOM     89  C   UNL A   1      43.596  29.412  28.205  1.00  0.00     0.074 A 
ATOM     90  C   UNL A   1      49.750  30.260  26.893  1.00  0.00    -0.036 A 
ATOM     91  N   UNL A   1      47.709  29.414  27.149  1.00  0.00    -0.354 N 
ATOM     92  N   UNL A   1      44.867  29.498  27.897  1.00  0.00    -0.248 NA
ATOM     93  C   UNL A   1      43.050  30.619  28.840  1.00  0.00    -0.034 C 
ATOM     94  C   UNL A   1      48.941  31.229  27.499  1.00  0.00    -0.036 A 
ATOM     95  H   UNL A   1      50.741  30.377  26.634  1.00  0.00     0.065 H 
ATOM     96  C   UNL A   1      47.664  30.710  27.638  1.00  0.00     0.049 A 
ATOM     97  H   UNL A   1      46.946  28.793  27.124  1.00  0.00     0.167 HD
ATOM     98  C   UNL A   1      45.266  30.772  28.275  1.00  0.00     0.074 A 
ATOM     99  C   UNL A   1      44.098  31.430  28.823  1.00  0.00    -0.034 C 
ATOM    100  H   UNL A   1      42.100  30.791  29.205  1.00  0.00     0.065 H 
ATOM    101  H   UNL A   1      49.245  32.169  27.794  1.00  0.00     0.065 H 
ATOM    102  C   UNL A   1      46.490  31.347  28.176  1.00  0.00     0.037 A 
ATOM    103  H   UNL A   1      44.084  32.406  29.157  1.00  0.00     0.065 H 
BRANCH  84 104
ATOM    104  C   UNL A   1      50.832  27.671  25.766  1.00  0.00     0.064 A 
ATOM    105  C   UNL A   1      51.799  27.289  26.708  1.00  0.00     0.173 A 
ATOM    106  C   UNL A   1      51.246  27.843  24.437  1.00  0.00     0.173 A 
ATOM    107  F   UNL A   1      51.458  27.121  27.995  1.00  0.00    -0.203 F 
ATOM    108  C   UNL A   1      53.130  27.115  26.339  1.00  0.00     0.198 A 
ATOM    109  C   UNL A   1      52.572  27.638  24.066  1.00  0.00     0.198 A 
ATOM    110  F   UNL A   1      50.361  28.202  23.494  1.00  0.00    -0.203 F 
ATOM    111  F   UNL A   1      54.045  26.797  27.267  1.00  0.00    -0.200 F 
ATOM    112  C   UNL A   1      53.515  27.282  25.018  1.00  0.00     0.200 A 
ATOM    113  F   UNL A   1      52.939  27.787  22.785  1.00  0.00    -0.200 F 
ATOM    114  F   UNL A   1      54.795  27.106  24.663  1.00  0.00    -0.200 F 
ENDBRANCH  84 104
BRANCH  87 115
ATOM    115  C   UNL A   1      41.223  28.368  28.419  1.00  0.00     0.064 A 
ATOM    116  C   UNL A   1      40.817  27.935  29.689  1.00  0.00     0.173 A 
ATOM    117  C   UNL A   1      40.246  28.895  27.564  1.00  0.00     0.173 A 
ATOM    118  F   UNL A   1      41.713  27.403  30.533  1.00  0.00    -0.203 F 
ATOM    119  C   UNL A   1      39.482  28.010  30.080  1.00  0.00     0.198 A 
ATOM    120  C   UNL A   1      38.916  28.995  27.967  1.00  0.00     0.198 A 
ATOM    121  F   UNL A   1      40.585  29.322  26.339  1.00  0.00    -0.203 F 
ATOM    122  F   UNL A   1      39.112  27.548  31.283  1.00  0.00    -0.200 F 
ATOM    123  C   UNL A   1      38.534  28.546  29.222  1.00  0.00     0.200 A 
ATOM    124  F   UNL A   1      38.007  29.524  27.138  1.00  0.00    -0.200 F 
ATOM    125  F   UNL A   1      37.250  28.620  29.599  1.00  0.00    -0.200 F 
ENDBRANCH  87 115
BRANCH 102 126
ATOM    126  C   UNL A   1      46.621  32.767  28.644  1.00  0.00     0.064 A 
ATOM    127  C   UNL A   1      46.391  33.850  27.784  1.00  0.00     0.173 A 
ATOM    128  C   UNL A   1      46.940  33.046  29.983  1.00  0.00     0.173 A 
ATOM    129  F   UNL A   1      46.100  33.635  26.492  1.00  0.00    -0.203 F 
ATOM    130  C   UNL A   1      46.500  35.161  28.239  1.00  0.00     0.198 A 
ATOM    131  C   UNL A   1      47.018  34.357  30.442  1.00  0.00     0.198 A 
ATOM    132  F   UNL A   1      47.163  32.046  30.848  1.00  0.00    -0.203 F 
ATOM    133  F   UNL A   1      46.321  36.181  27.388  1.00  0.00    -0.200 F 
ATOM    134  C   UNL A   1      46.805  35.413  29.568  1.00  0.00     0.200 A 
ATOM    135  F   UNL A   1      47.301  34.600  31.729  1.00  0.00    -0.200 F 
ATOM    136  F   UNL A   1      46.901  36.676  30.007  1.00  0.00    -0.200 F 
ENDBRANCH 102 126
ENDBRANCH  67  70
ENDBRANCH  57  60
ENDBRANCH  53  56
ENDBRANCH  50  53
ENDBRANCH  47  50
ENDBRANCH  44  47
ENDBRANCH   1  44
TORSDOF 19
ENDMDL
