MODEL 1
REMARK VINA RESULT:     -11.7      0.000      0.000
REMARK SMILES CS(=O)(=O)c1ccc(-c2cc(Cl)cnc2-c2ccc(C(=O)NCCCCCCNC(=O)c3ccc(-c4c5nc(c(-c6c(F)c(F)c(F)c(F)c6F)c6ccc([nH]6)c(-c6c(F)c(F)c(F)c(F)c6F)c6nc(c(-c7c(F)c(F)c(F)c(F)c7F)c7ccc4[nH]7)C=C6)C=C5)cc3)nc2)cc1
REMARK SMILES IDX 24 1 23 4 22 7 20 8 21 9 19 11 16 12 17 13 96 14 18 15 95 17
REMARK SMILES IDX 15 20 9 21 10 22 11 23 14 25 12 26 13 27 8 29 5 30 6 31
REMARK SMILES IDX 98 32 7 33 97 35 2 39 3 40 4 41 1 42 25 46 26 49 27 52 28 55
REMARK SMILES IDX 29 58 30 59 31 61 32 62 33 63 94 64 34 65 93 67 35 69 36 72
REMARK SMILES IDX 37 73 87 74 38 75 92 76 86 77 88 78 39 79 91 80 85 82 84 84
REMARK SMILES IDX 40 86 72 89 52 90 71 91 53 92 56 93 70 94 89 95 54 96 55 98
REMARK SMILES IDX 69 100 90 101 57 104 41 106 42 107 50 108 43 109 44 110
REMARK SMILES IDX 48 111 51 112 45 113 46 114 49 115 47 116 73 117 74 118
REMARK SMILES IDX 82 119 75 120 76 121 80 122 83 123 77 124 78 125 81 126
REMARK SMILES IDX 79 127 58 128 59 129 67 130 60 131 61 132 65 133 68 134
REMARK SMILES IDX 62 135 63 136 66 137 64 138
REMARK H PARENT 24 2 24 3 23 5 23 6 22 10 17 16 96 18 18 19 10 24 13 28 6 34
REMARK H PARENT 98 36 7 37 97 38 1 43 1 44 1 45 25 47 25 48 26 50 26 51 27 53
REMARK H PARENT 27 54 28 56 28 57 29 60 33 66 94 68 34 70 93 71 92 81 86 83
REMARK H PARENT 88 85 91 87 85 88 53 97 56 99 89 102 54 103 90 105
REMARK Flexibility Score: inf
ROOT
ATOM      1  C   UNL A   1      40.334  24.965  27.466  1.00  0.00    -0.036 C 
ATOM      2  H   UNL A   1      41.162  24.301  27.599  1.00  0.00     0.028 H 
ATOM      3  H   UNL A   1      40.310  25.741  28.202  1.00  0.00     0.028 H 
ENDROOT
BRANCH   1   4
ATOM      4  C   UNL A   1      39.040  24.161  27.621  1.00  0.00     0.018 C 
ATOM      5  H   UNL A   1      38.910  23.898  28.650  1.00  0.00     0.049 H 
ATOM      6  H   UNL A   1      38.217  24.759  27.288  1.00  0.00     0.049 H 
BRANCH   4   7
ATOM      7  N   UNL A   1      39.099  22.953  26.823  1.00  0.00    -0.351 N 
ATOM      8  C   UNL A   1      38.241  22.402  25.897  1.00  0.00     0.269 C 
ATOM      9  O   UNL A   1      38.603  21.345  25.377  1.00  0.00    -0.268 OA
ATOM     10  H   UNL A   1      39.913  22.422  26.972  1.00  0.00     0.163 HD
BRANCH   8  11
ATOM     11  C   UNL A   1      36.947  23.044  25.477  1.00  0.00     0.128 A 
ATOM     12  C   UNL A   1      34.453  24.114  24.912  1.00  0.00     0.019 A 
ATOM     13  C   UNL A   1      35.352  23.844  23.876  1.00  0.00    -0.049 A 
ATOM     14  C   UNL A   1      34.908  23.890  26.205  1.00  0.00     0.037 A 
ATOM     15  C   UNL A   1      36.621  23.336  24.160  1.00  0.00    -0.030 A 
ATOM     16  H   UNL A   1      35.076  24.021  22.896  1.00  0.00     0.063 H 
ATOM     17  N   UNL A   1      36.108  23.339  26.506  1.00  0.00    -0.250 NA
ATOM     18  H   UNL A   1      34.292  24.162  26.987  1.00  0.00     0.085 H 
ATOM     19  H   UNL A   1      37.305  23.180  23.403  1.00  0.00     0.065 H 
BRANCH  12  20
ATOM     20  C   UNL A   1      33.092  24.581  24.649  1.00  0.00     0.080 A 
ATOM     21  C   UNL A   1      32.048  23.711  24.266  1.00  0.00     0.010 A 
ATOM     22  C   UNL A   1      30.804  24.295  23.971  1.00  0.00    -0.032 A 
ATOM     23  C   UNL A   1      30.636  25.672  24.074  1.00  0.00     0.060 A 
ATOM     24  H   UNL A   1      30.013  23.701  23.680  1.00  0.00     0.065 H 
ATOM     25  N   UNL A   1      32.933  25.926  24.769  1.00  0.00    -0.254 NA
ATOM     26  Cl  UNL A   1      29.128  26.397  23.701  1.00  0.00    -0.083 Cl
ATOM     27  C   UNL A   1      31.714  26.438  24.478  1.00  0.00     0.046 A 
ATOM     28  H   UNL A   1      31.582  27.458  24.563  1.00  0.00     0.086 H 
BRANCH  21  29
ATOM     29  C   UNL A   1      32.213  22.250  24.164  1.00  0.00    -0.016 A 
ATOM     30  C   UNL A   1      32.524  19.463  23.976  1.00  0.00     0.067 A 
ATOM     31  C   UNL A   1      32.375  20.220  22.813  1.00  0.00    -0.043 A 
ATOM     32  C   UNL A   1      32.534  20.079  25.227  1.00  0.00    -0.043 A 
ATOM     33  C   UNL A   1      32.220  21.606  22.913  1.00  0.00    -0.053 A 
ATOM     34  H   UNL A   1      32.380  19.761  21.889  1.00  0.00     0.064 H 
ATOM     35  C   UNL A   1      32.381  21.466  25.317  1.00  0.00    -0.053 A 
ATOM     36  H   UNL A   1      32.653  19.514  26.084  1.00  0.00     0.064 H 
ATOM     37  H   UNL A   1      32.109  22.167  22.053  1.00  0.00     0.063 H 
ATOM     38  H   UNL A   1      32.391  21.920  26.244  1.00  0.00     0.063 H 
BRANCH  30  39
ATOM     39  S   UNL A   1      32.741  17.702  23.858  1.00  0.00     0.175 S 
ATOM     40  O   UNL A   1      32.525  17.330  22.474  1.00  0.00    -0.224 OA
ATOM     41  O   UNL A   1      31.955  17.113  24.926  1.00  0.00    -0.224 OA
BRANCH  39  42
ATOM     42  C   UNL A   1      34.457  17.430  24.209  1.00  0.00     0.043 C 
ATOM     43  H   UNL A   1      35.021  18.293  23.925  1.00  0.00     0.040 H 
ATOM     44  H   UNL A   1      34.803  16.580  23.660  1.00  0.00     0.040 H 
ATOM     45  H   UNL A   1      34.581  17.252  25.258  1.00  0.00     0.040 H 
ENDBRANCH  39  42
ENDBRANCH  30  39
ENDBRANCH  21  29
ENDBRANCH  12  20
ENDBRANCH   8  11
ENDBRANCH   4   7
ENDBRANCH   1   4
BRANCH   1  46
ATOM     46  C   UNL A   1      40.474  25.648  26.098  1.00  0.00    -0.052 C 
ATOM     47  H   UNL A   1      40.009  26.610  26.158  1.00  0.00     0.027 H 
ATOM     48  H   UNL A   1      40.011  24.993  25.389  1.00  0.00     0.027 H 
BRANCH  46  49
ATOM     49  C   UNL A   1      41.917  25.848  25.615  1.00  0.00    -0.052 C 
ATOM     50  H   UNL A   1      42.476  26.287  26.415  1.00  0.00     0.027 H 
ATOM     51  H   UNL A   1      41.854  26.470  24.746  1.00  0.00     0.027 H 
BRANCH  49  52
ATOM     52  C   UNL A   1      42.641  24.574  25.174  1.00  0.00    -0.036 C 
ATOM     53  H   UNL A   1      42.112  24.160  24.342  1.00  0.00     0.028 H 
ATOM     54  H   UNL A   1      42.660  23.926  26.026  1.00  0.00     0.028 H 
BRANCH  52  55
ATOM     55  C   UNL A   1      44.095  24.781  24.757  1.00  0.00     0.018 C 
ATOM     56  H   UNL A   1      44.378  25.789  24.978  1.00  0.00     0.049 H 
ATOM     57  H   UNL A   1      44.171  24.580  23.708  1.00  0.00     0.049 H 
BRANCH  55  58
ATOM     58  N   UNL A   1      44.994  23.877  25.454  1.00  0.00    -0.352 N 
ATOM     59  C   UNL A   1      45.441  23.921  26.750  1.00  0.00     0.251 C 
ATOM     60  H   UNL A   1      45.332  23.123  24.918  1.00  0.00     0.163 HD
ATOM     61  O   UNL A   1      46.359  23.190  27.111  1.00  0.00    -0.269 OA
BRANCH  59  62
ATOM     62  C   UNL A   1      44.828  24.858  27.716  1.00  0.00     0.039 A 
ATOM     63  C   UNL A   1      43.911  24.362  28.647  1.00  0.00    -0.049 A 
ATOM     64  C   UNL A   1      45.124  26.224  27.680  1.00  0.00    -0.049 A 
ATOM     65  C   UNL A   1      43.327  25.228  29.575  1.00  0.00    -0.053 A 
ATOM     66  H   UNL A   1      43.667  23.359  28.650  1.00  0.00     0.063 H 
ATOM     67  C   UNL A   1      44.588  27.075  28.642  1.00  0.00    -0.053 A 
ATOM     68  H   UNL A   1      45.741  26.599  26.942  1.00  0.00     0.063 H 
ATOM     69  C   UNL A   1      43.678  26.588  29.593  1.00  0.00    -0.014 A 
ATOM     70  H   UNL A   1      42.634  24.867  30.249  1.00  0.00     0.063 H 
ATOM     71  H   UNL A   1      44.861  28.071  28.655  1.00  0.00     0.063 H 
BRANCH  69  72
ATOM     72  C   UNL A   1      43.090  27.518  30.587  1.00  0.00     0.031 A 
ATOM     73  C   UNL A   1      43.721  27.668  31.943  1.00  0.00     0.074 A 
ATOM     74  C   UNL A   1      41.956  28.181  30.292  1.00  0.00     0.049 A 
ATOM     75  N   UNL A   1      43.319  28.372  32.971  1.00  0.00    -0.248 NA
ATOM     76  C   UNL A   1      44.954  26.903  32.185  1.00  0.00    -0.034 C 
ATOM     77  C   UNL A   1      41.226  28.084  29.027  1.00  0.00    -0.036 A 
ATOM     78  N   UNL A   1      41.211  29.058  31.040  1.00  0.00    -0.354 N 
ATOM     79  C   UNL A   1      44.237  28.122  33.983  1.00  0.00     0.074 A 
ATOM     80  C   UNL A   1      45.190  27.166  33.462  1.00  0.00    -0.034 C 
ATOM     81  H   UNL A   1      45.494  26.315  31.531  1.00  0.00     0.065 H 
ATOM     82  C   UNL A   1      40.149  28.883  29.079  1.00  0.00    -0.036 A 
ATOM     83  H   UNL A   1      41.497  27.496  28.223  1.00  0.00     0.065 H 
ATOM     84  C   UNL A   1      40.095  29.525  30.391  1.00  0.00     0.049 A 
ATOM     85  H   UNL A   1      41.454  29.327  31.954  1.00  0.00     0.167 HD
ATOM     86  C   UNL A   1      44.291  28.658  35.226  1.00  0.00     0.037 A 
ATOM     87  H   UNL A   1      45.953  26.744  34.013  1.00  0.00     0.065 H 
ATOM     88  H   UNL A   1      39.468  29.023  28.316  1.00  0.00     0.065 H 
ATOM     89  C   UNL A   1      39.136  30.371  30.809  1.00  0.00     0.037 A 
ATOM     90  C   UNL A   1      43.360  29.634  35.728  1.00  0.00     0.049 A 
ATOM     91  C   UNL A   1      39.226  30.961  32.189  1.00  0.00     0.074 A 
ATOM     92  C   UNL A   1      43.365  30.282  36.951  1.00  0.00    -0.036 A 
ATOM     93  N   UNL A   1      42.258  30.104  35.030  1.00  0.00    -0.354 N 
ATOM     94  N   UNL A   1      40.132  30.764  33.115  1.00  0.00    -0.248 NA
ATOM     95  C   UNL A   1      38.164  31.900  32.578  1.00  0.00    -0.034 C 
ATOM     96  C   UNL A   1      42.245  31.120  37.006  1.00  0.00    -0.036 A 
ATOM     97  H   UNL A   1      44.072  30.169  37.693  1.00  0.00     0.065 H 
ATOM     98  C   UNL A   1      41.566  31.023  35.803  1.00  0.00     0.049 A 
ATOM     99  H   UNL A   1      42.004  29.826  34.121  1.00  0.00     0.167 HD
ATOM    100  C   UNL A   1      39.766  31.569  34.185  1.00  0.00     0.074 A 
ATOM    101  C   UNL A   1      38.563  32.269  33.788  1.00  0.00    -0.034 C 
ATOM    102  H   UNL A   1      37.329  32.195  32.049  1.00  0.00     0.065 H 
ATOM    103  H   UNL A   1      41.971  31.709  37.808  1.00  0.00     0.065 H 
ATOM    104  C   UNL A   1      40.374  31.717  35.387  1.00  0.00     0.037 A 
ATOM    105  H   UNL A   1      38.075  32.966  34.372  1.00  0.00     0.065 H 
BRANCH  86 106
ATOM    106  C   UNL A   1      45.399  28.202  36.128  1.00  0.00     0.064 A 
ATOM    107  C   UNL A   1      46.639  28.857  36.157  1.00  0.00     0.173 A 
ATOM    108  C   UNL A   1      45.210  27.117  36.998  1.00  0.00     0.173 A 
ATOM    109  F   UNL A   1      46.875  29.892  35.337  1.00  0.00    -0.203 F 
ATOM    110  C   UNL A   1      47.658  28.427  37.003  1.00  0.00     0.198 A 
ATOM    111  C   UNL A   1      46.221  26.706  37.862  1.00  0.00     0.198 A 
ATOM    112  F   UNL A   1      44.041  26.458  37.013  1.00  0.00    -0.203 F 
ATOM    113  F   UNL A   1      48.850  29.038  36.979  1.00  0.00    -0.200 F 
ATOM    114  C   UNL A   1      47.446  27.356  37.858  1.00  0.00     0.200 A 
ATOM    115  F   UNL A   1      46.011  25.678  38.696  1.00  0.00    -0.200 F 
ATOM    116  F   UNL A   1      48.427  26.944  38.676  1.00  0.00    -0.200 F 
ENDBRANCH  86 106
BRANCH  89 117
ATOM    117  C   UNL A   1      38.022  30.735  29.896  1.00  0.00     0.064 A 
ATOM    118  C   UNL A   1      37.001  29.819  29.610  1.00  0.00     0.173 A 
ATOM    119  C   UNL A   1      37.953  32.000  29.296  1.00  0.00     0.173 A 
ATOM    120  F   UNL A   1      37.036  28.589  30.145  1.00  0.00    -0.203 F 
ATOM    121  C   UNL A   1      35.960  30.148  28.744  1.00  0.00     0.198 A 
ATOM    122  C   UNL A   1      36.899  32.336  28.449  1.00  0.00     0.198 A 
ATOM    123  F   UNL A   1      38.903  32.914  29.542  1.00  0.00    -0.203 F 
ATOM    124  F   UNL A   1      35.019  29.240  28.456  1.00  0.00    -0.200 F 
ATOM    125  C   UNL A   1      35.908  31.409  28.168  1.00  0.00     0.200 A 
ATOM    126  F   UNL A   1      36.845  33.560  27.903  1.00  0.00    -0.200 F 
ATOM    127  F   UNL A   1      34.904  31.725  27.338  1.00  0.00    -0.200 F 
ENDBRANCH  89 117
BRANCH 104 128
ATOM    128  C   UNL A   1      39.765  32.693  36.348  1.00  0.00     0.064 A 
ATOM    129  C   UNL A   1      38.674  32.345  37.156  1.00  0.00     0.173 A 
ATOM    130  C   UNL A   1      40.307  33.980  36.490  1.00  0.00     0.173 A 
ATOM    131  F   UNL A   1      38.112  31.132  37.045  1.00  0.00    -0.203 F 
ATOM    132  C   UNL A   1      38.133  33.258  38.058  1.00  0.00     0.198 A 
ATOM    133  C   UNL A   1      39.781  34.880  37.410  1.00  0.00     0.198 A 
ATOM    134  F   UNL A   1      41.355  34.359  35.743  1.00  0.00    -0.203 F 
ATOM    135  F   UNL A   1      37.065  32.918  38.792  1.00  0.00    -0.200 F 
ATOM    136  C   UNL A   1      38.691  34.521  38.190  1.00  0.00     0.200 A 
ATOM    137  F   UNL A   1      40.327  36.096  37.545  1.00  0.00    -0.200 F 
ATOM    138  F   UNL A   1      38.172  35.395  39.063  1.00  0.00    -0.200 F 
ENDBRANCH 104 128
ENDBRANCH  69  72
ENDBRANCH  59  62
ENDBRANCH  55  58
ENDBRANCH  52  55
ENDBRANCH  49  52
ENDBRANCH  46  49
ENDBRANCH   1  46
TORSDOF 17
ENDMDL
MODEL 2
REMARK VINA RESULT:     -11.6      3.357      8.466
REMARK SMILES CS(=O)(=O)c1ccc(-c2cc(Cl)cnc2-c2ccc(C(=O)NCCCCCCNC(=O)c3ccc(-c4c5nc(c(-c6c(F)c(F)c(F)c(F)c6F)c6ccc([nH]6)c(-c6c(F)c(F)c(F)c(F)c6F)c6nc(c(-c7c(F)c(F)c(F)c(F)c7F)c7ccc4[nH]7)C=C6)C=C5)cc3)nc2)cc1
REMARK SMILES IDX 24 1 23 4 22 7 20 8 21 9 19 11 16 12 17 13 96 14 18 15 95 17
REMARK SMILES IDX 15 20 9 21 10 22 11 23 14 25 12 26 13 27 8 29 5 30 6 31
REMARK SMILES IDX 98 32 7 33 97 35 2 39 3 40 4 41 1 42 25 46 26 49 27 52 28 55
REMARK SMILES IDX 29 58 30 59 31 61 32 62 33 63 94 64 34 65 93 67 35 69 36 72
REMARK SMILES IDX 37 73 87 74 38 75 92 76 86 77 88 78 39 79 91 80 85 82 84 84
REMARK SMILES IDX 40 86 72 89 52 90 71 91 53 92 56 93 70 94 89 95 54 96 55 98
REMARK SMILES IDX 69 100 90 101 57 104 41 106 42 107 50 108 43 109 44 110
REMARK SMILES IDX 48 111 51 112 45 113 46 114 49 115 47 116 73 117 74 118
REMARK SMILES IDX 82 119 75 120 76 121 80 122 83 123 77 124 78 125 81 126
REMARK SMILES IDX 79 127 58 128 59 129 67 130 60 131 61 132 65 133 68 134
REMARK SMILES IDX 62 135 63 136 66 137 64 138
REMARK H PARENT 24 2 24 3 23 5 23 6 22 10 17 16 96 18 18 19 10 24 13 28 6 34
REMARK H PARENT 98 36 7 37 97 38 1 43 1 44 1 45 25 47 25 48 26 50 26 51 27 53
REMARK H PARENT 27 54 28 56 28 57 29 60 33 66 94 68 34 70 93 71 92 81 86 83
REMARK H PARENT 88 85 91 87 85 88 53 97 56 99 89 102 54 103 90 105
REMARK Flexibility Score: inf
ROOT
ATOM      1  C   UNL A   1      30.459  28.313  23.805  1.00  0.00    -0.036 C 
ATOM      2  H   UNL A   1      29.420  28.566  23.834  1.00  0.00     0.028 H 
ATOM      3  H   UNL A   1      31.090  29.171  23.904  1.00  0.00     0.028 H 
ENDROOT
BRANCH   1   4
ATOM      4  C   UNL A   1      30.766  27.685  22.443  1.00  0.00     0.018 C 
ATOM      5  H   UNL A   1      30.660  26.622  22.513  1.00  0.00     0.049 H 
ATOM      6  H   UNL A   1      30.081  28.075  21.719  1.00  0.00     0.049 H 
BRANCH   4   7
ATOM      7  N   UNL A   1      32.118  28.006  22.034  1.00  0.00    -0.351 N 
ATOM      8  C   UNL A   1      33.300  27.302  22.079  1.00  0.00     0.269 C 
ATOM      9  O   UNL A   1      34.295  27.872  21.626  1.00  0.00    -0.268 OA
ATOM     10  H   UNL A   1      32.209  28.906  21.646  1.00  0.00     0.163 HD
BRANCH   8  11
ATOM     11  C   UNL A   1      33.410  25.894  22.598  1.00  0.00     0.128 A 
ATOM     12  C   UNL A   1      33.451  23.229  23.360  1.00  0.00     0.019 A 
ATOM     13  C   UNL A   1      33.617  24.235  24.317  1.00  0.00    -0.049 A 
ATOM     14  C   UNL A   1      33.345  23.639  22.037  1.00  0.00     0.037 A 
ATOM     15  C   UNL A   1      33.630  25.577  23.932  1.00  0.00    -0.030 A 
ATOM     16  H   UNL A   1      33.731  23.985  25.312  1.00  0.00     0.063 H 
ATOM     17  N   UNL A   1      33.290  24.933  21.642  1.00  0.00    -0.250 NA
ATOM     18  H   UNL A   1      33.307  22.910  21.308  1.00  0.00     0.085 H 
ATOM     19  H   UNL A   1      33.799  26.321  24.627  1.00  0.00     0.065 H 
BRANCH  12  20
ATOM     20  C   UNL A   1      33.363  21.817  23.734  1.00  0.00     0.080 A 
ATOM     21  C   UNL A   1      34.350  21.170  24.507  1.00  0.00     0.010 A 
ATOM     22  C   UNL A   1      34.183  19.793  24.734  1.00  0.00    -0.032 A 
ATOM     23  C   UNL A   1      33.077  19.127  24.217  1.00  0.00     0.060 A 
ATOM     24  H   UNL A   1      34.882  19.275  25.288  1.00  0.00     0.065 H 
ATOM     25  N   UNL A   1      32.269  21.180  23.238  1.00  0.00    -0.254 NA
ATOM     26  Cl  UNL A   1      32.872  17.444  24.474  1.00  0.00    -0.083 Cl
ATOM     27  C   UNL A   1      32.153  19.854  23.489  1.00  0.00     0.046 A 
ATOM     28  H   UNL A   1      31.328  19.359  23.116  1.00  0.00     0.086 H 
BRANCH  21  29
ATOM     29  C   UNL A   1      35.520  21.868  25.068  1.00  0.00    -0.016 A 
ATOM     30  C   UNL A   1      37.755  23.200  26.131  1.00  0.00     0.067 A 
ATOM     31  C   UNL A   1      36.491  23.430  26.676  1.00  0.00    -0.043 A 
ATOM     32  C   UNL A   1      37.920  22.305  25.074  1.00  0.00    -0.043 A 
ATOM     33  C   UNL A   1      35.383  22.765  26.143  1.00  0.00    -0.053 A 
ATOM     34  H   UNL A   1      36.377  24.085  27.466  1.00  0.00     0.064 H 
ATOM     35  C   UNL A   1      36.806  21.643  24.549  1.00  0.00    -0.053 A 
ATOM     36  H   UNL A   1      38.859  22.133  24.680  1.00  0.00     0.064 H 
ATOM     37  H   UNL A   1      34.448  22.936  26.545  1.00  0.00     0.063 H 
ATOM     38  H   UNL A   1      36.930  20.979  23.768  1.00  0.00     0.063 H 
BRANCH  30  39
ATOM     39  S   UNL A   1      39.173  24.027  26.816  1.00  0.00     0.175 S 
ATOM     40  O   UNL A   1      38.763  24.624  28.071  1.00  0.00    -0.224 OA
ATOM     41  O   UNL A   1      39.740  24.832  25.750  1.00  0.00    -0.224 OA
BRANCH  39  42
ATOM     42  C   UNL A   1      40.314  22.727  27.204  1.00  0.00     0.043 C 
ATOM     43  H   UNL A   1      41.315  23.081  27.073  1.00  0.00     0.040 H 
ATOM     44  H   UNL A   1      40.141  21.895  26.555  1.00  0.00     0.040 H 
ATOM     45  H   UNL A   1      40.174  22.422  28.220  1.00  0.00     0.040 H 
ENDBRANCH  39  42
ENDBRANCH  30  39
ENDBRANCH  21  29
ENDBRANCH  12  20
ENDBRANCH   8  11
ENDBRANCH   4   7
ENDBRANCH   1   4
BRANCH   1  46
ATOM     46  C   UNL A   1      30.765  27.390  24.993  1.00  0.00    -0.052 C 
ATOM     47  H   UNL A   1      31.435  26.626  24.655  1.00  0.00     0.027 H 
ATOM     48  H   UNL A   1      29.821  27.012  25.327  1.00  0.00     0.027 H 
BRANCH  46  49
ATOM     49  C   UNL A   1      31.403  28.079  26.206  1.00  0.00    -0.052 C 
ATOM     50  H   UNL A   1      31.012  27.620  27.091  1.00  0.00     0.027 H 
ATOM     51  H   UNL A   1      31.159  29.117  26.119  1.00  0.00     0.027 H 
BRANCH  49  52
ATOM     52  C   UNL A   1      32.931  28.005  26.271  1.00  0.00    -0.036 C 
ATOM     53  H   UNL A   1      33.240  27.092  25.806  1.00  0.00     0.028 H 
ATOM     54  H   UNL A   1      33.193  28.059  27.308  1.00  0.00     0.028 H 
BRANCH  52  55
ATOM     55  C   UNL A   1      33.653  29.159  25.583  1.00  0.00     0.018 C 
ATOM     56  H   UNL A   1      33.497  29.084  24.527  1.00  0.00     0.049 H 
ATOM     57  H   UNL A   1      34.694  29.090  25.824  1.00  0.00     0.049 H 
BRANCH  55  58
ATOM     58  N   UNL A   1      33.171  30.452  26.038  1.00  0.00    -0.352 N 
ATOM     59  C   UNL A   1      33.589  31.213  27.100  1.00  0.00     0.251 C 
ATOM     60  H   UNL A   1      32.437  30.838  25.508  1.00  0.00     0.163 HD
ATOM     61  O   UNL A   1      32.931  32.184  27.461  1.00  0.00    -0.269 OA
BRANCH  59  62
ATOM     62  C   UNL A   1      34.829  30.859  27.825  1.00  0.00     0.039 A 
ATOM     63  C   UNL A   1      35.852  31.807  27.914  1.00  0.00    -0.049 A 
ATOM     64  C   UNL A   1      34.999  29.587  28.381  1.00  0.00    -0.049 A 
ATOM     65  C   UNL A   1      37.027  31.497  28.602  1.00  0.00    -0.053 A 
ATOM     66  H   UNL A   1      35.739  32.733  27.474  1.00  0.00     0.063 H 
ATOM     67  C   UNL A   1      36.145  29.299  29.116  1.00  0.00    -0.053 A 
ATOM     68  H   UNL A   1      34.275  28.863  28.246  1.00  0.00     0.063 H 
ATOM     69  C   UNL A   1      37.174  30.248  29.227  1.00  0.00    -0.014 A 
ATOM     70  H   UNL A   1      37.792  32.188  28.650  1.00  0.00     0.063 H 
ATOM     71  H   UNL A   1      36.239  28.383  29.583  1.00  0.00     0.063 H 
BRANCH  69  72
ATOM     72  C   UNL A   1      38.402  29.910  29.986  1.00  0.00     0.031 A 
ATOM     73  C   UNL A   1      38.586  30.418  31.388  1.00  0.00     0.074 A 
ATOM     74  C   UNL A   1      39.378  29.196  29.392  1.00  0.00     0.049 A 
ATOM     75  N   UNL A   1      39.615  30.293  32.187  1.00  0.00    -0.248 NA
ATOM     76  C   UNL A   1      37.474  31.195  31.958  1.00  0.00    -0.034 C 
ATOM     77  C   UNL A   1      39.335  28.685  28.021  1.00  0.00    -0.036 A 
ATOM     78  N   UNL A   1      40.601  28.788  29.862  1.00  0.00    -0.354 N 
ATOM     79  C   UNL A   1      39.283  30.987  33.343  1.00  0.00     0.074 A 
ATOM     80  C   UNL A   1      37.978  31.570  33.126  1.00  0.00    -0.034 C 
ATOM     81  H   UNL A   1      36.546  31.395  31.555  1.00  0.00     0.065 H 
ATOM     82  C   UNL A   1      40.471  28.017  27.767  1.00  0.00    -0.036 A 
ATOM     83  H   UNL A   1      38.556  28.816  27.357  1.00  0.00     0.065 H 
ATOM     84  C   UNL A   1      41.334  28.079  28.944  1.00  0.00     0.049 A 
ATOM     85  H   UNL A   1      40.922  28.986  30.771  1.00  0.00     0.167 HD
ATOM     86  C   UNL A   1      39.995  31.108  34.490  1.00  0.00     0.037 A 
ATOM     87  H   UNL A   1      37.500  32.197  33.791  1.00  0.00     0.065 H 
ATOM     88  H   UNL A   1      40.700  27.536  26.882  1.00  0.00     0.065 H 
ATOM     89  C   UNL A   1      42.566  27.543  29.040  1.00  0.00     0.037 A 
ATOM     90  C   UNL A   1      41.279  30.498  34.714  1.00  0.00     0.049 A 
ATOM     91  C   UNL A   1      43.329  27.681  30.329  1.00  0.00     0.074 A 
ATOM     92  C   UNL A   1      42.051  30.511  35.863  1.00  0.00    -0.036 A 
ATOM     93  N   UNL A   1      41.977  29.762  33.770  1.00  0.00    -0.354 N 
ATOM     94  N   UNL A   1      42.978  28.288  31.436  1.00  0.00    -0.248 NA
ATOM     95  C   UNL A   1      44.655  27.050  30.382  1.00  0.00    -0.034 C 
ATOM     96  C   UNL A   1      43.235  29.811  35.601  1.00  0.00    -0.036 A 
ATOM     97  H   UNL A   1      41.799  30.958  36.757  1.00  0.00     0.065 H 
ATOM     98  C   UNL A   1      43.181  29.328  34.304  1.00  0.00     0.049 A 
ATOM     99  H   UNL A   1      41.665  29.575  32.855  1.00  0.00     0.167 HD
ATOM    100  C   UNL A   1      44.027  28.093  32.325  1.00  0.00     0.074 A 
ATOM    101  C   UNL A   1      45.020  27.299  31.633  1.00  0.00    -0.034 C 
ATOM    102  H   UNL A   1      45.168  26.547  29.642  1.00  0.00     0.065 H 
ATOM    103  H   UNL A   1      44.016  29.678  36.262  1.00  0.00     0.065 H 
ATOM    104  C   UNL A   1      44.153  28.531  33.601  1.00  0.00     0.037 A 
ATOM    105  H   UNL A   1      45.901  26.970  32.058  1.00  0.00     0.065 H 
BRANCH  86 106
ATOM    106  C   UNL A   1      39.395  31.929  35.593  1.00  0.00     0.064 A 
ATOM    107  C   UNL A   1      38.514  31.369  36.530  1.00  0.00     0.173 A 
ATOM    108  C   UNL A   1      39.729  33.284  35.735  1.00  0.00     0.173 A 
ATOM    109  F   UNL A   1      38.153  30.081  36.430  1.00  0.00    -0.203 F 
ATOM    110  C   UNL A   1      37.968  32.141  37.551  1.00  0.00     0.198 A 
ATOM    111  C   UNL A   1      39.202  34.047  36.774  1.00  0.00     0.198 A 
ATOM    112  F   UNL A   1      40.570  33.869  34.868  1.00  0.00    -0.203 F 
ATOM    113  F   UNL A   1      37.091  31.596  38.406  1.00  0.00    -0.200 F 
ATOM    114  C   UNL A   1      38.317  33.477  37.676  1.00  0.00     0.200 A 
ATOM    115  F   UNL A   1      39.549  35.336  36.901  1.00  0.00    -0.200 F 
ATOM    116  F   UNL A   1      37.793  34.219  38.663  1.00  0.00    -0.200 F 
ENDBRANCH  86 106
BRANCH  89 117
ATOM    117  C   UNL A   1      43.140  26.797  27.891  1.00  0.00     0.064 A 
ATOM    118  C   UNL A   1      43.836  27.469  26.877  1.00  0.00     0.173 A 
ATOM    119  C   UNL A   1      43.008  25.406  27.783  1.00  0.00     0.173 A 
ATOM    120  F   UNL A   1      43.969  28.803  26.927  1.00  0.00    -0.203 F 
ATOM    121  C   UNL A   1      44.365  26.779  25.788  1.00  0.00     0.198 A 
ATOM    122  C   UNL A   1      43.559  24.714  26.707  1.00  0.00     0.198 A 
ATOM    123  F   UNL A   1      42.355  24.717  28.731  1.00  0.00    -0.203 F 
ATOM    124  F   UNL A   1      44.991  27.450  24.813  1.00  0.00    -0.200 F 
ATOM    125  C   UNL A   1      44.230  25.401  25.707  1.00  0.00     0.200 A 
ATOM    126  F   UNL A   1      43.437  23.380  26.637  1.00  0.00    -0.200 F 
ATOM    127  F   UNL A   1      44.743  24.738  24.662  1.00  0.00    -0.200 F 
ENDBRANCH  89 117
BRANCH 104 128
ATOM    128  C   UNL A   1      45.395  28.136  34.342  1.00  0.00     0.064 A 
ATOM    129  C   UNL A   1      45.470  26.936  35.062  1.00  0.00     0.173 A 
ATOM    130  C   UNL A   1      46.538  28.951  34.297  1.00  0.00     0.173 A 
ATOM    131  F   UNL A   1      44.400  26.132  35.147  1.00  0.00    -0.203 F 
ATOM    132  C   UNL A   1      46.639  26.574  35.729  1.00  0.00     0.198 A 
ATOM    133  C   UNL A   1      47.711  28.574  34.943  1.00  0.00     0.198 A 
ATOM    134  F   UNL A   1      46.517  30.107  33.616  1.00  0.00    -0.203 F 
ATOM    135  F   UNL A   1      46.675  25.442  36.445  1.00  0.00    -0.200 F 
ATOM    136  C   UNL A   1      47.759  27.389  35.663  1.00  0.00     0.200 A 
ATOM    137  F   UNL A   1      48.796  29.356  34.868  1.00  0.00    -0.200 F 
ATOM    138  F   UNL A   1      48.884  27.036  36.299  1.00  0.00    -0.200 F 
ENDBRANCH 104 128
ENDBRANCH  69  72
ENDBRANCH  59  62
ENDBRANCH  55  58
ENDBRANCH  52  55
ENDBRANCH  49  52
ENDBRANCH  46  49
ENDBRANCH   1  46
TORSDOF 17
ENDMDL
MODEL 3
REMARK VINA RESULT:     -11.6      6.173     12.469
REMARK SMILES CS(=O)(=O)c1ccc(-c2cc(Cl)cnc2-c2ccc(C(=O)NCCCCCCNC(=O)c3ccc(-c4c5nc(c(-c6c(F)c(F)c(F)c(F)c6F)c6ccc([nH]6)c(-c6c(F)c(F)c(F)c(F)c6F)c6nc(c(-c7c(F)c(F)c(F)c(F)c7F)c7ccc4[nH]7)C=C6)C=C5)cc3)nc2)cc1
REMARK SMILES IDX 24 1 23 4 22 7 20 8 21 9 19 11 16 12 17 13 96 14 18 15 95 17
REMARK SMILES IDX 15 20 9 21 10 22 11 23 14 25 12 26 13 27 8 29 5 30 6 31
REMARK SMILES IDX 98 32 7 33 97 35 2 39 3 40 4 41 1 42 25 46 26 49 27 52 28 55
REMARK SMILES IDX 29 58 30 59 31 61 32 62 33 63 94 64 34 65 93 67 35 69 36 72
REMARK SMILES IDX 37 73 87 74 38 75 92 76 86 77 88 78 39 79 91 80 85 82 84 84
REMARK SMILES IDX 40 86 72 89 52 90 71 91 53 92 56 93 70 94 89 95 54 96 55 98
REMARK SMILES IDX 69 100 90 101 57 104 41 106 42 107 50 108 43 109 44 110
REMARK SMILES IDX 48 111 51 112 45 113 46 114 49 115 47 116 73 117 74 118
REMARK SMILES IDX 82 119 75 120 76 121 80 122 83 123 77 124 78 125 81 126
REMARK SMILES IDX 79 127 58 128 59 129 67 130 60 131 61 132 65 133 68 134
REMARK SMILES IDX 62 135 63 136 66 137 64 138
REMARK H PARENT 24 2 24 3 23 5 23 6 22 10 17 16 96 18 18 19 10 24 13 28 6 34
REMARK H PARENT 98 36 7 37 97 38 1 43 1 44 1 45 25 47 25 48 26 50 26 51 27 53
REMARK H PARENT 27 54 28 56 28 57 29 60 33 66 94 68 34 70 93 71 92 81 86 83
REMARK H PARENT 88 85 91 87 85 88 53 97 56 99 89 102 54 103 90 105
REMARK Flexibility Score: inf
ROOT
ATOM      1  C   UNL A   1      33.245  36.439  29.826  1.00  0.00    -0.036 C 
ATOM      2  H   UNL A   1      34.295  36.244  29.882  1.00  0.00     0.028 H 
ATOM      3  H   UNL A   1      33.029  37.478  29.694  1.00  0.00     0.028 H 
ENDROOT
BRANCH   1   4
ATOM      4  C   UNL A   1      32.603  36.013  31.149  1.00  0.00     0.018 C 
ATOM      5  H   UNL A   1      31.538  36.016  31.041  1.00  0.00     0.049 H 
ATOM      6  H   UNL A   1      32.944  35.029  31.400  1.00  0.00     0.049 H 
BRANCH   4   7
ATOM      7  N   UNL A   1      32.979  36.926  32.209  1.00  0.00    -0.351 N 
ATOM      8  C   UNL A   1      33.890  36.840  33.238  1.00  0.00     0.269 C 
ATOM      9  O   UNL A   1      33.977  37.823  33.976  1.00  0.00    -0.268 OA
ATOM     10  H   UNL A   1      32.486  37.777  32.189  1.00  0.00     0.163 HD
BRANCH   8  11
ATOM     11  C   UNL A   1      34.785  35.651  33.458  1.00  0.00     0.128 A 
ATOM     12  C   UNL A   1      36.417  33.414  33.606  1.00  0.00     0.019 A 
ATOM     13  C   UNL A   1      35.627  33.780  34.699  1.00  0.00    -0.049 A 
ATOM     14  C   UNL A   1      36.388  34.262  32.506  1.00  0.00     0.037 A 
ATOM     15  C   UNL A   1      34.829  34.924  34.640  1.00  0.00    -0.030 A 
ATOM     16  H   UNL A   1      35.633  33.201  35.555  1.00  0.00     0.063 H 
ATOM     17  N   UNL A   1      35.577  35.341  32.396  1.00  0.00    -0.250 NA
ATOM     18  H   UNL A   1      37.027  34.057  31.722  1.00  0.00     0.085 H 
ATOM     19  H   UNL A   1      34.280  35.225  35.461  1.00  0.00     0.065 H 
BRANCH  12  20
ATOM     20  C   UNL A   1      37.211  32.186  33.605  1.00  0.00     0.080 A 
ATOM     21  C   UNL A   1      38.406  32.050  34.343  1.00  0.00     0.010 A 
ATOM     22  C   UNL A   1      39.114  30.844  34.198  1.00  0.00    -0.032 A 
ATOM     23  C   UNL A   1      38.626  29.842  33.367  1.00  0.00     0.060 A 
ATOM     24  H   UNL A   1      39.997  30.702  34.712  1.00  0.00     0.065 H 
ATOM     25  N   UNL A   1      36.716  31.206  32.802  1.00  0.00    -0.254 NA
ATOM     26  Cl  UNL A   1      39.489  28.374  33.170  1.00  0.00    -0.083 Cl
ATOM     27  C   UNL A   1      37.434  30.062  32.701  1.00  0.00     0.046 A 
ATOM     28  H   UNL A   1      37.070  29.312  32.093  1.00  0.00     0.086 H 
BRANCH  21  29
ATOM     29  C   UNL A   1      38.927  33.102  35.235  1.00  0.00    -0.016 A 
ATOM     30  C   UNL A   1      39.922  35.102  36.941  1.00  0.00     0.067 A 
ATOM     31  C   UNL A   1      39.976  35.285  35.558  1.00  0.00    -0.043 A 
ATOM     32  C   UNL A   1      39.366  33.943  37.482  1.00  0.00    -0.043 A 
ATOM     33  C   UNL A   1      39.480  34.286  34.714  1.00  0.00    -0.053 A 
ATOM     34  H   UNL A   1      40.377  36.149  35.163  1.00  0.00     0.064 H 
ATOM     35  C   UNL A   1      38.870  32.950  36.630  1.00  0.00    -0.053 A 
ATOM     36  H   UNL A   1      39.321  33.817  38.506  1.00  0.00     0.064 H 
ATOM     37  H   UNL A   1      39.521  34.420  33.692  1.00  0.00     0.063 H 
ATOM     38  H   UNL A   1      38.457  32.095  37.033  1.00  0.00     0.063 H 
BRANCH  30  39
ATOM     39  S   UNL A   1      40.532  36.375  38.021  1.00  0.00     0.175 S 
ATOM     40  O   UNL A   1      39.410  37.223  38.371  1.00  0.00    -0.224 OA
ATOM     41  O   UNL A   1      41.720  36.922  37.391  1.00  0.00    -0.224 OA
BRANCH  39  42
ATOM     42  C   UNL A   1      41.022  35.524  39.497  1.00  0.00     0.043 C 
ATOM     43  H   UNL A   1      40.462  34.617  39.589  1.00  0.00     0.040 H 
ATOM     44  H   UNL A   1      40.837  36.146  40.346  1.00  0.00     0.040 H 
ATOM     45  H   UNL A   1      42.067  35.294  39.445  1.00  0.00     0.040 H 
ENDBRANCH  39  42
ENDBRANCH  30  39
ENDBRANCH  21  29
ENDBRANCH  12  20
ENDBRANCH   8  11
ENDBRANCH   4   7
ENDBRANCH   1   4
BRANCH   1  46
ATOM     46  C   UNL A   1      32.681  35.703  28.602  1.00  0.00    -0.052 C 
ATOM     47  H   UNL A   1      32.956  36.255  27.727  1.00  0.00     0.027 H 
ATOM     48  H   UNL A   1      31.624  35.641  28.753  1.00  0.00     0.027 H 
BRANCH  46  49
ATOM     49  C   UNL A   1      33.173  34.260  28.425  1.00  0.00    -0.052 C 
ATOM     50  H   UNL A   1      33.013  33.978  27.405  1.00  0.00     0.027 H 
ATOM     51  H   UNL A   1      32.616  33.670  29.124  1.00  0.00     0.027 H 
BRANCH  49  52
ATOM     52  C   UNL A   1      34.650  34.028  28.754  1.00  0.00    -0.036 C 
ATOM     53  H   UNL A   1      34.722  33.749  29.784  1.00  0.00     0.028 H 
ATOM     54  H   UNL A   1      35.158  34.943  28.529  1.00  0.00     0.028 H 
BRANCH  52  55
ATOM     55  C   UNL A   1      35.324  32.943  27.919  1.00  0.00     0.018 C 
ATOM     56  H   UNL A   1      36.217  32.628  28.418  1.00  0.00     0.049 H 
ATOM     57  H   UNL A   1      35.546  33.355  26.956  1.00  0.00     0.049 H 
BRANCH  55  58
ATOM     58  N   UNL A   1      34.462  31.790  27.726  1.00  0.00    -0.352 N 
ATOM     59  C   UNL A   1      34.786  30.458  27.683  1.00  0.00     0.251 C 
ATOM     60  H   UNL A   1      33.505  31.994  27.610  1.00  0.00     0.163 HD
ATOM     61  O   UNL A   1      33.958  29.633  27.308  1.00  0.00    -0.269 OA
BRANCH  59  62
ATOM     62  C   UNL A   1      36.139  30.009  28.078  1.00  0.00     0.039 A 
ATOM     63  C   UNL A   1      37.191  30.163  27.171  1.00  0.00    -0.049 A 
ATOM     64  C   UNL A   1      36.362  29.406  29.319  1.00  0.00    -0.049 A 
ATOM     65  C   UNL A   1      38.479  29.754  27.528  1.00  0.00    -0.053 A 
ATOM     66  H   UNL A   1      37.018  30.577  26.242  1.00  0.00     0.063 H 
ATOM     67  C   UNL A   1      37.655  29.054  29.696  1.00  0.00    -0.053 A 
ATOM     68  H   UNL A   1      35.570  29.222  29.955  1.00  0.00     0.063 H 
ATOM     69  C   UNL A   1      38.724  29.217  28.801  1.00  0.00    -0.014 A 
ATOM     70  H   UNL A   1      39.253  29.848  26.851  1.00  0.00     0.063 H 
ATOM     71  H   UNL A   1      37.829  28.671  30.639  1.00  0.00     0.063 H 
BRANCH  69  72
ATOM     72  C   UNL A   1      40.089  28.803  29.208  1.00  0.00     0.031 A 
ATOM     73  C   UNL A   1      40.913  29.694  30.095  1.00  0.00     0.074 A 
ATOM     74  C   UNL A   1      40.609  27.656  28.733  1.00  0.00     0.049 A 
ATOM     75  N   UNL A   1      42.149  29.546  30.502  1.00  0.00    -0.248 NA
ATOM     76  C   UNL A   1      40.272  30.932  30.565  1.00  0.00    -0.034 C 
ATOM     77  C   UNL A   1      39.924  26.730  27.830  1.00  0.00    -0.036 A 
ATOM     78  N   UNL A   1      41.839  27.080  28.931  1.00  0.00    -0.354 N 
ATOM     79  C   UNL A   1      42.437  30.675  31.257  1.00  0.00     0.074 A 
ATOM     80  C   UNL A   1      41.265  31.521  31.216  1.00  0.00    -0.034 C 
ATOM     81  H   UNL A   1      39.302  31.256  30.424  1.00  0.00     0.065 H 
ATOM     82  C   UNL A   1      40.735  25.693  27.568  1.00  0.00    -0.036 A 
ATOM     83  H   UNL A   1      38.970  26.853  27.456  1.00  0.00     0.065 H 
ATOM     84  C   UNL A   1      42.007  25.896  28.257  1.00  0.00     0.049 A 
ATOM     85  H   UNL A   1      42.533  27.478  29.503  1.00  0.00     0.167 HD
ATOM     86  C   UNL A   1      43.569  30.967  31.942  1.00  0.00     0.037 A 
ATOM     87  H   UNL A   1      41.208  32.461  31.637  1.00  0.00     0.065 H 
ATOM     88  H   UNL A   1      40.499  24.882  26.974  1.00  0.00     0.065 H 
ATOM     89  C   UNL A   1      43.069  25.071  28.199  1.00  0.00     0.037 A 
ATOM     90  C   UNL A   1      44.720  30.106  32.008  1.00  0.00     0.049 A 
ATOM     91  C   UNL A   1      44.309  25.413  28.978  1.00  0.00     0.074 A 
ATOM     92  C   UNL A   1      45.891  30.284  32.724  1.00  0.00    -0.036 A 
ATOM     93  N   UNL A   1      44.842  28.900  31.335  1.00  0.00    -0.354 N 
ATOM     94  N   UNL A   1      44.547  26.454  29.738  1.00  0.00    -0.248 NA
ATOM     95  C   UNL A   1      45.425  24.460  28.897  1.00  0.00    -0.034 C 
ATOM     96  C   UNL A   1      46.737  29.202  32.455  1.00  0.00    -0.036 A 
ATOM     97  H   UNL A   1      46.104  31.078  33.348  1.00  0.00     0.065 H 
ATOM     98  C   UNL A   1      46.077  28.331  31.604  1.00  0.00     0.049 A 
ATOM     99  H   UNL A   1      44.155  28.507  30.750  1.00  0.00     0.167 HD
ATOM    100  C   UNL A   1      45.826  26.270  30.246  1.00  0.00     0.074 A 
ATOM    101  C   UNL A   1      46.308  25.011  29.718  1.00  0.00    -0.034 C 
ATOM    102  H   UNL A   1      45.501  23.591  28.347  1.00  0.00     0.065 H 
ATOM    103  H   UNL A   1      47.692  29.076  32.826  1.00  0.00     0.065 H 
ATOM    104  C   UNL A   1      46.536  27.072  31.076  1.00  0.00     0.037 A 
ATOM    105  H   UNL A   1      47.224  24.595  29.950  1.00  0.00     0.065 H 
BRANCH  86 106
ATOM    106  C   UNL A   1      43.614  32.273  32.679  1.00  0.00     0.064 A 
ATOM    107  C   UNL A   1      44.083  33.446  32.067  1.00  0.00     0.173 A 
ATOM    108  C   UNL A   1      43.154  32.361  34.001  1.00  0.00     0.173 A 
ATOM    109  F   UNL A   1      44.546  33.411  30.809  1.00  0.00    -0.203 F 
ATOM    110  C   UNL A   1      44.115  34.652  32.761  1.00  0.00     0.198 A 
ATOM    111  C   UNL A   1      43.163  33.575  34.683  1.00  0.00     0.198 A 
ATOM    112  F   UNL A   1      42.692  31.270  34.631  1.00  0.00    -0.203 F 
ATOM    113  F   UNL A   1      44.612  35.749  32.172  1.00  0.00    -0.200 F 
ATOM    114  C   UNL A   1      43.650  34.717  34.066  1.00  0.00     0.200 A 
ATOM    115  F   UNL A   1      42.701  33.639  35.940  1.00  0.00    -0.200 F 
ATOM    116  F   UNL A   1      43.678  35.881  34.732  1.00  0.00    -0.200 F 
ENDBRANCH  86 106
BRANCH  89 117
ATOM    117  C   UNL A   1      42.993  23.823  27.397  1.00  0.00     0.064 A 
ATOM    118  C   UNL A   1      42.512  22.635  27.963  1.00  0.00     0.173 A 
ATOM    119  C   UNL A   1      43.394  23.792  26.054  1.00  0.00     0.173 A 
ATOM    120  F   UNL A   1      42.137  22.612  29.251  1.00  0.00    -0.203 F 
ATOM    121  C   UNL A   1      42.451  21.457  27.222  1.00  0.00     0.198 A 
ATOM    122  C   UNL A   1      43.309  22.620  25.306  1.00  0.00     0.198 A 
ATOM    123  F   UNL A   1      43.856  24.905  25.465  1.00  0.00    -0.203 F 
ATOM    124  F   UNL A   1      42.025  20.326  27.799  1.00  0.00    -0.200 F 
ATOM    125  C   UNL A   1      42.845  21.452  25.892  1.00  0.00     0.200 A 
ATOM    126  F   UNL A   1      43.680  22.621  24.018  1.00  0.00    -0.200 F 
ATOM    127  F   UNL A   1      42.782  20.320  25.179  1.00  0.00    -0.200 F 
ENDBRANCH  89 117
BRANCH 104 128
ATOM    128  C   UNL A   1      47.897  26.598  31.490  1.00  0.00     0.064 A 
ATOM    129  C   UNL A   1      48.081  25.800  32.628  1.00  0.00     0.173 A 
ATOM    130  C   UNL A   1      49.024  26.914  30.716  1.00  0.00     0.173 A 
ATOM    131  F   UNL A   1      47.037  25.484  33.408  1.00  0.00    -0.203 F 
ATOM    132  C   UNL A   1      49.350  25.351  32.987  1.00  0.00     0.198 A 
ATOM    133  C   UNL A   1      50.286  26.443  31.064  1.00  0.00     0.198 A 
ATOM    134  F   UNL A   1      48.897  27.670  29.615  1.00  0.00    -0.203 F 
ATOM    135  F   UNL A   1      49.510  24.623  34.101  1.00  0.00    -0.200 F 
ATOM    136  C   UNL A   1      50.449  25.667  32.202  1.00  0.00     0.200 A 
ATOM    137  F   UNL A   1      51.345  26.738  30.298  1.00  0.00    -0.200 F 
ATOM    138  F   UNL A   1      51.668  25.229  32.546  1.00  0.00    -0.200 F 
ENDBRANCH 104 128
ENDBRANCH  69  72
ENDBRANCH  59  62
ENDBRANCH  55  58
ENDBRANCH  52  55
ENDBRANCH  49  52
ENDBRANCH  46  49
ENDBRANCH   1  46
TORSDOF 17
ENDMDL
MODEL 4
REMARK VINA RESULT:     -11.6      3.631      8.594
REMARK SMILES CS(=O)(=O)c1ccc(-c2cc(Cl)cnc2-c2ccc(C(=O)NCCCCCCNC(=O)c3ccc(-c4c5nc(c(-c6c(F)c(F)c(F)c(F)c6F)c6ccc([nH]6)c(-c6c(F)c(F)c(F)c(F)c6F)c6nc(c(-c7c(F)c(F)c(F)c(F)c7F)c7ccc4[nH]7)C=C6)C=C5)cc3)nc2)cc1
REMARK SMILES IDX 24 1 23 4 22 7 20 8 21 9 19 11 16 12 17 13 96 14 18 15 95 17
REMARK SMILES IDX 15 20 9 21 10 22 11 23 14 25 12 26 13 27 8 29 5 30 6 31
REMARK SMILES IDX 98 32 7 33 97 35 2 39 3 40 4 41 1 42 25 46 26 49 27 52 28 55
REMARK SMILES IDX 29 58 30 59 31 61 32 62 33 63 94 64 34 65 93 67 35 69 36 72
REMARK SMILES IDX 37 73 87 74 38 75 92 76 86 77 88 78 39 79 91 80 85 82 84 84
REMARK SMILES IDX 40 86 72 89 52 90 71 91 53 92 56 93 70 94 89 95 54 96 55 98
REMARK SMILES IDX 69 100 90 101 57 104 41 106 42 107 50 108 43 109 44 110
REMARK SMILES IDX 48 111 51 112 45 113 46 114 49 115 47 116 73 117 74 118
REMARK SMILES IDX 82 119 75 120 76 121 80 122 83 123 77 124 78 125 81 126
REMARK SMILES IDX 79 127 58 128 59 129 67 130 60 131 61 132 65 133 68 134
REMARK SMILES IDX 62 135 63 136 66 137 64 138
REMARK H PARENT 24 2 24 3 23 5 23 6 22 10 17 16 96 18 18 19 10 24 13 28 6 34
REMARK H PARENT 98 36 7 37 97 38 1 43 1 44 1 45 25 47 25 48 26 50 26 51 27 53
REMARK H PARENT 27 54 28 56 28 57 29 60 33 66 94 68 34 70 93 71 92 81 86 83
REMARK H PARENT 88 85 91 87 85 88 53 97 56 99 89 102 54 103 90 105
REMARK Flexibility Score: inf
ROOT
ATOM      1  C   UNL A   1      35.033  32.741  29.039  1.00  0.00    -0.036 C 
ATOM      2  H   UNL A   1      35.360  32.150  29.868  1.00  0.00     0.028 H 
ATOM      3  H   UNL A   1      33.974  32.695  28.897  1.00  0.00     0.028 H 
ENDROOT
BRANCH   1   4
ATOM      4  C   UNL A   1      35.679  32.188  27.765  1.00  0.00     0.018 C 
ATOM      5  H   UNL A   1      34.957  32.188  26.975  1.00  0.00     0.049 H 
ATOM      6  H   UNL A   1      36.512  32.806  27.502  1.00  0.00     0.049 H 
BRANCH   4   7
ATOM      7  N   UNL A   1      36.147  30.835  27.986  1.00  0.00    -0.351 N 
ATOM      8  C   UNL A   1      35.617  29.600  27.682  1.00  0.00     0.269 C 
ATOM      9  O   UNL A   1      36.292  28.620  28.004  1.00  0.00    -0.268 OA
ATOM     10  H   UNL A   1      37.017  30.789  28.444  1.00  0.00     0.163 HD
BRANCH   8  11
ATOM     11  C   UNL A   1      34.314  29.412  26.955  1.00  0.00     0.128 A 
ATOM     12  C   UNL A   1      32.026  29.176  25.407  1.00  0.00     0.019 A 
ATOM     13  C   UNL A   1      31.923  29.324  26.793  1.00  0.00    -0.049 A 
ATOM     14  C   UNL A   1      33.310  29.081  24.885  1.00  0.00     0.037 A 
ATOM     15  C   UNL A   1      33.073  29.410  27.579  1.00  0.00    -0.030 A 
ATOM     16  H   UNL A   1      30.992  29.370  27.238  1.00  0.00     0.063 H 
ATOM     17  N   UNL A   1      34.442  29.225  25.614  1.00  0.00    -0.250 NA
ATOM     18  H   UNL A   1      33.407  28.887  23.876  1.00  0.00     0.085 H 
ATOM     19  H   UNL A   1      33.004  29.471  28.607  1.00  0.00     0.065 H 
BRANCH  12  20
ATOM     20  C   UNL A   1      30.845  29.152  24.544  1.00  0.00     0.080 A 
ATOM     21  C   UNL A   1      30.292  27.955  24.042  1.00  0.00     0.010 A 
ATOM     22  C   UNL A   1      29.200  28.074  23.164  1.00  0.00    -0.032 A 
ATOM     23  C   UNL A   1      28.702  29.330  22.833  1.00  0.00     0.060 A 
ATOM     24  H   UNL A   1      28.767  27.228  22.765  1.00  0.00     0.065 H 
ATOM     25  N   UNL A   1      30.355  30.384  24.241  1.00  0.00    -0.254 NA
ATOM     26  Cl  UNL A   1      27.382  29.488  21.749  1.00  0.00    -0.083 Cl
ATOM     27  C   UNL A   1      29.300  30.444  23.394  1.00  0.00     0.046 A 
ATOM     28  H   UNL A   1      28.921  31.373  23.154  1.00  0.00     0.086 H 
BRANCH  21  29
ATOM     29  C   UNL A   1      30.805  26.620  24.394  1.00  0.00    -0.016 A 
ATOM     30  C   UNL A   1      31.792  24.074  25.063  1.00  0.00     0.067 A 
ATOM     31  C   UNL A   1      30.914  24.724  25.932  1.00  0.00    -0.043 A 
ATOM     32  C   UNL A   1      32.172  24.671  23.861  1.00  0.00    -0.043 A 
ATOM     33  C   UNL A   1      30.427  25.991  25.594  1.00  0.00    -0.053 A 
ATOM     34  H   UNL A   1      30.628  24.273  26.815  1.00  0.00     0.064 H 
ATOM     35  C   UNL A   1      31.678  25.937  23.530  1.00  0.00    -0.053 A 
ATOM     36  H   UNL A   1      32.815  24.182  23.217  1.00  0.00     0.064 H 
ATOM     37  H   UNL A   1      29.779  26.472  26.237  1.00  0.00     0.063 H 
ATOM     38  H   UNL A   1      31.958  26.375  22.639  1.00  0.00     0.063 H 
BRANCH  30  39
ATOM     39  S   UNL A   1      32.401  22.456  25.475  1.00  0.00     0.175 S 
ATOM     40  O   UNL A   1      31.251  21.598  25.677  1.00  0.00    -0.224 OA
ATOM     41  O   UNL A   1      33.396  22.638  26.516  1.00  0.00    -0.224 OA
BRANCH  39  42
ATOM     42  C   UNL A   1      33.222  21.891  24.009  1.00  0.00     0.043 C 
ATOM     43  H   UNL A   1      34.277  22.029  24.115  1.00  0.00     0.040 H 
ATOM     44  H   UNL A   1      32.872  22.449  23.166  1.00  0.00     0.040 H 
ATOM     45  H   UNL A   1      33.012  20.852  23.861  1.00  0.00     0.040 H 
ENDBRANCH  39  42
ENDBRANCH  30  39
ENDBRANCH  21  29
ENDBRANCH  12  20
ENDBRANCH   8  11
ENDBRANCH   4   7
ENDBRANCH   1   4
BRANCH   1  46
ATOM     46  C   UNL A   1      35.386  34.209  29.321  1.00  0.00    -0.052 C 
ATOM     47  H   UNL A   1      36.446  34.320  29.222  1.00  0.00     0.027 H 
ATOM     48  H   UNL A   1      35.026  34.417  30.307  1.00  0.00     0.027 H 
BRANCH  46  49
ATOM     49  C   UNL A   1      34.713  35.231  28.395  1.00  0.00    -0.052 C 
ATOM     50  H   UNL A   1      34.328  34.705  27.546  1.00  0.00     0.027 H 
ATOM     51  H   UNL A   1      35.468  35.948  28.149  1.00  0.00     0.027 H 
BRANCH  49  52
ATOM     52  C   UNL A   1      33.563  36.022  29.022  1.00  0.00    -0.036 C 
ATOM     53  H   UNL A   1      32.926  36.366  28.234  1.00  0.00     0.028 H 
ATOM     54  H   UNL A   1      34.011  36.820  29.579  1.00  0.00     0.028 H 
BRANCH  52  55
ATOM     55  C   UNL A   1      32.711  35.232  30.012  1.00  0.00     0.018 C 
ATOM     56  H   UNL A   1      33.264  34.376  30.336  1.00  0.00     0.049 H 
ATOM     57  H   UNL A   1      31.808  34.943  29.515  1.00  0.00     0.049 H 
BRANCH  55  58
ATOM     58  N   UNL A   1      32.350  36.026  31.174  1.00  0.00    -0.352 N 
ATOM     59  C   UNL A   1      32.843  35.972  32.453  1.00  0.00     0.251 C 
ATOM     60  H   UNL A   1      31.650  36.702  31.022  1.00  0.00     0.163 HD
ATOM     61  O   UNL A   1      32.279  36.578  33.358  1.00  0.00    -0.269 OA
BRANCH  59  62
ATOM     62  C   UNL A   1      34.052  35.172  32.750  1.00  0.00     0.039 A 
ATOM     63  C   UNL A   1      35.308  35.746  32.539  1.00  0.00    -0.049 A 
ATOM     64  C   UNL A   1      33.948  33.851  33.196  1.00  0.00    -0.049 A 
ATOM     65  C   UNL A   1      36.463  35.011  32.822  1.00  0.00    -0.053 A 
ATOM     66  H   UNL A   1      35.384  36.709  32.177  1.00  0.00     0.063 H 
ATOM     67  C   UNL A   1      35.096  33.141  33.534  1.00  0.00    -0.053 A 
ATOM     68  H   UNL A   1      33.021  33.404  33.276  1.00  0.00     0.063 H 
ATOM     69  C   UNL A   1      36.365  33.711  33.342  1.00  0.00    -0.014 A 
ATOM     70  H   UNL A   1      37.391  35.426  32.647  1.00  0.00     0.063 H 
ATOM     71  H   UNL A   1      35.015  32.190  33.927  1.00  0.00     0.063 H 
BRANCH  69  72
ATOM     72  C   UNL A   1      37.578  32.925  33.675  1.00  0.00     0.031 A 
ATOM     73  C   UNL A   1      38.317  33.187  34.957  1.00  0.00     0.074 A 
ATOM     74  C   UNL A   1      38.048  32.020  32.797  1.00  0.00     0.049 A 
ATOM     75  N   UNL A   1      39.432  32.659  35.395  1.00  0.00    -0.248 NA
ATOM     76  C   UNL A   1      37.738  34.196  35.858  1.00  0.00    -0.034 C 
ATOM     77  C   UNL A   1      37.445  31.708  31.500  1.00  0.00    -0.036 A 
ATOM     78  N   UNL A   1      39.150  31.203  32.856  1.00  0.00    -0.354 N 
ATOM     79  C   UNL A   1      39.697  33.283  36.606  1.00  0.00     0.074 A 
ATOM     80  C   UNL A   1      38.652  34.261  36.815  1.00  0.00    -0.034 C 
ATOM     81  H   UNL A   1      36.852  34.718  35.766  1.00  0.00     0.065 H 
ATOM     82  C   UNL A   1      38.173  30.757  30.895  1.00  0.00    -0.036 A 
ATOM     83  H   UNL A   1      36.595  32.149  31.114  1.00  0.00     0.065 H 
ATOM     84  C   UNL A   1      39.310  30.413  31.745  1.00  0.00     0.049 A 
ATOM     85  H   UNL A   1      39.766  31.186  33.622  1.00  0.00     0.167 HD
ATOM     86  C   UNL A   1      40.708  33.046  37.476  1.00  0.00     0.037 A 
ATOM     87  H   UNL A   1      38.621  34.924  37.606  1.00  0.00     0.065 H 
ATOM     88  H   UNL A   1      37.963  30.335  29.976  1.00  0.00     0.065 H 
ATOM     89  C   UNL A   1      40.268  29.517  31.445  1.00  0.00     0.037 A 
ATOM     90  C   UNL A   1      41.727  32.048  37.280  1.00  0.00     0.049 A 
ATOM     91  C   UNL A   1      41.373  29.263  32.434  1.00  0.00     0.074 A 
ATOM     92  C   UNL A   1      42.758  31.689  38.131  1.00  0.00    -0.036 A 
ATOM     93  N   UNL A   1      41.839  31.247  36.155  1.00  0.00    -0.354 N 
ATOM     94  N   UNL A   1      41.578  29.816  33.603  1.00  0.00    -0.248 NA
ATOM     95  C   UNL A   1      42.374  28.253  32.062  1.00  0.00    -0.034 C 
ATOM     96  C   UNL A   1      43.516  30.694  37.503  1.00  0.00    -0.036 A 
ATOM     97  H   UNL A   1      42.938  32.086  39.066  1.00  0.00     0.065 H 
ATOM     98  C   UNL A   1      42.933  30.405  36.280  1.00  0.00     0.049 A 
ATOM     99  H   UNL A   1      41.232  31.272  35.380  1.00  0.00     0.167 HD
ATOM    100  C   UNL A   1      42.714  29.207  34.119  1.00  0.00     0.074 A 
ATOM    101  C   UNL A   1      43.146  28.231  33.140  1.00  0.00    -0.034 C 
ATOM    102  H   UNL A   1      42.455  27.705  31.192  1.00  0.00     0.065 H 
ATOM    103  H   UNL A   1      44.367  30.252  37.886  1.00  0.00     0.065 H 
ATOM    104  C   UNL A   1      43.342  29.434  35.298  1.00  0.00     0.037 A 
ATOM    105  H   UNL A   1      43.952  27.599  33.264  1.00  0.00     0.065 H 
BRANCH  86 106
ATOM    106  C   UNL A   1      40.759  33.878  38.723  1.00  0.00     0.064 A 
ATOM    107  C   UNL A   1      40.036  33.524  39.872  1.00  0.00     0.173 A 
ATOM    108  C   UNL A   1      41.563  35.027  38.781  1.00  0.00     0.173 A 
ATOM    109  F   UNL A   1      39.243  32.442  39.864  1.00  0.00    -0.203 F 
ATOM    110  C   UNL A   1      40.095  34.303  41.024  1.00  0.00     0.198 A 
ATOM    111  C   UNL A   1      41.641  35.788  39.944  1.00  0.00     0.198 A 
ATOM    112  F   UNL A   1      42.277  35.408  37.711  1.00  0.00    -0.203 F 
ATOM    113  F   UNL A   1      39.359  33.971  42.095  1.00  0.00    -0.200 F 
ATOM    114  C   UNL A   1      40.902  35.431  41.061  1.00  0.00     0.200 A 
ATOM    115  F   UNL A   1      42.430  36.872  39.983  1.00  0.00    -0.200 F 
ATOM    116  F   UNL A   1      40.961  36.178  42.173  1.00  0.00    -0.200 F 
ENDBRANCH  86 106
BRANCH  89 117
ATOM    117  C   UNL A   1      40.206  28.769  30.163  1.00  0.00     0.064 A 
ATOM    118  C   UNL A   1      39.534  27.542  30.081  1.00  0.00     0.173 A 
ATOM    119  C   UNL A   1      40.810  29.263  28.998  1.00  0.00     0.173 A 
ATOM    120  F   UNL A   1      38.959  27.020  31.175  1.00  0.00    -0.203 F 
ATOM    121  C   UNL A   1      39.484  26.827  28.887  1.00  0.00     0.198 A 
ATOM    122  C   UNL A   1      40.738  28.560  27.798  1.00  0.00     0.198 A 
ATOM    123  F   UNL A   1      41.460  30.436  29.025  1.00  0.00    -0.203 F 
ATOM    124  F   UNL A   1      38.870  25.637  28.845  1.00  0.00    -0.200 F 
ATOM    125  C   UNL A   1      40.081  27.340  27.745  1.00  0.00     0.200 A 
ATOM    126  F   UNL A   1      41.306  29.063  26.694  1.00  0.00    -0.200 F 
ATOM    127  F   UNL A   1      40.028  26.653  26.595  1.00  0.00    -0.200 F 
ENDBRANCH  89 117
BRANCH 104 128
ATOM    128  C   UNL A   1      44.543  28.593  35.609  1.00  0.00     0.064 A 
ATOM    129  C   UNL A   1      45.836  28.999  35.250  1.00  0.00     0.173 A 
ATOM    130  C   UNL A   1      44.402  27.385  36.310  1.00  0.00     0.173 A 
ATOM    131  F   UNL A   1      46.021  30.137  34.566  1.00  0.00    -0.203 F 
ATOM    132  C   UNL A   1      46.944  28.215  35.564  1.00  0.00     0.198 A 
ATOM    133  C   UNL A   1      45.513  26.618  36.645  1.00  0.00     0.198 A 
ATOM    134  F   UNL A   1      43.185  26.957  36.680  1.00  0.00    -0.203 F 
ATOM    135  F   UNL A   1      48.167  28.601  35.176  1.00  0.00    -0.200 F 
ATOM    136  C   UNL A   1      46.782  27.029  36.267  1.00  0.00     0.200 A 
ATOM    137  F   UNL A   1      45.356  25.479  37.333  1.00  0.00    -0.200 F 
ATOM    138  F   UNL A   1      47.850  26.281  36.573  1.00  0.00    -0.200 F 
ENDBRANCH 104 128
ENDBRANCH  69  72
ENDBRANCH  59  62
ENDBRANCH  55  58
ENDBRANCH  52  55
ENDBRANCH  49  52
ENDBRANCH  46  49
ENDBRANCH   1  46
TORSDOF 17
ENDMDL
MODEL 5
REMARK VINA RESULT:     -11.5      3.606      8.500
REMARK SMILES CS(=O)(=O)c1ccc(-c2cc(Cl)cnc2-c2ccc(C(=O)NCCCCCCNC(=O)c3ccc(-c4c5nc(c(-c6c(F)c(F)c(F)c(F)c6F)c6ccc([nH]6)c(-c6c(F)c(F)c(F)c(F)c6F)c6nc(c(-c7c(F)c(F)c(F)c(F)c7F)c7ccc4[nH]7)C=C6)C=C5)cc3)nc2)cc1
REMARK SMILES IDX 24 1 23 4 22 7 20 8 21 9 19 11 16 12 17 13 96 14 18 15 95 17
REMARK SMILES IDX 15 20 9 21 10 22 11 23 14 25 12 26 13 27 8 29 5 30 6 31
REMARK SMILES IDX 98 32 7 33 97 35 2 39 3 40 4 41 1 42 25 46 26 49 27 52 28 55
REMARK SMILES IDX 29 58 30 59 31 61 32 62 33 63 94 64 34 65 93 67 35 69 36 72
REMARK SMILES IDX 37 73 87 74 38 75 92 76 86 77 88 78 39 79 91 80 85 82 84 84
REMARK SMILES IDX 40 86 72 89 52 90 71 91 53 92 56 93 70 94 89 95 54 96 55 98
REMARK SMILES IDX 69 100 90 101 57 104 41 106 42 107 50 108 43 109 44 110
REMARK SMILES IDX 48 111 51 112 45 113 46 114 49 115 47 116 73 117 74 118
REMARK SMILES IDX 82 119 75 120 76 121 80 122 83 123 77 124 78 125 81 126
REMARK SMILES IDX 79 127 58 128 59 129 67 130 60 131 61 132 65 133 68 134
REMARK SMILES IDX 62 135 63 136 66 137 64 138
REMARK H PARENT 24 2 24 3 23 5 23 6 22 10 17 16 96 18 18 19 10 24 13 28 6 34
REMARK H PARENT 98 36 7 37 97 38 1 43 1 44 1 45 25 47 25 48 26 50 26 51 27 53
REMARK H PARENT 27 54 28 56 28 57 29 60 33 66 94 68 34 70 93 71 92 81 86 83
REMARK H PARENT 88 85 91 87 85 88 53 97 56 99 89 102 54 103 90 105
REMARK Flexibility Score: inf
ROOT
ATOM      1  C   UNL A   1      35.588  32.989  29.264  1.00  0.00    -0.036 C 
ATOM      2  H   UNL A   1      36.446  32.617  29.784  1.00  0.00     0.028 H 
ATOM      3  H   UNL A   1      34.680  32.823  29.805  1.00  0.00     0.028 H 
ENDROOT
BRANCH   1   4
ATOM      4  C   UNL A   1      35.464  32.237  27.936  1.00  0.00     0.018 C 
ATOM      5  H   UNL A   1      34.429  32.151  27.676  1.00  0.00     0.049 H 
ATOM      6  H   UNL A   1      35.989  32.781  27.179  1.00  0.00     0.049 H 
BRANCH   4   7
ATOM      7  N   UNL A   1      36.041  30.914  28.051  1.00  0.00    -0.351 N 
ATOM      8  C   UNL A   1      35.605  29.666  27.662  1.00  0.00     0.269 C 
ATOM      9  O   UNL A   1      36.360  28.723  27.903  1.00  0.00    -0.268 OA
ATOM     10  H   UNL A   1      36.919  30.904  28.496  1.00  0.00     0.163 HD
BRANCH   8  11
ATOM     11  C   UNL A   1      34.310  29.428  26.936  1.00  0.00     0.128 A 
ATOM     12  C   UNL A   1      32.023  29.125  25.398  1.00  0.00     0.019 A 
ATOM     13  C   UNL A   1      31.931  29.153  26.793  1.00  0.00    -0.049 A 
ATOM     14  C   UNL A   1      33.301  29.180  24.857  1.00  0.00     0.037 A 
ATOM     15  C   UNL A   1      33.084  29.273  27.571  1.00  0.00    -0.030 A 
ATOM     16  H   UNL A   1      31.008  29.086  27.250  1.00  0.00     0.063 H 
ATOM     17  N   UNL A   1      34.429  29.360  25.583  1.00  0.00    -0.250 NA
ATOM     18  H   UNL A   1      33.396  29.075  23.835  1.00  0.00     0.085 H 
ATOM     19  H   UNL A   1      33.028  29.246  28.601  1.00  0.00     0.065 H 
BRANCH  12  20
ATOM     20  C   UNL A   1      30.833  29.071  24.549  1.00  0.00     0.080 A 
ATOM     21  C   UNL A   1      30.272  27.857  24.098  1.00  0.00     0.010 A 
ATOM     22  C   UNL A   1      29.172  27.945  23.227  1.00  0.00    -0.032 A 
ATOM     23  C   UNL A   1      28.673  29.188  22.854  1.00  0.00     0.060 A 
ATOM     24  H   UNL A   1      28.733  27.085  22.865  1.00  0.00     0.065 H 
ATOM     25  N   UNL A   1      30.342  30.291  24.204  1.00  0.00    -0.254 NA
ATOM     26  Cl  UNL A   1      27.342  29.308  21.779  1.00  0.00    -0.083 Cl
ATOM     27  C   UNL A   1      29.278  30.321  23.367  1.00  0.00     0.046 A 
ATOM     28  H   UNL A   1      28.898  31.241  23.096  1.00  0.00     0.086 H 
BRANCH  21  29
ATOM     29  C   UNL A   1      30.787  26.535  24.495  1.00  0.00    -0.016 A 
ATOM     30  C   UNL A   1      31.762  24.010  25.255  1.00  0.00     0.067 A 
ATOM     31  C   UNL A   1      32.306  24.654  24.143  1.00  0.00    -0.043 A 
ATOM     32  C   UNL A   1      30.750  24.616  26.000  1.00  0.00    -0.043 A 
ATOM     33  C   UNL A   1      31.817  25.909  23.769  1.00  0.00    -0.053 A 
ATOM     34  H   UNL A   1      33.063  24.207  23.602  1.00  0.00     0.064 H 
ATOM     35  C   UNL A   1      30.268  25.872  25.620  1.00  0.00    -0.053 A 
ATOM     36  H   UNL A   1      30.357  24.138  26.828  1.00  0.00     0.064 H 
ATOM     37  H   UNL A   1      32.218  26.385  22.946  1.00  0.00     0.063 H 
ATOM     38  H   UNL A   1      29.521  26.319  26.174  1.00  0.00     0.063 H 
BRANCH  30  39
ATOM     39  S   UNL A   1      32.392  22.423  25.749  1.00  0.00     0.175 S 
ATOM     40  O   UNL A   1      33.659  22.229  25.073  1.00  0.00    -0.224 OA
ATOM     41  O   UNL A   1      31.303  21.476  25.592  1.00  0.00    -0.224 OA
BRANCH  39  42
ATOM     42  C   UNL A   1      32.743  22.590  27.479  1.00  0.00     0.043 C 
ATOM     43  H   UNL A   1      32.115  21.927  28.036  1.00  0.00     0.040 H 
ATOM     44  H   UNL A   1      32.558  23.598  27.785  1.00  0.00     0.040 H 
ATOM     45  H   UNL A   1      33.769  22.345  27.659  1.00  0.00     0.040 H 
ENDBRANCH  39  42
ENDBRANCH  30  39
ENDBRANCH  21  29
ENDBRANCH  12  20
ENDBRANCH   8  11
ENDBRANCH   4   7
ENDBRANCH   1   4
BRANCH   1  46
ATOM     46  C   UNL A   1      35.741  34.508  29.101  1.00  0.00    -0.052 C 
ATOM     47  H   UNL A   1      36.718  34.702  28.706  1.00  0.00     0.027 H 
ATOM     48  H   UNL A   1      35.582  34.930  30.071  1.00  0.00     0.027 H 
BRANCH  46  49
ATOM     49  C   UNL A   1      34.715  35.171  28.173  1.00  0.00    -0.052 C 
ATOM     50  H   UNL A   1      34.285  34.408  27.556  1.00  0.00     0.027 H 
ATOM     51  H   UNL A   1      35.251  35.915  27.622  1.00  0.00     0.027 H 
BRANCH  49  52
ATOM     52  C   UNL A   1      33.573  35.905  28.880  1.00  0.00    -0.036 C 
ATOM     53  H   UNL A   1      32.880  36.238  28.137  1.00  0.00     0.028 H 
ATOM     54  H   UNL A   1      34.022  36.710  29.426  1.00  0.00     0.028 H 
BRANCH  52  55
ATOM     55  C   UNL A   1      32.811  35.064  29.900  1.00  0.00     0.018 C 
ATOM     56  H   UNL A   1      33.453  34.286  30.255  1.00  0.00     0.049 H 
ATOM     57  H   UNL A   1      31.945  34.661  29.417  1.00  0.00     0.049 H 
BRANCH  55  58
ATOM     58  N   UNL A   1      32.364  35.857  31.033  1.00  0.00    -0.352 N 
ATOM     59  C   UNL A   1      32.797  35.839  32.334  1.00  0.00     0.251 C 
ATOM     60  H   UNL A   1      31.645  36.502  30.838  1.00  0.00     0.163 HD
ATOM     61  O   UNL A   1      32.166  36.433  33.203  1.00  0.00    -0.269 OA
BRANCH  59  62
ATOM     62  C   UNL A   1      34.021  35.093  32.698  1.00  0.00     0.039 A 
ATOM     63  C   UNL A   1      33.895  33.801  33.215  1.00  0.00    -0.049 A 
ATOM     64  C   UNL A   1      35.285  35.677  32.568  1.00  0.00    -0.049 A 
ATOM     65  C   UNL A   1      35.039  33.075  33.557  1.00  0.00    -0.053 A 
ATOM     66  H   UNL A   1      32.960  33.384  33.344  1.00  0.00     0.063 H 
ATOM     67  C   UNL A   1      36.426  34.932  32.852  1.00  0.00    -0.053 A 
ATOM     68  H   UNL A   1      35.371  36.659  32.260  1.00  0.00     0.063 H 
ATOM     69  C   UNL A   1      36.314  33.628  33.358  1.00  0.00    -0.014 A 
ATOM     70  H   UNL A   1      34.945  32.129  33.959  1.00  0.00     0.063 H 
ATOM     71  H   UNL A   1      37.360  35.342  32.691  1.00  0.00     0.063 H 
BRANCH  69  72
ATOM     72  C   UNL A   1      37.541  32.863  33.688  1.00  0.00     0.031 A 
ATOM     73  C   UNL A   1      38.287  33.149  34.960  1.00  0.00     0.074 A 
ATOM     74  C   UNL A   1      38.015  31.954  32.815  1.00  0.00     0.049 A 
ATOM     75  N   UNL A   1      39.414  32.642  35.393  1.00  0.00    -0.248 NA
ATOM     76  C   UNL A   1      37.703  34.160  35.854  1.00  0.00    -0.034 C 
ATOM     77  C   UNL A   1      37.405  31.620  31.528  1.00  0.00    -0.036 A 
ATOM     78  N   UNL A   1      39.129  31.154  32.873  1.00  0.00    -0.354 N 
ATOM     79  C   UNL A   1      39.681  33.283  36.595  1.00  0.00     0.074 A 
ATOM     80  C   UNL A   1      38.625  34.249  36.803  1.00  0.00    -0.034 C 
ATOM     81  H   UNL A   1      36.809  34.669  35.766  1.00  0.00     0.065 H 
ATOM     82  C   UNL A   1      38.140  30.672  30.926  1.00  0.00    -0.036 A 
ATOM     83  H   UNL A   1      36.545  32.045  31.145  1.00  0.00     0.065 H 
ATOM     84  C   UNL A   1      39.290  30.354  31.769  1.00  0.00     0.049 A 
ATOM     85  H   UNL A   1      39.753  31.154  33.633  1.00  0.00     0.167 HD
ATOM     86  C   UNL A   1      40.704  33.070  37.457  1.00  0.00     0.037 A 
ATOM     87  H   UNL A   1      38.592  34.920  37.586  1.00  0.00     0.065 H 
ATOM     88  H   UNL A   1      37.928  30.237  30.014  1.00  0.00     0.065 H 
ATOM     89  C   UNL A   1      40.258  29.468  31.470  1.00  0.00     0.037 A 
ATOM     90  C   UNL A   1      41.735  32.084  37.263  1.00  0.00     0.049 A 
ATOM     91  C   UNL A   1      41.375  29.241  32.451  1.00  0.00     0.074 A 
ATOM     92  C   UNL A   1      42.779  31.749  38.108  1.00  0.00    -0.036 A 
ATOM     93  N   UNL A   1      41.848  31.272  36.145  1.00  0.00    -0.354 N 
ATOM     94  N   UNL A   1      41.584  29.810  33.612  1.00  0.00    -0.248 NA
ATOM     95  C   UNL A   1      42.387  28.241  32.081  1.00  0.00    -0.034 C 
ATOM     96  C   UNL A   1      43.545  30.758  37.484  1.00  0.00    -0.036 A 
ATOM     97  H   UNL A   1      42.962  32.159  39.036  1.00  0.00     0.065 H 
ATOM     98  C   UNL A   1      42.955  30.447  36.269  1.00  0.00     0.049 A 
ATOM     99  H   UNL A   1      41.234  31.280  35.376  1.00  0.00     0.167 HD
ATOM    100  C   UNL A   1      42.733  29.222  34.124  1.00  0.00     0.074 A 
ATOM    101  C   UNL A   1      43.169  28.242  33.152  1.00  0.00    -0.034 C 
ATOM    102  H   UNL A   1      42.468  27.685  31.216  1.00  0.00     0.065 H 
ATOM    103  H   UNL A   1      44.405  30.332  37.863  1.00  0.00     0.065 H 
ATOM    104  C   UNL A   1      43.368  29.471  35.294  1.00  0.00     0.037 A 
ATOM    105  H   UNL A   1      43.986  27.623  33.275  1.00  0.00     0.065 H 
BRANCH  86 106
ATOM    106  C   UNL A   1      40.755  33.917  38.694  1.00  0.00     0.064 A 
ATOM    107  C   UNL A   1      41.476  35.120  38.732  1.00  0.00     0.173 A 
ATOM    108  C   UNL A   1      40.048  33.540  39.846  1.00  0.00     0.173 A 
ATOM    109  F   UNL A   1      42.179  35.519  37.661  1.00  0.00    -0.203 F 
ATOM    110  C   UNL A   1      41.511  35.899  39.885  1.00  0.00     0.198 A 
ATOM    111  C   UNL A   1      40.063  34.335  40.988  1.00  0.00     0.198 A 
ATOM    112  F   UNL A   1      39.339  32.400  39.862  1.00  0.00    -0.203 F 
ATOM    113  F   UNL A   1      42.246  37.020  39.913  1.00  0.00    -0.200 F 
ATOM    114  C   UNL A   1      40.800  35.509  41.010  1.00  0.00     0.200 A 
ATOM    115  F   UNL A   1      39.366  33.963  42.072  1.00  0.00    -0.200 F 
ATOM    116  F   UNL A   1      40.831  36.263  42.119  1.00  0.00    -0.200 F 
ENDBRANCH  86 106
BRANCH  89 117
ATOM    117  C   UNL A   1      40.194  28.705  30.197  1.00  0.00     0.064 A 
ATOM    118  C   UNL A   1      40.798  29.201  29.034  1.00  0.00     0.173 A 
ATOM    119  C   UNL A   1      39.536  27.470  30.117  1.00  0.00     0.173 A 
ATOM    120  F   UNL A   1      41.421  30.389  29.057  1.00  0.00    -0.203 F 
ATOM    121  C   UNL A   1      40.731  28.499  27.832  1.00  0.00     0.198 A 
ATOM    122  C   UNL A   1      39.491  26.757  28.921  1.00  0.00     0.198 A 
ATOM    123  F   UNL A   1      38.948  26.950  31.205  1.00  0.00    -0.203 F 
ATOM    124  F   UNL A   1      41.281  29.014  26.725  1.00  0.00    -0.200 F 
ATOM    125  C   UNL A   1      40.082  27.274  27.779  1.00  0.00     0.200 A 
ATOM    126  F   UNL A   1      38.873  25.568  28.876  1.00  0.00    -0.200 F 
ATOM    127  F   UNL A   1      40.021  26.597  26.624  1.00  0.00    -0.200 F 
ENDBRANCH  89 117
BRANCH 104 128
ATOM    128  C   UNL A   1      44.584  28.650  35.603  1.00  0.00     0.064 A 
ATOM    129  C   UNL A   1      44.493  27.436  36.297  1.00  0.00     0.173 A 
ATOM    130  C   UNL A   1      45.851  29.066  35.164  1.00  0.00     0.173 A 
ATOM    131  F   UNL A   1      43.307  27.004  36.750  1.00  0.00    -0.203 F 
ATOM    132  C   UNL A   1      45.630  26.675  36.559  1.00  0.00     0.198 A 
ATOM    133  C   UNL A   1      46.981  28.291  35.405  1.00  0.00     0.198 A 
ATOM    134  F   UNL A   1      45.989  30.218  34.491  1.00  0.00    -0.203 F 
ATOM    135  F   UNL A   1      45.526  25.537  37.259  1.00  0.00    -0.200 F 
ATOM    136  C   UNL A   1      46.871  27.099  36.107  1.00  0.00     0.200 A 
ATOM    137  F   UNL A   1      48.177  28.696  34.957  1.00  0.00    -0.200 F 
ATOM    138  F   UNL A   1      47.963  26.363  36.354  1.00  0.00    -0.200 F 
ENDBRANCH 104 128
ENDBRANCH  69  72
ENDBRANCH  59  62
ENDBRANCH  55  58
ENDBRANCH  52  55
ENDBRANCH  49  52
ENDBRANCH  46  49
ENDBRANCH   1  46
TORSDOF 17
ENDMDL
MODEL 6
REMARK VINA RESULT:     -11.5      4.708      7.739
REMARK SMILES CS(=O)(=O)c1ccc(-c2cc(Cl)cnc2-c2ccc(C(=O)NCCCCCCNC(=O)c3ccc(-c4c5nc(c(-c6c(F)c(F)c(F)c(F)c6F)c6ccc([nH]6)c(-c6c(F)c(F)c(F)c(F)c6F)c6nc(c(-c7c(F)c(F)c(F)c(F)c7F)c7ccc4[nH]7)C=C6)C=C5)cc3)nc2)cc1
REMARK SMILES IDX 24 1 23 4 22 7 20 8 21 9 19 11 16 12 17 13 96 14 18 15 95 17
REMARK SMILES IDX 15 20 9 21 10 22 11 23 14 25 12 26 13 27 8 29 5 30 6 31
REMARK SMILES IDX 98 32 7 33 97 35 2 39 3 40 4 41 1 42 25 46 26 49 27 52 28 55
REMARK SMILES IDX 29 58 30 59 31 61 32 62 33 63 94 64 34 65 93 67 35 69 36 72
REMARK SMILES IDX 37 73 87 74 38 75 92 76 86 77 88 78 39 79 91 80 85 82 84 84
REMARK SMILES IDX 40 86 72 89 52 90 71 91 53 92 56 93 70 94 89 95 54 96 55 98
REMARK SMILES IDX 69 100 90 101 57 104 41 106 42 107 50 108 43 109 44 110
REMARK SMILES IDX 48 111 51 112 45 113 46 114 49 115 47 116 73 117 74 118
REMARK SMILES IDX 82 119 75 120 76 121 80 122 83 123 77 124 78 125 81 126
REMARK SMILES IDX 79 127 58 128 59 129 67 130 60 131 61 132 65 133 68 134
REMARK SMILES IDX 62 135 63 136 66 137 64 138
REMARK H PARENT 24 2 24 3 23 5 23 6 22 10 17 16 96 18 18 19 10 24 13 28 6 34
REMARK H PARENT 98 36 7 37 97 38 1 43 1 44 1 45 25 47 25 48 26 50 26 51 27 53
REMARK H PARENT 27 54 28 56 28 57 29 60 33 66 94 68 34 70 93 71 92 81 86 83
REMARK H PARENT 88 85 91 87 85 88 53 97 56 99 89 102 54 103 90 105
REMARK Flexibility Score: inf
ROOT
ATOM      1  C   UNL A   1      40.181  24.863  27.853  1.00  0.00    -0.036 C 
ATOM      2  H   UNL A   1      39.737  24.189  28.555  1.00  0.00     0.028 H 
ATOM      3  H   UNL A   1      40.051  25.887  28.132  1.00  0.00     0.028 H 
ENDROOT
BRANCH   1   4
ATOM      4  C   UNL A   1      39.487  24.677  26.500  1.00  0.00     0.018 C 
ATOM      5  H   UNL A   1      38.528  25.150  26.528  1.00  0.00     0.049 H 
ATOM      6  H   UNL A   1      40.093  25.118  25.736  1.00  0.00     0.049 H 
BRANCH   4   7
ATOM      7  N   UNL A   1      39.317  23.267  26.211  1.00  0.00    -0.351 N 
ATOM      8  C   UNL A   1      38.256  22.532  25.733  1.00  0.00     0.269 C 
ATOM      9  O   UNL A   1      38.449  21.324  25.584  1.00  0.00    -0.268 OA
ATOM     10  H   UNL A   1      40.121  22.729  26.394  1.00  0.00     0.163 HD
BRANCH   8  11
ATOM     11  C   UNL A   1      36.932  23.136  25.351  1.00  0.00     0.128 A 
ATOM     12  C   UNL A   1      34.397  24.150  24.871  1.00  0.00     0.019 A 
ATOM     13  C   UNL A   1      35.231  23.811  23.801  1.00  0.00    -0.049 A 
ATOM     14  C   UNL A   1      34.935  24.021  26.145  1.00  0.00     0.037 A 
ATOM     15  C   UNL A   1      36.520  23.332  24.040  1.00  0.00    -0.030 A 
ATOM     16  H   UNL A   1      34.893  23.916  22.832  1.00  0.00     0.063 H 
ATOM     17  N   UNL A   1      36.156  23.499  26.408  1.00  0.00    -0.250 NA
ATOM     18  H   UNL A   1      34.366  24.345  26.943  1.00  0.00     0.085 H 
ATOM     19  H   UNL A   1      37.157  23.125  23.254  1.00  0.00     0.065 H 
BRANCH  12  20
ATOM     20  C   UNL A   1      33.017  24.589  24.663  1.00  0.00     0.080 A 
ATOM     21  C   UNL A   1      31.976  23.698  24.327  1.00  0.00     0.010 A 
ATOM     22  C   UNL A   1      30.710  24.257  24.082  1.00  0.00    -0.032 A 
ATOM     23  C   UNL A   1      30.519  25.630  24.185  1.00  0.00     0.060 A 
ATOM     24  H   UNL A   1      29.919  23.646  23.825  1.00  0.00     0.065 H 
ATOM     25  N   UNL A   1      32.838  25.931  24.783  1.00  0.00    -0.254 NA
ATOM     26  Cl  UNL A   1      28.983  26.326  23.872  1.00  0.00    -0.083 Cl
ATOM     27  C   UNL A   1      31.598  26.419  24.541  1.00  0.00     0.046 A 
ATOM     28  H   UNL A   1      31.451  27.436  24.627  1.00  0.00     0.086 H 
BRANCH  21  29
ATOM     29  C   UNL A   1      32.164  22.240  24.224  1.00  0.00    -0.016 A 
ATOM     30  C   UNL A   1      32.529  19.460  24.022  1.00  0.00     0.067 A 
ATOM     31  C   UNL A   1      32.529  20.066  25.279  1.00  0.00    -0.043 A 
ATOM     32  C   UNL A   1      32.336  20.220  22.868  1.00  0.00    -0.043 A 
ATOM     33  C   UNL A   1      32.348  21.449  25.374  1.00  0.00    -0.053 A 
ATOM     34  H   UNL A   1      32.660  19.498  26.131  1.00  0.00     0.064 H 
ATOM     35  C   UNL A   1      32.153  21.602  22.972  1.00  0.00    -0.053 A 
ATOM     36  H   UNL A   1      32.328  19.764  21.941  1.00  0.00     0.064 H 
ATOM     37  H   UNL A   1      32.349  21.898  26.303  1.00  0.00     0.063 H 
ATOM     38  H   UNL A   1      32.007  22.161  22.118  1.00  0.00     0.063 H 
BRANCH  30  39
ATOM     39  S   UNL A   1      32.738  17.699  23.894  1.00  0.00     0.175 S 
ATOM     40  O   UNL A   1      32.526  17.336  22.507  1.00  0.00    -0.224 OA
ATOM     41  O   UNL A   1      31.946  17.107  24.956  1.00  0.00    -0.224 OA
BRANCH  39  42
ATOM     42  C   UNL A   1      34.452  17.417  24.251  1.00  0.00     0.043 C 
ATOM     43  H   UNL A   1      34.966  18.354  24.292  1.00  0.00     0.040 H 
ATOM     44  H   UNL A   1      34.880  16.808  23.483  1.00  0.00     0.040 H 
ATOM     45  H   UNL A   1      34.542  16.919  25.194  1.00  0.00     0.040 H 
ENDBRANCH  39  42
ENDBRANCH  30  39
ENDBRANCH  21  29
ENDBRANCH  12  20
ENDBRANCH   8  11
ENDBRANCH   4   7
ENDBRANCH   1   4
BRANCH   1  46
ATOM     46  C   UNL A   1      41.692  24.596  27.813  1.00  0.00    -0.052 C 
ATOM     47  H   UNL A   1      42.196  25.503  28.075  1.00  0.00     0.027 H 
ATOM     48  H   UNL A   1      41.909  24.259  26.820  1.00  0.00     0.027 H 
BRANCH  46  49
ATOM     49  C   UNL A   1      42.184  23.490  28.755  1.00  0.00    -0.052 C 
ATOM     50  H   UNL A   1      41.383  23.243  29.422  1.00  0.00     0.027 H 
ATOM     51  H   UNL A   1      43.046  23.885  29.251  1.00  0.00     0.027 H 
BRANCH  49  52
ATOM     52  C   UNL A   1      42.641  22.201  28.068  1.00  0.00    -0.036 C 
ATOM     53  H   UNL A   1      41.882  21.460  28.209  1.00  0.00     0.028 H 
ATOM     54  H   UNL A   1      43.577  21.934  28.516  1.00  0.00     0.028 H 
BRANCH  52  55
ATOM     55  C   UNL A   1      42.902  22.336  26.571  1.00  0.00     0.018 C 
ATOM     56  H   UNL A   1      42.684  23.340  26.272  1.00  0.00     0.049 H 
ATOM     57  H   UNL A   1      42.274  21.635  26.060  1.00  0.00     0.049 H 
BRANCH  55  58
ATOM     58  N   UNL A   1      44.282  22.033  26.230  1.00  0.00    -0.352 N 
ATOM     59  C   UNL A   1      45.355  22.879  26.108  1.00  0.00     0.251 C 
ATOM     60  H   UNL A   1      44.475  21.082  26.062  1.00  0.00     0.163 HD
ATOM     61  O   UNL A   1      46.404  22.479  25.613  1.00  0.00    -0.269 OA
BRANCH  59  62
ATOM     62  C   UNL A   1      45.249  24.283  26.563  1.00  0.00     0.039 A 
ATOM     63  C   UNL A   1      44.780  25.248  25.667  1.00  0.00    -0.049 A 
ATOM     64  C   UNL A   1      45.645  24.653  27.851  1.00  0.00    -0.049 A 
ATOM     65  C   UNL A   1      44.663  26.578  26.078  1.00  0.00    -0.053 A 
ATOM     66  H   UNL A   1      44.521  24.979  24.705  1.00  0.00     0.063 H 
ATOM     67  C   UNL A   1      45.472  25.967  28.279  1.00  0.00    -0.053 A 
ATOM     68  H   UNL A   1      46.064  23.954  28.484  1.00  0.00     0.063 H 
ATOM     69  C   UNL A   1      44.988  26.943  27.394  1.00  0.00    -0.014 A 
ATOM     70  H   UNL A   1      44.338  27.295  25.411  1.00  0.00     0.063 H 
ATOM     71  H   UNL A   1      45.701  26.224  29.252  1.00  0.00     0.063 H 
BRANCH  69  72
ATOM     72  C   UNL A   1      44.844  28.344  27.858  1.00  0.00     0.031 A 
ATOM     73  C   UNL A   1      43.552  28.806  28.472  1.00  0.00     0.074 A 
ATOM     74  C   UNL A   1      45.853  29.216  27.673  1.00  0.00     0.049 A 
ATOM     75  N   UNL A   1      43.205  30.003  28.873  1.00  0.00    -0.248 NA
ATOM     76  C   UNL A   1      42.499  27.792  28.633  1.00  0.00    -0.034 C 
ATOM     77  C   UNL A   1      47.139  28.898  27.049  1.00  0.00    -0.036 A 
ATOM     78  N   UNL A   1      45.952  30.550  27.979  1.00  0.00    -0.354 N 
ATOM     79  C   UNL A   1      41.894  29.889  29.314  1.00  0.00     0.074 A 
ATOM     80  C   UNL A   1      41.490  28.519  29.090  1.00  0.00    -0.034 C 
ATOM     81  H   UNL A   1      42.536  26.779  28.439  1.00  0.00     0.065 H 
ATOM     82  C   UNL A   1      47.904  30.001  27.035  1.00  0.00    -0.036 A 
ATOM     83  H   UNL A   1      47.413  27.974  26.680  1.00  0.00     0.065 H 
ATOM     84  C   UNL A   1      47.153  31.109  27.619  1.00  0.00     0.049 A 
ATOM     85  H   UNL A   1      45.231  31.057  28.415  1.00  0.00     0.167 HD
ATOM     86  C   UNL A   1      41.106  30.838  29.875  1.00  0.00     0.037 A 
ATOM     87  H   UNL A   1      40.540  28.154  29.263  1.00  0.00     0.065 H 
ATOM     88  H   UNL A   1      48.868  30.058  26.670  1.00  0.00     0.065 H 
ATOM     89  C   UNL A   1      47.596  32.375  27.744  1.00  0.00     0.037 A 
ATOM     90  C   UNL A   1      41.523  32.192  30.126  1.00  0.00     0.049 A 
ATOM     91  C   UNL A   1      46.705  33.406  28.382  1.00  0.00     0.074 A 
ATOM     92  C   UNL A   1      40.820  33.211  30.746  1.00  0.00    -0.036 A 
ATOM     93  N   UNL A   1      42.758  32.715  29.774  1.00  0.00    -0.354 N 
ATOM     94  N   UNL A   1      45.489  33.271  28.850  1.00  0.00    -0.248 NA
ATOM     95  C   UNL A   1      47.255  34.762  28.515  1.00  0.00    -0.034 C 
ATOM     96  C   UNL A   1      41.617  34.361  30.736  1.00  0.00    -0.036 A 
ATOM     97  H   UNL A   1      39.872  33.137  31.145  1.00  0.00     0.065 H 
ATOM     98  C   UNL A   1      42.832  34.048  30.148  1.00  0.00     0.049 A 
ATOM     99  H   UNL A   1      43.476  32.214  29.324  1.00  0.00     0.167 HD
ATOM    100  C   UNL A   1      45.136  34.515  29.356  1.00  0.00     0.074 A 
ATOM    101  C   UNL A   1      46.273  35.388  29.149  1.00  0.00    -0.034 C 
ATOM    102  H   UNL A   1      48.165  35.131  28.199  1.00  0.00     0.065 H 
ATOM    103  H   UNL A   1      41.346  35.287  31.103  1.00  0.00     0.065 H 
ATOM    104  C   UNL A   1      43.976  34.898  29.941  1.00  0.00     0.037 A 
ATOM    105  H   UNL A   1      46.313  36.373  29.455  1.00  0.00     0.065 H 
BRANCH  86 106
ATOM    106  C   UNL A   1      39.711  30.441  30.259  1.00  0.00     0.064 A 
ATOM    107  C   UNL A   1      38.710  30.249  29.295  1.00  0.00     0.173 A 
ATOM    108  C   UNL A   1      39.378  30.218  31.604  1.00  0.00     0.173 A 
ATOM    109  F   UNL A   1      38.974  30.461  27.997  1.00  0.00    -0.203 F 
ATOM    110  C   UNL A   1      37.421  29.875  29.665  1.00  0.00     0.198 A 
ATOM    111  C   UNL A   1      38.096  29.818  31.968  1.00  0.00     0.198 A 
ATOM    112  F   UNL A   1      40.300  30.384  32.565  1.00  0.00    -0.203 F 
ATOM    113  F   UNL A   1      36.468  29.744  28.731  1.00  0.00    -0.200 F 
ATOM    114  C   UNL A   1      37.116  29.655  31.000  1.00  0.00     0.200 A 
ATOM    115  F   UNL A   1      37.805  29.594  33.257  1.00  0.00    -0.200 F 
ATOM    116  F   UNL A   1      35.875  29.291  31.355  1.00  0.00    -0.200 F 
ENDBRANCH  86 106
BRANCH  89 117
ATOM    117  C   UNL A   1      48.963  32.729  27.283  1.00  0.00     0.064 A 
ATOM    118  C   UNL A   1      50.092  32.302  27.994  1.00  0.00     0.173 A 
ATOM    119  C   UNL A   1      49.168  33.494  26.126  1.00  0.00     0.173 A 
ATOM    120  F   UNL A   1      49.943  31.585  29.118  1.00  0.00    -0.203 F 
ATOM    121  C   UNL A   1      51.377  32.642  27.576  1.00  0.00     0.198 A 
ATOM    122  C   UNL A   1      50.454  33.813  25.695  1.00  0.00     0.198 A 
ATOM    123  F   UNL A   1      48.119  33.922  25.408  1.00  0.00    -0.203 F 
ATOM    124  F   UNL A   1      52.438  32.255  28.296  1.00  0.00    -0.200 F 
ATOM    125  C   UNL A   1      51.556  33.392  26.424  1.00  0.00     0.200 A 
ATOM    126  F   UNL A   1      50.625  34.529  24.575  1.00  0.00    -0.200 F 
ATOM    127  F   UNL A   1      52.793  33.715  26.020  1.00  0.00    -0.200 F 
ENDBRANCH  89 117
BRANCH 104 128
ATOM    128  C   UNL A   1      43.887  36.314  30.427  1.00  0.00     0.064 A 
ATOM    129  C   UNL A   1      44.209  36.658  31.747  1.00  0.00     0.173 A 
ATOM    130  C   UNL A   1      43.513  37.343  29.549  1.00  0.00     0.173 A 
ATOM    131  F   UNL A   1      44.557  35.708  32.626  1.00  0.00    -0.203 F 
ATOM    132  C   UNL A   1      44.141  37.982  32.177  1.00  0.00     0.198 A 
ATOM    133  C   UNL A   1      43.470  38.667  29.975  1.00  0.00     0.198 A 
ATOM    134  F   UNL A   1      43.200  37.064  28.274  1.00  0.00    -0.203 F 
ATOM    135  F   UNL A   1      44.414  38.284  33.453  1.00  0.00    -0.200 F 
ATOM    136  C   UNL A   1      43.779  38.985  31.290  1.00  0.00     0.200 A 
ATOM    137  F   UNL A   1      43.132  39.636  29.114  1.00  0.00    -0.200 F 
ATOM    138  F   UNL A   1      43.720  40.257  31.704  1.00  0.00    -0.200 F 
ENDBRANCH 104 128
ENDBRANCH  69  72
ENDBRANCH  59  62
ENDBRANCH  55  58
ENDBRANCH  52  55
ENDBRANCH  49  52
ENDBRANCH  46  49
ENDBRANCH   1  46
TORSDOF 17
ENDMDL
MODEL 7
REMARK VINA RESULT:     -11.4      3.188      8.233
REMARK SMILES CS(=O)(=O)c1ccc(-c2cc(Cl)cnc2-c2ccc(C(=O)NCCCCCCNC(=O)c3ccc(-c4c5nc(c(-c6c(F)c(F)c(F)c(F)c6F)c6ccc([nH]6)c(-c6c(F)c(F)c(F)c(F)c6F)c6nc(c(-c7c(F)c(F)c(F)c(F)c7F)c7ccc4[nH]7)C=C6)C=C5)cc3)nc2)cc1
REMARK SMILES IDX 24 1 23 4 22 7 20 8 21 9 19 11 16 12 17 13 96 14 18 15 95 17
REMARK SMILES IDX 15 20 9 21 10 22 11 23 14 25 12 26 13 27 8 29 5 30 6 31
REMARK SMILES IDX 98 32 7 33 97 35 2 39 3 40 4 41 1 42 25 46 26 49 27 52 28 55
REMARK SMILES IDX 29 58 30 59 31 61 32 62 33 63 94 64 34 65 93 67 35 69 36 72
REMARK SMILES IDX 37 73 87 74 38 75 92 76 86 77 88 78 39 79 91 80 85 82 84 84
REMARK SMILES IDX 40 86 72 89 52 90 71 91 53 92 56 93 70 94 89 95 54 96 55 98
REMARK SMILES IDX 69 100 90 101 57 104 41 106 42 107 50 108 43 109 44 110
REMARK SMILES IDX 48 111 51 112 45 113 46 114 49 115 47 116 73 117 74 118
REMARK SMILES IDX 82 119 75 120 76 121 80 122 83 123 77 124 78 125 81 126
REMARK SMILES IDX 79 127 58 128 59 129 67 130 60 131 61 132 65 133 68 134
REMARK SMILES IDX 62 135 63 136 66 137 64 138
REMARK H PARENT 24 2 24 3 23 5 23 6 22 10 17 16 96 18 18 19 10 24 13 28 6 34
REMARK H PARENT 98 36 7 37 97 38 1 43 1 44 1 45 25 47 25 48 26 50 26 51 27 53
REMARK H PARENT 27 54 28 56 28 57 29 60 33 66 94 68 34 70 93 71 92 81 86 83
REMARK H PARENT 88 85 91 87 85 88 53 97 56 99 89 102 54 103 90 105
REMARK Flexibility Score: inf
ROOT
ATOM      1  C   UNL A   1      30.671  27.772  24.258  1.00  0.00    -0.036 C 
ATOM      2  H   UNL A   1      29.622  27.820  24.054  1.00  0.00     0.028 H 
ATOM      3  H   UNL A   1      31.125  28.740  24.293  1.00  0.00     0.028 H 
ENDROOT
BRANCH   1   4
ATOM      4  C   UNL A   1      31.349  27.000  23.123  1.00  0.00     0.018 C 
ATOM      5  H   UNL A   1      31.197  27.523  22.201  1.00  0.00     0.049 H 
ATOM      6  H   UNL A   1      32.396  26.922  23.333  1.00  0.00     0.049 H 
BRANCH   4   7
ATOM      7  N   UNL A   1      30.790  25.668  23.015  1.00  0.00    -0.351 N 
ATOM      8  C   UNL A   1      31.272  24.421  23.345  1.00  0.00     0.269 C 
ATOM      9  O   UNL A   1      30.520  23.469  23.132  1.00  0.00    -0.268 OA
ATOM     10  H   UNL A   1      29.885  25.651  22.628  1.00  0.00     0.163 HD
BRANCH   8  11
ATOM     11  C   UNL A   1      32.617  24.193  23.980  1.00  0.00     0.128 A 
ATOM     12  C   UNL A   1      35.153  23.621  24.943  1.00  0.00     0.019 A 
ATOM     13  C   UNL A   1      34.108  23.886  25.833  1.00  0.00    -0.049 A 
ATOM     14  C   UNL A   1      34.862  23.735  23.589  1.00  0.00     0.037 A 
ATOM     15  C   UNL A   1      32.838  24.207  25.351  1.00  0.00    -0.030 A 
ATOM     16  H   UNL A   1      34.276  23.845  26.851  1.00  0.00     0.063 H 
ATOM     17  N   UNL A   1      33.627  23.981  23.093  1.00  0.00    -0.250 NA
ATOM     18  H   UNL A   1      35.639  23.627  22.919  1.00  0.00     0.085 H 
ATOM     19  H   UNL A   1      32.075  24.450  26.002  1.00  0.00     0.065 H 
BRANCH  12  20
ATOM     20  C   UNL A   1      36.478  23.214  25.410  1.00  0.00     0.080 A 
ATOM     21  C   UNL A   1      36.840  21.862  25.593  1.00  0.00     0.010 A 
ATOM     22  C   UNL A   1      38.120  21.608  26.116  1.00  0.00    -0.032 A 
ATOM     23  C   UNL A   1      38.973  22.663  26.420  1.00  0.00     0.060 A 
ATOM     24  H   UNL A   1      38.426  20.636  26.274  1.00  0.00     0.065 H 
ATOM     25  N   UNL A   1      37.311  24.252  25.687  1.00  0.00    -0.254 NA
ATOM     26  Cl  UNL A   1      40.530  22.365  27.075  1.00  0.00    -0.083 Cl
ATOM     27  C   UNL A   1      38.535  23.953  26.186  1.00  0.00     0.046 A 
ATOM     28  H   UNL A   1      39.175  24.732  26.402  1.00  0.00     0.086 H 
BRANCH  21  29
ATOM     29  C   UNL A   1      35.947  20.737  25.264  1.00  0.00    -0.016 A 
ATOM     30  C   UNL A   1      34.237  18.596  24.636  1.00  0.00     0.067 A 
ATOM     31  C   UNL A   1      35.612  18.463  24.438  1.00  0.00    -0.043 A 
ATOM     32  C   UNL A   1      33.707  19.777  25.156  1.00  0.00    -0.043 A 
ATOM     33  C   UNL A   1      36.458  19.531  24.751  1.00  0.00    -0.053 A 
ATOM     34  H   UNL A   1      36.000  17.583  24.063  1.00  0.00     0.064 H 
ATOM     35  C   UNL A   1      34.560  20.840  25.469  1.00  0.00    -0.053 A 
ATOM     36  H   UNL A   1      32.689  19.868  25.308  1.00  0.00     0.064 H 
ATOM     37  H   UNL A   1      37.474  19.432  24.604  1.00  0.00     0.063 H 
ATOM     38  H   UNL A   1      34.167  21.711  25.856  1.00  0.00     0.063 H 
BRANCH  30  39
ATOM     39  S   UNL A   1      33.156  17.236  24.258  1.00  0.00     0.175 S 
ATOM     40  O   UNL A   1      33.281  16.964  22.840  1.00  0.00    -0.224 OA
ATOM     41  O   UNL A   1      31.870  17.548  24.853  1.00  0.00    -0.224 OA
BRANCH  39  42
ATOM     42  C   UNL A   1      33.850  15.851  25.119  1.00  0.00     0.043 C 
ATOM     43  H   UNL A   1      33.172  15.025  25.070  1.00  0.00     0.040 H 
ATOM     44  H   UNL A   1      34.019  16.114  26.141  1.00  0.00     0.040 H 
ATOM     45  H   UNL A   1      34.779  15.577  24.662  1.00  0.00     0.040 H 
ENDBRANCH  39  42
ENDBRANCH  30  39
ENDBRANCH  21  29
ENDBRANCH  12  20
ENDBRANCH   8  11
ENDBRANCH   4   7
ENDBRANCH   1   4
BRANCH   1  46
ATOM     46  C   UNL A   1      30.867  27.133  25.641  1.00  0.00    -0.052 C 
ATOM     47  H   UNL A   1      31.135  26.107  25.497  1.00  0.00     0.027 H 
ATOM     48  H   UNL A   1      29.942  27.263  26.162  1.00  0.00     0.027 H 
BRANCH  46  49
ATOM     49  C   UNL A   1      31.945  27.787  26.514  1.00  0.00    -0.052 C 
ATOM     50  H   UNL A   1      31.901  27.340  27.485  1.00  0.00     0.027 H 
ATOM     51  H   UNL A   1      31.729  28.836  26.515  1.00  0.00     0.027 H 
BRANCH  49  52
ATOM     52  C   UNL A   1      33.379  27.649  25.995  1.00  0.00    -0.036 C 
ATOM     53  H   UNL A   1      33.386  26.905  25.227  1.00  0.00     0.028 H 
ATOM     54  H   UNL A   1      33.983  27.388  26.839  1.00  0.00     0.028 H 
BRANCH  52  55
ATOM     55  C   UNL A   1      33.974  28.932  25.419  1.00  0.00     0.018 C 
ATOM     56  H   UNL A   1      33.900  28.898  24.353  1.00  0.00     0.049 H 
ATOM     57  H   UNL A   1      34.995  28.994  25.734  1.00  0.00     0.049 H 
BRANCH  55  58
ATOM     58  N   UNL A   1      33.282  30.115  25.901  1.00  0.00    -0.352 N 
ATOM     59  C   UNL A   1      33.551  30.897  26.996  1.00  0.00     0.251 C 
ATOM     60  H   UNL A   1      32.507  30.399  25.363  1.00  0.00     0.163 HD
ATOM     61  O   UNL A   1      32.740  31.739  27.367  1.00  0.00    -0.269 OA
BRANCH  59  62
ATOM     62  C   UNL A   1      34.816  30.719  27.742  1.00  0.00     0.039 A 
ATOM     63  C   UNL A   1      35.735  31.772  27.771  1.00  0.00    -0.049 A 
ATOM     64  C   UNL A   1      35.113  29.509  28.377  1.00  0.00    -0.049 A 
ATOM     65  C   UNL A   1      36.932  31.629  28.478  1.00  0.00    -0.053 A 
ATOM     66  H   UNL A   1      35.530  32.652  27.273  1.00  0.00     0.063 H 
ATOM     67  C   UNL A   1      36.277  29.389  29.129  1.00  0.00    -0.053 A 
ATOM     68  H   UNL A   1      34.469  28.708  28.288  1.00  0.00     0.063 H 
ATOM     69  C   UNL A   1      37.202  30.444  29.180  1.00  0.00    -0.014 A 
ATOM     70  H   UNL A   1      37.620  32.397  28.482  1.00  0.00     0.063 H 
ATOM     71  H   UNL A   1      36.462  28.518  29.653  1.00  0.00     0.063 H 
BRANCH  69  72
ATOM     72  C   UNL A   1      38.454  30.283  29.959  1.00  0.00     0.031 A 
ATOM     73  C   UNL A   1      39.603  29.503  29.386  1.00  0.00     0.074 A 
ATOM     74  C   UNL A   1      38.534  30.787  31.205  1.00  0.00     0.049 A 
ATOM     75  N   UNL A   1      40.749  29.190  29.935  1.00  0.00    -0.248 NA
ATOM     76  C   UNL A   1      39.430  28.982  28.021  1.00  0.00    -0.034 C 
ATOM     77  C   UNL A   1      37.469  31.524  31.887  1.00  0.00    -0.036 A 
ATOM     78  N   UNL A   1      39.552  30.744  32.125  1.00  0.00    -0.354 N 
ATOM     79  C   UNL A   1      41.424  28.423  28.994  1.00  0.00     0.074 A 
ATOM     80  C   UNL A   1      40.542  28.279  27.856  1.00  0.00    -0.034 C 
ATOM     81  H   UNL A   1      38.648  29.125  27.363  1.00  0.00     0.065 H 
ATOM     82  C   UNL A   1      37.896  31.880  33.109  1.00  0.00    -0.036 A 
ATOM     83  H   UNL A   1      36.540  31.737  31.492  1.00  0.00     0.065 H 
ATOM     84  C   UNL A   1      39.250  31.370  33.308  1.00  0.00     0.049 A 
ATOM     85  H   UNL A   1      40.415  30.306  31.951  1.00  0.00     0.167 HD
ATOM     86  C   UNL A   1      42.674  27.905  29.065  1.00  0.00     0.037 A 
ATOM     87  H   UNL A   1      40.750  27.704  27.025  1.00  0.00     0.065 H 
ATOM     88  H   UNL A   1      37.355  32.426  33.798  1.00  0.00     0.065 H 
ATOM     89  C   UNL A   1      39.984  31.513  34.428  1.00  0.00     0.037 A 
ATOM     90  C   UNL A   1      43.560  28.081  30.185  1.00  0.00     0.049 A 
ATOM     91  C   UNL A   1      41.373  30.939  34.476  1.00  0.00     0.074 A 
ATOM     92  C   UNL A   1      44.868  27.648  30.326  1.00  0.00    -0.036 A 
ATOM     93  N   UNL A   1      43.230  28.746  31.355  1.00  0.00    -0.354 N 
ATOM     94  N   UNL A   1      42.022  30.269  33.556  1.00  0.00    -0.248 NA
ATOM     95  C   UNL A   1      42.134  31.151  35.715  1.00  0.00    -0.034 C 
ATOM     96  C   UNL A   1      45.316  28.021  31.598  1.00  0.00    -0.036 A 
ATOM     97  H   UNL A   1      45.416  27.138  29.618  1.00  0.00     0.065 H 
ATOM     98  C   UNL A   1      44.303  28.722  32.232  1.00  0.00     0.049 A 
ATOM     99  H   UNL A   1      42.361  29.172  31.537  1.00  0.00     0.167 HD
ATOM    100  C   UNL A   1      43.274  30.000  34.093  1.00  0.00     0.074 A 
ATOM    101  C   UNL A   1      43.298  30.592  35.414  1.00  0.00    -0.034 C 
ATOM    102  H   UNL A   1      41.840  31.613  36.589  1.00  0.00     0.065 H 
ATOM    103  H   UNL A   1      46.244  27.809  31.997  1.00  0.00     0.065 H 
ATOM    104  C   UNL A   1      44.311  29.325  33.540  1.00  0.00     0.037 A 
ATOM    105  H   UNL A   1      44.117  30.580  36.043  1.00  0.00     0.065 H 
BRANCH  86 106
ATOM    106  C   UNL A   1      43.158  27.104  27.893  1.00  0.00     0.064 A 
ATOM    107  C   UNL A   1      42.972  25.714  27.826  1.00  0.00     0.173 A 
ATOM    108  C   UNL A   1      43.786  27.734  26.808  1.00  0.00     0.173 A 
ATOM    109  F   UNL A   1      42.389  25.062  28.843  1.00  0.00    -0.203 F 
ATOM    110  C   UNL A   1      43.423  24.983  26.731  1.00  0.00     0.198 A 
ATOM    111  C   UNL A   1      44.211  27.003  25.702  1.00  0.00     0.198 A 
ATOM    112  F   UNL A   1      43.984  29.062  26.820  1.00  0.00    -0.203 F 
ATOM    113  F   UNL A   1      43.278  23.650  26.711  1.00  0.00    -0.200 F 
ATOM    114  C   UNL A   1      44.036  25.628  25.667  1.00  0.00     0.200 A 
ATOM    115  F   UNL A   1      44.792  27.630  24.669  1.00  0.00    -0.200 F 
ATOM    116  F   UNL A   1      44.465  24.923  24.610  1.00  0.00    -0.200 F 
ENDBRANCH  86 106
BRANCH  89 117
ATOM    117  C   UNL A   1      39.427  32.258  35.586  1.00  0.00     0.064 A 
ATOM    118  C   UNL A   1      38.618  31.614  36.531  1.00  0.00     0.173 A 
ATOM    119  C   UNL A   1      39.693  33.622  35.774  1.00  0.00     0.173 A 
ATOM    120  F   UNL A   1      38.319  30.315  36.382  1.00  0.00    -0.203 F 
ATOM    121  C   UNL A   1      38.080  32.309  37.613  1.00  0.00     0.198 A 
ATOM    122  C   UNL A   1      39.175  34.310  36.868  1.00  0.00     0.198 A 
ATOM    123  F   UNL A   1      40.467  34.282  34.900  1.00  0.00    -0.203 F 
ATOM    124  F   UNL A   1      37.277  31.679  38.479  1.00  0.00    -0.200 F 
ATOM    125  C   UNL A   1      38.364  33.656  37.783  1.00  0.00     0.200 A 
ATOM    126  F   UNL A   1      39.461  35.610  37.036  1.00  0.00    -0.200 F 
ATOM    127  F   UNL A   1      37.850  34.323  38.825  1.00  0.00    -0.200 F 
ENDBRANCH  89 117
BRANCH 104 128
ATOM    128  C   UNL A   1      45.569  29.217  34.349  1.00  0.00     0.064 A 
ATOM    129  C   UNL A   1      45.780  28.154  35.239  1.00  0.00     0.173 A 
ATOM    130  C   UNL A   1      46.591  30.167  34.201  1.00  0.00     0.173 A 
ATOM    131  F   UNL A   1      44.826  27.230  35.425  1.00  0.00    -0.203 F 
ATOM    132  C   UNL A   1      46.963  28.058  35.968  1.00  0.00     0.198 A 
ATOM    133  C   UNL A   1      47.781  30.053  34.912  1.00  0.00     0.198 A 
ATOM    134  F   UNL A   1      46.438  31.199  33.358  1.00  0.00    -0.203 F 
ATOM    135  F   UNL A   1      47.127  27.056  36.843  1.00  0.00    -0.200 F 
ATOM    136  C   UNL A   1      47.964  29.002  35.799  1.00  0.00     0.200 A 
ATOM    137  F   UNL A   1      48.753  30.960  34.739  1.00  0.00    -0.200 F 
ATOM    138  F   UNL A   1      49.104  28.903  36.497  1.00  0.00    -0.200 F 
ENDBRANCH 104 128
ENDBRANCH  69  72
ENDBRANCH  59  62
ENDBRANCH  55  58
ENDBRANCH  52  55
ENDBRANCH  49  52
ENDBRANCH  46  49
ENDBRANCH   1  46
TORSDOF 17
ENDMDL
MODEL 8
REMARK VINA RESULT:     -11.4      4.995      7.482
REMARK SMILES CS(=O)(=O)c1ccc(-c2cc(Cl)cnc2-c2ccc(C(=O)NCCCCCCNC(=O)c3ccc(-c4c5nc(c(-c6c(F)c(F)c(F)c(F)c6F)c6ccc([nH]6)c(-c6c(F)c(F)c(F)c(F)c6F)c6nc(c(-c7c(F)c(F)c(F)c(F)c7F)c7ccc4[nH]7)C=C6)C=C5)cc3)nc2)cc1
REMARK SMILES IDX 24 1 23 4 22 7 20 8 21 9 19 11 16 12 17 13 96 14 18 15 95 17
REMARK SMILES IDX 15 20 9 21 10 22 11 23 14 25 12 26 13 27 8 29 5 30 6 31
REMARK SMILES IDX 98 32 7 33 97 35 2 39 3 40 4 41 1 42 25 46 26 49 27 52 28 55
REMARK SMILES IDX 29 58 30 59 31 61 32 62 33 63 94 64 34 65 93 67 35 69 36 72
REMARK SMILES IDX 37 73 87 74 38 75 92 76 86 77 88 78 39 79 91 80 85 82 84 84
REMARK SMILES IDX 40 86 72 89 52 90 71 91 53 92 56 93 70 94 89 95 54 96 55 98
REMARK SMILES IDX 69 100 90 101 57 104 41 106 42 107 50 108 43 109 44 110
REMARK SMILES IDX 48 111 51 112 45 113 46 114 49 115 47 116 73 117 74 118
REMARK SMILES IDX 82 119 75 120 76 121 80 122 83 123 77 124 78 125 81 126
REMARK SMILES IDX 79 127 58 128 59 129 67 130 60 131 61 132 65 133 68 134
REMARK SMILES IDX 62 135 63 136 66 137 64 138
REMARK H PARENT 24 2 24 3 23 5 23 6 22 10 17 16 96 18 18 19 10 24 13 28 6 34
REMARK H PARENT 98 36 7 37 97 38 1 43 1 44 1 45 25 47 25 48 26 50 26 51 27 53
REMARK H PARENT 27 54 28 56 28 57 29 60 33 66 94 68 34 70 93 71 92 81 86 83
REMARK H PARENT 88 85 91 87 85 88 53 97 56 99 89 102 54 103 90 105
REMARK Flexibility Score: inf
ROOT
ATOM      1  C   UNL A   1      40.752  23.306  27.972  1.00  0.00    -0.036 C 
ATOM      2  H   UNL A   1      40.339  23.724  28.867  1.00  0.00     0.028 H 
ATOM      3  H   UNL A   1      41.649  23.802  27.667  1.00  0.00     0.028 H 
ENDROOT
BRANCH   1   4
ATOM      4  C   UNL A   1      39.734  23.484  26.842  1.00  0.00     0.018 C 
ATOM      5  H   UNL A   1      38.817  23.857  27.249  1.00  0.00     0.049 H 
ATOM      6  H   UNL A   1      40.127  24.178  26.127  1.00  0.00     0.049 H 
BRANCH   4   7
ATOM      7  N   UNL A   1      39.487  22.218  26.183  1.00  0.00    -0.351 N 
ATOM      8  C   UNL A   1      38.418  21.732  25.463  1.00  0.00     0.269 C 
ATOM      9  O   UNL A   1      38.534  20.590  25.015  1.00  0.00    -0.268 OA
ATOM     10  H   UNL A   1      40.230  21.579  26.267  1.00  0.00     0.163 HD
BRANCH   8  11
ATOM     11  C   UNL A   1      37.179  22.533  25.171  1.00  0.00     0.128 A 
ATOM     12  C   UNL A   1      34.781  23.882  24.832  1.00  0.00     0.019 A 
ATOM     13  C   UNL A   1      35.623  23.663  23.738  1.00  0.00    -0.049 A 
ATOM     14  C   UNL A   1      35.247  23.461  26.071  1.00  0.00     0.037 A 
ATOM     15  C   UNL A   1      36.847  23.013  23.911  1.00  0.00    -0.030 A 
ATOM     16  H   UNL A   1      35.340  23.982  22.798  1.00  0.00     0.063 H 
ATOM     17  N   UNL A   1      36.398  22.773  26.259  1.00  0.00    -0.250 NA
ATOM     18  H   UNL A   1      34.679  23.688  26.902  1.00  0.00     0.085 H 
ATOM     19  H   UNL A   1      37.494  22.891  23.116  1.00  0.00     0.065 H 
BRANCH  12  20
ATOM     20  C   UNL A   1      33.462  24.496  24.678  1.00  0.00     0.080 A 
ATOM     21  C   UNL A   1      32.318  23.761  24.298  1.00  0.00     0.010 A 
ATOM     22  C   UNL A   1      31.127  24.483  24.114  1.00  0.00    -0.032 A 
ATOM     23  C   UNL A   1      31.104  25.859  24.315  1.00  0.00     0.060 A 
ATOM     24  H   UNL A   1      30.266  23.991  23.829  1.00  0.00     0.065 H 
ATOM     25  N   UNL A   1      33.447  25.838  24.894  1.00  0.00    -0.254 NA
ATOM     26  Cl  UNL A   1      29.659  26.753  24.077  1.00  0.00    -0.083 Cl
ATOM     27  C   UNL A   1      32.272  26.486  24.707  1.00  0.00     0.046 A 
ATOM     28  H   UNL A   1      32.249  27.505  24.867  1.00  0.00     0.086 H 
BRANCH  21  29
ATOM     29  C   UNL A   1      32.330  22.302  24.091  1.00  0.00    -0.016 A 
ATOM     30  C   UNL A   1      32.356  19.520  23.690  1.00  0.00     0.067 A 
ATOM     31  C   UNL A   1      32.444  20.032  24.986  1.00  0.00    -0.043 A 
ATOM     32  C   UNL A   1      32.241  20.377  22.596  1.00  0.00    -0.043 A 
ATOM     33  C   UNL A   1      32.432  21.416  25.179  1.00  0.00    -0.053 A 
ATOM     34  H   UNL A   1      32.518  19.393  25.793  1.00  0.00     0.064 H 
ATOM     35  C   UNL A   1      32.227  21.761  22.799  1.00  0.00    -0.053 A 
ATOM     36  H   UNL A   1      32.168  19.993  21.640  1.00  0.00     0.064 H 
ATOM     37  H   UNL A   1      32.498  21.795  26.137  1.00  0.00     0.063 H 
ATOM     38  H   UNL A   1      32.139  22.393  21.988  1.00  0.00     0.063 H 
BRANCH  30  39
ATOM     39  S   UNL A   1      32.352  17.761  23.437  1.00  0.00     0.175 S 
ATOM     40  O   UNL A   1      31.927  17.519  22.073  1.00  0.00    -0.224 OA
ATOM     41  O   UNL A   1      31.640  17.180  24.560  1.00  0.00    -0.224 OA
BRANCH  39  42
ATOM     42  C   UNL A   1      34.055  17.281  23.545  1.00  0.00     0.043 C 
ATOM     43  H   UNL A   1      34.127  16.214  23.522  1.00  0.00     0.040 H 
ATOM     44  H   UNL A   1      34.471  17.646  24.460  1.00  0.00     0.040 H 
ATOM     45  H   UNL A   1      34.595  17.693  22.718  1.00  0.00     0.040 H 
ENDBRANCH  39  42
ENDBRANCH  30  39
ENDBRANCH  21  29
ENDBRANCH  12  20
ENDBRANCH   8  11
ENDBRANCH   4   7
ENDBRANCH   1   4
BRANCH   1  46
ATOM     46  C   UNL A   1      41.119  21.841  28.246  1.00  0.00    -0.052 C 
ATOM     47  H   UNL A   1      40.327  21.225  27.872  1.00  0.00     0.027 H 
ATOM     48  H   UNL A   1      41.256  21.761  29.304  1.00  0.00     0.027 H 
BRANCH  46  49
ATOM     49  C   UNL A   1      42.430  21.367  27.608  1.00  0.00    -0.052 C 
ATOM     50  H   UNL A   1      43.204  21.442  28.345  1.00  0.00     0.027 H 
ATOM     51  H   UNL A   1      42.589  21.996  26.756  1.00  0.00     0.027 H 
BRANCH  49  52
ATOM     52  C   UNL A   1      42.419  19.930  27.080  1.00  0.00    -0.036 C 
ATOM     53  H   UNL A   1      41.606  19.411  27.542  1.00  0.00     0.028 H 
ATOM     54  H   UNL A   1      43.375  19.512  27.319  1.00  0.00     0.028 H 
BRANCH  52  55
ATOM     55  C   UNL A   1      42.262  19.810  25.566  1.00  0.00     0.018 C 
ATOM     56  H   UNL A   1      42.068  20.781  25.161  1.00  0.00     0.049 H 
ATOM     57  H   UNL A   1      41.450  19.140  25.369  1.00  0.00     0.049 H 
BRANCH  55  58
ATOM     58  N   UNL A   1      43.454  19.268  24.937  1.00  0.00    -0.352 N 
ATOM     59  C   UNL A   1      44.600  19.912  24.544  1.00  0.00     0.251 C 
ATOM     60  H   UNL A   1      43.438  18.298  24.769  1.00  0.00     0.163 HD
ATOM     61  O   UNL A   1      45.424  19.332  23.842  1.00  0.00    -0.269 OA
BRANCH  59  62
ATOM     62  C   UNL A   1      44.843  21.312  24.952  1.00  0.00     0.039 A 
ATOM     63  C   UNL A   1      44.371  22.344  24.137  1.00  0.00    -0.049 A 
ATOM     64  C   UNL A   1      45.566  21.607  26.112  1.00  0.00    -0.049 A 
ATOM     65  C   UNL A   1      44.581  23.674  24.509  1.00  0.00    -0.053 A 
ATOM     66  H   UNL A   1      43.868  22.125  23.263  1.00  0.00     0.063 H 
ATOM     67  C   UNL A   1      45.723  22.931  26.513  1.00  0.00    -0.053 A 
ATOM     68  H   UNL A   1      45.981  20.844  26.671  1.00  0.00     0.063 H 
ATOM     69  C   UNL A   1      45.240  23.977  25.711  1.00  0.00    -0.014 A 
ATOM     70  H   UNL A   1      44.252  24.437  23.897  1.00  0.00     0.063 H 
ATOM     71  H   UNL A   1      46.198  23.144  27.405  1.00  0.00     0.063 H 
BRANCH  69  72
ATOM     72  C   UNL A   1      45.449  25.382  26.138  1.00  0.00     0.031 A 
ATOM     73  C   UNL A   1      46.813  26.004  26.042  1.00  0.00     0.074 A 
ATOM     74  C   UNL A   1      44.425  26.077  26.668  1.00  0.00     0.049 A 
ATOM     75  N   UNL A   1      47.214  27.189  26.428  1.00  0.00    -0.248 NA
ATOM     76  C   UNL A   1      47.877  25.173  25.456  1.00  0.00    -0.034 C 
ATOM     77  C   UNL A   1      43.066  25.568  26.855  1.00  0.00    -0.036 A 
ATOM     78  N   UNL A   1      44.371  27.358  27.159  1.00  0.00    -0.354 N 
ATOM     79  C   UNL A   1      48.574  27.238  26.150  1.00  0.00     0.074 A 
ATOM     80  C   UNL A   1      48.941  25.950  25.605  1.00  0.00    -0.034 C 
ATOM     81  H   UNL A   1      47.812  24.232  25.039  1.00  0.00     0.065 H 
ATOM     82  C   UNL A   1      42.308  26.531  27.403  1.00  0.00    -0.036 A 
ATOM     83  H   UNL A   1      42.742  24.621  26.605  1.00  0.00     0.065 H 
ATOM     84  C   UNL A   1      43.133  27.714  27.634  1.00  0.00     0.049 A 
ATOM     85  H   UNL A   1      45.146  27.963  27.169  1.00  0.00     0.167 HD
ATOM     86  C   UNL A   1      49.433  28.273  26.315  1.00  0.00     0.037 A 
ATOM     87  H   UNL A   1      49.904  25.671  25.364  1.00  0.00     0.065 H 
ATOM     88  H   UNL A   1      41.303  26.450  27.625  1.00  0.00     0.065 H 
ATOM     89  C   UNL A   1      42.714  28.863  28.196  1.00  0.00     0.037 A 
ATOM     90  C   UNL A   1      49.056  29.565  26.826  1.00  0.00     0.049 A 
ATOM     91  C   UNL A   1      43.686  30.000  28.356  1.00  0.00     0.074 A 
ATOM     92  C   UNL A   1      49.839  30.697  26.973  1.00  0.00    -0.036 A 
ATOM     93  N   UNL A   1      47.785  29.897  27.270  1.00  0.00    -0.354 N 
ATOM     94  N   UNL A   1      44.954  30.055  28.033  1.00  0.00    -0.248 NA
ATOM     95  C   UNL A   1      43.162  31.238  28.950  1.00  0.00    -0.034 C 
ATOM     96  C   UNL A   1      49.050  31.704  27.540  1.00  0.00    -0.036 A 
ATOM     97  H   UNL A   1      50.833  30.783  26.711  1.00  0.00     0.065 H 
ATOM     98  C   UNL A   1      47.765  31.212  27.708  1.00  0.00     0.049 A 
ATOM     99  H   UNL A   1      47.011  29.289  27.275  1.00  0.00     0.167 HD
ATOM    100  C   UNL A   1      45.375  31.337  28.361  1.00  0.00     0.074 A 
ATOM    101  C   UNL A   1      44.223  32.032  28.894  1.00  0.00    -0.034 C 
ATOM    102  H   UNL A   1      42.218  31.438  29.315  1.00  0.00     0.065 H 
ATOM    103  H   UNL A   1      49.370  32.652  27.792  1.00  0.00     0.065 H 
ATOM    104  C   UNL A   1      46.606  31.889  28.229  1.00  0.00     0.037 A 
ATOM    105  H   UNL A   1      44.226  33.019  29.195  1.00  0.00     0.065 H 
BRANCH  86 106
ATOM    106  C   UNL A   1      50.866  28.050  25.933  1.00  0.00     0.064 A 
ATOM    107  C   UNL A   1      51.295  28.150  24.600  1.00  0.00     0.173 A 
ATOM    108  C   UNL A   1      51.829  27.764  26.912  1.00  0.00     0.173 A 
ATOM    109  F   UNL A   1      50.411  28.409  23.625  1.00  0.00    -0.203 F 
ATOM    110  C   UNL A   1      52.629  27.945  24.260  1.00  0.00     0.198 A 
ATOM    111  C   UNL A   1      53.167  27.587  26.571  1.00  0.00     0.198 A 
ATOM    112  F   UNL A   1      51.472  27.662  28.202  1.00  0.00    -0.203 F 
ATOM    113  F   UNL A   1      53.006  27.998  22.974  1.00  0.00    -0.200 F 
ATOM    114  C   UNL A   1      53.564  27.669  25.245  1.00  0.00     0.200 A 
ATOM    115  F   UNL A   1      54.073  27.332  27.526  1.00  0.00    -0.200 F 
ATOM    116  F   UNL A   1      54.850  27.476  24.916  1.00  0.00    -0.200 F 
ENDBRANCH  86 106
BRANCH  89 117
ATOM    117  C   UNL A   1      41.298  29.005  28.620  1.00  0.00     0.064 A 
ATOM    118  C   UNL A   1      40.939  28.890  29.969  1.00  0.00     0.173 A 
ATOM    119  C   UNL A   1      40.279  29.261  27.692  1.00  0.00     0.173 A 
ATOM    120  F   UNL A   1      41.877  28.624  30.891  1.00  0.00    -0.203 F 
ATOM    121  C   UNL A   1      39.611  29.008  30.374  1.00  0.00     0.198 A 
ATOM    122  C   UNL A   1      38.955  29.403  28.099  1.00  0.00     0.198 A 
ATOM    123  F   UNL A   1      40.573  29.386  26.389  1.00  0.00    -0.203 F 
ATOM    124  F   UNL A   1      39.289  28.853  31.665  1.00  0.00    -0.200 F 
ATOM    125  C   UNL A   1      38.621  29.270  29.438  1.00  0.00     0.200 A 
ATOM    126  F   UNL A   1      38.002  29.668  27.194  1.00  0.00    -0.200 F 
ATOM    127  F   UNL A   1      37.344  29.387  29.829  1.00  0.00    -0.200 F 
ENDBRANCH  89 117
BRANCH 104 128
ATOM    128  C   UNL A   1      46.763  33.322  28.640  1.00  0.00     0.064 A 
ATOM    129  C   UNL A   1      47.149  33.674  29.940  1.00  0.00     0.173 A 
ATOM    130  C   UNL A   1      46.563  34.353  27.709  1.00  0.00     0.173 A 
ATOM    131  F   UNL A   1      47.337  32.725  30.869  1.00  0.00    -0.203 F 
ATOM    132  C   UNL A   1      47.310  35.010  30.301  1.00  0.00     0.198 A 
ATOM    133  C   UNL A   1      46.749  35.685  28.065  1.00  0.00     0.198 A 
ATOM    134  F   UNL A   1      46.197  34.066  26.450  1.00  0.00    -0.203 F 
ATOM    135  F   UNL A   1      47.641  35.327  31.560  1.00  0.00    -0.200 F 
ATOM    136  C   UNL A   1      47.117  36.013  29.362  1.00  0.00     0.200 A 
ATOM    137  F   UNL A   1      46.573  36.652  27.155  1.00  0.00    -0.200 F 
ATOM    138  F   UNL A   1      47.278  37.297  29.710  1.00  0.00    -0.200 F 
ENDBRANCH 104 128
ENDBRANCH  69  72
ENDBRANCH  59  62
ENDBRANCH  55  58
ENDBRANCH  52  55
ENDBRANCH  49  52
ENDBRANCH  46  49
ENDBRANCH   1  46
TORSDOF 17
ENDMDL
MODEL 9
REMARK VINA RESULT:     -11.4      3.220      8.200
REMARK SMILES CS(=O)(=O)c1ccc(-c2cc(Cl)cnc2-c2ccc(C(=O)NCCCCCCNC(=O)c3ccc(-c4c5nc(c(-c6c(F)c(F)c(F)c(F)c6F)c6ccc([nH]6)c(-c6c(F)c(F)c(F)c(F)c6F)c6nc(c(-c7c(F)c(F)c(F)c(F)c7F)c7ccc4[nH]7)C=C6)C=C5)cc3)nc2)cc1
REMARK SMILES IDX 24 1 23 4 22 7 20 8 21 9 19 11 16 12 17 13 96 14 18 15 95 17
REMARK SMILES IDX 15 20 9 21 10 22 11 23 14 25 12 26 13 27 8 29 5 30 6 31
REMARK SMILES IDX 98 32 7 33 97 35 2 39 3 40 4 41 1 42 25 46 26 49 27 52 28 55
REMARK SMILES IDX 29 58 30 59 31 61 32 62 33 63 94 64 34 65 93 67 35 69 36 72
REMARK SMILES IDX 37 73 87 74 38 75 92 76 86 77 88 78 39 79 91 80 85 82 84 84
REMARK SMILES IDX 40 86 72 89 52 90 71 91 53 92 56 93 70 94 89 95 54 96 55 98
REMARK SMILES IDX 69 100 90 101 57 104 41 106 42 107 50 108 43 109 44 110
REMARK SMILES IDX 48 111 51 112 45 113 46 114 49 115 47 116 73 117 74 118
REMARK SMILES IDX 82 119 75 120 76 121 80 122 83 123 77 124 78 125 81 126
REMARK SMILES IDX 79 127 58 128 59 129 67 130 60 131 61 132 65 133 68 134
REMARK SMILES IDX 62 135 63 136 66 137 64 138
REMARK H PARENT 24 2 24 3 23 5 23 6 22 10 17 16 96 18 18 19 10 24 13 28 6 34
REMARK H PARENT 98 36 7 37 97 38 1 43 1 44 1 45 25 47 25 48 26 50 26 51 27 53
REMARK H PARENT 27 54 28 56 28 57 29 60 33 66 94 68 34 70 93 71 92 81 86 83
REMARK H PARENT 88 85 91 87 85 88 53 97 56 99 89 102 54 103 90 105
REMARK Flexibility Score: inf
ROOT
ATOM      1  C   UNL A   1      30.678  27.791  24.391  1.00  0.00    -0.036 C 
ATOM      2  H   UNL A   1      29.630  27.799  24.173  1.00  0.00     0.028 H 
ATOM      3  H   UNL A   1      31.096  28.775  24.417  1.00  0.00     0.028 H 
ENDROOT
BRANCH   1   4
ATOM      4  C   UNL A   1      31.398  27.029  23.276  1.00  0.00     0.018 C 
ATOM      5  H   UNL A   1      31.282  27.560  22.354  1.00  0.00     0.049 H 
ATOM      6  H   UNL A   1      32.435  26.946  23.525  1.00  0.00     0.049 H 
BRANCH   4   7
ATOM      7  N   UNL A   1      30.841  25.699  23.134  1.00  0.00    -0.351 N 
ATOM      8  C   UNL A   1      31.330  24.444  23.425  1.00  0.00     0.269 C 
ATOM      9  O   UNL A   1      30.578  23.496  23.190  1.00  0.00    -0.268 OA
ATOM     10  H   UNL A   1      29.933  25.690  22.755  1.00  0.00     0.163 HD
BRANCH   8  11
ATOM     11  C   UNL A   1      32.680  24.201  24.041  1.00  0.00     0.128 A 
ATOM     12  C   UNL A   1      35.224  23.606  24.968  1.00  0.00     0.019 A 
ATOM     13  C   UNL A   1      34.191  23.864  25.873  1.00  0.00    -0.049 A 
ATOM     14  C   UNL A   1      34.918  23.738  23.619  1.00  0.00     0.037 A 
ATOM     15  C   UNL A   1      32.917  24.197  25.409  1.00  0.00    -0.030 A 
ATOM     16  H   UNL A   1      34.370  23.809  26.888  1.00  0.00     0.063 H 
ATOM     17  N   UNL A   1      33.679  23.996  23.140  1.00  0.00    -0.250 NA
ATOM     18  H   UNL A   1      35.687  23.635  22.938  1.00  0.00     0.085 H 
ATOM     19  H   UNL A   1      32.162  24.436  26.072  1.00  0.00     0.065 H 
BRANCH  12  20
ATOM     20  C   UNL A   1      36.553  23.186  25.414  1.00  0.00     0.080 A 
ATOM     21  C   UNL A   1      36.915  21.830  25.561  1.00  0.00     0.010 A 
ATOM     22  C   UNL A   1      38.198  21.563  26.069  1.00  0.00    -0.032 A 
ATOM     23  C   UNL A   1      39.055  22.609  26.391  1.00  0.00     0.060 A 
ATOM     24  H   UNL A   1      38.505  20.587  26.201  1.00  0.00     0.065 H 
ATOM     25  N   UNL A   1      37.389  24.217  25.710  1.00  0.00    -0.254 NA
ATOM     26  Cl  UNL A   1      40.617  22.294  27.027  1.00  0.00    -0.083 Cl
ATOM     27  C   UNL A   1      38.616  23.905  26.192  1.00  0.00     0.046 A 
ATOM     28  H   UNL A   1      39.258  24.678  26.422  1.00  0.00     0.086 H 
BRANCH  21  29
ATOM     29  C   UNL A   1      36.018  20.714  25.213  1.00  0.00    -0.016 A 
ATOM     30  C   UNL A   1      34.302  18.590  24.545  1.00  0.00     0.067 A 
ATOM     31  C   UNL A   1      35.683  18.393  24.528  1.00  0.00    -0.043 A 
ATOM     32  C   UNL A   1      33.767  19.827  24.904  1.00  0.00    -0.043 A 
ATOM     33  C   UNL A   1      36.532  19.453  24.860  1.00  0.00    -0.053 A 
ATOM     34  H   UNL A   1      36.074  17.473  24.272  1.00  0.00     0.064 H 
ATOM     35  C   UNL A   1      34.623  20.881  25.238  1.00  0.00    -0.053 A 
ATOM     36  H   UNL A   1      32.743  19.965  24.924  1.00  0.00     0.064 H 
ATOM     37  H   UNL A   1      37.554  19.308  24.846  1.00  0.00     0.063 H 
ATOM     38  H   UNL A   1      34.225  21.795  25.506  1.00  0.00     0.063 H 
BRANCH  30  39
ATOM     39  S   UNL A   1      33.215  17.242  24.143  1.00  0.00     0.175 S 
ATOM     40  O   UNL A   1      33.267  17.057  22.706  1.00  0.00    -0.224 OA
ATOM     41  O   UNL A   1      31.959  17.503  24.822  1.00  0.00    -0.224 OA
BRANCH  39  42
ATOM     42  C   UNL A   1      33.965  15.816  24.880  1.00  0.00     0.043 C 
ATOM     43  H   UNL A   1      35.019  15.834  24.700  1.00  0.00     0.040 H 
ATOM     44  H   UNL A   1      33.545  14.930  24.453  1.00  0.00     0.040 H 
ATOM     45  H   UNL A   1      33.783  15.823  25.935  1.00  0.00     0.040 H 
ENDBRANCH  39  42
ENDBRANCH  30  39
ENDBRANCH  21  29
ENDBRANCH  12  20
ENDBRANCH   8  11
ENDBRANCH   4   7
ENDBRANCH   1   4
BRANCH   1  46
ATOM     46  C   UNL A   1      30.878  27.180  25.785  1.00  0.00    -0.052 C 
ATOM     47  H   UNL A   1      31.200  26.167  25.660  1.00  0.00     0.027 H 
ATOM     48  H   UNL A   1      29.938  27.270  26.288  1.00  0.00     0.027 H 
BRANCH  46  49
ATOM     49  C   UNL A   1      31.906  27.898  26.670  1.00  0.00    -0.052 C 
ATOM     50  H   UNL A   1      31.829  27.496  27.659  1.00  0.00     0.027 H 
ATOM     51  H   UNL A   1      31.670  28.940  26.611  1.00  0.00     0.027 H 
BRANCH  49  52
ATOM     52  C   UNL A   1      33.363  27.766  26.218  1.00  0.00    -0.036 C 
ATOM     53  H   UNL A   1      33.428  26.943  25.538  1.00  0.00     0.028 H 
ATOM     54  H   UNL A   1      33.944  27.624  27.106  1.00  0.00     0.028 H 
BRANCH  52  55
ATOM     55  C   UNL A   1      33.928  29.003  25.525  1.00  0.00     0.018 C 
ATOM     56  H   UNL A   1      33.721  28.937  24.478  1.00  0.00     0.049 H 
ATOM     57  H   UNL A   1      34.983  29.033  25.709  1.00  0.00     0.049 H 
BRANCH  55  58
ATOM     58  N   UNL A   1      33.347  30.230  26.043  1.00  0.00    -0.352 N 
ATOM     59  C   UNL A   1      33.722  30.982  27.127  1.00  0.00     0.251 C 
ATOM     60  H   UNL A   1      32.570  30.571  25.542  1.00  0.00     0.163 HD
ATOM     61  O   UNL A   1      32.991  31.878  27.539  1.00  0.00    -0.269 OA
BRANCH  59  62
ATOM     62  C   UNL A   1      35.004  30.709  27.812  1.00  0.00     0.039 A 
ATOM     63  C   UNL A   1      36.027  31.657  27.731  1.00  0.00    -0.049 A 
ATOM     64  C   UNL A   1      35.210  29.509  28.499  1.00  0.00    -0.049 A 
ATOM     65  C   UNL A   1      37.243  31.424  28.379  1.00  0.00    -0.053 A 
ATOM     66  H   UNL A   1      35.886  32.527  27.194  1.00  0.00     0.063 H 
ATOM     67  C   UNL A   1      36.399  29.303  29.194  1.00  0.00    -0.053 A 
ATOM     68  H   UNL A   1      34.482  28.777  28.492  1.00  0.00     0.063 H 
ATOM     69  C   UNL A   1      37.430  30.254  29.133  1.00  0.00    -0.014 A 
ATOM     70  H   UNL A   1      38.007  32.113  28.301  1.00  0.00     0.063 H 
ATOM     71  H   UNL A   1      36.523  28.447  29.756  1.00  0.00     0.063 H 
BRANCH  69  72
ATOM     72  C   UNL A   1      38.702  30.001  29.851  1.00  0.00     0.031 A 
ATOM     73  C   UNL A   1      38.933  30.599  31.211  1.00  0.00     0.074 A 
ATOM     74  C   UNL A   1      39.673  29.284  29.255  1.00  0.00     0.049 A 
ATOM     75  N   UNL A   1      40.000  30.554  31.967  1.00  0.00    -0.248 NA
ATOM     76  C   UNL A   1      37.822  31.373  31.787  1.00  0.00    -0.034 C 
ATOM     77  C   UNL A   1      39.586  28.690  27.920  1.00  0.00    -0.036 A 
ATOM     78  N   UNL A   1      40.931  28.944  29.689  1.00  0.00    -0.354 N 
ATOM     79  C   UNL A   1      39.698  31.306  33.094  1.00  0.00     0.074 A 
ATOM     80  C   UNL A   1      38.365  31.834  32.905  1.00  0.00    -0.034 C 
ATOM     81  H   UNL A   1      36.870  31.520  31.417  1.00  0.00     0.065 H 
ATOM     82  C   UNL A   1      40.732  28.044  27.652  1.00  0.00    -0.036 A 
ATOM     83  H   UNL A   1      38.774  28.757  27.287  1.00  0.00     0.065 H 
ATOM     84  C   UNL A   1      41.645  28.203  28.781  1.00  0.00     0.049 A 
ATOM     85  H   UNL A   1      41.285  29.206  30.569  1.00  0.00     0.167 HD
ATOM     86  C   UNL A   1      40.457  31.518  34.196  1.00  0.00     0.037 A 
ATOM     87  H   UNL A   1      37.897  32.485  33.554  1.00  0.00     0.065 H 
ATOM     88  H   UNL A   1      40.936  27.518  26.787  1.00  0.00     0.065 H 
ATOM     89  C   UNL A   1      42.897  27.713  28.850  1.00  0.00     0.037 A 
ATOM     90  C   UNL A   1      41.769  30.963  34.395  1.00  0.00     0.049 A 
ATOM     91  C   UNL A   1      43.712  27.952  30.091  1.00  0.00     0.074 A 
ATOM     92  C   UNL A   1      42.592  31.069  35.503  1.00  0.00    -0.036 A 
ATOM     93  N   UNL A   1      42.449  30.193  33.464  1.00  0.00    -0.354 N 
ATOM     94  N   UNL A   1      43.392  28.614  31.176  1.00  0.00    -0.248 NA
ATOM     95  C   UNL A   1      45.061  27.368  30.118  1.00  0.00    -0.034 C 
ATOM     96  C   UNL A   1      43.786  30.392  35.227  1.00  0.00    -0.036 A 
ATOM     97  H   UNL A   1      42.366  31.562  36.380  1.00  0.00     0.065 H 
ATOM     98  C   UNL A   1      43.690  29.831  33.964  1.00  0.00     0.049 A 
ATOM     99  H   UNL A   1      42.102  29.942  32.577  1.00  0.00     0.167 HD
ATOM    100  C   UNL A   1      44.486  28.506  32.024  1.00  0.00     0.074 A 
ATOM    101  C   UNL A   1      45.473  27.703  31.333  1.00  0.00    -0.034 C 
ATOM    102  H   UNL A   1      45.556  26.837  29.386  1.00  0.00     0.065 H 
ATOM    103  H   UNL A   1      44.601  30.324  35.857  1.00  0.00     0.065 H 
ATOM    104  C   UNL A   1      44.655  29.024  33.265  1.00  0.00     0.037 A 
ATOM    105  H   UNL A   1      46.384  27.427  31.734  1.00  0.00     0.065 H 
BRANCH  86 106
ATOM    106  C   UNL A   1      39.880  32.385  35.276  1.00  0.00     0.064 A 
ATOM    107  C   UNL A   1      39.041  31.860  36.271  1.00  0.00     0.173 A 
ATOM    108  C   UNL A   1      40.195  33.751  35.338  1.00  0.00     0.173 A 
ATOM    109  F   UNL A   1      38.699  30.563  36.249  1.00  0.00    -0.203 F 
ATOM    110  C   UNL A   1      38.516  32.675  37.270  1.00  0.00     0.198 A 
ATOM    111  C   UNL A   1      39.690  34.557  36.355  1.00  0.00     0.198 A 
ATOM    112  F   UNL A   1      40.996  34.303  34.414  1.00  0.00    -0.203 F 
ATOM    113  F   UNL A   1      37.678  32.160  38.181  1.00  0.00    -0.200 F 
ATOM    114  C   UNL A   1      38.845  34.021  37.315  1.00  0.00     0.200 A 
ATOM    115  F   UNL A   1      40.019  35.856  36.404  1.00  0.00    -0.200 F 
ATOM    116  F   UNL A   1      38.343  34.804  38.281  1.00  0.00    -0.200 F 
ENDBRANCH  86 106
BRANCH  89 117
ATOM    117  C   UNL A   1      43.443  26.918  27.720  1.00  0.00     0.064 A 
ATOM    118  C   UNL A   1      43.262  25.529  27.669  1.00  0.00     0.173 A 
ATOM    119  C   UNL A   1      44.150  27.525  26.673  1.00  0.00     0.173 A 
ATOM    120  F   UNL A   1      42.610  24.901  28.659  1.00  0.00    -0.203 F 
ATOM    121  C   UNL A   1      43.783  24.774  26.620  1.00  0.00     0.198 A 
ATOM    122  C   UNL A   1      44.649  26.773  25.613  1.00  0.00     0.198 A 
ATOM    123  F   UNL A   1      44.344  28.852  26.675  1.00  0.00    -0.203 F 
ATOM    124  F   UNL A   1      43.631  23.443  26.615  1.00  0.00    -0.200 F 
ATOM    125  C   UNL A   1      44.472  25.398  25.590  1.00  0.00     0.200 A 
ATOM    126  F   UNL A   1      45.305  27.380  24.613  1.00  0.00    -0.200 F 
ATOM    127  F   UNL A   1      44.970  24.671  24.580  1.00  0.00    -0.200 F 
ENDBRANCH  89 117
BRANCH 104 128
ATOM    128  C   UNL A   1      45.943  28.713  33.968  1.00  0.00     0.064 A 
ATOM    129  C   UNL A   1      47.061  29.552  33.856  1.00  0.00     0.173 A 
ATOM    130  C   UNL A   1      46.045  27.584  34.795  1.00  0.00     0.173 A 
ATOM    131  F   UNL A   1      47.016  30.634  33.066  1.00  0.00    -0.203 F 
ATOM    132  C   UNL A   1      48.243  29.259  34.532  1.00  0.00     0.198 A 
ATOM    133  C   UNL A   1      47.219  27.309  35.488  1.00  0.00     0.198 A 
ATOM    134  F   UNL A   1      45.001  26.754  34.938  1.00  0.00    -0.203 F 
ATOM    135  F   UNL A   1      49.313  30.052  34.379  1.00  0.00    -0.200 F 
ATOM    136  C   UNL A   1      48.320  28.143  35.352  1.00  0.00     0.200 A 
ATOM    137  F   UNL A   1      47.288  26.237  36.289  1.00  0.00    -0.200 F 
ATOM    138  F   UNL A   1      49.456  27.868  36.006  1.00  0.00    -0.200 F 
ENDBRANCH 104 128
ENDBRANCH  69  72
ENDBRANCH  59  62
ENDBRANCH  55  58
ENDBRANCH  52  55
ENDBRANCH  49  52
ENDBRANCH  46  49
ENDBRANCH   1  46
TORSDOF 17
ENDMDL
MODEL 10
REMARK VINA RESULT:     -11.1      6.941      9.793
REMARK SMILES CS(=O)(=O)c1ccc(-c2cc(Cl)cnc2-c2ccc(C(=O)NCCCCCCNC(=O)c3ccc(-c4c5nc(c(-c6c(F)c(F)c(F)c(F)c6F)c6ccc([nH]6)c(-c6c(F)c(F)c(F)c(F)c6F)c6nc(c(-c7c(F)c(F)c(F)c(F)c7F)c7ccc4[nH]7)C=C6)C=C5)cc3)nc2)cc1
REMARK SMILES IDX 24 1 23 4 22 7 20 8 21 9 19 11 16 12 17 13 96 14 18 15 95 17
REMARK SMILES IDX 15 20 9 21 10 22 11 23 14 25 12 26 13 27 8 29 5 30 6 31
REMARK SMILES IDX 98 32 7 33 97 35 2 39 3 40 4 41 1 42 25 46 26 49 27 52 28 55
REMARK SMILES IDX 29 58 30 59 31 61 32 62 33 63 94 64 34 65 93 67 35 69 36 72
REMARK SMILES IDX 37 73 87 74 38 75 92 76 86 77 88 78 39 79 91 80 85 82 84 84
REMARK SMILES IDX 40 86 72 89 52 90 71 91 53 92 56 93 70 94 89 95 54 96 55 98
REMARK SMILES IDX 69 100 90 101 57 104 41 106 42 107 50 108 43 109 44 110
REMARK SMILES IDX 48 111 51 112 45 113 46 114 49 115 47 116 73 117 74 118
REMARK SMILES IDX 82 119 75 120 76 121 80 122 83 123 77 124 78 125 81 126
REMARK SMILES IDX 79 127 58 128 59 129 67 130 60 131 61 132 65 133 68 134
REMARK SMILES IDX 62 135 63 136 66 137 64 138
REMARK H PARENT 24 2 24 3 23 5 23 6 22 10 17 16 96 18 18 19 10 24 13 28 6 34
REMARK H PARENT 98 36 7 37 97 38 1 43 1 44 1 45 25 47 25 48 26 50 26 51 27 53
REMARK H PARENT 27 54 28 56 28 57 29 60 33 66 94 68 34 70 93 71 92 81 86 83
REMARK H PARENT 88 85 91 87 85 88 53 97 56 99 89 102 54 103 90 105
REMARK Flexibility Score: inf
ROOT
ATOM      1  C   UNL A   1      36.552  30.320  29.846  1.00  0.00    -0.036 C 
ATOM      2  H   UNL A   1      37.475  29.807  30.017  1.00  0.00     0.028 H 
ATOM      3  H   UNL A   1      35.871  30.217  30.664  1.00  0.00     0.028 H 
ENDROOT
BRANCH   1   4
ATOM      4  C   UNL A   1      35.876  29.701  28.619  1.00  0.00     0.018 C 
ATOM      5  H   UNL A   1      36.582  29.649  27.817  1.00  0.00     0.049 H 
ATOM      6  H   UNL A   1      35.532  28.719  28.871  1.00  0.00     0.049 H 
BRANCH   4   7
ATOM      7  N   UNL A   1      34.744  30.506  28.209  1.00  0.00    -0.351 N 
ATOM      8  C   UNL A   1      33.637  30.238  27.434  1.00  0.00     0.269 C 
ATOM      9  O   UNL A   1      32.836  31.162  27.285  1.00  0.00    -0.268 OA
ATOM     10  H   UNL A   1      34.772  31.429  28.551  1.00  0.00     0.163 HD
BRANCH   8  11
ATOM     11  C   UNL A   1      33.357  28.892  26.825  1.00  0.00     0.128 A 
ATOM     12  C   UNL A   1      32.920  26.510  25.475  1.00  0.00     0.019 A 
ATOM     13  C   UNL A   1      32.141  26.838  26.589  1.00  0.00    -0.049 A 
ATOM     14  C   UNL A   1      33.943  27.391  25.149  1.00  0.00     0.037 A 
ATOM     15  C   UNL A   1      32.380  28.021  27.291  1.00  0.00    -0.030 A 
ATOM     16  H   UNL A   1      31.386  26.203  26.894  1.00  0.00     0.063 H 
ATOM     17  N   UNL A   1      34.157  28.575  25.771  1.00  0.00    -0.250 NA
ATOM     18  H   UNL A   1      34.582  27.126  24.384  1.00  0.00     0.085 H 
ATOM     19  H   UNL A   1      31.840  28.245  28.141  1.00  0.00     0.065 H 
BRANCH  12  20
ATOM     20  C   UNL A   1      32.654  25.315  24.674  1.00  0.00     0.080 A 
ATOM     21  C   UNL A   1      31.605  25.246  23.733  1.00  0.00     0.010 A 
ATOM     22  C   UNL A   1      31.410  24.016  23.081  1.00  0.00    -0.032 A 
ATOM     23  C   UNL A   1      32.239  22.935  23.364  1.00  0.00     0.060 A 
ATOM     24  H   UNL A   1      30.651  23.915  22.390  1.00  0.00     0.065 H 
ATOM     25  N   UNL A   1      33.481  24.270  24.946  1.00  0.00    -0.254 NA
ATOM     26  Cl  UNL A   1      32.000  21.425  22.588  1.00  0.00    -0.083 Cl
ATOM     27  C   UNL A   1      33.253  23.108  24.288  1.00  0.00     0.046 A 
ATOM     28  H   UNL A   1      33.873  22.308  24.487  1.00  0.00     0.086 H 
BRANCH  21  29
ATOM     29  C   UNL A   1      30.728  26.388  23.418  1.00  0.00    -0.016 A 
ATOM     30  C   UNL A   1      29.059  28.566  22.811  1.00  0.00     0.067 A 
ATOM     31  C   UNL A   1      28.564  27.511  23.579  1.00  0.00    -0.043 A 
ATOM     32  C   UNL A   1      30.377  28.555  22.355  1.00  0.00    -0.043 A 
ATOM     33  C   UNL A   1      29.399  26.430  23.877  1.00  0.00    -0.053 A 
ATOM     34  H   UNL A   1      27.592  27.529  23.924  1.00  0.00     0.064 H 
ATOM     35  C   UNL A   1      31.205  27.470  22.660  1.00  0.00    -0.053 A 
ATOM     36  H   UNL A   1      30.740  29.343  21.795  1.00  0.00     0.064 H 
ATOM     37  H   UNL A   1      29.033  25.649  24.444  1.00  0.00     0.063 H 
ATOM     38  H   UNL A   1      32.181  27.465  22.324  1.00  0.00     0.063 H 
BRANCH  30  39
ATOM     39  S   UNL A   1      28.010  29.954  22.444  1.00  0.00     0.175 S 
ATOM     40  O   UNL A   1      26.802  29.806  23.230  1.00  0.00    -0.224 OA
ATOM     41  O   UNL A   1      27.957  30.064  20.997  1.00  0.00    -0.224 OA
BRANCH  39  42
ATOM     42  C   UNL A   1      28.879  31.362  23.080  1.00  0.00     0.043 C 
ATOM     43  H   UNL A   1      28.620  32.229  22.510  1.00  0.00     0.040 H 
ATOM     44  H   UNL A   1      29.933  31.192  23.013  1.00  0.00     0.040 H 
ATOM     45  H   UNL A   1      28.607  31.515  24.104  1.00  0.00     0.040 H 
ENDBRANCH  39  42
ENDBRANCH  30  39
ENDBRANCH  21  29
ENDBRANCH  12  20
ENDBRANCH   8  11
ENDBRANCH   4   7
ENDBRANCH   1   4
BRANCH   1  46
ATOM     46  C   UNL A   1      36.851  31.818  29.696  1.00  0.00    -0.052 C 
ATOM     47  H   UNL A   1      36.097  32.245  29.067  1.00  0.00     0.027 H 
ATOM     48  H   UNL A   1      37.836  31.886  29.286  1.00  0.00     0.027 H 
BRANCH  46  49
ATOM     49  C   UNL A   1      36.878  32.613  31.008  1.00  0.00    -0.052 C 
ATOM     50  H   UNL A   1      36.337  33.524  30.856  1.00  0.00     0.027 H 
ATOM     51  H   UNL A   1      37.912  32.763  31.242  1.00  0.00     0.027 H 
BRANCH  49  52
ATOM     52  C   UNL A   1      36.269  31.898  32.217  1.00  0.00    -0.036 C 
ATOM     53  H   UNL A   1      35.807  30.996  31.874  1.00  0.00     0.028 H 
ATOM     54  H   UNL A   1      35.575  32.585  32.657  1.00  0.00     0.028 H 
BRANCH  52  55
ATOM     55  C   UNL A   1      37.268  31.535  33.312  1.00  0.00     0.018 C 
ATOM     56  H   UNL A   1      36.895  31.887  34.251  1.00  0.00     0.049 H 
ATOM     57  H   UNL A   1      38.205  31.994  33.072  1.00  0.00     0.049 H 
BRANCH  55  58
ATOM     58  N   UNL A   1      37.480  30.100  33.400  1.00  0.00    -0.352 N 
ATOM     59  C   UNL A   1      38.471  29.331  32.844  1.00  0.00     0.251 C 
ATOM     60  H   UNL A   1      36.817  29.608  33.936  1.00  0.00     0.163 HD
ATOM     61  O   UNL A   1      38.380  28.107  32.853  1.00  0.00    -0.269 OA
BRANCH  59  62
ATOM     62  C   UNL A   1      39.649  29.973  32.221  1.00  0.00     0.039 A 
ATOM     63  C   UNL A   1      39.824  29.863  30.839  1.00  0.00    -0.049 A 
ATOM     64  C   UNL A   1      40.596  30.646  32.999  1.00  0.00    -0.049 A 
ATOM     65  C   UNL A   1      40.924  30.470  30.229  1.00  0.00    -0.053 A 
ATOM     66  H   UNL A   1      39.142  29.336  30.271  1.00  0.00     0.063 H 
ATOM     67  C   UNL A   1      41.659  31.301  32.383  1.00  0.00    -0.053 A 
ATOM     68  H   UNL A   1      40.506  30.659  34.027  1.00  0.00     0.063 H 
ATOM     69  C   UNL A   1      41.839  31.212  30.994  1.00  0.00    -0.014 A 
ATOM     70  H   UNL A   1      41.066  30.372  29.211  1.00  0.00     0.063 H 
ATOM     71  H   UNL A   1      42.319  31.854  32.952  1.00  0.00     0.063 H 
BRANCH  69  72
ATOM     72  C   UNL A   1      42.997  31.887  30.361  1.00  0.00     0.031 A 
ATOM     73  C   UNL A   1      44.315  31.173  30.247  1.00  0.00     0.074 A 
ATOM     74  C   UNL A   1      42.881  33.162  29.945  1.00  0.00     0.049 A 
ATOM     75  N   UNL A   1      45.461  31.615  29.793  1.00  0.00    -0.248 NA
ATOM     76  C   UNL A   1      44.357  29.785  30.731  1.00  0.00    -0.034 C 
ATOM     77  C   UNL A   1      41.668  33.975  30.043  1.00  0.00    -0.036 A 
ATOM     78  N   UNL A   1      43.800  34.003  29.368  1.00  0.00    -0.354 N 
ATOM     79  C   UNL A   1      46.360  30.569  29.955  1.00  0.00     0.074 A 
ATOM     80  C   UNL A   1      45.641  29.487  30.589  1.00  0.00    -0.034 C 
ATOM     81  H   UNL A   1      43.588  29.197  31.089  1.00  0.00     0.065 H 
ATOM     82  C   UNL A   1      41.911  35.190  29.527  1.00  0.00    -0.036 A 
ATOM     83  H   UNL A   1      40.769  33.663  30.443  1.00  0.00     0.065 H 
ATOM     84  C   UNL A   1      43.304  35.253  29.091  1.00  0.00     0.049 A 
ATOM     85  H   UNL A   1      44.726  33.735  29.171  1.00  0.00     0.167 HD
ATOM     86  C   UNL A   1      47.663  30.511  29.586  1.00  0.00     0.037 A 
ATOM     87  H   UNL A   1      46.069  28.598  30.892  1.00  0.00     0.065 H 
ATOM     88  H   UNL A   1      41.225  35.958  29.450  1.00  0.00     0.065 H 
ATOM     89  C   UNL A   1      43.907  36.328  28.550  1.00  0.00     0.037 A 
ATOM     90  C   UNL A   1      48.366  31.578  28.924  1.00  0.00     0.049 A 
ATOM     91  C   UNL A   1      45.350  36.232  28.139  1.00  0.00     0.074 A 
ATOM     92  C   UNL A   1      49.669  31.593  28.456  1.00  0.00    -0.036 A 
ATOM     93  N   UNL A   1      47.822  32.819  28.634  1.00  0.00    -0.354 N 
ATOM     94  N   UNL A   1      46.173  35.217  28.240  1.00  0.00    -0.248 NA
ATOM     95  C   UNL A   1      45.945  37.430  27.528  1.00  0.00    -0.034 C 
ATOM     96  C   UNL A   1      49.923  32.858  27.914  1.00  0.00    -0.036 A 
ATOM     97  H   UNL A   1      50.336  30.809  28.499  1.00  0.00     0.065 H 
ATOM     98  C   UNL A   1      48.767  33.616  28.008  1.00  0.00     0.049 A 
ATOM     99  H   UNL A   1      46.900  33.096  28.843  1.00  0.00     0.167 HD
ATOM    100  C   UNL A   1      47.373  35.643  27.687  1.00  0.00     0.074 A 
ATOM    101  C   UNL A   1      47.167  37.004  27.237  1.00  0.00    -0.034 C 
ATOM    102  H   UNL A   1      45.523  38.357  27.369  1.00  0.00     0.065 H 
ATOM    103  H   UNL A   1      50.820  33.174  27.513  1.00  0.00     0.065 H 
ATOM    104  C   UNL A   1      48.540  34.966  27.560  1.00  0.00     0.037 A 
ATOM    105  H   UNL A   1      47.880  37.572  26.753  1.00  0.00     0.065 H 
BRANCH  86 106
ATOM    106  C   UNL A   1      48.411  29.246  29.888  1.00  0.00     0.064 A 
ATOM    107  C   UNL A   1      48.449  28.180  28.975  1.00  0.00     0.173 A 
ATOM    108  C   UNL A   1      49.124  29.108  31.088  1.00  0.00     0.173 A 
ATOM    109  F   UNL A   1      47.774  28.257  27.819  1.00  0.00    -0.203 F 
ATOM    110  C   UNL A   1      49.151  27.013  29.265  1.00  0.00     0.198 A 
ATOM    111  C   UNL A   1      49.847  27.950  31.363  1.00  0.00     0.198 A 
ATOM    112  F   UNL A   1      49.123  30.099  31.993  1.00  0.00    -0.203 F 
ATOM    113  F   UNL A   1      49.134  25.990  28.399  1.00  0.00    -0.200 F 
ATOM    114  C   UNL A   1      49.854  26.902  30.455  1.00  0.00     0.200 A 
ATOM    115  F   UNL A   1      50.536  27.848  32.508  1.00  0.00    -0.200 F 
ATOM    116  F   UNL A   1      50.533  25.779  30.732  1.00  0.00    -0.200 F 
ENDBRANCH  86 106
BRANCH  89 117
ATOM    117  C   UNL A   1      43.135  37.579  28.337  1.00  0.00     0.064 A 
ATOM    118  C   UNL A   1      42.381  37.766  27.171  1.00  0.00     0.173 A 
ATOM    119  C   UNL A   1      43.132  38.607  29.290  1.00  0.00     0.173 A 
ATOM    120  F   UNL A   1      42.371  36.819  26.221  1.00  0.00    -0.203 F 
ATOM    121  C   UNL A   1      41.666  38.943  26.957  1.00  0.00     0.198 A 
ATOM    122  C   UNL A   1      42.398  39.773  29.086  1.00  0.00     0.198 A 
ATOM    123  F   UNL A   1      43.834  38.473  30.425  1.00  0.00    -0.203 F 
ATOM    124  F   UNL A   1      40.986  39.113  25.816  1.00  0.00    -0.200 F 
ATOM    125  C   UNL A   1      41.671  39.943  27.918  1.00  0.00     0.200 A 
ATOM    126  F   UNL A   1      42.395  40.733  30.022  1.00  0.00    -0.200 F 
ATOM    127  F   UNL A   1      40.980  41.073  27.713  1.00  0.00    -0.200 F 
ENDBRANCH  89 117
BRANCH 104 128
ATOM    128  C   UNL A   1      49.675  35.675  26.883  1.00  0.00     0.064 A 
ATOM    129  C   UNL A   1      49.794  35.701  25.486  1.00  0.00     0.173 A 
ATOM    130  C   UNL A   1      50.630  36.370  27.640  1.00  0.00     0.173 A 
ATOM    131  F   UNL A   1      48.915  35.039  24.721  1.00  0.00    -0.203 F 
ATOM    132  C   UNL A   1      50.844  36.381  24.872  1.00  0.00     0.198 A 
ATOM    133  C   UNL A   1      51.662  37.069  27.023  1.00  0.00     0.198 A 
ATOM    134  F   UNL A   1      50.555  36.379  28.980  1.00  0.00    -0.203 F 
ATOM    135  F   UNL A   1      50.963  36.359  23.538  1.00  0.00    -0.200 F 
ATOM    136  C   UNL A   1      51.772  37.070  25.640  1.00  0.00     0.200 A 
ATOM    137  F   UNL A   1      52.551  37.744  27.764  1.00  0.00    -0.200 F 
ATOM    138  F   UNL A   1      52.776  37.728  25.046  1.00  0.00    -0.200 F 
ENDBRANCH 104 128
ENDBRANCH  69  72
ENDBRANCH  59  62
ENDBRANCH  55  58
ENDBRANCH  52  55
ENDBRANCH  49  52
ENDBRANCH  46  49
ENDBRANCH   1  46
TORSDOF 17
ENDMDL
