ROOT
ATOM     17  C14 UNL A   1      14.912  -5.346  -2.125  1.00  0.00    +0.000 C 
ATOM     18  C15 UNL A   1      15.700  -6.061  -1.065  1.00  0.00    +0.000 C 
ATOM     19  C16 UNL A   1      14.928  -6.755  -0.025  1.00  0.00    +0.000 C 
ATOM     20  C17 UNL A   1      15.892  -7.230   0.755  1.00  0.00    +0.000 C 
ATOM     21  C18 UNL A   1      17.204  -6.914   0.221  1.00  0.00    +0.000 C 
ATOM     22  N3  UNL A   1      16.999  -6.154  -0.922  1.00  0.00    +0.000 N 
ATOM     23  C19 UNL A   1      18.376  -7.322   0.766  1.00  0.00    +0.000 C 
ATOM     35  C26 UNL A   1      19.679  -7.020   0.231  1.00  0.00    +0.000 C 
ATOM     36  C27 UNL A   1      20.917  -7.445   0.683  1.00  0.00    +0.000 C 
ATOM     37  C28 UNL A   1      21.904  -6.855  -0.116  1.00  0.00    +0.000 C 
ATOM     38  C29 UNL A   1      21.279  -6.098  -1.092  1.00  0.00    +0.000 C 
ATOM     39  N4  UNL A   1      19.914  -6.209  -0.870  1.00  0.00    +0.000 N 
ATOM     40  C30 UNL A   1      21.877  -5.323  -2.149  1.00  0.00    +0.000 C 
ATOM     52  C37 UNL A   1      21.185  -4.633  -3.087  1.00  0.00    +0.000 C 
ATOM     53  C38 UNL A   1      21.794  -3.854  -4.144  1.00  0.00    +0.000 C 
ATOM     54  C39 UNL A   1      20.878  -3.255  -4.892  1.00  0.00    +0.000 C 
ATOM     55  C40 UNL A   1      19.631  -3.745  -4.287  1.00  0.00    +0.000 C 
ATOM     56  N5  UNL A   1      19.810  -4.520  -3.246  1.00  0.00    +0.000 N 
ATOM     57  C41 UNL A   1      18.346  -3.306  -4.934  1.00  0.00    +0.000 C 
ATOM     69  C48 UNL A   1      17.169  -3.715  -4.422  1.00  0.00    +0.000 C 
ATOM     70  C49 UNL A   1      15.852  -3.377  -4.956  1.00  0.00    +0.000 C 
ATOM     71  C50 UNL A   1      14.908  -3.923  -4.173  1.00  0.00    +0.000 C 
ATOM     72  C51 UNL A   1      15.556  -4.671  -3.096  1.00  0.00    +0.000 C 
ATOM     73  N6  UNL A   1      16.898  -4.499  -3.329  1.00  0.00    +0.000 N 
ATOM     94  H21 UNL A   1      13.905  -6.850   0.073  1.00  0.00    +0.000 H 
ATOM     95  H22 UNL A   1      15.730  -7.755   1.629  1.00  0.00    +0.000 H 
ATOM     96  H23 UNL A   1      21.084  -8.087   1.473  1.00  0.00    +0.000 H 
ATOM     97  H24 UNL A   1      22.923  -6.965   0.003  1.00  0.00    +0.000 H 
ATOM     98  H25 UNL A   1      19.216  -5.777  -1.412  1.00  0.00    +0.000 H 
ATOM     99  H26 UNL A   1      22.812  -3.775  -4.297  1.00  0.00    +0.000 H 
ATOM    100  H27 UNL A   1      21.006  -2.612  -5.689  1.00  0.00    +0.000 H 
ATOM    101  H28 UNL A   1      15.675  -2.811  -5.800  1.00  0.00    +0.000 H 
ATOM    102  H29 UNL A   1      13.889  -3.830  -4.308  1.00  0.00    +0.000 H 
ATOM    103  H30 UNL A   1      17.599  -4.900  -2.765  1.00  0.00    +0.000 H 
ENDROOT
BRANCH   17   14
ATOM     11  C8  UNL A   1      10.611  -5.274  -2.116  1.00  0.00    +0.000 C 
ATOM     12  C9  UNL A   1      11.305  -6.070  -3.037  1.00  0.00    +0.000 C 
ATOM     13  C10 UNL A   1      12.702  -6.112  -3.027  1.00  0.00    +0.000 C 
ATOM     14  C11 UNL A   1      13.427  -5.347  -2.103  1.00  0.00    +0.000 C 
ATOM     15  C12 UNL A   1      12.730  -4.559  -1.174  1.00  0.00    +0.000 C 
ATOM     16  C13 UNL A   1      11.330  -4.533  -1.169  1.00  0.00    +0.000 C 
ATOM     90  H17 UNL A   1      10.780  -6.630  -3.727  1.00  0.00    +0.000 H 
ATOM     91  H18 UNL A   1      13.202  -6.709  -3.704  1.00  0.00    +0.000 H 
ATOM     92  H19 UNL A   1      13.254  -3.993  -0.488  1.00  0.00    +0.000 H 
ATOM     93  H20 UNL A   1      10.828  -3.968  -0.468  1.00  0.00    +0.000 H 
BRANCH   11    9
ATOM      9  C7  UNL A   1       9.123  -5.272  -2.168  1.00  0.00    +0.000 C 
ATOM     10  O1  UNL A   1       8.528  -6.235  -2.646  1.00  0.00    +0.000 O 
BRANCH    9    8
ATOM     89  H16 UNL A   1       9.004  -3.394  -1.342  1.00  0.00    +0.000 H 
ATOM      8  N2  UNL A   1       8.478  -4.147  -1.696  1.00  0.00    +0.000 N 
BRANCH    8    7
ATOM     87  H14 UNL A   1       6.696  -4.159  -2.730  1.00  0.00    +0.000 H 
ATOM      7  C6  UNL A   1       7.031  -4.069  -1.718  1.00  0.00    +0.000 C 
ATOM     88  H15 UNL A   1       6.649  -4.863  -1.110  1.00  0.00    +0.000 H 
BRANCH    7    6
ATOM     86  H13 UNL A   1       6.885  -1.951  -1.754  1.00  0.00    +0.000 H 
ATOM     85  H12 UNL A   1       6.869  -2.647  -0.140  1.00  0.00    +0.000 H 
ATOM      6  C5  UNL A   1       6.519  -2.751  -1.146  1.00  0.00    +0.000 C 
BRANCH    6    5
ATOM     83  H10 UNL A   1       4.643  -2.827  -2.156  1.00  0.00    +0.000 H 
ATOM     84  H11 UNL A   1       4.632  -3.498  -0.525  1.00  0.00    +0.000 H 
ATOM      5  C4  UNL A   1       4.990  -2.707  -1.151  1.00  0.00    +0.000 C 
BRANCH    5    4
ATOM     81  H8  UNL A   1       4.812  -1.257   0.405  1.00  0.00    +0.000 H 
ATOM     82  H9  UNL A   1       4.810  -0.589  -1.223  1.00  0.00    +0.000 H 
ATOM      4  C3  UNL A   1       4.459  -1.383  -0.597  1.00  0.00    +0.000 C 
BRANCH    4    3
ATOM      3  C2  UNL A   1       2.928  -1.360  -0.595  1.00  0.00    +0.000 C 
ATOM     79  H6  UNL A   1       2.576  -1.489  -1.597  1.00  0.00    +0.000 H 
ATOM     80  H7  UNL A   1       2.580  -2.151   0.036  1.00  0.00    +0.000 H 
BRANCH    3    2
ATOM      2  C1  UNL A   1       2.393  -0.038  -0.047  1.00  0.00    +0.000 C 
ATOM     77  H4  UNL A   1       2.733   0.091   0.959  1.00  0.00    +0.000 H 
ATOM     78  H5  UNL A   1       2.749   0.764  -0.659  1.00  0.00    +0.000 H 
BRANCH    2    1
ATOM      1  N1  UNL A   1       0.935  -0.038  -0.065  1.00  0.00    +0.000 N 
ATOM     74  H1  UNL A   1       0.590   0.849   0.303  1.00  0.00    +0.000 H 
ATOM     75  H2  UNL A   1       0.588  -0.803   0.512  1.00  0.00    +0.000 H 
ATOM     76  H3  UNL A   1       0.607  -0.159  -1.023  1.00  0.00    +0.000 H 
ENDBRANCH    2    1
ENDBRANCH    3    2
ENDBRANCH    4    3
ENDBRANCH    5    4
ENDBRANCH    6    5
ENDBRANCH    7    6
ENDBRANCH    8    7
ENDBRANCH    9    8
ENDBRANCH   11    9
ENDBRANCH   17   14
BRANCH   23   24
ATOM     33  C25 UNL A   1      18.720  -7.603   3.247  1.00  0.00    +0.000 C 
ATOM     34  F5  UNL A   1      19.130  -6.328   3.321  1.00  0.00    +0.000 F 
ATOM     24  C20 UNL A   1      18.309  -8.143   2.019  1.00  0.00    +0.000 C 
ATOM     25  C21 UNL A   1      17.898  -9.484   1.995  1.00  0.00    +0.000 C 
ATOM     26  F1  UNL A   1      17.490 -10.045   0.847  1.00  0.00    +0.000 F 
ATOM     27  C22 UNL A   1      17.881 -10.248   3.159  1.00  0.00    +0.000 C 
ATOM     28  F2  UNL A   1      17.453 -11.517   3.120  1.00  0.00    +0.000 F 
ATOM     29  C23 UNL A   1      18.300  -9.696   4.361  1.00  0.00    +0.000 C 
ATOM     30  F3  UNL A   1      18.292 -10.435   5.479  1.00  0.00    +0.000 F 
ATOM     31  C24 UNL A   1      18.724  -8.376   4.404  1.00  0.00    +0.000 C 
ATOM     32  F4  UNL A   1      19.141  -7.845   5.562  1.00  0.00    +0.000 F 
ENDBRANCH   23   24
BRANCH   40   41
ATOM     41  C31 UNL A   1      23.375  -5.293  -2.239  1.00  0.00    +0.000 C 
ATOM     42  C32 UNL A   1      24.109  -4.151  -1.887  1.00  0.00    +0.000 C 
ATOM     43  F6  UNL A   1      23.474  -3.033  -1.504  1.00  0.00    +0.000 F 
ATOM     44  C33 UNL A   1      25.499  -4.141  -1.967  1.00  0.00    +0.000 C 
ATOM     45  F7  UNL A   1      26.178  -3.025  -1.668  1.00  0.00    +0.000 F 
ATOM     46  C34 UNL A   1      26.182  -5.280  -2.369  1.00  0.00    +0.000 C 
ATOM     47  F8  UNL A   1      27.520  -5.270  -2.440  1.00  0.00    +0.000 F 
ATOM     48  C35 UNL A   1      25.477  -6.426  -2.704  1.00  0.00    +0.000 C 
ATOM     49  F9  UNL A   1      26.135  -7.529  -3.083  1.00  0.00    +0.000 F 
ATOM     50  C36 UNL A   1      24.086  -6.430  -2.651  1.00  0.00    +0.000 C 
ATOM     51  F10 UNL A   1      23.430  -7.550  -2.993  1.00  0.00    +0.000 F 
ENDBRANCH   40   41
BRANCH   57   58
ATOM     65  C46 UNL A   1      17.971  -0.295  -7.216  1.00  0.00    +0.000 C 
ATOM     66  F14 UNL A   1      17.559   0.977  -7.137  1.00  0.00    +0.000 F 
ATOM     67  C47 UNL A   1      17.958  -1.101  -6.080  1.00  0.00    +0.000 C 
ATOM     68  F15 UNL A   1      17.538  -0.577  -4.918  1.00  0.00    +0.000 F 
ATOM     58  C42 UNL A   1      18.364  -2.441  -6.139  1.00  0.00    +0.000 C 
ATOM     59  C43 UNL A   1      18.795  -2.941  -7.376  1.00  0.00    +0.000 C 
ATOM     60  F11 UNL A   1      19.216  -4.211  -7.474  1.00  0.00    +0.000 F 
ATOM     61  C44 UNL A   1      18.831  -2.128  -8.506  1.00  0.00    +0.000 C 
ATOM     62  F12 UNL A   1      19.284  -2.619  -9.667  1.00  0.00    +0.000 F 
ATOM     63  C45 UNL A   1      18.414  -0.808  -8.426  1.00  0.00    +0.000 C 
ATOM     64  F13 UNL A   1      18.446  -0.026  -9.514  1.00  0.00    +0.000 F 
ENDBRANCH   57   58
TORSDOF 13