ROOT
ATOM      7  C5  UNL A   1      -0.161  -2.691   0.007  1.00  0.00    +0.000 C 
ATOM      8  C6  UNL A   1       0.289  -3.568   1.006  1.00  0.00    +0.000 C 
ATOM      9  C7  UNL A   1      -0.045  -4.922   0.967  1.00  0.00    +0.000 C 
ATOM     10  C8  UNL A   1      -0.840  -5.412  -0.066  1.00  0.00    +0.000 C 
ATOM     11  C9  UNL A   1      -1.311  -4.547  -1.052  1.00  0.00    +0.000 C 
ATOM     12  C10 UNL A   1      -0.979  -3.191  -1.013  1.00  0.00    +0.000 C 
ATOM     25  H3  UNL A   1       0.874  -3.208   1.777  1.00  0.00    +0.000 H 
ATOM     26  H4  UNL A   1       0.296  -5.560   1.704  1.00  0.00    +0.000 H 
ATOM     27  H5  UNL A   1      -1.080  -6.415  -0.101  1.00  0.00    +0.000 H 
ATOM     28  H6  UNL A   1      -1.908  -4.909  -1.812  1.00  0.00    +0.000 H 
ATOM     29  H7  UNL A   1      -1.337  -2.554  -1.741  1.00  0.00    +0.000 H 
ENDROOT
BRANCH    7    6
ATOM      1  O1  UNL A   1      -1.858  -0.155  -0.102  1.00  0.00    +0.000 O 
ATOM      2  C1  UNL A   1      -0.642  -0.122  -0.046  1.00  0.00    +0.000 C 
ATOM      3  O2  UNL A   1       0.101   1.021  -0.022  1.00  0.00    +0.000 O 
ATOM      4  C2  UNL A   1       1.486   0.683   0.025  1.00  0.00    +0.000 C 
ATOM      5  C3  UNL A   1       1.502  -0.793   0.010  1.00  0.00    +0.000 C 
ATOM      6  C4  UNL A   1       0.258  -1.290   0.004  1.00  0.00    +0.000 C 
ATOM     23  H1  UNL A   1       1.938   1.058   0.919  1.00  0.00    +0.000 H 
ATOM     24  H2  UNL A   1       2.037   1.106  -0.789  1.00  0.00    +0.000 H 
BRANCH    5   13
ATOM     33  H11 UNL A   1       3.531  -0.680   1.767  1.00  0.00    +0.000 H 
ATOM     13  C11 UNL A   1       2.752  -1.554   0.010  1.00  0.00    +0.000 C 
ATOM     14  C12 UNL A   1       3.002  -2.496  -0.998  1.00  0.00    +0.000 C 
ATOM     15  C13 UNL A   1       4.150  -3.287  -0.962  1.00  0.00    +0.000 C 
ATOM     16  C14 UNL A   1       5.063  -3.136   0.085  1.00  0.00    +0.000 C 
ATOM     17  C15 UNL A   1       4.845  -2.183   1.081  1.00  0.00    +0.000 C 
ATOM     18  C16 UNL A   1       3.691  -1.391   1.037  1.00  0.00    +0.000 C 
ATOM     30  H8  UNL A   1       2.330  -2.606  -1.774  1.00  0.00    +0.000 H 
ATOM     31  H9  UNL A   1       4.324  -3.981  -1.705  1.00  0.00    +0.000 H 
ATOM     32  H10 UNL A   1       5.529  -2.063   1.844  1.00  0.00    +0.000 H 
BRANCH   16   19
ATOM     19  S1  UNL A   1       6.468  -4.223   0.087  1.00  0.00    +0.000 S 
ATOM     20  O3  UNL A   1       5.950  -5.557   0.320  1.00  0.00    +0.000 O 
ATOM     21  O4  UNL A   1       7.228  -3.907  -1.107  1.00  0.00    +0.000 O 
BRANCH   19   22
ATOM     34  H12 UNL A   1       6.940  -4.016   2.383  1.00  0.00    +0.000 H 
ATOM     35  H13 UNL A   1       7.701  -2.751   1.448  1.00  0.00    +0.000 H 
ATOM     36  H14 UNL A   1       8.379  -4.362   1.453  1.00  0.00    +0.000 H 
ATOM     22  C17 UNL A   1       7.471  -3.796   1.480  1.00  0.00    +0.000 C 
ENDBRANCH   19   22
ENDBRANCH   16   19
ENDBRANCH    5   13
ENDBRANCH    7    6
TORSDOF 4