RCX_5kir
  PyMOL2.5          3D                             0

 36 38  0  0  0  0  0  0  0  0999 V2000
   23.4420   38.8480    5.7770 C   0  0  0  0  0  0  0  0  0  0  0  0
   22.4810   39.2190    4.7650 C   0  0  0  0  0  0  0  0  0  0  0  0
   21.2840   38.5890    5.1420 C   0  0  0  0  0  0  0  0  0  0  0  0
   22.7340   38.0310    6.6730 C   0  0  0  0  0  0  0  0  0  0  0  0
   21.4790   37.9080    6.2610 O   0  0  0  0  0  0  0  0  0  0  0  0
   23.2740   37.4430    7.8230 O   0  0  0  0  0  0  0  0  0  0  0  0
   24.9370   39.2420    5.9070 C   0  0  0  0  0  0  0  0  0  0  0  0
   25.8510   38.9130    4.9100 C   0  0  0  0  0  0  0  0  0  0  0  0
   27.1990   39.2760    5.0550 C   0  0  0  0  0  0  0  0  0  0  0  0
   27.6270   39.9560    6.1940 C   0  0  0  0  0  0  0  0  0  0  0  0
   26.7140   40.2790    7.1930 C   0  0  0  0  0  0  0  0  0  0  0  0
   25.3660   39.9200    7.0470 C   0  0  0  0  0  0  0  0  0  0  0  0
   22.6540   40.0840    3.5360 C   0  0  0  0  0  0  0  0  0  0  0  0
   23.2170   41.3540    3.6120 C   0  0  0  0  0  0  0  0  0  0  0  0
   23.3460   42.1150    2.4570 C   0  0  0  0  0  0  0  0  0  0  0  0
   22.9100   41.6190    1.2400 C   0  0  0  0  0  0  0  0  0  0  0  0
   22.3410   40.3510    1.1710 C   0  0  0  0  0  0  0  0  0  0  0  0
   22.2130   39.5920    2.3220 C   0  0  0  0  0  0  0  0  0  0  0  0
   23.0620   42.5880   -0.2400 S   0  0  0  0  0  0  0  0  0  0  0  0
   21.9670   43.6240   -0.2690 O   0  0  0  0  0  0  0  0  0  0  0  0
   22.9530   41.6840   -1.4550 O   0  0  0  0  0  0  0  0  0  0  0  0
   24.6260   43.4350   -0.2550 C   0  0  0  0  0  0  0  0  0  0  0  0
   20.3413   38.6508    4.5984 H   0  0  0  0  0  0  0  0  0  0  0  0
   23.4988   36.5279    7.6397 H   0  0  0  0  0  0  0  0  0  0  0  0
   25.5213   38.3759    4.0207 H   0  0  0  0  0  0  0  0  0  0  0  0
   27.9151   39.0248    4.2726 H   0  0  0  0  0  0  0  0  0  0  0  0
   28.6753   40.2343    6.3019 H   0  0  0  0  0  0  0  0  0  0  0  0
   27.0452   40.8092    8.0859 H   0  0  0  0  0  0  0  0  0  0  0  0
   24.6500   40.1725    7.8291 H   0  0  0  0  0  0  0  0  0  0  0  0
   23.5542   41.7488    4.5704 H   0  0  0  0  0  0  0  0  0  0  0  0
   23.7928   43.1078    2.5091 H   0  0  0  0  0  0  0  0  0  0  0  0
   21.9974   39.9568    0.2146 H   0  0  0  0  0  0  0  0  0  0  0  0
   21.7620   38.6010    2.2704 H   0  0  0  0  0  0  0  0  0  0  0  0
   25.3697   42.8147   -0.7553 H   0  0  0  0  0  0  0  0  0  0  0  0
   24.5231   44.3797   -0.7889 H   0  0  0  0  0  0  0  0  0  0  0  0
   24.9448   43.6286    0.7692 H   0  0  0  0  0  0  0  0  0  0  0  0
  1  2  4  0  0  0  0
  1  4  4  0  0  0  0
  1  7  1  0  0  0  0
  2  3  4  0  0  0  0
  2 13  1  0  0  0  0
  3  5  4  0  0  0  0
  3 23  1  0  0  0  0
  4  5  4  0  0  0  0
  4  6  1  0  0  0  0
  6 24  1  0  0  0  0
  7  8  4  0  0  0  0
  7 12  4  0  0  0  0
  8  9  4  0  0  0  0
  8 25  1  0  0  0  0
  9 10  4  0  0  0  0
  9 26  1  0  0  0  0
 10 11  4  0  0  0  0
 10 27  1  0  0  0  0
 11 12  4  0  0  0  0
 11 28  1  0  0  0  0
 12 29  1  0  0  0  0
 13 14  4  0  0  0  0
 13 18  4  0  0  0  0
 14 15  4  0  0  0  0
 14 30  1  0  0  0  0
 15 16  4  0  0  0  0
 15 31  1  0  0  0  0
 16 17  4  0  0  0  0
 16 19  1  0  0  0  0
 17 18  4  0  0  0  0
 17 32  1  0  0  0  0
 18 33  1  0  0  0  0
 19 20  2  0  0  0  0
 19 21  2  0  0  0  0
 19 22  1  0  0  0  0
 22 34  1  0  0  0  0
 22 35  1  0  0  0  0
 22 36  1  0  0  0  0
M  END
>  <pdb_header>
CRYST1  126.989  149.422  185.055  90.00  90.00  90.00 I 2 2 2      16


$$$$
