MODEL 1
REMARK VINA RESULT:     -13.0      0.000      0.000
REMARK SMILES NS(=O)(=O)c1ccc(-c2coc(=O)n2-c2ccc(C(=O)NCCCCCCNC(=O)c3ccc(-c4c5nc(c(-c6c(F)c(F)c(F)c(F)c6F)c6ccc([nH]6)c(-c6c(F)c(F)c(F)c(F)c6F)c6nc(c(-c7c(F)c(F)c(F)c(F)c7F)c7ccc4[nH]7)C=C6)C=C5)cc3)cc2)cc1
REMARK SMILES IDX 23 1 22 4 21 7 19 8 20 9 18 11 15 12 16 13 95 14 17 15 94 17
REMARK SMILES IDX 14 21 9 22 10 23 11 24 12 26 13 27 8 28 5 29 6 30 97 31 7 32
REMARK SMILES IDX 96 34 2 38 3 39 4 40 1 41 24 44 25 47 26 50 27 53 28 56
REMARK SMILES IDX 29 57 30 59 31 60 32 61 93 62 33 63 92 65 34 67 35 70 36 71
REMARK SMILES IDX 86 72 37 73 91 74 85 75 87 76 38 77 90 78 84 80 83 82 39 84
REMARK SMILES IDX 71 87 51 88 70 89 52 90 55 91 69 92 88 93 53 94 54 96 68 98
REMARK SMILES IDX 89 99 56 102 40 104 41 105 49 106 42 107 43 108 47 109
REMARK SMILES IDX 50 110 44 111 45 112 48 113 46 114 72 115 73 116 81 117
REMARK SMILES IDX 74 118 75 119 79 120 82 121 76 122 77 123 80 124 78 125
REMARK SMILES IDX 57 126 58 127 66 128 59 129 60 130 64 131 67 132 61 133
REMARK SMILES IDX 62 134 65 135 63 136
REMARK H PARENT 23 2 23 3 22 5 22 6 21 10 16 16 95 18 17 19 94 20 10 25 6 33
REMARK H PARENT 97 35 7 36 96 37 1 42 1 43 24 45 24 46 25 48 25 49 26 51 26 52
REMARK H PARENT 27 54 27 55 28 58 32 64 93 66 33 68 92 69 91 79 85 81 87 83
REMARK H PARENT 90 85 84 86 52 95 55 97 88 100 53 101 89 103
REMARK Flexibility Score: inf
ROOT
ATOM      1  C   UNL A   1      31.701  28.464  25.706  1.00  0.00    -0.036 C 
ATOM      2  H   UNL A   1      30.689  28.810  25.694  1.00  0.00     0.028 H 
ATOM      3  H   UNL A   1      31.985  28.008  24.780  1.00  0.00     0.028 H 
ENDROOT
BRANCH   1   4
ATOM      4  C   UNL A   1      31.837  27.396  26.795  1.00  0.00     0.018 C 
ATOM      5  H   UNL A   1      32.869  27.131  26.902  1.00  0.00     0.049 H 
ATOM      6  H   UNL A   1      31.462  27.788  27.716  1.00  0.00     0.049 H 
BRANCH   4   7
ATOM      7  N   UNL A   1      31.074  26.214  26.439  1.00  0.00    -0.352 N 
ATOM      8  C   UNL A   1      31.424  24.925  26.132  1.00  0.00     0.251 C 
ATOM      9  O   UNL A   1      30.511  24.138  25.878  1.00  0.00    -0.269 OA
ATOM     10  H   UNL A   1      30.103  26.371  26.413  1.00  0.00     0.163 HD
BRANCH   8  11
ATOM     11  C   UNL A   1      32.827  24.418  26.154  1.00  0.00     0.039 A 
ATOM     12  C   UNL A   1      35.439  23.387  25.933  1.00  0.00     0.053 A 
ATOM     13  C   UNL A   1      34.960  24.275  24.970  1.00  0.00    -0.037 A 
ATOM     14  C   UNL A   1      34.644  23.085  27.043  1.00  0.00    -0.037 A 
ATOM     15  C   UNL A   1      33.650  24.757  25.065  1.00  0.00    -0.047 A 
ATOM     16  H   UNL A   1      35.569  24.574  24.192  1.00  0.00     0.065 H 
ATOM     17  C   UNL A   1      33.373  23.649  27.180  1.00  0.00    -0.047 A 
ATOM     18  H   UNL A   1      35.000  22.441  27.767  1.00  0.00     0.065 H 
ATOM     19  H   UNL A   1      33.281  25.373  24.323  1.00  0.00     0.063 H 
ATOM     20  H   UNL A   1      32.836  23.495  28.049  1.00  0.00     0.063 H 
BRANCH  12  21
ATOM     21  N   UNL A   1      36.699  22.779  25.797  1.00  0.00    -0.242 N 
ATOM     22  C   UNL A   1      36.981  21.459  25.589  1.00  0.00     0.095 A 
ATOM     23  C   UNL A   1      38.302  21.350  25.668  1.00  0.00     0.121 A 
ATOM     24  O   UNL A   1      38.963  22.551  25.917  1.00  0.00    -0.415 OA
ATOM     25  H   UNL A   1      38.797  20.451  25.553  1.00  0.00     0.107 H 
ATOM     26  C   UNL A   1      37.903  23.457  25.969  1.00  0.00     0.424 A 
ATOM     27  O   UNL A   1      38.069  24.652  26.177  1.00  0.00    -0.223 OA
BRANCH  22  28
ATOM     28  C   UNL A   1      36.027  20.438  25.160  1.00  0.00     0.002 A 
ATOM     29  C   UNL A   1      34.158  18.533  24.306  1.00  0.00     0.082 A 
ATOM     30  C   UNL A   1      33.749  19.848  24.520  1.00  0.00    -0.041 A 
ATOM     31  C   UNL A   1      35.491  18.160  24.507  1.00  0.00    -0.041 A 
ATOM     32  C   UNL A   1      34.683  20.794  24.946  1.00  0.00    -0.051 A 
ATOM     33  H   UNL A   1      32.766  20.120  24.364  1.00  0.00     0.064 H 
ATOM     34  C   UNL A   1      36.424  19.115  24.927  1.00  0.00    -0.051 A 
ATOM     35  H   UNL A   1      35.785  17.184  24.346  1.00  0.00     0.064 H 
ATOM     36  H   UNL A   1      34.383  21.769  25.106  1.00  0.00     0.063 H 
ATOM     37  H   UNL A   1      37.409  18.844  25.066  1.00  0.00     0.063 H 
BRANCH  29  38
ATOM     38  S   UNL A   1      32.979  17.331  23.765  1.00  0.00     0.238 S 
ATOM     39  O   UNL A   1      32.915  17.354  22.314  1.00  0.00    -0.207 OA
ATOM     40  O   UNL A   1      31.815  17.427  24.596  1.00  0.00    -0.207 OA
BRANCH  38  41
ATOM     41  N   UNL A   1      33.723  15.871  24.139  1.00  0.00    -0.225 NA
ATOM     42  H   UNL A   1      33.051  15.253  24.592  1.00  0.00     0.137 HD
ATOM     43  H   UNL A   1      34.507  16.041  24.770  1.00  0.00     0.137 HD
ENDBRANCH  38  41
ENDBRANCH  29  38
ENDBRANCH  22  28
ENDBRANCH  12  21
ENDBRANCH   8  11
ENDBRANCH   4   7
ENDBRANCH   1   4
BRANCH   1  44
ATOM     44  C   UNL A   1      32.626  29.672  25.914  1.00  0.00    -0.052 C 
ATOM     45  H   UNL A   1      32.737  30.166  24.971  1.00  0.00     0.027 H 
ATOM     46  H   UNL A   1      33.539  29.277  26.307  1.00  0.00     0.027 H 
BRANCH  44  47
ATOM     47  C   UNL A   1      32.143  30.712  26.937  1.00  0.00    -0.052 C 
ATOM     48  H   UNL A   1      31.931  30.197  27.851  1.00  0.00     0.027 H 
ATOM     49  H   UNL A   1      31.292  31.181  26.488  1.00  0.00     0.027 H 
BRANCH  47  50
ATOM     50  C   UNL A   1      33.117  31.854  27.257  1.00  0.00    -0.036 C 
ATOM     51  H   UNL A   1      32.593  32.594  27.826  1.00  0.00     0.028 H 
ATOM     52  H   UNL A   1      33.472  32.230  26.321  1.00  0.00     0.028 H 
BRANCH  50  53
ATOM     53  C   UNL A   1      34.341  31.421  28.050  1.00  0.00     0.018 C 
ATOM     54  H   UNL A   1      35.218  31.639  27.477  1.00  0.00     0.049 H 
ATOM     55  H   UNL A   1      34.254  30.372  28.245  1.00  0.00     0.049 H 
BRANCH  53  56
ATOM     56  N   UNL A   1      34.437  32.111  29.336  1.00  0.00    -0.352 N 
ATOM     57  C   UNL A   1      35.306  31.880  30.380  1.00  0.00     0.251 C 
ATOM     58  H   UNL A   1      33.790  32.840  29.475  1.00  0.00     0.163 HD
ATOM     59  O   UNL A   1      35.054  32.286  31.508  1.00  0.00    -0.269 OA
BRANCH  57  60
ATOM     60  C   UNL A   1      36.539  31.117  30.127  1.00  0.00     0.039 A 
ATOM     61  C   UNL A   1      37.741  31.775  29.862  1.00  0.00    -0.049 A 
ATOM     62  C   UNL A   1      36.493  29.729  30.196  1.00  0.00    -0.049 A 
ATOM     63  C   UNL A   1      38.912  31.027  29.761  1.00  0.00    -0.053 A 
ATOM     64  H   UNL A   1      37.762  32.800  29.743  1.00  0.00     0.063 H 
ATOM     65  C   UNL A   1      37.665  29.009  30.244  1.00  0.00    -0.053 A 
ATOM     66  H   UNL A   1      35.584  29.240  30.212  1.00  0.00     0.063 H 
ATOM     67  C   UNL A   1      38.879  29.639  29.984  1.00  0.00    -0.014 A 
ATOM     68  H   UNL A   1      39.802  31.491  29.522  1.00  0.00     0.063 H 
ATOM     69  H   UNL A   1      37.645  28.002  30.472  1.00  0.00     0.063 H 
BRANCH  67  70
ATOM     70  C   UNL A   1      40.129  28.875  30.017  1.00  0.00     0.031 A 
ATOM     71  C   UNL A   1      40.760  28.703  31.359  1.00  0.00     0.074 A 
ATOM     72  C   UNL A   1      40.639  28.208  28.959  1.00  0.00     0.049 A 
ATOM     73  N   UNL A   1      41.920  29.124  31.749  1.00  0.00    -0.248 NA
ATOM     74  C   UNL A   1      39.982  28.040  32.417  1.00  0.00    -0.034 C 
ATOM     75  C   UNL A   1      40.054  27.996  27.631  1.00  0.00    -0.036 A 
ATOM     76  N   UNL A   1      41.793  27.483  28.898  1.00  0.00    -0.354 N 
ATOM     77  C   UNL A   1      42.091  28.663  33.053  1.00  0.00     0.074 A 
ATOM     78  C   UNL A   1      40.827  28.097  33.450  1.00  0.00    -0.034 C 
ATOM     79  H   UNL A   1      39.034  27.636  32.372  1.00  0.00     0.065 H 
ATOM     80  C   UNL A   1      40.731  27.021  26.987  1.00  0.00    -0.036 A 
ATOM     81  H   UNL A   1      39.247  28.513  27.246  1.00  0.00     0.065 H 
ATOM     82  C   UNL A   1      41.902  26.684  27.771  1.00  0.00     0.049 A 
ATOM     83  H   UNL A   1      42.488  27.524  29.593  1.00  0.00     0.167 HD
ATOM     84  C   UNL A   1      43.320  28.628  33.642  1.00  0.00     0.037 A 
ATOM     85  H   UNL A   1      40.604  27.778  34.406  1.00  0.00     0.065 H 
ATOM     86  H   UNL A   1      40.460  26.590  26.089  1.00  0.00     0.065 H 
ATOM     87  C   UNL A   1      42.884  25.797  27.492  1.00  0.00     0.037 A 
ATOM     88  C   UNL A   1      44.259  29.469  32.947  1.00  0.00     0.049 A 
ATOM     89  C   UNL A   1      44.069  26.178  28.293  1.00  0.00     0.074 A 
ATOM     90  C   UNL A   1      44.341  30.821  32.674  1.00  0.00    -0.036 A 
ATOM     91  N   UNL A   1      45.167  28.874  32.109  1.00  0.00    -0.354 N 
ATOM     92  N   UNL A   1      44.766  27.262  28.095  1.00  0.00    -0.248 NA
ATOM     93  C   UNL A   1      44.250  25.548  29.591  1.00  0.00    -0.034 C 
ATOM     94  C   UNL A   1      44.909  30.901  31.368  1.00  0.00    -0.036 A 
ATOM     95  H   UNL A   1      44.053  31.603  33.284  1.00  0.00     0.065 H 
ATOM     96  C   UNL A   1      45.180  29.599  30.947  1.00  0.00     0.049 A 
ATOM     97  H   UNL A   1      45.709  28.074  32.306  1.00  0.00     0.167 HD
ATOM     98  C   UNL A   1      45.125  27.683  29.364  1.00  0.00     0.074 A 
ATOM     99  C   UNL A   1      44.888  26.531  30.228  1.00  0.00    -0.034 C 
ATOM    100  H   UNL A   1      43.967  24.611  29.922  1.00  0.00     0.065 H 
ATOM    101  H   UNL A   1      45.087  31.765  30.832  1.00  0.00     0.065 H 
ATOM    102  C   UNL A   1      45.317  29.008  29.636  1.00  0.00     0.037 A 
ATOM    103  H   UNL A   1      45.180  26.483  31.217  1.00  0.00     0.065 H 
BRANCH  84 104
ATOM    104  C   UNL A   1      43.775  27.589  34.640  1.00  0.00     0.064 A 
ATOM    105  C   UNL A   1      43.711  26.222  34.293  1.00  0.00     0.173 A 
ATOM    106  C   UNL A   1      43.968  27.857  36.011  1.00  0.00     0.173 A 
ATOM    107  F   UNL A   1      43.518  25.847  33.018  1.00  0.00    -0.203 F 
ATOM    108  C   UNL A   1      43.745  25.210  35.257  1.00  0.00     0.198 A 
ATOM    109  C   UNL A   1      44.054  26.842  36.964  1.00  0.00     0.198 A 
ATOM    110  F   UNL A   1      43.968  29.104  36.497  1.00  0.00    -0.203 F 
ATOM    111  F   UNL A   1      43.546  23.936  34.893  1.00  0.00    -0.200 F 
ATOM    112  C   UNL A   1      43.907  25.523  36.593  1.00  0.00     0.200 A 
ATOM    113  F   UNL A   1      44.196  27.165  38.258  1.00  0.00    -0.200 F 
ATOM    114  F   UNL A   1      43.871  24.562  37.527  1.00  0.00    -0.200 F 
ENDBRANCH  84 104
BRANCH  87 115
ATOM    115  C   UNL A   1      42.780  24.514  26.767  1.00  0.00     0.064 A 
ATOM    116  C   UNL A   1      43.411  24.328  25.528  1.00  0.00     0.173 A 
ATOM    117  C   UNL A   1      42.297  23.358  27.410  1.00  0.00     0.173 A 
ATOM    118  F   UNL A   1      43.931  25.375  24.872  1.00  0.00    -0.203 F 
ATOM    119  C   UNL A   1      43.579  23.053  24.980  1.00  0.00     0.198 A 
ATOM    120  C   UNL A   1      42.461  22.087  26.860  1.00  0.00     0.198 A 
ATOM    121  F   UNL A   1      41.747  23.430  28.632  1.00  0.00    -0.203 F 
ATOM    122  F   UNL A   1      44.247  22.906  23.827  1.00  0.00    -0.200 F 
ATOM    123  C   UNL A   1      43.116  21.933  25.652  1.00  0.00     0.200 A 
ATOM    124  F   UNL A   1      42.040  21.010  27.537  1.00  0.00    -0.200 F 
ATOM    125  F   UNL A   1      43.340  20.707  25.160  1.00  0.00    -0.200 F 
ENDBRANCH  87 115
BRANCH 102 126
ATOM    126  C   UNL A   1      45.427  29.952  28.473  1.00  0.00     0.064 A 
ATOM    127  C   UNL A   1      44.325  30.536  27.825  1.00  0.00     0.173 A 
ATOM    128  C   UNL A   1      46.703  30.382  28.085  1.00  0.00     0.173 A 
ATOM    129  F   UNL A   1      43.073  30.258  28.205  1.00  0.00    -0.203 F 
ATOM    130  C   UNL A   1      44.497  31.468  26.803  1.00  0.00     0.198 A 
ATOM    131  C   UNL A   1      46.872  31.341  27.090  1.00  0.00     0.198 A 
ATOM    132  F   UNL A   1      47.792  29.902  28.707  1.00  0.00    -0.203 F 
ATOM    133  F   UNL A   1      43.428  31.998  26.188  1.00  0.00    -0.200 F 
ATOM    134  C   UNL A   1      45.771  31.874  26.440  1.00  0.00     0.200 A 
ATOM    135  F   UNL A   1      48.103  31.767  26.777  1.00  0.00    -0.200 F 
ATOM    136  F   UNL A   1      45.936  32.799  25.483  1.00  0.00    -0.200 F 
ENDBRANCH 102 126
ENDBRANCH  67  70
ENDBRANCH  57  60
ENDBRANCH  53  56
ENDBRANCH  50  53
ENDBRANCH  47  50
ENDBRANCH  44  47
ENDBRANCH   1  44
TORSDOF 17
ENDMDL
MODEL 2
REMARK VINA RESULT:     -12.1      8.809     15.404
REMARK SMILES NS(=O)(=O)c1ccc(-c2coc(=O)n2-c2ccc(C(=O)NCCCCCCNC(=O)c3ccc(-c4c5nc(c(-c6c(F)c(F)c(F)c(F)c6F)c6ccc([nH]6)c(-c6c(F)c(F)c(F)c(F)c6F)c6nc(c(-c7c(F)c(F)c(F)c(F)c7F)c7ccc4[nH]7)C=C6)C=C5)cc3)cc2)cc1
REMARK SMILES IDX 23 1 22 4 21 7 19 8 20 9 18 11 15 12 16 13 95 14 17 15 94 17
REMARK SMILES IDX 14 21 9 22 10 23 11 24 12 26 13 27 8 28 5 29 6 30 97 31 7 32
REMARK SMILES IDX 96 34 2 38 3 39 4 40 1 41 24 44 25 47 26 50 27 53 28 56
REMARK SMILES IDX 29 57 30 59 31 60 32 61 93 62 33 63 92 65 34 67 35 70 36 71
REMARK SMILES IDX 86 72 37 73 91 74 85 75 87 76 38 77 90 78 84 80 83 82 39 84
REMARK SMILES IDX 71 87 51 88 70 89 52 90 55 91 69 92 88 93 53 94 54 96 68 98
REMARK SMILES IDX 89 99 56 102 40 104 41 105 49 106 42 107 43 108 47 109
REMARK SMILES IDX 50 110 44 111 45 112 48 113 46 114 72 115 73 116 81 117
REMARK SMILES IDX 74 118 75 119 79 120 82 121 76 122 77 123 80 124 78 125
REMARK SMILES IDX 57 126 58 127 66 128 59 129 60 130 64 131 67 132 61 133
REMARK SMILES IDX 62 134 65 135 63 136
REMARK H PARENT 23 2 23 3 22 5 22 6 21 10 16 16 95 18 17 19 94 20 10 25 6 33
REMARK H PARENT 97 35 7 36 96 37 1 42 1 43 24 45 24 46 25 48 25 49 26 51 26 52
REMARK H PARENT 27 54 27 55 28 58 32 64 93 66 33 68 92 69 91 79 85 81 87 83
REMARK H PARENT 90 85 84 86 52 95 55 97 88 100 53 101 89 103
REMARK Flexibility Score: inf
ROOT
ATOM      1  C   UNL A   1      41.459  39.865  26.187  1.00  0.00    -0.036 C 
ATOM      2  H   UNL A   1      42.261  39.424  25.634  1.00  0.00     0.028 H 
ATOM      3  H   UNL A   1      40.520  39.389  25.988  1.00  0.00     0.028 H 
ENDROOT
BRANCH   1   4
ATOM      4  C   UNL A   1      41.320  41.329  25.759  1.00  0.00     0.018 C 
ATOM      5  H   UNL A   1      40.337  41.676  26.003  1.00  0.00     0.049 H 
ATOM      6  H   UNL A   1      42.053  41.913  26.272  1.00  0.00     0.049 H 
BRANCH   4   7
ATOM      7  N   UNL A   1      41.531  41.457  24.329  1.00  0.00    -0.352 N 
ATOM      8  C   UNL A   1      42.488  42.079  23.570  1.00  0.00     0.251 C 
ATOM      9  O   UNL A   1      42.384  41.990  22.346  1.00  0.00    -0.269 OA
ATOM     10  H   UNL A   1      40.842  41.002  23.791  1.00  0.00     0.163 HD
BRANCH   8  11
ATOM     11  C   UNL A   1      43.668  42.791  24.142  1.00  0.00     0.039 A 
ATOM     12  C   UNL A   1      45.889  43.950  25.430  1.00  0.00     0.053 A 
ATOM     13  C   UNL A   1      45.860  42.576  25.200  1.00  0.00    -0.037 A 
ATOM     14  C   UNL A   1      44.850  44.748  24.941  1.00  0.00    -0.037 A 
ATOM     15  C   UNL A   1      44.740  41.999  24.591  1.00  0.00    -0.047 A 
ATOM     16  H   UNL A   1      46.662  41.987  25.477  1.00  0.00     0.065 H 
ATOM     17  C   UNL A   1      43.781  44.176  24.247  1.00  0.00    -0.047 A 
ATOM     18  H   UNL A   1      44.874  45.770  25.093  1.00  0.00     0.065 H 
ATOM     19  H   UNL A   1      44.699  40.975  24.471  1.00  0.00     0.063 H 
ATOM     20  H   UNL A   1      43.070  44.784  23.809  1.00  0.00     0.063 H 
BRANCH  12  21
ATOM     21  N   UNL A   1      46.935  44.544  26.157  1.00  0.00    -0.242 N 
ATOM     22  C   UNL A   1      46.974  44.841  27.489  1.00  0.00     0.095 A 
ATOM     23  C   UNL A   1      48.104  45.511  27.682  1.00  0.00     0.121 A 
ATOM     24  O   UNL A   1      48.868  45.691  26.531  1.00  0.00    -0.415 OA
ATOM     25  H   UNL A   1      48.392  45.869  28.607  1.00  0.00     0.107 H 
ATOM     26  C   UNL A   1      48.099  45.034  25.570  1.00  0.00     0.424 A 
ATOM     27  O   UNL A   1      48.433  44.965  24.394  1.00  0.00    -0.223 OA
BRANCH  22  28
ATOM     28  C   UNL A   1      46.056  44.330  28.506  1.00  0.00     0.002 A 
ATOM     29  C   UNL A   1      44.247  43.397  30.431  1.00  0.00     0.082 A 
ATOM     30  C   UNL A   1      44.153  44.712  29.981  1.00  0.00    -0.041 A 
ATOM     31  C   UNL A   1      45.230  42.540  29.926  1.00  0.00    -0.041 A 
ATOM     32  C   UNL A   1      45.057  45.174  29.022  1.00  0.00    -0.051 A 
ATOM     33  H   UNL A   1      43.422  45.339  30.352  1.00  0.00     0.064 H 
ATOM     34  C   UNL A   1      46.128  43.006  28.959  1.00  0.00    -0.051 A 
ATOM     35  H   UNL A   1      45.293  41.566  30.265  1.00  0.00     0.064 H 
ATOM     36  H   UNL A   1      44.990  46.148  28.688  1.00  0.00     0.063 H 
ATOM     37  H   UNL A   1      46.847  42.372  28.578  1.00  0.00     0.063 H 
BRANCH  29  38
ATOM     38  S   UNL A   1      43.104  42.807  31.646  1.00  0.00     0.238 S 
ATOM     39  O   UNL A   1      43.846  42.182  32.726  1.00  0.00    -0.207 OA
ATOM     40  O   UNL A   1      42.016  42.160  30.972  1.00  0.00    -0.207 OA
BRANCH  38  41
ATOM     41  N   UNL A   1      42.489  44.224  32.309  1.00  0.00    -0.225 NA
ATOM     42  H   UNL A   1      43.250  44.768  32.715  1.00  0.00     0.137 HD
ATOM     43  H   UNL A   1      41.811  43.993  33.035  1.00  0.00     0.137 HD
ENDBRANCH  38  41
ENDBRANCH  29  38
ENDBRANCH  22  28
ENDBRANCH  12  21
ENDBRANCH   8  11
ENDBRANCH   4   7
ENDBRANCH   1   4
BRANCH   1  44
ATOM     44  C   UNL A   1      41.745  39.689  27.684  1.00  0.00    -0.052 C 
ATOM     45  H   UNL A   1      41.552  38.667  27.938  1.00  0.00     0.027 H 
ATOM     46  H   UNL A   1      41.109  40.387  28.187  1.00  0.00     0.027 H 
BRANCH  44  47
ATOM     47  C   UNL A   1      43.176  40.026  28.133  1.00  0.00    -0.052 C 
ATOM     48  H   UNL A   1      43.397  39.431  28.994  1.00  0.00     0.027 H 
ATOM     49  H   UNL A   1      43.178  41.081  28.313  1.00  0.00     0.027 H 
BRANCH  47  50
ATOM     50  C   UNL A   1      44.286  39.785  27.100  1.00  0.00    -0.036 C 
ATOM     51  H   UNL A   1      44.794  40.712  26.931  1.00  0.00     0.028 H 
ATOM     52  H   UNL A   1      43.812  39.408  26.218  1.00  0.00     0.028 H 
BRANCH  50  53
ATOM     53  C   UNL A   1      45.314  38.747  27.525  1.00  0.00     0.018 C 
ATOM     54  H   UNL A   1      45.025  38.344  28.473  1.00  0.00     0.049 H 
ATOM     55  H   UNL A   1      46.267  39.231  27.583  1.00  0.00     0.049 H 
BRANCH  53  56
ATOM     56  N   UNL A   1      45.423  37.653  26.562  1.00  0.00    -0.352 N 
ATOM     57  C   UNL A   1      45.054  36.333  26.704  1.00  0.00     0.251 C 
ATOM     58  H   UNL A   1      45.816  37.892  25.692  1.00  0.00     0.163 HD
ATOM     59  O   UNL A   1      45.512  35.469  25.966  1.00  0.00    -0.269 OA
BRANCH  57  60
ATOM     60  C   UNL A   1      44.110  35.968  27.774  1.00  0.00     0.039 A 
ATOM     61  C   UNL A   1      42.758  36.294  27.671  1.00  0.00    -0.049 A 
ATOM     62  C   UNL A   1      44.586  35.257  28.871  1.00  0.00    -0.049 A 
ATOM     63  C   UNL A   1      41.873  35.815  28.636  1.00  0.00    -0.053 A 
ATOM     64  H   UNL A   1      42.417  36.879  26.892  1.00  0.00     0.063 H 
ATOM     65  C   UNL A   1      43.696  34.664  29.737  1.00  0.00    -0.053 A 
ATOM     66  H   UNL A   1      45.601  35.174  29.035  1.00  0.00     0.063 H 
ATOM     67  C   UNL A   1      42.339  34.969  29.657  1.00  0.00    -0.014 A 
ATOM     68  H   UNL A   1      40.877  36.081  28.600  1.00  0.00     0.063 H 
ATOM     69  H   UNL A   1      44.032  33.993  30.446  1.00  0.00     0.063 H 
BRANCH  67  70
ATOM     70  C   UNL A   1      41.388  34.354  30.587  1.00  0.00     0.031 A 
ATOM     71  C   UNL A   1      41.884  34.121  31.976  1.00  0.00     0.074 A 
ATOM     72  C   UNL A   1      40.085  34.140  30.308  1.00  0.00     0.049 A 
ATOM     73  N   UNL A   1      42.016  32.989  32.590  1.00  0.00    -0.248 NA
ATOM     74  C   UNL A   1      42.351  35.278  32.755  1.00  0.00    -0.034 C 
ATOM     75  C   UNL A   1      39.312  34.546  29.129  1.00  0.00    -0.036 A 
ATOM     76  N   UNL A   1      39.136  33.569  31.105  1.00  0.00    -0.354 N 
ATOM     77  C   UNL A   1      42.447  33.287  33.881  1.00  0.00     0.074 A 
ATOM     78  C   UNL A   1      42.739  34.698  33.893  1.00  0.00    -0.034 C 
ATOM     79  H   UNL A   1      42.371  36.275  32.492  1.00  0.00     0.065 H 
ATOM     80  C   UNL A   1      37.993  34.420  29.385  1.00  0.00    -0.036 A 
ATOM     81  H   UNL A   1      39.717  34.877  28.238  1.00  0.00     0.065 H 
ATOM     82  C   UNL A   1      37.836  33.748  30.659  1.00  0.00     0.049 A 
ATOM     83  H   UNL A   1      39.355  33.073  31.926  1.00  0.00     0.167 HD
ATOM     84  C   UNL A   1      42.360  32.374  34.890  1.00  0.00     0.037 A 
ATOM     85  H   UNL A   1      43.190  35.195  34.679  1.00  0.00     0.065 H 
ATOM     86  H   UNL A   1      37.226  34.748  28.776  1.00  0.00     0.065 H 
ATOM     87  C   UNL A   1      36.699  33.375  31.288  1.00  0.00     0.037 A 
ATOM     88  C   UNL A   1      42.188  31.041  34.378  1.00  0.00     0.049 A 
ATOM     89  C   UNL A   1      37.052  32.305  32.248  1.00  0.00     0.074 A 
ATOM     90  C   UNL A   1      42.936  30.200  33.576  1.00  0.00    -0.036 A 
ATOM     91  N   UNL A   1      40.933  30.490  34.410  1.00  0.00    -0.354 N 
ATOM     92  N   UNL A   1      37.443  31.112  31.898  1.00  0.00    -0.248 NA
ATOM     93  C   UNL A   1      37.355  32.686  33.618  1.00  0.00    -0.034 C 
ATOM     94  C   UNL A   1      41.980  29.496  32.784  1.00  0.00    -0.036 A 
ATOM     95  H   UNL A   1      43.963  30.103  33.554  1.00  0.00     0.065 H 
ATOM     96  C   UNL A   1      40.711  29.917  33.185  1.00  0.00     0.049 A 
ATOM     97  H   UNL A   1      40.306  30.503  35.171  1.00  0.00     0.167 HD
ATOM     98  C   UNL A   1      38.404  30.770  32.836  1.00  0.00     0.074 A 
ATOM     99  C   UNL A   1      38.218  31.717  33.931  1.00  0.00    -0.034 C 
ATOM    100  H   UNL A   1      37.005  33.475  34.183  1.00  0.00     0.065 H 
ATOM    101  H   UNL A   1      42.189  28.803  32.049  1.00  0.00     0.065 H 
ATOM    102  C   UNL A   1      39.433  29.933  32.513  1.00  0.00     0.037 A 
ATOM    103  H   UNL A   1      38.698  31.645  34.841  1.00  0.00     0.065 H 
BRANCH  84 104
ATOM    104  C   UNL A   1      42.096  32.707  36.341  1.00  0.00     0.064 A 
ATOM    105  C   UNL A   1      42.984  32.234  37.331  1.00  0.00     0.173 A 
ATOM    106  C   UNL A   1      40.860  33.192  36.816  1.00  0.00     0.173 A 
ATOM    107  F   UNL A   1      44.184  31.738  36.995  1.00  0.00    -0.203 F 
ATOM    108  C   UNL A   1      42.621  32.167  38.680  1.00  0.00     0.198 A 
ATOM    109  C   UNL A   1      40.522  33.173  38.169  1.00  0.00     0.198 A 
ATOM    110  F   UNL A   1      39.890  33.596  35.987  1.00  0.00    -0.203 F 
ATOM    111  F   UNL A   1      43.444  31.588  39.563  1.00  0.00    -0.200 F 
ATOM    112  C   UNL A   1      41.386  32.629  39.096  1.00  0.00     0.200 A 
ATOM    113  F   UNL A   1      39.314  33.610  38.552  1.00  0.00    -0.200 F 
ATOM    114  F   UNL A   1      41.008  32.504  40.375  1.00  0.00    -0.200 F 
ENDBRANCH  84 104
BRANCH  87 115
ATOM    115  C   UNL A   1      35.385  34.052  31.282  1.00  0.00     0.064 A 
ATOM    116  C   UNL A   1      35.086  35.060  32.210  1.00  0.00     0.173 A 
ATOM    117  C   UNL A   1      34.509  33.918  30.189  1.00  0.00     0.173 A 
ATOM    118  F   UNL A   1      35.894  35.275  33.258  1.00  0.00    -0.203 F 
ATOM    119  C   UNL A   1      33.989  35.909  32.035  1.00  0.00     0.198 A 
ATOM    120  C   UNL A   1      33.412  34.762  30.018  1.00  0.00     0.198 A 
ATOM    121  F   UNL A   1      34.757  33.031  29.213  1.00  0.00    -0.203 F 
ATOM    122  F   UNL A   1      33.772  36.905  32.905  1.00  0.00    -0.200 F 
ATOM    123  C   UNL A   1      33.161  35.768  30.933  1.00  0.00     0.200 A 
ATOM    124  F   UNL A   1      32.641  34.638  28.929  1.00  0.00    -0.200 F 
ATOM    125  F   UNL A   1      32.152  36.626  30.729  1.00  0.00    -0.200 F 
ENDBRANCH  87 115
BRANCH 102 126
ATOM    126  C   UNL A   1      39.331  29.161  31.228  1.00  0.00     0.064 A 
ATOM    127  C   UNL A   1      39.758  29.647  29.981  1.00  0.00     0.173 A 
ATOM    128  C   UNL A   1      38.904  27.828  31.287  1.00  0.00     0.173 A 
ATOM    129  F   UNL A   1      40.277  30.874  29.858  1.00  0.00    -0.203 F 
ATOM    130  C   UNL A   1      39.710  28.849  28.839  1.00  0.00     0.198 A 
ATOM    131  C   UNL A   1      38.893  27.021  30.153  1.00  0.00     0.198 A 
ATOM    132  F   UNL A   1      38.538  27.291  32.462  1.00  0.00    -0.203 F 
ATOM    133  F   UNL A   1      40.107  29.343  27.655  1.00  0.00    -0.200 F 
ATOM    134  C   UNL A   1      39.283  27.535  28.927  1.00  0.00     0.200 A 
ATOM    135  F   UNL A   1      38.526  25.736  30.252  1.00  0.00    -0.200 F 
ATOM    136  F   UNL A   1      39.273  26.755  27.836  1.00  0.00    -0.200 F 
ENDBRANCH 102 126
ENDBRANCH  67  70
ENDBRANCH  57  60
ENDBRANCH  53  56
ENDBRANCH  50  53
ENDBRANCH  47  50
ENDBRANCH  44  47
ENDBRANCH   1  44
TORSDOF 17
ENDMDL
MODEL 3
REMARK VINA RESULT:     -12.1      5.357     11.857
REMARK SMILES NS(=O)(=O)c1ccc(-c2coc(=O)n2-c2ccc(C(=O)NCCCCCCNC(=O)c3ccc(-c4c5nc(c(-c6c(F)c(F)c(F)c(F)c6F)c6ccc([nH]6)c(-c6c(F)c(F)c(F)c(F)c6F)c6nc(c(-c7c(F)c(F)c(F)c(F)c7F)c7ccc4[nH]7)C=C6)C=C5)cc3)cc2)cc1
REMARK SMILES IDX 23 1 22 4 21 7 19 8 20 9 18 11 15 12 16 13 95 14 17 15 94 17
REMARK SMILES IDX 14 21 9 22 10 23 11 24 12 26 13 27 8 28 5 29 6 30 97 31 7 32
REMARK SMILES IDX 96 34 2 38 3 39 4 40 1 41 24 44 25 47 26 50 27 53 28 56
REMARK SMILES IDX 29 57 30 59 31 60 32 61 93 62 33 63 92 65 34 67 35 70 36 71
REMARK SMILES IDX 86 72 37 73 91 74 85 75 87 76 38 77 90 78 84 80 83 82 39 84
REMARK SMILES IDX 71 87 51 88 70 89 52 90 55 91 69 92 88 93 53 94 54 96 68 98
REMARK SMILES IDX 89 99 56 102 40 104 41 105 49 106 42 107 43 108 47 109
REMARK SMILES IDX 50 110 44 111 45 112 48 113 46 114 72 115 73 116 81 117
REMARK SMILES IDX 74 118 75 119 79 120 82 121 76 122 77 123 80 124 78 125
REMARK SMILES IDX 57 126 58 127 66 128 59 129 60 130 64 131 67 132 61 133
REMARK SMILES IDX 62 134 65 135 63 136
REMARK H PARENT 23 2 23 3 22 5 22 6 21 10 16 16 95 18 17 19 94 20 10 25 6 33
REMARK H PARENT 97 35 7 36 96 37 1 42 1 43 24 45 24 46 25 48 25 49 26 51 26 52
REMARK H PARENT 27 54 27 55 28 58 32 64 93 66 33 68 92 69 91 79 85 81 87 83
REMARK H PARENT 90 85 84 86 52 95 55 97 88 100 53 101 89 103
REMARK Flexibility Score: inf
ROOT
ATOM      1  C   UNL A   1      44.090  25.538  28.502  1.00  0.00    -0.036 C 
ATOM      2  H   UNL A   1      44.130  26.309  29.242  1.00  0.00     0.028 H 
ATOM      3  H   UNL A   1      44.947  24.898  28.537  1.00  0.00     0.028 H 
ENDROOT
BRANCH   1   4
ATOM      4  C   UNL A   1      44.074  26.193  27.118  1.00  0.00     0.018 C 
ATOM      5  H   UNL A   1      43.127  26.667  26.963  1.00  0.00     0.049 H 
ATOM      6  H   UNL A   1      44.859  26.917  27.066  1.00  0.00     0.049 H 
BRANCH   4   7
ATOM      7  N   UNL A   1      44.284  25.194  26.086  1.00  0.00    -0.352 N 
ATOM      8  C   UNL A   1      45.276  24.986  25.163  1.00  0.00     0.251 C 
ATOM      9  O   UNL A   1      45.158  24.014  24.417  1.00  0.00    -0.269 OA
ATOM     10  H   UNL A   1      43.562  24.526  26.039  1.00  0.00     0.163 HD
BRANCH   8  11
ATOM     11  C   UNL A   1      46.505  25.826  25.065  1.00  0.00     0.039 A 
ATOM     12  C   UNL A   1      48.896  27.315  25.128  1.00  0.00     0.053 A 
ATOM     13  C   UNL A   1      48.920  25.953  25.424  1.00  0.00    -0.037 A 
ATOM     14  C   UNL A   1      47.697  27.907  24.720  1.00  0.00    -0.037 A 
ATOM     15  C   UNL A   1      47.725  25.224  25.425  1.00  0.00    -0.047 A 
ATOM     16  H   UNL A   1      49.814  25.485  25.640  1.00  0.00     0.065 H 
ATOM     17  C   UNL A   1      46.526  27.150  24.629  1.00  0.00    -0.047 A 
ATOM     18  H   UNL A   1      47.676  28.912  24.484  1.00  0.00     0.065 H 
ATOM     19  H   UNL A   1      47.738  24.229  25.696  1.00  0.00     0.063 H 
ATOM     20  H   UNL A   1      45.671  27.574  24.236  1.00  0.00     0.063 H 
BRANCH  12  21
ATOM     21  N   UNL A   1      50.053  28.105  25.247  1.00  0.00    -0.242 N 
ATOM     22  C   UNL A   1      51.114  28.181  24.392  1.00  0.00     0.095 A 
ATOM     23  C   UNL A   1      52.015  28.949  24.994  1.00  0.00     0.121 A 
ATOM     24  O   UNL A   1      51.622  29.422  26.244  1.00  0.00    -0.415 OA
ATOM     25  H   UNL A   1      52.929  29.175  24.571  1.00  0.00     0.107 H 
ATOM     26  C   UNL A   1      50.342  28.881  26.367  1.00  0.00     0.424 A 
ATOM     27  O   UNL A   1      49.642  29.066  27.354  1.00  0.00    -0.223 OA
BRANCH  22  28
ATOM     28  C   UNL A   1      51.139  27.689  23.016  1.00  0.00     0.002 A 
ATOM     29  C   UNL A   1      51.222  26.685  20.400  1.00  0.00     0.082 A 
ATOM     30  C   UNL A   1      52.222  26.330  21.304  1.00  0.00    -0.041 A 
ATOM     31  C   UNL A   1      50.178  27.530  20.789  1.00  0.00    -0.041 A 
ATOM     32  C   UNL A   1      52.177  26.832  22.606  1.00  0.00    -0.051 A 
ATOM     33  H   UNL A   1      52.987  25.701  21.015  1.00  0.00     0.064 H 
ATOM     34  C   UNL A   1      50.134  28.024  22.099  1.00  0.00    -0.051 A 
ATOM     35  H   UNL A   1      49.441  27.788  20.114  1.00  0.00     0.064 H 
ATOM     36  H   UNL A   1      52.917  26.572  23.277  1.00  0.00     0.063 H 
ATOM     37  H   UNL A   1      49.360  28.640  22.390  1.00  0.00     0.063 H 
BRANCH  29  38
ATOM     38  S   UNL A   1      51.274  26.051  18.750  1.00  0.00     0.238 S 
ATOM     39  O   UNL A   1      51.051  27.143  17.819  1.00  0.00    -0.207 OA
ATOM     40  O   UNL A   1      50.528  24.827  18.708  1.00  0.00    -0.207 OA
BRANCH  38  41
ATOM     41  N   UNL A   1      52.891  25.638  18.551  1.00  0.00    -0.225 NA
ATOM     42  H   UNL A   1      53.043  25.309  17.598  1.00  0.00     0.137 HD
ATOM     43  H   UNL A   1      53.138  24.899  19.209  1.00  0.00     0.137 HD
ENDBRANCH  38  41
ENDBRANCH  29  38
ENDBRANCH  22  28
ENDBRANCH  12  21
ENDBRANCH   8  11
ENDBRANCH   4   7
ENDBRANCH   1   4
BRANCH   1  44
ATOM     44  C   UNL A   1      42.861  24.662  28.779  1.00  0.00    -0.052 C 
ATOM     45  H   UNL A   1      42.221  24.712  27.922  1.00  0.00     0.027 H 
ATOM     46  H   UNL A   1      42.420  25.051  29.672  1.00  0.00     0.027 H 
BRANCH  44  47
ATOM     47  C   UNL A   1      43.151  23.179  29.065  1.00  0.00    -0.052 C 
ATOM     48  H   UNL A   1      42.932  22.997  30.096  1.00  0.00     0.027 H 
ATOM     49  H   UNL A   1      44.178  23.033  28.799  1.00  0.00     0.027 H 
BRANCH  47  50
ATOM     50  C   UNL A   1      42.364  22.160  28.230  1.00  0.00    -0.036 C 
ATOM     51  H   UNL A   1      41.383  22.069  28.648  1.00  0.00     0.028 H 
ATOM     52  H   UNL A   1      42.912  21.242  28.265  1.00  0.00     0.028 H 
BRANCH  50  53
ATOM     53  C   UNL A   1      42.226  22.534  26.762  1.00  0.00     0.018 C 
ATOM     54  H   UNL A   1      42.971  22.011  26.201  1.00  0.00     0.049 H 
ATOM     55  H   UNL A   1      42.349  23.594  26.679  1.00  0.00     0.049 H 
BRANCH  53  56
ATOM     56  N   UNL A   1      40.908  22.192  26.228  1.00  0.00    -0.352 N 
ATOM     57  C   UNL A   1      39.704  22.835  26.415  1.00  0.00     0.251 C 
ATOM     58  H   UNL A   1      40.878  21.391  25.657  1.00  0.00     0.163 HD
ATOM     59  O   UNL A   1      38.644  22.258  26.204  1.00  0.00    -0.269 OA
BRANCH  57  60
ATOM     60  C   UNL A   1      39.705  24.227  26.895  1.00  0.00     0.039 A 
ATOM     61  C   UNL A   1      39.263  24.535  28.182  1.00  0.00    -0.049 A 
ATOM     62  C   UNL A   1      40.193  25.224  26.057  1.00  0.00    -0.049 A 
ATOM     63  C   UNL A   1      39.404  25.841  28.649  1.00  0.00    -0.053 A 
ATOM     64  H   UNL A   1      38.837  23.809  28.779  1.00  0.00     0.063 H 
ATOM     65  C   UNL A   1      40.467  26.471  26.568  1.00  0.00    -0.053 A 
ATOM     66  H   UNL A   1      40.349  25.028  25.055  1.00  0.00     0.063 H 
ATOM     67  C   UNL A   1      40.038  26.807  27.850  1.00  0.00    -0.014 A 
ATOM     68  H   UNL A   1      39.043  26.097  29.581  1.00  0.00     0.063 H 
ATOM     69  H   UNL A   1      40.990  27.159  26.003  1.00  0.00     0.063 H 
BRANCH  67  70
ATOM     70  C   UNL A   1      40.312  28.140  28.394  1.00  0.00     0.031 A 
ATOM     71  C   UNL A   1      41.537  28.821  27.880  1.00  0.00     0.074 A 
ATOM     72  C   UNL A   1      39.462  28.825  29.189  1.00  0.00     0.049 A 
ATOM     73  N   UNL A   1      42.580  29.189  28.552  1.00  0.00    -0.248 NA
ATOM     74  C   UNL A   1      41.646  29.066  26.434  1.00  0.00    -0.034 C 
ATOM     75  C   UNL A   1      38.092  28.484  29.587  1.00  0.00    -0.036 A 
ATOM     76  N   UNL A   1      39.637  30.059  29.744  1.00  0.00    -0.354 N 
ATOM     77  C   UNL A   1      43.423  29.839  27.652  1.00  0.00     0.074 A 
ATOM     78  C   UNL A   1      42.848  29.639  26.346  1.00  0.00    -0.034 C 
ATOM     79  H   UNL A   1      40.970  28.852  25.684  1.00  0.00     0.065 H 
ATOM     80  C   UNL A   1      37.489  29.571  30.115  1.00  0.00    -0.036 A 
ATOM     81  H   UNL A   1      37.656  27.554  29.482  1.00  0.00     0.065 H 
ATOM     82  C   UNL A   1      38.482  30.615  30.268  1.00  0.00     0.049 A 
ATOM     83  H   UNL A   1      40.509  30.514  29.770  1.00  0.00     0.167 HD
ATOM     84  C   UNL A   1      44.437  30.644  28.079  1.00  0.00     0.037 A 
ATOM     85  H   UNL A   1      43.307  29.904  25.460  1.00  0.00     0.065 H 
ATOM     86  H   UNL A   1      36.490  29.645  30.365  1.00  0.00     0.065 H 
ATOM     87  C   UNL A   1      38.338  31.854  30.793  1.00  0.00     0.037 A 
ATOM     88  C   UNL A   1      44.758  30.395  29.460  1.00  0.00     0.049 A 
ATOM     89  C   UNL A   1      39.681  32.323  31.199  1.00  0.00     0.074 A 
ATOM     90  C   UNL A   1      45.218  29.305  30.173  1.00  0.00    -0.036 A 
ATOM     91  N   UNL A   1      44.297  31.277  30.403  1.00  0.00    -0.354 N 
ATOM     92  N   UNL A   1      40.368  31.809  32.180  1.00  0.00    -0.248 NA
ATOM     93  C   UNL A   1      40.445  33.117  30.250  1.00  0.00    -0.034 C 
ATOM     94  C   UNL A   1      44.555  29.380  31.434  1.00  0.00    -0.036 A 
ATOM     95  H   UNL A   1      45.894  28.590  29.861  1.00  0.00     0.065 H 
ATOM     96  C   UNL A   1      43.771  30.535  31.427  1.00  0.00     0.049 A 
ATOM     97  H   UNL A   1      44.336  32.261  30.354  1.00  0.00     0.167 HD
ATOM     98  C   UNL A   1      41.682  31.844  31.742  1.00  0.00     0.074 A 
ATOM     99  C   UNL A   1      41.681  32.765  30.611  1.00  0.00    -0.034 C 
ATOM    100  H   UNL A   1      40.124  33.765  29.512  1.00  0.00     0.065 H 
ATOM    101  H   UNL A   1      44.639  28.705  32.209  1.00  0.00     0.065 H 
ATOM    102  C   UNL A   1      42.587  30.913  32.164  1.00  0.00     0.037 A 
ATOM    103  H   UNL A   1      42.536  33.106  30.145  1.00  0.00     0.065 H 
BRANCH  84 104
ATOM    104  C   UNL A   1      44.921  31.883  27.363  1.00  0.00     0.064 A 
ATOM    105  C   UNL A   1      46.228  31.908  26.829  1.00  0.00     0.173 A 
ATOM    106  C   UNL A   1      44.281  33.137  27.456  1.00  0.00     0.173 A 
ATOM    107  F   UNL A   1      46.938  30.776  26.705  1.00  0.00    -0.203 F 
ATOM    108  C   UNL A   1      46.872  33.105  26.503  1.00  0.00     0.198 A 
ATOM    109  C   UNL A   1      44.908  34.324  27.080  1.00  0.00     0.198 A 
ATOM    110  F   UNL A   1      43.074  33.277  28.016  1.00  0.00    -0.203 F 
ATOM    111  F   UNL A   1      48.157  33.089  26.126  1.00  0.00    -0.200 F 
ATOM    112  C   UNL A   1      46.214  34.313  26.638  1.00  0.00     0.200 A 
ATOM    113  F   UNL A   1      44.260  35.487  27.232  1.00  0.00    -0.200 F 
ATOM    114  F   UNL A   1      46.850  35.466  26.391  1.00  0.00    -0.200 F 
ENDBRANCH  84 104
BRANCH  87 115
ATOM    115  C   UNL A   1      37.156  32.739  30.740  1.00  0.00     0.064 A 
ATOM    116  C   UNL A   1      36.806  33.409  29.559  1.00  0.00     0.173 A 
ATOM    117  C   UNL A   1      36.191  32.718  31.765  1.00  0.00     0.173 A 
ATOM    118  F   UNL A   1      37.656  33.440  28.522  1.00  0.00    -0.203 F 
ATOM    119  C   UNL A   1      35.547  33.997  29.400  1.00  0.00     0.198 A 
ATOM    120  C   UNL A   1      34.938  33.310  31.608  1.00  0.00     0.198 A 
ATOM    121  F   UNL A   1      36.409  32.038  32.901  1.00  0.00    -0.203 F 
ATOM    122  F   UNL A   1      35.222  34.570  28.233  1.00  0.00    -0.200 F 
ATOM    123  C   UNL A   1      34.611  33.936  30.419  1.00  0.00     0.200 A 
ATOM    124  F   UNL A   1      34.029  33.211  32.588  1.00  0.00    -0.200 F 
ATOM    125  F   UNL A   1      33.381  34.437  30.241  1.00  0.00    -0.200 F 
ENDBRANCH  87 115
BRANCH 102 126
ATOM    126  C   UNL A   1      42.208  30.047  33.332  1.00  0.00     0.064 A 
ATOM    127  C   UNL A   1      41.616  28.778  33.212  1.00  0.00     0.173 A 
ATOM    128  C   UNL A   1      42.580  30.465  34.617  1.00  0.00     0.173 A 
ATOM    129  F   UNL A   1      41.326  28.261  32.013  1.00  0.00    -0.203 F 
ATOM    130  C   UNL A   1      41.363  27.989  34.334  1.00  0.00     0.198 A 
ATOM    131  C   UNL A   1      42.361  29.660  35.731  1.00  0.00     0.198 A 
ATOM    132  F   UNL A   1      43.202  31.642  34.786  1.00  0.00    -0.203 F 
ATOM    133  F   UNL A   1      40.779  26.789  34.194  1.00  0.00    -0.200 F 
ATOM    134  C   UNL A   1      41.741  28.429  35.591  1.00  0.00     0.200 A 
ATOM    135  F   UNL A   1      42.773  30.067  36.939  1.00  0.00    -0.200 F 
ATOM    136  F   UNL A   1      41.532  27.654  36.666  1.00  0.00    -0.200 F 
ENDBRANCH 102 126
ENDBRANCH  67  70
ENDBRANCH  57  60
ENDBRANCH  53  56
ENDBRANCH  50  53
ENDBRANCH  47  50
ENDBRANCH  44  47
ENDBRANCH   1  44
TORSDOF 17
ENDMDL
MODEL 4
REMARK VINA RESULT:     -12.1      2.127      3.326
REMARK SMILES NS(=O)(=O)c1ccc(-c2coc(=O)n2-c2ccc(C(=O)NCCCCCCNC(=O)c3ccc(-c4c5nc(c(-c6c(F)c(F)c(F)c(F)c6F)c6ccc([nH]6)c(-c6c(F)c(F)c(F)c(F)c6F)c6nc(c(-c7c(F)c(F)c(F)c(F)c7F)c7ccc4[nH]7)C=C6)C=C5)cc3)cc2)cc1
REMARK SMILES IDX 23 1 22 4 21 7 19 8 20 9 18 11 15 12 16 13 95 14 17 15 94 17
REMARK SMILES IDX 14 21 9 22 10 23 11 24 12 26 13 27 8 28 5 29 6 30 97 31 7 32
REMARK SMILES IDX 96 34 2 38 3 39 4 40 1 41 24 44 25 47 26 50 27 53 28 56
REMARK SMILES IDX 29 57 30 59 31 60 32 61 93 62 33 63 92 65 34 67 35 70 36 71
REMARK SMILES IDX 86 72 37 73 91 74 85 75 87 76 38 77 90 78 84 80 83 82 39 84
REMARK SMILES IDX 71 87 51 88 70 89 52 90 55 91 69 92 88 93 53 94 54 96 68 98
REMARK SMILES IDX 89 99 56 102 40 104 41 105 49 106 42 107 43 108 47 109
REMARK SMILES IDX 50 110 44 111 45 112 48 113 46 114 72 115 73 116 81 117
REMARK SMILES IDX 74 118 75 119 79 120 82 121 76 122 77 123 80 124 78 125
REMARK SMILES IDX 57 126 58 127 66 128 59 129 60 130 64 131 67 132 61 133
REMARK SMILES IDX 62 134 65 135 63 136
REMARK H PARENT 23 2 23 3 22 5 22 6 21 10 16 16 95 18 17 19 94 20 10 25 6 33
REMARK H PARENT 97 35 7 36 96 37 1 42 1 43 24 45 24 46 25 48 25 49 26 51 26 52
REMARK H PARENT 27 54 27 55 28 58 32 64 93 66 33 68 92 69 91 79 85 81 87 83
REMARK H PARENT 90 85 84 86 52 95 55 97 88 100 53 101 89 103
REMARK Flexibility Score: inf
ROOT
ATOM      1  C   UNL A   1      33.492  28.159  26.628  1.00  0.00    -0.036 C 
ATOM      2  H   UNL A   1      33.593  28.472  25.610  1.00  0.00     0.028 H 
ATOM      3  H   UNL A   1      33.715  27.120  26.756  1.00  0.00     0.028 H 
ENDROOT
BRANCH   1   4
ATOM      4  C   UNL A   1      32.036  28.364  27.058  1.00  0.00     0.018 C 
ATOM      5  H   UNL A   1      31.504  27.441  26.951  1.00  0.00     0.049 H 
ATOM      6  H   UNL A   1      32.016  28.683  28.078  1.00  0.00     0.049 H 
BRANCH   4   7
ATOM      7  N   UNL A   1      31.406  29.378  26.233  1.00  0.00    -0.352 N 
ATOM      8  C   UNL A   1      31.192  29.496  24.884  1.00  0.00     0.251 C 
ATOM      9  O   UNL A   1      30.600  30.503  24.493  1.00  0.00    -0.269 OA
ATOM     10  H   UNL A   1      31.059  30.140  26.751  1.00  0.00     0.163 HD
BRANCH   8  11
ATOM     11  C   UNL A   1      31.572  28.451  23.889  1.00  0.00     0.039 A 
ATOM     12  C   UNL A   1      32.207  26.292  22.195  1.00  0.00     0.053 A 
ATOM     13  C   UNL A   1      30.950  26.355  22.797  1.00  0.00    -0.037 A 
ATOM     14  C   UNL A   1      33.106  27.347  22.374  1.00  0.00    -0.037 A 
ATOM     15  C   UNL A   1      30.652  27.412  23.665  1.00  0.00    -0.047 A 
ATOM     16  H   UNL A   1      30.245  25.628  22.602  1.00  0.00     0.065 H 
ATOM     17  C   UNL A   1      32.764  28.446  23.165  1.00  0.00    -0.047 A 
ATOM     18  H   UNL A   1      34.032  27.313  21.918  1.00  0.00     0.065 H 
ATOM     19  H   UNL A   1      29.741  27.428  24.149  1.00  0.00     0.063 H 
ATOM     20  H   UNL A   1      33.396  29.261  23.212  1.00  0.00     0.063 H 
BRANCH  12  21
ATOM     21  N   UNL A   1      32.588  25.179  21.426  1.00  0.00    -0.242 N 
ATOM     22  C   UNL A   1      33.161  24.015  21.852  1.00  0.00     0.095 A 
ATOM     23  C   UNL A   1      33.461  23.331  20.754  1.00  0.00     0.121 A 
ATOM     24  O   UNL A   1      33.112  23.970  19.567  1.00  0.00    -0.415 OA
ATOM     25  H   UNL A   1      33.914  22.403  20.779  1.00  0.00     0.107 H 
ATOM     26  C   UNL A   1      32.528  25.148  20.035  1.00  0.00     0.424 A 
ATOM     27  O   UNL A   1      32.083  26.005  19.283  1.00  0.00    -0.223 OA
BRANCH  22  28
ATOM     28  C   UNL A   1      33.224  23.550  23.237  1.00  0.00     0.002 A 
ATOM     29  C   UNL A   1      33.378  22.721  25.909  1.00  0.00     0.082 A 
ATOM     30  C   UNL A   1      34.350  23.579  25.400  1.00  0.00    -0.041 A 
ATOM     31  C   UNL A   1      32.325  22.277  25.102  1.00  0.00    -0.041 A 
ATOM     32  C   UNL A   1      34.270  23.990  24.067  1.00  0.00    -0.051 A 
ATOM     33  H   UNL A   1      35.121  23.909  26.001  1.00  0.00     0.064 H 
ATOM     34  C   UNL A   1      32.246  22.699  23.769  1.00  0.00    -0.051 A 
ATOM     35  H   UNL A   1      31.609  21.642  25.487  1.00  0.00     0.064 H 
ATOM     36  H   UNL A   1      34.990  24.625  23.687  1.00  0.00     0.063 H 
ATOM     37  H   UNL A   1      31.465  22.381  23.175  1.00  0.00     0.063 H 
BRANCH  29  38
ATOM     38  S   UNL A   1      33.474  22.199  27.596  1.00  0.00     0.238 S 
ATOM     39  O   UNL A   1      32.249  22.581  28.277  1.00  0.00    -0.207 OA
ATOM     40  O   UNL A   1      34.778  22.520  28.100  1.00  0.00    -0.207 OA
BRANCH  38  41
ATOM     41  N   UNL A   1      33.398  20.524  27.482  1.00  0.00    -0.225 NA
ATOM     42  H   UNL A   1      32.699  20.170  28.134  1.00  0.00     0.137 HD
ATOM     43  H   UNL A   1      34.309  20.125  27.709  1.00  0.00     0.137 HD
ENDBRANCH  38  41
ENDBRANCH  29  38
ENDBRANCH  22  28
ENDBRANCH  12  21
ENDBRANCH   8  11
ENDBRANCH   4   7
ENDBRANCH   1   4
BRANCH   1  44
ATOM     44  C   UNL A   1      34.498  28.944  27.481  1.00  0.00    -0.052 C 
ATOM     45  H   UNL A   1      35.419  28.397  27.488  1.00  0.00     0.027 H 
ATOM     46  H   UNL A   1      34.047  29.047  28.445  1.00  0.00     0.027 H 
BRANCH  44  47
ATOM     47  C   UNL A   1      34.803  30.374  27.004  1.00  0.00    -0.052 C 
ATOM     48  H   UNL A   1      34.651  30.404  25.945  1.00  0.00     0.027 H 
ATOM     49  H   UNL A   1      35.809  30.569  27.311  1.00  0.00     0.027 H 
BRANCH  47  50
ATOM     50  C   UNL A   1      33.960  31.493  27.630  1.00  0.00    -0.036 C 
ATOM     51  H   UNL A   1      33.453  31.095  28.484  1.00  0.00     0.028 H 
ATOM     52  H   UNL A   1      33.286  31.834  26.873  1.00  0.00     0.028 H 
BRANCH  50  53
ATOM     53  C   UNL A   1      34.769  32.702  28.077  1.00  0.00     0.018 C 
ATOM     54  H   UNL A   1      34.427  33.563  27.540  1.00  0.00     0.049 H 
ATOM     55  H   UNL A   1      35.800  32.502  27.874  1.00  0.00     0.049 H 
BRANCH  53  56
ATOM     56  N   UNL A   1      34.633  32.957  29.510  1.00  0.00    -0.352 N 
ATOM     57  C   UNL A   1      35.234  32.307  30.566  1.00  0.00     0.251 C 
ATOM     58  H   UNL A   1      34.028  33.693  29.754  1.00  0.00     0.163 HD
ATOM     59  O   UNL A   1      34.774  32.388  31.698  1.00  0.00    -0.269 OA
BRANCH  57  60
ATOM     60  C   UNL A   1      36.433  31.490  30.312  1.00  0.00     0.039 A 
ATOM     61  C   UNL A   1      37.672  32.094  30.097  1.00  0.00    -0.049 A 
ATOM     62  C   UNL A   1      36.314  30.104  30.330  1.00  0.00    -0.049 A 
ATOM     63  C   UNL A   1      38.805  31.290  29.994  1.00  0.00    -0.053 A 
ATOM     64  H   UNL A   1      37.748  33.120  30.015  1.00  0.00     0.063 H 
ATOM     65  C   UNL A   1      37.447  29.323  30.378  1.00  0.00    -0.053 A 
ATOM     66  H   UNL A   1      35.381  29.663  30.310  1.00  0.00     0.063 H 
ATOM     67  C   UNL A   1      38.697  29.899  30.167  1.00  0.00    -0.014 A 
ATOM     68  H   UNL A   1      39.723  31.715  29.792  1.00  0.00     0.063 H 
ATOM     69  H   UNL A   1      37.370  28.312  30.569  1.00  0.00     0.063 H 
BRANCH  67  70
ATOM     70  C   UNL A   1      39.906  29.071  30.200  1.00  0.00     0.031 A 
ATOM     71  C   UNL A   1      40.515  28.848  31.544  1.00  0.00     0.074 A 
ATOM     72  C   UNL A   1      40.390  28.392  29.137  1.00  0.00     0.049 A 
ATOM     73  N   UNL A   1      41.692  29.203  31.949  1.00  0.00    -0.248 NA
ATOM     74  C   UNL A   1      39.695  28.213  32.587  1.00  0.00    -0.034 C 
ATOM     75  C   UNL A   1      39.806  28.228  27.801  1.00  0.00    -0.036 A 
ATOM     76  N   UNL A   1      41.505  27.609  29.075  1.00  0.00    -0.354 N 
ATOM     77  C   UNL A   1      41.828  28.717  33.248  1.00  0.00     0.074 A 
ATOM     78  C   UNL A   1      40.532  28.212  33.627  1.00  0.00    -0.034 C 
ATOM     79  H   UNL A   1      38.727  27.859  32.529  1.00  0.00     0.065 H 
ATOM     80  C   UNL A   1      40.437  27.228  27.149  1.00  0.00    -0.036 A 
ATOM     81  H   UNL A   1      39.030  28.792  27.417  1.00  0.00     0.065 H 
ATOM     82  C   UNL A   1      41.582  26.820  27.938  1.00  0.00     0.049 A 
ATOM     83  H   UNL A   1      42.195  27.604  29.776  1.00  0.00     0.167 HD
ATOM     84  C   UNL A   1      43.048  28.611  33.846  1.00  0.00     0.037 A 
ATOM     85  H   UNL A   1      40.285  27.893  34.577  1.00  0.00     0.065 H 
ATOM     86  H   UNL A   1      40.151  26.823  26.244  1.00  0.00     0.065 H 
ATOM     87  C   UNL A   1      42.520  25.887  27.655  1.00  0.00     0.037 A 
ATOM     88  C   UNL A   1      44.035  29.411  33.170  1.00  0.00     0.049 A 
ATOM     89  C   UNL A   1      43.715  26.196  28.471  1.00  0.00     0.074 A 
ATOM     90  C   UNL A   1      44.189  30.760  32.916  1.00  0.00    -0.036 A 
ATOM     91  N   UNL A   1      44.919  28.780  32.331  1.00  0.00    -0.354 N 
ATOM     92  N   UNL A   1      44.469  27.245  28.292  1.00  0.00    -0.248 NA
ATOM     93  C   UNL A   1      43.852  25.540  29.761  1.00  0.00    -0.034 C 
ATOM     94  C   UNL A   1      44.772  30.828  31.616  1.00  0.00    -0.036 A 
ATOM     95  H   UNL A   1      43.937  31.548  33.534  1.00  0.00     0.065 H 
ATOM     96  C   UNL A   1      44.979  29.519  31.179  1.00  0.00     0.049 A 
ATOM     97  H   UNL A   1      45.417  27.951  32.522  1.00  0.00     0.167 HD
ATOM     98  C   UNL A   1      44.839  27.630  29.571  1.00  0.00     0.074 A 
ATOM     99  C   UNL A   1      44.534  26.481  30.416  1.00  0.00    -0.034 C 
ATOM    100  H   UNL A   1      43.519  24.615  30.077  1.00  0.00     0.065 H 
ATOM    101  H   UNL A   1      44.999  31.688  31.093  1.00  0.00     0.065 H 
ATOM    102  C   UNL A   1      45.096  28.939  29.862  1.00  0.00     0.037 A 
ATOM    103  H   UNL A   1      44.816  26.404  31.407  1.00  0.00     0.065 H 
BRANCH  84 104
ATOM    104  C   UNL A   1      43.440  27.536  34.834  1.00  0.00     0.064 A 
ATOM    105  C   UNL A   1      43.884  27.909  36.121  1.00  0.00     0.173 A 
ATOM    106  C   UNL A   1      43.694  26.198  34.469  1.00  0.00     0.173 A 
ATOM    107  F   UNL A   1      43.707  29.160  36.571  1.00  0.00    -0.203 F 
ATOM    108  C   UNL A   1      44.607  27.033  36.937  1.00  0.00     0.198 A 
ATOM    109  C   UNL A   1      44.370  25.312  35.307  1.00  0.00     0.198 A 
ATOM    110  F   UNL A   1      43.402  25.727  33.251  1.00  0.00    -0.203 F 
ATOM    111  F   UNL A   1      45.123  27.473  38.092  1.00  0.00    -0.200 F 
ATOM    112  C   UNL A   1      44.857  25.738  36.525  1.00  0.00     0.200 A 
ATOM    113  F   UNL A   1      44.617  24.064  34.884  1.00  0.00    -0.200 F 
ATOM    114  F   UNL A   1      45.607  24.918  37.273  1.00  0.00    -0.200 F 
ENDBRANCH  84 104
BRANCH  87 115
ATOM    115  C   UNL A   1      42.355  24.621  26.912  1.00  0.00     0.064 A 
ATOM    116  C   UNL A   1      43.009  24.408  25.690  1.00  0.00     0.173 A 
ATOM    117  C   UNL A   1      41.781  23.491  27.527  1.00  0.00     0.173 A 
ATOM    118  F   UNL A   1      43.614  25.426  25.061  1.00  0.00    -0.203 F 
ATOM    119  C   UNL A   1      43.112  23.130  25.131  1.00  0.00     0.198 A 
ATOM    120  C   UNL A   1      41.880  22.219  26.966  1.00  0.00     0.198 A 
ATOM    121  F   UNL A   1      41.201  23.586  28.733  1.00  0.00    -0.203 F 
ATOM    122  F   UNL A   1      43.803  22.953  23.996  1.00  0.00    -0.200 F 
ATOM    123  C   UNL A   1      42.559  22.036  25.775  1.00  0.00     0.200 A 
ATOM    124  F   UNL A   1      41.372  21.164  27.618  1.00  0.00    -0.200 F 
ATOM    125  F   UNL A   1      42.719  20.803  25.276  1.00  0.00    -0.200 F 
ENDBRANCH  87 115
BRANCH 102 126
ATOM    126  C   UNL A   1      45.266  29.891  28.712  1.00  0.00     0.064 A 
ATOM    127  C   UNL A   1      44.202  30.557  28.077  1.00  0.00     0.173 A 
ATOM    128  C   UNL A   1      46.566  30.242  28.326  1.00  0.00     0.173 A 
ATOM    129  F   UNL A   1      42.935  30.356  28.458  1.00  0.00    -0.203 F 
ATOM    130  C   UNL A   1      44.433  31.491  27.069  1.00  0.00     0.198 A 
ATOM    131  C   UNL A   1      46.795  31.203  27.345  1.00  0.00     0.198 A 
ATOM    132  F   UNL A   1      47.622  29.682  28.936  1.00  0.00    -0.203 F 
ATOM    133  F   UNL A   1      43.399  32.099  26.465  1.00  0.00    -0.200 F 
ATOM    134  C   UNL A   1      45.729  31.818  26.708  1.00  0.00     0.200 A 
ATOM    135  F   UNL A   1      48.051  31.552  27.034  1.00  0.00    -0.200 F 
ATOM    136  F   UNL A   1      45.953  32.744  25.764  1.00  0.00    -0.200 F 
ENDBRANCH 102 126
ENDBRANCH  67  70
ENDBRANCH  57  60
ENDBRANCH  53  56
ENDBRANCH  50  53
ENDBRANCH  47  50
ENDBRANCH  44  47
ENDBRANCH   1  44
TORSDOF 17
ENDMDL
MODEL 5
REMARK VINA RESULT:     -12.1      8.525     13.826
REMARK SMILES NS(=O)(=O)c1ccc(-c2coc(=O)n2-c2ccc(C(=O)NCCCCCCNC(=O)c3ccc(-c4c5nc(c(-c6c(F)c(F)c(F)c(F)c6F)c6ccc([nH]6)c(-c6c(F)c(F)c(F)c(F)c6F)c6nc(c(-c7c(F)c(F)c(F)c(F)c7F)c7ccc4[nH]7)C=C6)C=C5)cc3)cc2)cc1
REMARK SMILES IDX 23 1 22 4 21 7 19 8 20 9 18 11 15 12 16 13 95 14 17 15 94 17
REMARK SMILES IDX 14 21 9 22 10 23 11 24 12 26 13 27 8 28 5 29 6 30 97 31 7 32
REMARK SMILES IDX 96 34 2 38 3 39 4 40 1 41 24 44 25 47 26 50 27 53 28 56
REMARK SMILES IDX 29 57 30 59 31 60 32 61 93 62 33 63 92 65 34 67 35 70 36 71
REMARK SMILES IDX 86 72 37 73 91 74 85 75 87 76 38 77 90 78 84 80 83 82 39 84
REMARK SMILES IDX 71 87 51 88 70 89 52 90 55 91 69 92 88 93 53 94 54 96 68 98
REMARK SMILES IDX 89 99 56 102 40 104 41 105 49 106 42 107 43 108 47 109
REMARK SMILES IDX 50 110 44 111 45 112 48 113 46 114 72 115 73 116 81 117
REMARK SMILES IDX 74 118 75 119 79 120 82 121 76 122 77 123 80 124 78 125
REMARK SMILES IDX 57 126 58 127 66 128 59 129 60 130 64 131 67 132 61 133
REMARK SMILES IDX 62 134 65 135 63 136
REMARK H PARENT 23 2 23 3 22 5 22 6 21 10 16 16 95 18 17 19 94 20 10 25 6 33
REMARK H PARENT 97 35 7 36 96 37 1 42 1 43 24 45 24 46 25 48 25 49 26 51 26 52
REMARK H PARENT 27 54 27 55 28 58 32 64 93 66 33 68 92 69 91 79 85 81 87 83
REMARK H PARENT 90 85 84 86 52 95 55 97 88 100 53 101 89 103
REMARK Flexibility Score: inf
ROOT
ATOM      1  C   UNL A   1      45.317  18.772  35.760  1.00  0.00    -0.036 C 
ATOM      2  H   UNL A   1      44.355  18.563  35.343  1.00  0.00     0.028 H 
ATOM      3  H   UNL A   1      46.090  18.181  35.312  1.00  0.00     0.028 H 
ENDROOT
BRANCH   1   4
ATOM      4  C   UNL A   1      45.289  18.421  37.250  1.00  0.00     0.018 C 
ATOM      5  H   UNL A   1      46.291  18.275  37.597  1.00  0.00     0.049 H 
ATOM      6  H   UNL A   1      44.827  19.221  37.787  1.00  0.00     0.049 H 
BRANCH   4   7
ATOM      7  N   UNL A   1      44.526  17.205  37.466  1.00  0.00    -0.352 N 
ATOM      8  C   UNL A   1      44.251  16.451  38.577  1.00  0.00     0.251 C 
ATOM      9  O   UNL A   1      43.545  15.454  38.421  1.00  0.00    -0.269 OA
ATOM     10  H   UNL A   1      44.122  16.848  36.642  1.00  0.00     0.163 HD
BRANCH   8  11
ATOM     11  C   UNL A   1      44.701  16.808  39.954  1.00  0.00     0.039 A 
ATOM     12  C   UNL A   1      45.682  17.240  42.559  1.00  0.00     0.053 A 
ATOM     13  C   UNL A   1      46.556  16.850  41.545  1.00  0.00    -0.037 A 
ATOM     14  C   UNL A   1      44.342  17.493  42.250  1.00  0.00    -0.037 A 
ATOM     15  C   UNL A   1      46.058  16.603  40.260  1.00  0.00    -0.047 A 
ATOM     16  H   UNL A   1      47.564  16.746  41.740  1.00  0.00     0.065 H 
ATOM     17  C   UNL A   1      43.873  17.338  40.943  1.00  0.00    -0.047 A 
ATOM     18  H   UNL A   1      43.694  17.797  42.994  1.00  0.00     0.065 H 
ATOM     19  H   UNL A   1      46.698  16.265  39.525  1.00  0.00     0.063 H 
ATOM     20  H   UNL A   1      42.908  17.619  40.708  1.00  0.00     0.063 H 
BRANCH  12  21
ATOM     21  N   UNL A   1      46.123  17.366  43.888  1.00  0.00    -0.242 N 
ATOM     22  C   UNL A   1      46.015  16.458  44.902  1.00  0.00     0.095 A 
ATOM     23  C   UNL A   1      46.447  17.077  45.995  1.00  0.00     0.121 A 
ATOM     24  O   UNL A   1      46.862  18.390  45.784  1.00  0.00    -0.415 OA
ATOM     25  H   UNL A   1      46.472  16.623  46.922  1.00  0.00     0.107 H 
ATOM     26  C   UNL A   1      46.664  18.538  44.411  1.00  0.00     0.424 A 
ATOM     27  O   UNL A   1      46.913  19.580  43.818  1.00  0.00    -0.223 OA
BRANCH  22  28
ATOM     28  C   UNL A   1      45.692  15.041  44.750  1.00  0.00     0.002 A 
ATOM     29  C   UNL A   1      45.132  12.307  44.492  1.00  0.00     0.082 A 
ATOM     30  C   UNL A   1      46.457  12.731  44.585  1.00  0.00    -0.041 A 
ATOM     31  C   UNL A   1      44.084  13.232  44.532  1.00  0.00    -0.041 A 
ATOM     32  C   UNL A   1      46.731  14.094  44.713  1.00  0.00    -0.051 A 
ATOM     33  H   UNL A   1      47.227  12.045  44.562  1.00  0.00     0.064 H 
ATOM     34  C   UNL A   1      44.366  14.597  44.669  1.00  0.00    -0.051 A 
ATOM     35  H   UNL A   1      43.106  12.910  44.463  1.00  0.00     0.064 H 
ATOM     36  H   UNL A   1      47.711  14.411  44.782  1.00  0.00     0.063 H 
ATOM     37  H   UNL A   1      43.593  15.279  44.709  1.00  0.00     0.063 H 
BRANCH  29  38
ATOM     38  S   UNL A   1      44.779  10.581  44.331  1.00  0.00     0.238 S 
ATOM     39  O   UNL A   1      45.991   9.889  43.929  1.00  0.00    -0.207 OA
ATOM     40  O   UNL A   1      43.532  10.434  43.640  1.00  0.00    -0.207 OA
BRANCH  38  41
ATOM     41  N   UNL A   1      44.513  10.098  45.919  1.00  0.00    -0.225 NA
ATOM     42  H   UNL A   1      44.698   9.099  46.005  1.00  0.00     0.137 HD
ATOM     43  H   UNL A   1      43.544  10.288  46.175  1.00  0.00     0.137 HD
ENDBRANCH  38  41
ENDBRANCH  29  38
ENDBRANCH  22  28
ENDBRANCH  12  21
ENDBRANCH   8  11
ENDBRANCH   4   7
ENDBRANCH   1   4
BRANCH   1  44
ATOM     44  C   UNL A   1      45.658  20.243  35.483  1.00  0.00    -0.052 C 
ATOM     45  H   UNL A   1      44.874  20.845  35.895  1.00  0.00     0.027 H 
ATOM     46  H   UNL A   1      45.755  20.326  34.422  1.00  0.00     0.027 H 
BRANCH  44  47
ATOM     47  C   UNL A   1      46.991  20.739  36.068  1.00  0.00    -0.052 C 
ATOM     48  H   UNL A   1      47.650  20.944  35.250  1.00  0.00     0.027 H 
ATOM     49  H   UNL A   1      47.325  19.957  36.718  1.00  0.00     0.027 H 
BRANCH  47  50
ATOM     50  C   UNL A   1      46.923  21.998  36.943  1.00  0.00    -0.036 C 
ATOM     51  H   UNL A   1      47.605  22.721  36.546  1.00  0.00     0.028 H 
ATOM     52  H   UNL A   1      47.175  21.697  37.938  1.00  0.00     0.028 H 
BRANCH  50  53
ATOM     53  C   UNL A   1      45.541  22.632  37.011  1.00  0.00     0.018 C 
ATOM     54  H   UNL A   1      44.956  22.107  37.738  1.00  0.00     0.049 H 
ATOM     55  H   UNL A   1      45.100  22.567  36.038  1.00  0.00     0.049 H 
BRANCH  53  56
ATOM     56  N   UNL A   1      45.601  24.044  37.385  1.00  0.00    -0.352 N 
ATOM     57  C   UNL A   1      45.881  25.138  36.597  1.00  0.00     0.251 C 
ATOM     58  H   UNL A   1      45.417  24.239  38.332  1.00  0.00     0.163 HD
ATOM     59  O   UNL A   1      46.236  26.199  37.096  1.00  0.00    -0.269 OA
BRANCH  57  60
ATOM     60  C   UNL A   1      45.769  25.011  35.134  1.00  0.00     0.039 A 
ATOM     61  C   UNL A   1      44.558  25.264  34.489  1.00  0.00    -0.049 A 
ATOM     62  C   UNL A   1      46.903  24.673  34.403  1.00  0.00    -0.049 A 
ATOM     63  C   UNL A   1      44.523  25.265  33.096  1.00  0.00    -0.053 A 
ATOM     64  H   UNL A   1      43.701  25.447  35.035  1.00  0.00     0.063 H 
ATOM     65  C   UNL A   1      46.902  24.820  33.035  1.00  0.00    -0.053 A 
ATOM     66  H   UNL A   1      47.743  24.313  34.884  1.00  0.00     0.063 H 
ATOM     67  C   UNL A   1      45.707  25.073  32.364  1.00  0.00    -0.014 A 
ATOM     68  H   UNL A   1      43.628  25.407  32.603  1.00  0.00     0.063 H 
ATOM     69  H   UNL A   1      47.784  24.742  32.505  1.00  0.00     0.063 H 
BRANCH  67  70
ATOM     70  C   UNL A   1      45.696  25.215  30.905  1.00  0.00     0.031 A 
ATOM     71  C   UNL A   1      46.808  26.016  30.313  1.00  0.00     0.074 A 
ATOM     72  C   UNL A   1      44.853  24.551  30.085  1.00  0.00     0.049 A 
ATOM     73  N   UNL A   1      46.718  27.116  29.638  1.00  0.00    -0.248 NA
ATOM     74  C   UNL A   1      48.191  25.579  30.556  1.00  0.00    -0.034 C 
ATOM     75  C   UNL A   1      43.880  23.503  30.411  1.00  0.00    -0.036 A 
ATOM     76  N   UNL A   1      44.767  24.627  28.726  1.00  0.00    -0.354 N 
ATOM     77  C   UNL A   1      48.013  27.445  29.243  1.00  0.00     0.074 A 
ATOM     78  C   UNL A   1      48.888  26.526  29.925  1.00  0.00    -0.034 C 
ATOM     79  H   UNL A   1      48.532  24.755  31.076  1.00  0.00     0.065 H 
ATOM     80  C   UNL A   1      43.477  22.888  29.279  1.00  0.00    -0.036 A 
ATOM     81  H   UNL A   1      43.551  23.271  31.363  1.00  0.00     0.065 H 
ATOM     82  C   UNL A   1      44.010  23.621  28.147  1.00  0.00     0.049 A 
ATOM     83  H   UNL A   1      45.205  25.335  28.201  1.00  0.00     0.167 HD
ATOM     84  C   UNL A   1      48.248  28.342  28.243  1.00  0.00     0.037 A 
ATOM     85  H   UNL A   1      49.919  26.592  29.926  1.00  0.00     0.065 H 
ATOM     86  H   UNL A   1      42.891  22.040  29.228  1.00  0.00     0.065 H 
ATOM     87  C   UNL A   1      43.828  23.393  26.827  1.00  0.00     0.037 A 
ATOM     88  C   UNL A   1      47.088  29.152  27.982  1.00  0.00     0.049 A 
ATOM     89  C   UNL A   1      44.117  24.657  26.113  1.00  0.00     0.074 A 
ATOM     90  C   UNL A   1      46.340  30.051  28.719  1.00  0.00    -0.036 A 
ATOM     91  N   UNL A   1      46.318  28.851  26.887  1.00  0.00    -0.354 N 
ATOM     92  N   UNL A   1      43.378  25.728  26.198  1.00  0.00    -0.248 NA
ATOM     93  C   UNL A   1      45.465  24.866  25.608  1.00  0.00    -0.034 C 
ATOM     94  C   UNL A   1      44.993  29.848  28.295  1.00  0.00    -0.036 A 
ATOM     95  H   UNL A   1      46.682  30.723  29.424  1.00  0.00     0.065 H 
ATOM     96  C   UNL A   1      45.010  28.874  27.295  1.00  0.00     0.049 A 
ATOM     97  H   UNL A   1      46.644  28.655  25.978  1.00  0.00     0.167 HD
ATOM     98  C   UNL A   1      44.281  26.778  26.176  1.00  0.00     0.074 A 
ATOM     99  C   UNL A   1      45.528  26.196  25.691  1.00  0.00    -0.034 C 
ATOM    100  H   UNL A   1      46.167  24.184  25.281  1.00  0.00     0.065 H 
ATOM    101  H   UNL A   1      44.159  30.332  28.660  1.00  0.00     0.065 H 
ATOM    102  C   UNL A   1      44.006  27.953  26.816  1.00  0.00     0.037 A 
ATOM    103  H   UNL A   1      46.362  26.750  25.440  1.00  0.00     0.065 H 
BRANCH  84 104
ATOM    104  C   UNL A   1      49.403  28.275  27.270  1.00  0.00     0.064 A 
ATOM    105  C   UNL A   1      50.221  29.411  27.088  1.00  0.00     0.173 A 
ATOM    106  C   UNL A   1      49.543  27.265  26.296  1.00  0.00     0.173 A 
ATOM    107  F   UNL A   1      50.164  30.441  27.947  1.00  0.00    -0.203 F 
ATOM    108  C   UNL A   1      51.043  29.559  25.968  1.00  0.00     0.198 A 
ATOM    109  C   UNL A   1      50.405  27.394  25.207  1.00  0.00     0.198 A 
ATOM    110  F   UNL A   1      48.776  26.168  26.295  1.00  0.00    -0.203 F 
ATOM    111  F   UNL A   1      51.698  30.711  25.770  1.00  0.00    -0.200 F 
ATOM    112  C   UNL A   1      51.127  28.554  25.023  1.00  0.00     0.200 A 
ATOM    113  F   UNL A   1      50.461  26.415  24.293  1.00  0.00    -0.200 F 
ATOM    114  F   UNL A   1      51.860  28.721  23.914  1.00  0.00    -0.200 F 
ENDBRANCH  84 104
BRANCH  87 115
ATOM    115  C   UNL A   1      43.659  22.098  26.136  1.00  0.00     0.064 A 
ATOM    116  C   UNL A   1      44.769  21.351  25.715  1.00  0.00     0.173 A 
ATOM    117  C   UNL A   1      42.415  21.439  26.130  1.00  0.00     0.173 A 
ATOM    118  F   UNL A   1      45.994  21.896  25.729  1.00  0.00    -0.203 F 
ATOM    119  C   UNL A   1      44.646  20.009  25.343  1.00  0.00     0.198 A 
ATOM    120  C   UNL A   1      42.292  20.102  25.752  1.00  0.00     0.198 A 
ATOM    121  F   UNL A   1      41.311  22.051  26.586  1.00  0.00    -0.203 F 
ATOM    122  F   UNL A   1      45.738  19.306  25.012  1.00  0.00    -0.200 F 
ATOM    123  C   UNL A   1      43.411  19.383  25.374  1.00  0.00     0.200 A 
ATOM    124  F   UNL A   1      41.097  19.499  25.822  1.00  0.00    -0.200 F 
ATOM    125  F   UNL A   1      43.304  18.079  25.084  1.00  0.00    -0.200 F 
ENDBRANCH  87 115
BRANCH 102 126
ATOM    126  C   UNL A   1      42.595  28.185  27.276  1.00  0.00     0.064 A 
ATOM    127  C   UNL A   1      41.574  28.699  26.457  1.00  0.00     0.173 A 
ATOM    128  C   UNL A   1      42.233  27.749  28.557  1.00  0.00     0.173 A 
ATOM    129  F   UNL A   1      41.814  29.043  25.187  1.00  0.00    -0.203 F 
ATOM    130  C   UNL A   1      40.265  28.816  26.921  1.00  0.00     0.198 A 
ATOM    131  C   UNL A   1      40.917  27.830  29.004  1.00  0.00     0.198 A 
ATOM    132  F   UNL A   1      43.153  27.196  29.363  1.00  0.00    -0.203 F 
ATOM    133  F   UNL A   1      39.312  29.327  26.126  1.00  0.00    -0.200 F 
ATOM    134  C   UNL A   1      39.936  28.376  28.192  1.00  0.00     0.200 A 
ATOM    135  F   UNL A   1      40.595  27.358  30.217  1.00  0.00    -0.200 F 
ATOM    136  F   UNL A   1      38.670  28.452  28.625  1.00  0.00    -0.200 F 
ENDBRANCH 102 126
ENDBRANCH  67  70
ENDBRANCH  57  60
ENDBRANCH  53  56
ENDBRANCH  50  53
ENDBRANCH  47  50
ENDBRANCH  44  47
ENDBRANCH   1  44
TORSDOF 17
ENDMDL
MODEL 6
REMARK VINA RESULT:     -12.1      5.083      9.595
REMARK SMILES NS(=O)(=O)c1ccc(-c2coc(=O)n2-c2ccc(C(=O)NCCCCCCNC(=O)c3ccc(-c4c5nc(c(-c6c(F)c(F)c(F)c(F)c6F)c6ccc([nH]6)c(-c6c(F)c(F)c(F)c(F)c6F)c6nc(c(-c7c(F)c(F)c(F)c(F)c7F)c7ccc4[nH]7)C=C6)C=C5)cc3)cc2)cc1
REMARK SMILES IDX 23 1 22 4 21 7 19 8 20 9 18 11 15 12 16 13 95 14 17 15 94 17
REMARK SMILES IDX 14 21 9 22 10 23 11 24 12 26 13 27 8 28 5 29 6 30 97 31 7 32
REMARK SMILES IDX 96 34 2 38 3 39 4 40 1 41 24 44 25 47 26 50 27 53 28 56
REMARK SMILES IDX 29 57 30 59 31 60 32 61 93 62 33 63 92 65 34 67 35 70 36 71
REMARK SMILES IDX 86 72 37 73 91 74 85 75 87 76 38 77 90 78 84 80 83 82 39 84
REMARK SMILES IDX 71 87 51 88 70 89 52 90 55 91 69 92 88 93 53 94 54 96 68 98
REMARK SMILES IDX 89 99 56 102 40 104 41 105 49 106 42 107 43 108 47 109
REMARK SMILES IDX 50 110 44 111 45 112 48 113 46 114 72 115 73 116 81 117
REMARK SMILES IDX 74 118 75 119 79 120 82 121 76 122 77 123 80 124 78 125
REMARK SMILES IDX 57 126 58 127 66 128 59 129 60 130 64 131 67 132 61 133
REMARK SMILES IDX 62 134 65 135 63 136
REMARK H PARENT 23 2 23 3 22 5 22 6 21 10 16 16 95 18 17 19 94 20 10 25 6 33
REMARK H PARENT 97 35 7 36 96 37 1 42 1 43 24 45 24 46 25 48 25 49 26 51 26 52
REMARK H PARENT 27 54 27 55 28 58 32 64 93 66 33 68 92 69 91 79 85 81 87 83
REMARK H PARENT 90 85 84 86 52 95 55 97 88 100 53 101 89 103
REMARK Flexibility Score: inf
ROOT
ATOM      1  C   UNL A   1      37.103  31.374  33.437  1.00  0.00    -0.036 C 
ATOM      2  H   UNL A   1      36.522  30.617  33.921  1.00  0.00     0.028 H 
ATOM      3  H   UNL A   1      36.962  31.377  32.376  1.00  0.00     0.028 H 
ENDROOT
BRANCH   1   4
ATOM      4  C   UNL A   1      38.585  31.088  33.694  1.00  0.00     0.018 C 
ATOM      5  H   UNL A   1      38.871  31.520  34.631  1.00  0.00     0.049 H 
ATOM      6  H   UNL A   1      38.737  30.031  33.716  1.00  0.00     0.049 H 
BRANCH   4   7
ATOM      7  N   UNL A   1      39.398  31.661  32.637  1.00  0.00    -0.352 N 
ATOM      8  C   UNL A   1      40.227  32.751  32.571  1.00  0.00     0.251 C 
ATOM      9  O   UNL A   1      40.795  32.964  31.499  1.00  0.00    -0.269 OA
ATOM     10  H   UNL A   1      39.344  31.161  31.790  1.00  0.00     0.163 HD
BRANCH   8  11
ATOM     11  C   UNL A   1      40.522  33.640  33.732  1.00  0.00     0.039 A 
ATOM     12  C   UNL A   1      41.057  35.093  36.085  1.00  0.00     0.053 A 
ATOM     13  C   UNL A   1      41.754  33.914  35.826  1.00  0.00    -0.037 A 
ATOM     14  C   UNL A   1      40.160  35.584  35.131  1.00  0.00    -0.037 A 
ATOM     15  C   UNL A   1      41.461  33.177  34.672  1.00  0.00    -0.047 A 
ATOM     16  H   UNL A   1      42.483  33.587  36.480  1.00  0.00     0.065 H 
ATOM     17  C   UNL A   1      39.945  34.892  33.937  1.00  0.00    -0.047 A 
ATOM     18  H   UNL A   1      39.653  36.465  35.311  1.00  0.00     0.065 H 
ATOM     19  H   UNL A   1      41.941  32.278  34.509  1.00  0.00     0.063 H 
ATOM     20  H   UNL A   1      39.355  35.311  33.201  1.00  0.00     0.063 H 
BRANCH  12  21
ATOM     21  N   UNL A   1      41.229  35.787  37.296  1.00  0.00    -0.242 N 
ATOM     22  C   UNL A   1      40.505  35.666  38.448  1.00  0.00     0.095 A 
ATOM     23  C   UNL A   1      40.950  36.617  39.261  1.00  0.00     0.121 A 
ATOM     24  O   UNL A   1      41.968  37.402  38.723  1.00  0.00    -0.415 OA
ATOM     25  H   UNL A   1      40.572  36.763  40.211  1.00  0.00     0.107 H 
ATOM     26  C   UNL A   1      42.143  36.824  37.465  1.00  0.00     0.424 A 
ATOM     27  O   UNL A   1      42.967  37.237  36.660  1.00  0.00    -0.223 OA
BRANCH  22  28
ATOM     28  C   UNL A   1      39.589  34.574  38.771  1.00  0.00     0.002 A 
ATOM     29  C   UNL A   1      37.820  32.471  39.320  1.00  0.00     0.082 A 
ATOM     30  C   UNL A   1      37.644  33.233  38.166  1.00  0.00    -0.041 A 
ATOM     31  C   UNL A   1      38.874  32.742  40.199  1.00  0.00    -0.041 A 
ATOM     32  C   UNL A   1      38.527  34.280  37.897  1.00  0.00    -0.051 A 
ATOM     33  H   UNL A   1      36.869  33.025  37.518  1.00  0.00     0.064 H 
ATOM     34  C   UNL A   1      39.761  33.789  39.919  1.00  0.00    -0.051 A 
ATOM     35  H   UNL A   1      38.998  32.172  41.051  1.00  0.00     0.064 H 
ATOM     36  H   UNL A   1      38.398  34.847  37.044  1.00  0.00     0.063 H 
ATOM     37  H   UNL A   1      40.544  33.984  40.561  1.00  0.00     0.063 H 
BRANCH  29  38
ATOM     38  S   UNL A   1      36.705  31.142  39.666  1.00  0.00     0.238 S 
ATOM     39  O   UNL A   1      35.342  31.622  39.519  1.00  0.00    -0.207 OA
ATOM     40  O   UNL A   1      37.166  30.452  40.835  1.00  0.00    -0.207 OA
BRANCH  38  41
ATOM     41  N   UNL A   1      36.938  30.102  38.366  1.00  0.00    -0.225 NA
ATOM     42  H   UNL A   1      36.267  30.323  37.630  1.00  0.00     0.137 HD
ATOM     43  H   UNL A   1      36.802  29.138  38.672  1.00  0.00     0.137 HD
ENDBRANCH  38  41
ENDBRANCH  29  38
ENDBRANCH  22  28
ENDBRANCH  12  21
ENDBRANCH   8  11
ENDBRANCH   4   7
ENDBRANCH   1   4
BRANCH   1  44
ATOM     44  C   UNL A   1      36.644  32.744  33.956  1.00  0.00    -0.052 C 
ATOM     45  H   UNL A   1      37.460  33.428  33.840  1.00  0.00     0.027 H 
ATOM     46  H   UNL A   1      36.351  32.588  34.972  1.00  0.00     0.027 H 
BRANCH  44  47
ATOM     47  C   UNL A   1      35.418  33.347  33.251  1.00  0.00    -0.052 C 
ATOM     48  H   UNL A   1      35.698  34.308  32.874  1.00  0.00     0.027 H 
ATOM     49  H   UNL A   1      34.647  33.371  33.993  1.00  0.00     0.027 H 
BRANCH  47  50
ATOM     50  C   UNL A   1      34.838  32.536  32.085  1.00  0.00    -0.036 C 
ATOM     51  H   UNL A   1      33.771  32.589  32.136  1.00  0.00     0.028 H 
ATOM     52  H   UNL A   1      35.206  31.537  32.189  1.00  0.00     0.028 H 
BRANCH  50  53
ATOM     53  C   UNL A   1      35.275  33.025  30.711  1.00  0.00     0.018 C 
ATOM     54  H   UNL A   1      36.297  32.749  30.556  1.00  0.00     0.049 H 
ATOM     55  H   UNL A   1      35.150  34.087  30.685  1.00  0.00     0.049 H 
BRANCH  53  56
ATOM     56  N   UNL A   1      34.465  32.450  29.639  1.00  0.00    -0.352 N 
ATOM     57  C   UNL A   1      34.871  31.723  28.541  1.00  0.00     0.251 C 
ATOM     58  H   UNL A   1      33.496  32.605  29.710  1.00  0.00     0.163 HD
ATOM     59  O   UNL A   1      34.146  31.606  27.561  1.00  0.00    -0.269 OA
BRANCH  57  60
ATOM     60  C   UNL A   1      36.206  31.100  28.552  1.00  0.00     0.039 A 
ATOM     61  C   UNL A   1      37.304  31.781  29.079  1.00  0.00    -0.049 A 
ATOM     62  C   UNL A   1      36.343  29.805  28.065  1.00  0.00    -0.049 A 
ATOM     63  C   UNL A   1      38.520  31.111  29.195  1.00  0.00    -0.053 A 
ATOM     64  H   UNL A   1      37.217  32.765  29.377  1.00  0.00     0.063 H 
ATOM     65  C   UNL A   1      37.499  29.100  28.316  1.00  0.00    -0.053 A 
ATOM     66  H   UNL A   1      35.582  29.373  27.517  1.00  0.00     0.063 H 
ATOM     67  C   UNL A   1      38.611  29.754  28.842  1.00  0.00    -0.014 A 
ATOM     68  H   UNL A   1      39.353  31.611  29.542  1.00  0.00     0.063 H 
ATOM     69  H   UNL A   1      37.542  28.089  28.115  1.00  0.00     0.063 H 
BRANCH  67  70
ATOM     70  C   UNL A   1      39.849  29.013  29.096  1.00  0.00     0.031 A 
ATOM     71  C   UNL A   1      40.188  28.771  30.530  1.00  0.00     0.074 A 
ATOM     72  C   UNL A   1      40.592  28.423  28.135  1.00  0.00     0.049 A 
ATOM     73  N   UNL A   1      41.226  29.189  31.180  1.00  0.00    -0.248 NA
ATOM     74  C   UNL A   1      39.227  28.029  31.360  1.00  0.00    -0.034 C 
ATOM     75  C   UNL A   1      40.307  28.282  26.703  1.00  0.00    -0.036 A 
ATOM     76  N   UNL A   1      41.755  27.726  28.279  1.00  0.00    -0.354 N 
ATOM     77  C   UNL A   1      41.133  28.653  32.463  1.00  0.00     0.074 A 
ATOM     78  C   UNL A   1      39.833  28.039  32.549  1.00  0.00    -0.034 C 
ATOM     79  H   UNL A   1      38.323  27.610  31.092  1.00  0.00     0.065 H 
ATOM     80  C   UNL A   1      41.136  27.362  26.164  1.00  0.00    -0.036 A 
ATOM     81  H   UNL A   1      39.583  28.806  26.186  1.00  0.00     0.065 H 
ATOM     82  C   UNL A   1      42.126  27.000  27.158  1.00  0.00     0.049 A 
ATOM     83  H   UNL A   1      42.286  27.737  29.107  1.00  0.00     0.167 HD
ATOM     84  C   UNL A   1      42.211  28.606  33.296  1.00  0.00     0.037 A 
ATOM     85  H   UNL A   1      39.423  27.657  33.417  1.00  0.00     0.065 H 
ATOM     86  H   UNL A   1      41.073  26.982  25.206  1.00  0.00     0.065 H 
ATOM     87  C   UNL A   1      43.172  26.151  27.044  1.00  0.00     0.037 A 
ATOM     88  C   UNL A   1      43.248  29.506  32.864  1.00  0.00     0.049 A 
ATOM     89  C   UNL A   1      44.149  26.506  28.099  1.00  0.00     0.074 A 
ATOM     90  C   UNL A   1      43.342  30.873  32.692  1.00  0.00    -0.036 A 
ATOM     91  N   UNL A   1      44.331  28.981  32.206  1.00  0.00    -0.354 N 
ATOM     92  N   UNL A   1      44.836  27.613  28.114  1.00  0.00    -0.248 NA
ATOM     93  C   UNL A   1      44.072  25.800  29.368  1.00  0.00    -0.034 C 
ATOM     94  C   UNL A   1      44.170  31.045  31.542  1.00  0.00    -0.036 A 
ATOM     95  H   UNL A   1      42.908  31.610  33.269  1.00  0.00     0.065 H 
ATOM     96  C   UNL A   1      44.565  29.777  31.116  1.00  0.00     0.049 A 
ATOM     97  H   UNL A   1      44.845  28.182  32.469  1.00  0.00     0.167 HD
ATOM     98  C   UNL A   1      44.907  27.962  29.453  1.00  0.00     0.074 A 
ATOM     99  C   UNL A   1      44.529  26.754  30.180  1.00  0.00    -0.034 C 
ATOM    100  H   UNL A   1      43.756  24.839  29.578  1.00  0.00     0.065 H 
ATOM    101  H   UNL A   1      44.428  31.943  31.106  1.00  0.00     0.065 H 
ATOM    102  C   UNL A   1      44.994  29.270  29.833  1.00  0.00     0.037 A 
ATOM    103  H   UNL A   1      44.608  26.651  31.204  1.00  0.00     0.065 H 
BRANCH  84 104
ATOM    104  C   UNL A   1      42.479  27.516  34.308  1.00  0.00     0.064 A 
ATOM    105  C   UNL A   1      43.029  26.290  33.875  1.00  0.00     0.173 A 
ATOM    106  C   UNL A   1      41.933  27.509  35.608  1.00  0.00     0.173 A 
ATOM    107  F   UNL A   1      43.565  26.174  32.650  1.00  0.00    -0.203 F 
ATOM    108  C   UNL A   1      42.953  25.129  34.650  1.00  0.00     0.198 A 
ATOM    109  C   UNL A   1      41.906  26.361  36.400  1.00  0.00     0.198 A 
ATOM    110  F   UNL A   1      41.307  28.575  36.121  1.00  0.00    -0.203 F 
ATOM    111  F   UNL A   1      43.368  23.961  34.143  1.00  0.00    -0.200 F 
ATOM    112  C   UNL A   1      42.383  25.164  35.908  1.00  0.00     0.200 A 
ATOM    113  F   UNL A   1      41.336  26.410  37.612  1.00  0.00    -0.200 F 
ATOM    114  F   UNL A   1      42.246  24.041  36.626  1.00  0.00    -0.200 F 
ENDBRANCH  84 104
BRANCH  87 115
ATOM    115  C   UNL A   1      43.264  24.913  26.243  1.00  0.00     0.064 A 
ATOM    116  C   UNL A   1      44.286  24.736  25.299  1.00  0.00     0.173 A 
ATOM    117  C   UNL A   1      42.520  23.770  26.592  1.00  0.00     0.173 A 
ATOM    118  F   UNL A   1      45.064  25.769  24.944  1.00  0.00    -0.203 F 
ATOM    119  C   UNL A   1      44.569  23.478  24.760  1.00  0.00     0.198 A 
ATOM    120  C   UNL A   1      42.800  22.517  26.049  1.00  0.00     0.198 A 
ATOM    121  F   UNL A   1      41.573  23.829  27.541  1.00  0.00    -0.203 F 
ATOM    122  F   UNL A   1      45.597  23.332  23.911  1.00  0.00    -0.200 F 
ATOM    123  C   UNL A   1      43.836  22.368  25.144  1.00  0.00     0.200 A 
ATOM    124  F   UNL A   1      42.106  21.445  26.457  1.00  0.00    -0.200 F 
ATOM    125  F   UNL A   1      44.152  21.151  24.680  1.00  0.00    -0.200 F 
ENDBRANCH  87 115
BRANCH 102 126
ATOM    126  C   UNL A   1      45.317  30.287  28.774  1.00  0.00     0.064 A 
ATOM    127  C   UNL A   1      44.356  30.894  27.946  1.00  0.00     0.173 A 
ATOM    128  C   UNL A   1      46.632  30.759  28.686  1.00  0.00     0.173 A 
ATOM    129  F   UNL A   1      43.061  30.574  28.041  1.00  0.00    -0.203 F 
ATOM    130  C   UNL A   1      44.711  31.890  27.038  1.00  0.00     0.198 A 
ATOM    131  C   UNL A   1      46.977  31.780  27.805  1.00  0.00     0.198 A 
ATOM    132  F   UNL A   1      47.582  30.258  29.492  1.00  0.00    -0.203 F 
ATOM    133  F   UNL A   1      43.778  32.441  26.245  1.00  0.00    -0.200 F 
ATOM    134  C   UNL A   1      46.020  32.337  26.972  1.00  0.00     0.200 A 
ATOM    135  F   UNL A   1      48.235  32.243  27.780  1.00  0.00    -0.200 F 
ATOM    136  F   UNL A   1      46.354  33.321  26.126  1.00  0.00    -0.200 F 
ENDBRANCH 102 126
ENDBRANCH  67  70
ENDBRANCH  57  60
ENDBRANCH  53  56
ENDBRANCH  50  53
ENDBRANCH  47  50
ENDBRANCH  44  47
ENDBRANCH   1  44
TORSDOF 17
ENDMDL
MODEL 7
REMARK VINA RESULT:     -12.0      5.177      9.420
REMARK SMILES NS(=O)(=O)c1ccc(-c2coc(=O)n2-c2ccc(C(=O)NCCCCCCNC(=O)c3ccc(-c4c5nc(c(-c6c(F)c(F)c(F)c(F)c6F)c6ccc([nH]6)c(-c6c(F)c(F)c(F)c(F)c6F)c6nc(c(-c7c(F)c(F)c(F)c(F)c7F)c7ccc4[nH]7)C=C6)C=C5)cc3)cc2)cc1
REMARK SMILES IDX 23 1 22 4 21 7 19 8 20 9 18 11 15 12 16 13 95 14 17 15 94 17
REMARK SMILES IDX 14 21 9 22 10 23 11 24 12 26 13 27 8 28 5 29 6 30 97 31 7 32
REMARK SMILES IDX 96 34 2 38 3 39 4 40 1 41 24 44 25 47 26 50 27 53 28 56
REMARK SMILES IDX 29 57 30 59 31 60 32 61 93 62 33 63 92 65 34 67 35 70 36 71
REMARK SMILES IDX 86 72 37 73 91 74 85 75 87 76 38 77 90 78 84 80 83 82 39 84
REMARK SMILES IDX 71 87 51 88 70 89 52 90 55 91 69 92 88 93 53 94 54 96 68 98
REMARK SMILES IDX 89 99 56 102 40 104 41 105 49 106 42 107 43 108 47 109
REMARK SMILES IDX 50 110 44 111 45 112 48 113 46 114 72 115 73 116 81 117
REMARK SMILES IDX 74 118 75 119 79 120 82 121 76 122 77 123 80 124 78 125
REMARK SMILES IDX 57 126 58 127 66 128 59 129 60 130 64 131 67 132 61 133
REMARK SMILES IDX 62 134 65 135 63 136
REMARK H PARENT 23 2 23 3 22 5 22 6 21 10 16 16 95 18 17 19 94 20 10 25 6 33
REMARK H PARENT 97 35 7 36 96 37 1 42 1 43 24 45 24 46 25 48 25 49 26 51 26 52
REMARK H PARENT 27 54 27 55 28 58 32 64 93 66 33 68 92 69 91 79 85 81 87 83
REMARK H PARENT 90 85 84 86 52 95 55 97 88 100 53 101 89 103
REMARK Flexibility Score: inf
ROOT
ATOM      1  C   UNL A   1      37.844  31.239  33.348  1.00  0.00    -0.036 C 
ATOM      2  H   UNL A   1      36.840  30.894  33.478  1.00  0.00     0.028 H 
ATOM      3  H   UNL A   1      38.309  30.813  32.483  1.00  0.00     0.028 H 
ENDROOT
BRANCH   1   4
ATOM      4  C   UNL A   1      38.669  30.805  34.562  1.00  0.00     0.018 C 
ATOM      5  H   UNL A   1      38.907  29.765  34.474  1.00  0.00     0.049 H 
ATOM      6  H   UNL A   1      39.566  31.385  34.599  1.00  0.00     0.049 H 
BRANCH   4   7
ATOM      7  N   UNL A   1      37.918  31.022  35.785  1.00  0.00    -0.352 N 
ATOM      8  C   UNL A   1      38.054  31.895  36.833  1.00  0.00     0.251 C 
ATOM      9  O   UNL A   1      37.220  31.827  37.737  1.00  0.00    -0.269 OA
ATOM     10  H   UNL A   1      37.148  30.415  35.881  1.00  0.00     0.163 HD
BRANCH   8  11
ATOM     11  C   UNL A   1      39.106  32.951  36.901  1.00  0.00     0.039 A 
ATOM     12  C   UNL A   1      40.998  35.034  36.784  1.00  0.00     0.053 A 
ATOM     13  C   UNL A   1      39.651  35.308  36.552  1.00  0.00    -0.037 A 
ATOM     14  C   UNL A   1      41.381  33.742  37.155  1.00  0.00    -0.037 A 
ATOM     15  C   UNL A   1      38.719  34.264  36.577  1.00  0.00    -0.047 A 
ATOM     16  H   UNL A   1      39.343  36.275  36.364  1.00  0.00     0.065 H 
ATOM     17  C   UNL A   1      40.430  32.726  37.273  1.00  0.00    -0.047 A 
ATOM     18  H   UNL A   1      42.376  33.537  37.344  1.00  0.00     0.065 H 
ATOM     19  H   UNL A   1      37.731  34.461  36.353  1.00  0.00     0.063 H 
ATOM     20  H   UNL A   1      40.710  31.802  37.640  1.00  0.00     0.063 H 
BRANCH  12  21
ATOM     21  N   UNL A   1      41.978  36.032  36.635  1.00  0.00    -0.242 N 
ATOM     22  C   UNL A   1      42.762  36.289  35.546  1.00  0.00     0.095 A 
ATOM     23  C   UNL A   1      43.621  37.226  35.927  1.00  0.00     0.121 A 
ATOM     24  O   UNL A   1      43.465  37.646  37.247  1.00  0.00    -0.415 OA
ATOM     25  H   UNL A   1      44.344  37.612  35.299  1.00  0.00     0.107 H 
ATOM     26  C   UNL A   1      42.381  36.874  37.668  1.00  0.00     0.424 A 
ATOM     27  O   UNL A   1      41.923  36.946  38.800  1.00  0.00    -0.223 OA
BRANCH  22  28
ATOM     28  C   UNL A   1      42.541  35.778  34.195  1.00  0.00     0.002 A 
ATOM     29  C   UNL A   1      42.188  34.798  31.593  1.00  0.00     0.082 A 
ATOM     30  C   UNL A   1      43.303  35.582  31.886  1.00  0.00    -0.041 A 
ATOM     31  C   UNL A   1      41.252  34.491  32.586  1.00  0.00    -0.041 A 
ATOM     32  C   UNL A   1      43.474  36.069  33.184  1.00  0.00    -0.051 A 
ATOM     33  H   UNL A   1      43.994  35.801  31.152  1.00  0.00     0.064 H 
ATOM     34  C   UNL A   1      41.434  34.976  33.887  1.00  0.00    -0.051 A 
ATOM     35  H   UNL A   1      40.430  33.909  32.360  1.00  0.00     0.064 H 
ATOM     36  H   UNL A   1      44.298  36.651  33.404  1.00  0.00     0.063 H 
ATOM     37  H   UNL A   1      40.750  34.742  34.622  1.00  0.00     0.063 H 
BRANCH  29  38
ATOM     38  S   UNL A   1      41.967  34.178  29.951  1.00  0.00     0.238 S 
ATOM     39  O   UNL A   1      43.247  34.198  29.265  1.00  0.00    -0.207 OA
ATOM     40  O   UNL A   1      40.778  34.761  29.400  1.00  0.00    -0.207 OA
BRANCH  38  41
ATOM     41  N   UNL A   1      41.637  32.549  30.201  1.00  0.00    -0.225 NA
ATOM     42  H   UNL A   1      42.136  31.991  29.508  1.00  0.00     0.137 HD
ATOM     43  H   UNL A   1      40.634  32.387  30.110  1.00  0.00     0.137 HD
ENDBRANCH  38  41
ENDBRANCH  29  38
ENDBRANCH  22  28
ENDBRANCH  12  21
ENDBRANCH   8  11
ENDBRANCH   4   7
ENDBRANCH   1   4
BRANCH   1  44
ATOM     44  C   UNL A   1      37.812  32.759  33.139  1.00  0.00    -0.052 C 
ATOM     45  H   UNL A   1      38.139  32.960  32.139  1.00  0.00     0.027 H 
ATOM     46  H   UNL A   1      38.449  33.171  33.894  1.00  0.00     0.027 H 
BRANCH  44  47
ATOM     47  C   UNL A   1      36.443  33.430  33.333  1.00  0.00    -0.052 C 
ATOM     48  H   UNL A   1      36.613  34.414  33.717  1.00  0.00     0.027 H 
ATOM     49  H   UNL A   1      35.901  32.786  33.994  1.00  0.00     0.027 H 
BRANCH  47  50
ATOM     50  C   UNL A   1      35.566  33.559  32.080  1.00  0.00    -0.036 C 
ATOM     51  H   UNL A   1      36.168  33.953  31.287  1.00  0.00     0.028 H 
ATOM     52  H   UNL A   1      34.751  34.203  32.337  1.00  0.00     0.028 H 
BRANCH  50  53
ATOM     53  C   UNL A   1      34.958  32.246  31.610  1.00  0.00     0.018 C 
ATOM     54  H   UNL A   1      34.192  31.955  32.299  1.00  0.00     0.049 H 
ATOM     55  H   UNL A   1      35.740  31.516  31.568  1.00  0.00     0.049 H 
BRANCH  53  56
ATOM     56  N   UNL A   1      34.373  32.356  30.275  1.00  0.00    -0.352 N 
ATOM     57  C   UNL A   1      34.979  32.196  29.048  1.00  0.00     0.251 C 
ATOM     58  H   UNL A   1      33.414  32.576  30.249  1.00  0.00     0.163 HD
ATOM     59  O   UNL A   1      34.470  32.651  28.031  1.00  0.00    -0.269 OA
BRANCH  57  60
ATOM     60  C   UNL A   1      36.267  31.485  28.975  1.00  0.00     0.039 A 
ATOM     61  C   UNL A   1      37.464  32.155  29.232  1.00  0.00    -0.049 A 
ATOM     62  C   UNL A   1      36.265  30.125  28.686  1.00  0.00    -0.049 A 
ATOM     63  C   UNL A   1      38.648  31.422  29.286  1.00  0.00    -0.053 A 
ATOM     64  H   UNL A   1      37.473  33.176  29.379  1.00  0.00     0.063 H 
ATOM     65  C   UNL A   1      37.406  29.383  28.886  1.00  0.00    -0.053 A 
ATOM     66  H   UNL A   1      35.410  29.673  28.323  1.00  0.00     0.063 H 
ATOM     67  C   UNL A   1      38.615  30.024  29.144  1.00  0.00    -0.014 A 
ATOM     68  H   UNL A   1      39.548  31.906  29.431  1.00  0.00     0.063 H 
ATOM     69  H   UNL A   1      37.368  28.352  28.844  1.00  0.00     0.063 H 
BRANCH  67  70
ATOM     70  C   UNL A   1      39.838  29.241  29.341  1.00  0.00     0.031 A 
ATOM     71  C   UNL A   1      40.227  28.974  30.758  1.00  0.00     0.074 A 
ATOM     72  C   UNL A   1      40.521  28.636  28.345  1.00  0.00     0.049 A 
ATOM     73  N   UNL A   1      41.304  29.351  31.367  1.00  0.00    -0.248 NA
ATOM     74  C   UNL A   1      39.276  28.256  31.620  1.00  0.00    -0.034 C 
ATOM     75  C   UNL A   1      40.173  28.517  26.925  1.00  0.00    -0.036 A 
ATOM     76  N   UNL A   1      41.665  27.899  28.436  1.00  0.00    -0.354 N 
ATOM     77  C   UNL A   1      41.246  28.806  32.649  1.00  0.00     0.074 A 
ATOM     78  C   UNL A   1      39.930  28.234  32.784  1.00  0.00    -0.034 C 
ATOM     79  H   UNL A   1      38.348  27.870  31.386  1.00  0.00     0.065 H 
ATOM     80  C   UNL A   1      40.948  27.576  26.345  1.00  0.00    -0.036 A 
ATOM     81  H   UNL A   1      39.447  29.070  26.442  1.00  0.00     0.065 H 
ATOM     82  C   UNL A   1      41.965  27.172  27.294  1.00  0.00     0.049 A 
ATOM     83  H   UNL A   1      42.230  27.885  29.241  1.00  0.00     0.167 HD
ATOM     84  C   UNL A   1      42.355  28.715  33.436  1.00  0.00     0.037 A 
ATOM     85  H   UNL A   1      39.544  27.858  33.665  1.00  0.00     0.065 H 
ATOM     86  H   UNL A   1      40.834  27.207  25.387  1.00  0.00     0.065 H 
ATOM     87  C   UNL A   1      42.977  26.290  27.131  1.00  0.00     0.037 A 
ATOM     88  C   UNL A   1      43.402  29.585  32.970  1.00  0.00     0.049 A 
ATOM     89  C   UNL A   1      44.007  26.602  28.147  1.00  0.00     0.074 A 
ATOM     90  C   UNL A   1      43.535  30.950  32.805  1.00  0.00    -0.036 A 
ATOM     91  N   UNL A   1      44.440  29.031  32.264  1.00  0.00    -0.354 N 
ATOM     92  N   UNL A   1      44.731  27.686  28.143  1.00  0.00    -0.248 NA
ATOM     93  C   UNL A   1      43.959  25.887  29.412  1.00  0.00    -0.034 C 
ATOM     94  C   UNL A   1      44.320  31.106  31.624  1.00  0.00    -0.036 A 
ATOM     95  H   UNL A   1      43.149  31.696  33.405  1.00  0.00     0.065 H 
ATOM     96  C   UNL A   1      44.655  29.829  31.171  1.00  0.00     0.049 A 
ATOM     97  H   UNL A   1      44.937  28.213  32.498  1.00  0.00     0.167 HD
ATOM     98  C   UNL A   1      44.868  28.020  29.481  1.00  0.00     0.074 A 
ATOM     99  C   UNL A   1      44.481  26.818  30.213  1.00  0.00    -0.034 C 
ATOM    100  H   UNL A   1      43.620  24.936  29.628  1.00  0.00     0.065 H 
ATOM    101  H   UNL A   1      44.591  31.999  31.184  1.00  0.00     0.065 H 
ATOM    102  C   UNL A   1      45.014  29.321  29.867  1.00  0.00     0.037 A 
ATOM    103  H   UNL A   1      44.598  26.702  31.232  1.00  0.00     0.065 H 
BRANCH  84 104
ATOM    104  C   UNL A   1      42.627  27.607  34.428  1.00  0.00     0.064 A 
ATOM    105  C   UNL A   1      43.180  26.391  33.971  1.00  0.00     0.173 A 
ATOM    106  C   UNL A   1      42.084  27.575  35.729  1.00  0.00     0.173 A 
ATOM    107  F   UNL A   1      43.715  26.300  32.744  1.00  0.00    -0.203 F 
ATOM    108  C   UNL A   1      43.108  25.216  34.725  1.00  0.00     0.198 A 
ATOM    109  C   UNL A   1      42.061  26.413  36.499  1.00  0.00     0.198 A 
ATOM    110  F   UNL A   1      41.455  28.629  36.262  1.00  0.00    -0.203 F 
ATOM    111  F   UNL A   1      43.526  24.059  34.195  1.00  0.00    -0.200 F 
ATOM    112  C   UNL A   1      42.540  25.226  35.984  1.00  0.00     0.200 A 
ATOM    113  F   UNL A   1      41.492  26.438  37.712  1.00  0.00    -0.200 F 
ATOM    114  F   UNL A   1      42.408  24.090  36.681  1.00  0.00    -0.200 F 
ENDBRANCH  84 104
BRANCH  87 115
ATOM    115  C   UNL A   1      42.995  25.058  26.317  1.00  0.00     0.064 A 
ATOM    116  C   UNL A   1      43.939  24.878  25.295  1.00  0.00     0.173 A 
ATOM    117  C   UNL A   1      42.269  23.918  26.714  1.00  0.00     0.173 A 
ATOM    118  F   UNL A   1      44.697  25.907  24.887  1.00  0.00    -0.203 F 
ATOM    119  C   UNL A   1      44.167  23.622  24.726  1.00  0.00     0.198 A 
ATOM    120  C   UNL A   1      42.494  22.667  26.142  1.00  0.00     0.198 A 
ATOM    121  F   UNL A   1      41.399  23.979  27.734  1.00  0.00    -0.203 F 
ATOM    122  F   UNL A   1      45.125  23.473  23.800  1.00  0.00    -0.200 F 
ATOM    123  C   UNL A   1      43.455  22.515  25.159  1.00  0.00     0.200 A 
ATOM    124  F   UNL A   1      41.824  21.598  26.596  1.00  0.00    -0.200 F 
ATOM    125  F   UNL A   1      43.724  21.299  24.664  1.00  0.00    -0.200 F 
ENDBRANCH  87 115
BRANCH 102 126
ATOM    126  C   UNL A   1      45.327  30.336  28.805  1.00  0.00     0.064 A 
ATOM    127  C   UNL A   1      44.360  30.941  27.984  1.00  0.00     0.173 A 
ATOM    128  C   UNL A   1      46.642  30.809  28.704  1.00  0.00     0.173 A 
ATOM    129  F   UNL A   1      43.065  30.620  28.090  1.00  0.00    -0.203 F 
ATOM    130  C   UNL A   1      44.705  31.936  27.071  1.00  0.00     0.198 A 
ATOM    131  C   UNL A   1      46.978  31.830  27.820  1.00  0.00     0.198 A 
ATOM    132  F   UNL A   1      47.598  30.310  29.503  1.00  0.00    -0.203 F 
ATOM    133  F   UNL A   1      43.765  32.485  26.286  1.00  0.00    -0.200 F 
ATOM    134  C   UNL A   1      46.013  32.384  26.994  1.00  0.00     0.200 A 
ATOM    135  F   UNL A   1      48.235  32.294  27.784  1.00  0.00    -0.200 F 
ATOM    136  F   UNL A   1      46.340  33.368  26.143  1.00  0.00    -0.200 F 
ENDBRANCH 102 126
ENDBRANCH  67  70
ENDBRANCH  57  60
ENDBRANCH  53  56
ENDBRANCH  50  53
ENDBRANCH  47  50
ENDBRANCH  44  47
ENDBRANCH   1  44
TORSDOF 17
ENDMDL
MODEL 8
REMARK VINA RESULT:     -12.0      4.930     11.197
REMARK SMILES NS(=O)(=O)c1ccc(-c2coc(=O)n2-c2ccc(C(=O)NCCCCCCNC(=O)c3ccc(-c4c5nc(c(-c6c(F)c(F)c(F)c(F)c6F)c6ccc([nH]6)c(-c6c(F)c(F)c(F)c(F)c6F)c6nc(c(-c7c(F)c(F)c(F)c(F)c7F)c7ccc4[nH]7)C=C6)C=C5)cc3)cc2)cc1
REMARK SMILES IDX 23 1 22 4 21 7 19 8 20 9 18 11 15 12 16 13 95 14 17 15 94 17
REMARK SMILES IDX 14 21 9 22 10 23 11 24 12 26 13 27 8 28 5 29 6 30 97 31 7 32
REMARK SMILES IDX 96 34 2 38 3 39 4 40 1 41 24 44 25 47 26 50 27 53 28 56
REMARK SMILES IDX 29 57 30 59 31 60 32 61 93 62 33 63 92 65 34 67 35 70 36 71
REMARK SMILES IDX 86 72 37 73 91 74 85 75 87 76 38 77 90 78 84 80 83 82 39 84
REMARK SMILES IDX 71 87 51 88 70 89 52 90 55 91 69 92 88 93 53 94 54 96 68 98
REMARK SMILES IDX 89 99 56 102 40 104 41 105 49 106 42 107 43 108 47 109
REMARK SMILES IDX 50 110 44 111 45 112 48 113 46 114 72 115 73 116 81 117
REMARK SMILES IDX 74 118 75 119 79 120 82 121 76 122 77 123 80 124 78 125
REMARK SMILES IDX 57 126 58 127 66 128 59 129 60 130 64 131 67 132 61 133
REMARK SMILES IDX 62 134 65 135 63 136
REMARK H PARENT 23 2 23 3 22 5 22 6 21 10 16 16 95 18 17 19 94 20 10 25 6 33
REMARK H PARENT 97 35 7 36 96 37 1 42 1 43 24 45 24 46 25 48 25 49 26 51 26 52
REMARK H PARENT 27 54 27 55 28 58 32 64 93 66 33 68 92 69 91 79 85 81 87 83
REMARK H PARENT 90 85 84 86 52 95 55 97 88 100 53 101 89 103
REMARK Flexibility Score: inf
ROOT
ATOM      1  C   UNL A   1      40.341  28.375  26.864  1.00  0.00    -0.036 C 
ATOM      2  H   UNL A   1      41.319  28.806  26.913  1.00  0.00     0.028 H 
ATOM      3  H   UNL A   1      39.792  28.714  26.009  1.00  0.00     0.028 H 
ENDROOT
BRANCH   1   4
ATOM      4  C   UNL A   1      39.555  28.809  28.104  1.00  0.00     0.018 C 
ATOM      5  H   UNL A   1      39.318  27.945  28.691  1.00  0.00     0.049 H 
ATOM      6  H   UNL A   1      40.151  29.487  28.675  1.00  0.00     0.049 H 
BRANCH   4   7
ATOM      7  N   UNL A   1      38.325  29.473  27.715  1.00  0.00    -0.352 N 
ATOM      8  C   UNL A   1      37.407  30.231  28.395  1.00  0.00     0.251 C 
ATOM      9  O   UNL A   1      36.451  30.670  27.754  1.00  0.00    -0.269 OA
ATOM     10  H   UNL A   1      38.104  29.356  26.762  1.00  0.00     0.163 HD
BRANCH   8  11
ATOM     11  C   UNL A   1      37.540  30.600  29.834  1.00  0.00     0.039 A 
ATOM     12  C   UNL A   1      37.516  31.324  32.556  1.00  0.00     0.053 A 
ATOM     13  C   UNL A   1      36.661  30.322  32.098  1.00  0.00    -0.037 A 
ATOM     14  C   UNL A   1      38.435  31.898  31.673  1.00  0.00    -0.037 A 
ATOM     15  C   UNL A   1      36.652  29.990  30.739  1.00  0.00    -0.047 A 
ATOM     16  H   UNL A   1      36.040  29.828  32.758  1.00  0.00     0.065 H 
ATOM     17  C   UNL A   1      38.486  31.491  30.338  1.00  0.00    -0.047 A 
ATOM     18  H   UNL A   1      39.081  32.630  32.011  1.00  0.00     0.065 H 
ATOM     19  H   UNL A   1      35.982  29.285  30.394  1.00  0.00     0.063 H 
ATOM     20  H   UNL A   1      39.231  31.852  29.720  1.00  0.00     0.063 H 
BRANCH  12  21
ATOM     21  N   UNL A   1      37.457  31.776  33.886  1.00  0.00    -0.242 N 
ATOM     22  C   UNL A   1      36.842  32.895  34.371  1.00  0.00     0.095 A 
ATOM     23  C   UNL A   1      37.176  32.971  35.653  1.00  0.00     0.121 A 
ATOM     24  O   UNL A   1      38.002  31.938  36.093  1.00  0.00    -0.415 OA
ATOM     25  H   UNL A   1      36.852  33.730  36.273  1.00  0.00     0.107 H 
ATOM     26  C   UNL A   1      38.143  31.171  34.936  1.00  0.00     0.424 A 
ATOM     27  O   UNL A   1      38.815  30.148  34.903  1.00  0.00    -0.223 OA
BRANCH  22  28
ATOM     28  C   UNL A   1      35.855  33.704  33.658  1.00  0.00     0.002 A 
ATOM     29  C   UNL A   1      33.912  35.231  32.336  1.00  0.00     0.082 A 
ATOM     30  C   UNL A   1      33.535  34.065  32.998  1.00  0.00    -0.041 A 
ATOM     31  C   UNL A   1      35.247  35.648  32.332  1.00  0.00    -0.041 A 
ATOM     32  C   UNL A   1      34.506  33.306  33.655  1.00  0.00    -0.051 A 
ATOM     33  H   UNL A   1      32.548  33.764  33.004  1.00  0.00     0.064 H 
ATOM     34  C   UNL A   1      36.215  34.887  32.999  1.00  0.00    -0.051 A 
ATOM     35  H   UNL A   1      35.519  36.514  31.839  1.00  0.00     0.064 H 
ATOM     36  H   UNL A   1      34.230  32.441  34.145  1.00  0.00     0.063 H 
ATOM     37  H   UNL A   1      37.198  35.199  33.006  1.00  0.00     0.063 H 
BRANCH  29  38
ATOM     38  S   UNL A   1      32.686  36.196  31.504  1.00  0.00     0.238 S 
ATOM     39  O   UNL A   1      31.599  36.472  32.426  1.00  0.00    -0.207 OA
ATOM     40  O   UNL A   1      32.478  35.642  30.198  1.00  0.00    -0.207 OA
BRANCH  38  41
ATOM     41  N   UNL A   1      33.451  37.677  31.284  1.00  0.00    -0.225 NA
ATOM     42  H   UNL A   1      34.198  37.778  31.970  1.00  0.00     0.137 HD
ATOM     43  H   UNL A   1      32.774  38.431  31.405  1.00  0.00     0.137 HD
ENDBRANCH  38  41
ENDBRANCH  29  38
ENDBRANCH  22  28
ENDBRANCH  12  21
ENDBRANCH   8  11
ENDBRANCH   4   7
ENDBRANCH   1   4
BRANCH   1  44
ATOM     44  C   UNL A   1      40.486  26.853  26.731  1.00  0.00    -0.052 C 
ATOM     45  H   UNL A   1      41.457  26.650  26.329  1.00  0.00     0.027 H 
ATOM     46  H   UNL A   1      39.681  26.536  26.102  1.00  0.00     0.027 H 
BRANCH  44  47
ATOM     47  C   UNL A   1      40.339  26.054  28.036  1.00  0.00    -0.052 C 
ATOM     48  H   UNL A   1      39.915  26.706  28.772  1.00  0.00     0.027 H 
ATOM     49  H   UNL A   1      41.324  25.706  28.270  1.00  0.00     0.027 H 
BRANCH  47  50
ATOM     50  C   UNL A   1      39.466  24.794  27.967  1.00  0.00    -0.036 C 
ATOM     51  H   UNL A   1      38.478  25.051  28.287  1.00  0.00     0.028 H 
ATOM     52  H   UNL A   1      39.926  24.063  28.598  1.00  0.00     0.028 H 
BRANCH  50  53
ATOM     53  C   UNL A   1      39.374  24.179  26.578  1.00  0.00     0.018 C 
ATOM     54  H   UNL A   1      39.995  24.739  25.911  1.00  0.00     0.049 H 
ATOM     55  H   UNL A   1      38.348  24.209  26.271  1.00  0.00     0.049 H 
BRANCH  53  56
ATOM     56  N   UNL A   1      39.807  22.783  26.563  1.00  0.00    -0.352 N 
ATOM     57  C   UNL A   1      41.063  22.268  26.325  1.00  0.00     0.251 C 
ATOM     58  H   UNL A   1      39.104  22.119  26.748  1.00  0.00     0.163 HD
ATOM     59  O   UNL A   1      41.211  21.095  26.003  1.00  0.00    -0.269 OA
BRANCH  57  60
ATOM     60  C   UNL A   1      42.232  23.156  26.442  1.00  0.00     0.039 A 
ATOM     61  C   UNL A   1      42.597  23.993  25.388  1.00  0.00    -0.049 A 
ATOM     62  C   UNL A   1      42.941  23.173  27.639  1.00  0.00    -0.049 A 
ATOM     63  C   UNL A   1      43.624  24.914  25.583  1.00  0.00    -0.053 A 
ATOM     64  H   UNL A   1      42.115  23.932  24.477  1.00  0.00     0.063 H 
ATOM     65  C   UNL A   1      43.850  24.179  27.878  1.00  0.00    -0.053 A 
ATOM     66  H   UNL A   1      42.786  22.436  28.344  1.00  0.00     0.063 H 
ATOM     67  C   UNL A   1      44.233  25.030  26.845  1.00  0.00    -0.014 A 
ATOM     68  H   UNL A   1      43.937  25.511  24.802  1.00  0.00     0.063 H 
ATOM     69  H   UNL A   1      44.248  24.302  28.822  1.00  0.00     0.063 H 
BRANCH  67  70
ATOM     70  C   UNL A   1      45.213  26.092  27.089  1.00  0.00     0.031 A 
ATOM     71  C   UNL A   1      46.570  25.883  26.500  1.00  0.00     0.074 A 
ATOM     72  C   UNL A   1      44.919  27.279  27.662  1.00  0.00     0.049 A 
ATOM     73  N   UNL A   1      47.696  25.774  27.127  1.00  0.00    -0.248 NA
ATOM     74  C   UNL A   1      46.680  25.709  25.044  1.00  0.00    -0.034 C 
ATOM     75  C   UNL A   1      43.613  27.818  28.054  1.00  0.00    -0.036 A 
ATOM     76  N   UNL A   1      45.764  28.314  27.934  1.00  0.00    -0.354 N 
ATOM     77  C   UNL A   1      48.684  25.660  26.150  1.00  0.00     0.074 A 
ATOM     78  C   UNL A   1      47.993  25.517  24.894  1.00  0.00    -0.034 C 
ATOM     79  H   UNL A   1      45.939  25.732  24.327  1.00  0.00     0.065 H 
ATOM     80  C   UNL A   1      43.720  29.143  28.290  1.00  0.00    -0.036 A 
ATOM     81  H   UNL A   1      42.743  27.268  28.137  1.00  0.00     0.065 H 
ATOM     82  C   UNL A   1      45.124  29.500  28.257  1.00  0.00     0.049 A 
ATOM     83  H   UNL A   1      46.744  28.227  27.903  1.00  0.00     0.167 HD
ATOM     84  C   UNL A   1      50.000  25.869  26.439  1.00  0.00     0.037 A 
ATOM     85  H   UNL A   1      48.453  25.296  23.996  1.00  0.00     0.065 H 
ATOM     86  H   UNL A   1      42.935  29.790  28.464  1.00  0.00     0.065 H 
ATOM     87  C   UNL A   1      45.700  30.703  28.481  1.00  0.00     0.037 A 
ATOM     88  C   UNL A   1      50.244  25.796  27.855  1.00  0.00     0.049 A 
ATOM     89  C   UNL A   1      47.114  30.459  28.842  1.00  0.00     0.074 A 
ATOM     90  C   UNL A   1      50.108  24.815  28.819  1.00  0.00    -0.036 A 
ATOM     91  N   UNL A   1      50.395  26.969  28.549  1.00  0.00    -0.354 N 
ATOM     92  N   UNL A   1      47.496  29.886  29.949  1.00  0.00    -0.248 NA
ATOM     93  C   UNL A   1      48.108  30.494  27.781  1.00  0.00    -0.034 C 
ATOM     94  C   UNL A   1      49.685  25.507  29.993  1.00  0.00    -0.036 A 
ATOM     95  H   UNL A   1      50.276  23.802  28.712  1.00  0.00     0.065 H 
ATOM     96  C   UNL A   1      49.635  26.867  29.685  1.00  0.00     0.049 A 
ATOM     97  H   UNL A   1      50.947  27.741  28.282  1.00  0.00     0.167 HD
ATOM     98  C   UNL A   1      48.591  29.119  29.585  1.00  0.00     0.074 A 
ATOM     99  C   UNL A   1      48.992  29.626  28.277  1.00  0.00    -0.034 C 
ATOM    100  H   UNL A   1      48.124  31.033  26.900  1.00  0.00     0.065 H 
ATOM    101  H   UNL A   1      49.457  25.079  30.904  1.00  0.00     0.065 H 
ATOM    102  C   UNL A   1      48.893  27.967  30.253  1.00  0.00     0.037 A 
ATOM    103  H   UNL A   1      49.859  29.347  27.792  1.00  0.00     0.065 H 
BRANCH  84 104
ATOM    104  C   UNL A   1      51.011  26.468  25.489  1.00  0.00     0.064 A 
ATOM    105  C   UNL A   1      52.211  25.772  25.228  1.00  0.00     0.173 A 
ATOM    106  C   UNL A   1      50.992  27.817  25.080  1.00  0.00     0.173 A 
ATOM    107  F   UNL A   1      52.348  24.485  25.584  1.00  0.00    -0.203 F 
ATOM    108  C   UNL A   1      53.333  26.406  24.685  1.00  0.00     0.198 A 
ATOM    109  C   UNL A   1      52.096  28.433  24.491  1.00  0.00     0.198 A 
ATOM    110  F   UNL A   1      49.954  28.622  25.335  1.00  0.00    -0.203 F 
ATOM    111  F   UNL A   1      54.490  25.739  24.580  1.00  0.00    -0.200 F 
ATOM    112  C   UNL A   1      53.276  27.740  24.326  1.00  0.00     0.200 A 
ATOM    113  F   UNL A   1      52.029  29.731  24.163  1.00  0.00    -0.200 F 
ATOM    114  F   UNL A   1      54.368  28.369  23.870  1.00  0.00    -0.200 F 
ENDBRANCH  84 104
BRANCH  87 115
ATOM    115  C   UNL A   1      45.168  32.045  28.167  1.00  0.00     0.064 A 
ATOM    116  C   UNL A   1      45.060  32.490  26.841  1.00  0.00     0.173 A 
ATOM    117  C   UNL A   1      44.493  32.802  29.144  1.00  0.00     0.173 A 
ATOM    118  F   UNL A   1      45.642  31.801  25.849  1.00  0.00    -0.203 F 
ATOM    119  C   UNL A   1      44.292  33.609  26.508  1.00  0.00     0.198 A 
ATOM    120  C   UNL A   1      43.733  33.922  28.811  1.00  0.00     0.198 A 
ATOM    121  F   UNL A   1      44.479  32.411  30.428  1.00  0.00    -0.203 F 
ATOM    122  F   UNL A   1      44.155  33.966  25.223  1.00  0.00    -0.200 F 
ATOM    123  C   UNL A   1      43.619  34.317  27.491  1.00  0.00     0.200 A 
ATOM    124  F   UNL A   1      43.057  34.575  29.768  1.00  0.00    -0.200 F 
ATOM    125  F   UNL A   1      42.827  35.347  27.163  1.00  0.00    -0.200 F 
ENDBRANCH  87 115
BRANCH 102 126
ATOM    126  C   UNL A   1      48.203  27.717  31.564  1.00  0.00     0.064 A 
ATOM    127  C   UNL A   1      46.973  27.049  31.692  1.00  0.00     0.173 A 
ATOM    128  C   UNL A   1      48.879  28.051  32.745  1.00  0.00     0.173 A 
ATOM    129  F   UNL A   1      46.313  26.604  30.617  1.00  0.00    -0.203 F 
ATOM    130  C   UNL A   1      46.424  26.777  32.945  1.00  0.00     0.198 A 
ATOM    131  C   UNL A   1      48.348  27.745  33.995  1.00  0.00     0.198 A 
ATOM    132  F   UNL A   1      50.085  28.639  32.686  1.00  0.00    -0.203 F 
ATOM    133  F   UNL A   1      45.239  26.154  33.039  1.00  0.00    -0.200 F 
ATOM    134  C   UNL A   1      47.115  27.120  34.095  1.00  0.00     0.200 A 
ATOM    135  F   UNL A   1      49.043  28.034  35.104  1.00  0.00    -0.200 F 
ATOM    136  F   UNL A   1      46.606  26.824  35.300  1.00  0.00    -0.200 F 
ENDBRANCH 102 126
ENDBRANCH  67  70
ENDBRANCH  57  60
ENDBRANCH  53  56
ENDBRANCH  50  53
ENDBRANCH  47  50
ENDBRANCH  44  47
ENDBRANCH   1  44
TORSDOF 17
ENDMDL
MODEL 9
REMARK VINA RESULT:     -11.9      4.996      8.388
REMARK SMILES NS(=O)(=O)c1ccc(-c2coc(=O)n2-c2ccc(C(=O)NCCCCCCNC(=O)c3ccc(-c4c5nc(c(-c6c(F)c(F)c(F)c(F)c6F)c6ccc([nH]6)c(-c6c(F)c(F)c(F)c(F)c6F)c6nc(c(-c7c(F)c(F)c(F)c(F)c7F)c7ccc4[nH]7)C=C6)C=C5)cc3)cc2)cc1
REMARK SMILES IDX 23 1 22 4 21 7 19 8 20 9 18 11 15 12 16 13 95 14 17 15 94 17
REMARK SMILES IDX 14 21 9 22 10 23 11 24 12 26 13 27 8 28 5 29 6 30 97 31 7 32
REMARK SMILES IDX 96 34 2 38 3 39 4 40 1 41 24 44 25 47 26 50 27 53 28 56
REMARK SMILES IDX 29 57 30 59 31 60 32 61 93 62 33 63 92 65 34 67 35 70 36 71
REMARK SMILES IDX 86 72 37 73 91 74 85 75 87 76 38 77 90 78 84 80 83 82 39 84
REMARK SMILES IDX 71 87 51 88 70 89 52 90 55 91 69 92 88 93 53 94 54 96 68 98
REMARK SMILES IDX 89 99 56 102 40 104 41 105 49 106 42 107 43 108 47 109
REMARK SMILES IDX 50 110 44 111 45 112 48 113 46 114 72 115 73 116 81 117
REMARK SMILES IDX 74 118 75 119 79 120 82 121 76 122 77 123 80 124 78 125
REMARK SMILES IDX 57 126 58 127 66 128 59 129 60 130 64 131 67 132 61 133
REMARK SMILES IDX 62 134 65 135 63 136
REMARK H PARENT 23 2 23 3 22 5 22 6 21 10 16 16 95 18 17 19 94 20 10 25 6 33
REMARK H PARENT 97 35 7 36 96 37 1 42 1 43 24 45 24 46 25 48 25 49 26 51 26 52
REMARK H PARENT 27 54 27 55 28 58 32 64 93 66 33 68 92 69 91 79 85 81 87 83
REMARK H PARENT 90 85 84 86 52 95 55 97 88 100 53 101 89 103
REMARK Flexibility Score: inf
ROOT
ATOM      1  C   UNL A   1      38.600  28.121  29.741  1.00  0.00    -0.036 C 
ATOM      2  H   UNL A   1      38.671  28.637  30.675  1.00  0.00     0.028 H 
ATOM      3  H   UNL A   1      37.688  27.567  29.652  1.00  0.00     0.028 H 
ENDROOT
BRANCH   1   4
ATOM      4  C   UNL A   1      39.749  27.112  29.653  1.00  0.00     0.018 C 
ATOM      5  H   UNL A   1      40.590  27.576  29.180  1.00  0.00     0.049 H 
ATOM      6  H   UNL A   1      40.012  26.797  30.640  1.00  0.00     0.049 H 
BRANCH   4   7
ATOM      7  N   UNL A   1      39.344  25.953  28.879  1.00  0.00    -0.352 N 
ATOM      8  C   UNL A   1      39.935  25.244  27.866  1.00  0.00     0.251 C 
ATOM      9  O   UNL A   1      39.316  24.278  27.418  1.00  0.00    -0.269 OA
ATOM     10  H   UNL A   1      38.460  25.604  29.136  1.00  0.00     0.163 HD
BRANCH   8  11
ATOM     11  C   UNL A   1      41.297  25.537  27.333  1.00  0.00     0.039 A 
ATOM     12  C   UNL A   1      43.801  25.938  26.106  1.00  0.00     0.053 A 
ATOM     13  C   UNL A   1      42.631  26.158  25.381  1.00  0.00    -0.037 A 
ATOM     14  C   UNL A   1      43.715  25.602  27.461  1.00  0.00    -0.037 A 
ATOM     15  C   UNL A   1      41.389  25.924  25.984  1.00  0.00    -0.047 A 
ATOM     16  H   UNL A   1      42.680  26.492  24.406  1.00  0.00     0.065 H 
ATOM     17  C   UNL A   1      42.471  25.466  28.081  1.00  0.00    -0.047 A 
ATOM     18  H   UNL A   1      44.579  25.454  28.007  1.00  0.00     0.065 H 
ATOM     19  H   UNL A   1      40.527  26.037  25.428  1.00  0.00     0.063 H 
ATOM     20  H   UNL A   1      42.421  25.313  29.101  1.00  0.00     0.063 H 
BRANCH  12  21
ATOM     21  N   UNL A   1      45.063  26.033  25.494  1.00  0.00    -0.242 N 
ATOM     22  C   UNL A   1      45.910  25.020  25.146  1.00  0.00     0.095 A 
ATOM     23  C   UNL A   1      47.028  25.604  24.731  1.00  0.00     0.121 A 
ATOM     24  O   UNL A   1      46.996  26.996  24.767  1.00  0.00    -0.415 OA
ATOM     25  H   UNL A   1      47.851  25.071  24.408  1.00  0.00     0.107 H 
ATOM     26  C   UNL A   1      45.706  27.241  25.240  1.00  0.00     0.424 A 
ATOM     27  O   UNL A   1      45.275  28.373  25.419  1.00  0.00    -0.223 OA
BRANCH  22  28
ATOM     28  C   UNL A   1      45.558  23.604  25.058  1.00  0.00     0.002 A 
ATOM     29  C   UNL A   1      44.895  20.891  24.817  1.00  0.00     0.082 A 
ATOM     30  C   UNL A   1      44.706  21.743  23.731  1.00  0.00    -0.041 A 
ATOM     31  C   UNL A   1      45.419  21.377  26.020  1.00  0.00    -0.041 A 
ATOM     32  C   UNL A   1      45.037  23.094  23.855  1.00  0.00    -0.051 A 
ATOM     33  H   UNL A   1      44.326  21.380  22.843  1.00  0.00     0.064 H 
ATOM     34  C   UNL A   1      45.756  22.731  26.136  1.00  0.00    -0.051 A 
ATOM     35  H   UNL A   1      45.556  20.739  26.820  1.00  0.00     0.064 H 
ATOM     36  H   UNL A   1      44.896  23.728  23.052  1.00  0.00     0.063 H 
ATOM     37  H   UNL A   1      46.151  23.088  27.019  1.00  0.00     0.063 H 
BRANCH  29  38
ATOM     38  S   UNL A   1      44.479  19.179  24.665  1.00  0.00     0.238 S 
ATOM     39  O   UNL A   1      45.126  18.642  23.481  1.00  0.00    -0.207 OA
ATOM     40  O   UNL A   1      43.077  19.026  24.924  1.00  0.00    -0.207 OA
BRANCH  38  41
ATOM     41  N   UNL A   1      45.290  18.474  25.957  1.00  0.00    -0.225 NA
ATOM     42  H   UNL A   1      45.020  17.493  26.033  1.00  0.00     0.137 HD
ATOM     43  H   UNL A   1      45.047  18.962  26.819  1.00  0.00     0.137 HD
ENDBRANCH  38  41
ENDBRANCH  29  38
ENDBRANCH  22  28
ENDBRANCH  12  21
ENDBRANCH   8  11
ENDBRANCH   4   7
ENDBRANCH   1   4
BRANCH   1  44
ATOM     44  C   UNL A   1      38.608  29.159  28.610  1.00  0.00    -0.052 C 
ATOM     45  H   UNL A   1      38.108  28.729  27.767  1.00  0.00     0.027 H 
ATOM     46  H   UNL A   1      39.637  29.389  28.432  1.00  0.00     0.027 H 
BRANCH  44  47
ATOM     47  C   UNL A   1      37.927  30.499  28.932  1.00  0.00    -0.052 C 
ATOM     48  H   UNL A   1      38.690  31.247  28.990  1.00  0.00     0.027 H 
ATOM     49  H   UNL A   1      37.397  30.337  29.847  1.00  0.00     0.027 H 
BRANCH  47  50
ATOM     50  C   UNL A   1      36.871  30.982  27.928  1.00  0.00    -0.036 C 
ATOM     51  H   UNL A   1      37.016  30.457  27.007  1.00  0.00     0.028 H 
ATOM     52  H   UNL A   1      37.003  32.039  27.825  1.00  0.00     0.028 H 
BRANCH  50  53
ATOM     53  C   UNL A   1      35.436  30.760  28.383  1.00  0.00     0.018 C 
ATOM     54  H   UNL A   1      35.447  30.331  29.364  1.00  0.00     0.049 H 
ATOM     55  H   UNL A   1      34.964  30.107  27.679  1.00  0.00     0.049 H 
BRANCH  53  56
ATOM     56  N   UNL A   1      34.672  32.006  28.424  1.00  0.00    -0.352 N 
ATOM     57  C   UNL A   1      34.513  32.891  29.467  1.00  0.00     0.251 C 
ATOM     58  H   UNL A   1      34.206  32.244  27.590  1.00  0.00     0.163 HD
ATOM     59  O   UNL A   1      33.586  33.692  29.477  1.00  0.00    -0.269 OA
BRANCH  57  60
ATOM     60  C   UNL A   1      35.465  32.850  30.590  1.00  0.00     0.039 A 
ATOM     61  C   UNL A   1      35.354  31.873  31.580  1.00  0.00    -0.049 A 
ATOM     62  C   UNL A   1      36.502  33.777  30.622  1.00  0.00    -0.049 A 
ATOM     63  C   UNL A   1      36.350  31.782  32.551  1.00  0.00    -0.053 A 
ATOM     64  H   UNL A   1      34.548  31.229  31.594  1.00  0.00     0.063 H 
ATOM     65  C   UNL A   1      37.555  33.592  31.488  1.00  0.00    -0.053 A 
ATOM     66  H   UNL A   1      36.481  34.600  29.999  1.00  0.00     0.063 H 
ATOM     67  C   UNL A   1      37.473  32.624  32.487  1.00  0.00    -0.014 A 
ATOM     68  H   UNL A   1      36.262  31.095  33.316  1.00  0.00     0.063 H 
ATOM     69  H   UNL A   1      38.406  34.169  31.399  1.00  0.00     0.063 H 
BRANCH  67  70
ATOM     70  C   UNL A   1      38.584  32.434  33.423  1.00  0.00     0.031 A 
ATOM     71  C   UNL A   1      38.504  33.198  34.703  1.00  0.00     0.074 A 
ATOM     72  C   UNL A   1      39.562  31.517  33.263  1.00  0.00     0.049 A 
ATOM     73  N   UNL A   1      39.321  34.103  35.137  1.00  0.00    -0.248 NA
ATOM     74  C   UNL A   1      37.342  32.977  35.577  1.00  0.00    -0.034 C 
ATOM     75  C   UNL A   1      39.690  30.470  32.244  1.00  0.00    -0.036 A 
ATOM     76  N   UNL A   1      40.632  31.277  34.074  1.00  0.00    -0.354 N 
ATOM     77  C   UNL A   1      38.866  34.473  36.402  1.00  0.00     0.074 A 
ATOM     78  C   UNL A   1      37.589  33.829  36.575  1.00  0.00    -0.034 C 
ATOM     79  H   UNL A   1      36.546  32.332  35.453  1.00  0.00     0.065 H 
ATOM     80  C   UNL A   1      40.630  29.578  32.624  1.00  0.00    -0.036 A 
ATOM     81  H   UNL A   1      39.146  30.423  31.367  1.00  0.00     0.065 H 
ATOM     82  C   UNL A   1      41.297  30.092  33.803  1.00  0.00     0.049 A 
ATOM     83  H   UNL A   1      40.909  31.893  34.790  1.00  0.00     0.167 HD
ATOM     84  C   UNL A   1      39.666  35.143  37.279  1.00  0.00     0.037 A 
ATOM     85  H   UNL A   1      36.949  34.004  37.367  1.00  0.00     0.065 H 
ATOM     86  H   UNL A   1      40.836  28.682  32.154  1.00  0.00     0.065 H 
ATOM     87  C   UNL A   1      42.327  29.556  34.497  1.00  0.00     0.037 A 
ATOM     88  C   UNL A   1      40.789  35.745  36.611  1.00  0.00     0.049 A 
ATOM     89  C   UNL A   1      42.970  30.653  35.256  1.00  0.00     0.074 A 
ATOM     90  C   UNL A   1      40.939  36.699  35.624  1.00  0.00    -0.036 A 
ATOM     91  N   UNL A   1      42.009  35.126  36.706  1.00  0.00    -0.354 N 
ATOM     92  N   UNL A   1      43.634  31.629  34.704  1.00  0.00    -0.248 NA
ATOM     93  C   UNL A   1      42.534  30.887  36.623  1.00  0.00    -0.034 C 
ATOM     94  C   UNL A   1      42.058  36.263  34.853  1.00  0.00    -0.036 A 
ATOM     95  H   UNL A   1      40.366  37.545  35.475  1.00  0.00     0.065 H 
ATOM     96  C   UNL A   1      42.547  35.098  35.446  1.00  0.00     0.049 A 
ATOM     97  H   UNL A   1      42.422  34.768  37.526  1.00  0.00     0.167 HD
ATOM     98  C   UNL A   1      43.328  32.739  35.474  1.00  0.00     0.074 A 
ATOM     99  C   UNL A   1      42.752  32.201  36.702  1.00  0.00    -0.034 C 
ATOM    100  H   UNL A   1      42.164  30.229  37.327  1.00  0.00     0.065 H 
ATOM    101  H   UNL A   1      42.436  36.724  34.011  1.00  0.00     0.065 H 
ATOM    102  C   UNL A   1      43.315  33.990  34.928  1.00  0.00     0.037 A 
ATOM    103  H   UNL A   1      42.539  32.771  37.536  1.00  0.00     0.065 H 
BRANCH  84 104
ATOM    104  C   UNL A   1      39.629  34.985  38.782  1.00  0.00     0.064 A 
ATOM    105  C   UNL A   1      39.431  36.123  39.593  1.00  0.00     0.173 A 
ATOM    106  C   UNL A   1      40.088  33.834  39.456  1.00  0.00     0.173 A 
ATOM    107  F   UNL A   1      39.007  37.280  39.058  1.00  0.00    -0.203 F 
ATOM    108  C   UNL A   1      39.757  36.130  40.952  1.00  0.00     0.198 A 
ATOM    109  C   UNL A   1      40.362  33.830  40.823  1.00  0.00     0.198 A 
ATOM    110  F   UNL A   1      40.396  32.706  38.805  1.00  0.00    -0.203 F 
ATOM    111  F   UNL A   1      39.678  37.271  41.650  1.00  0.00    -0.200 F 
ATOM    112  C   UNL A   1      40.231  34.985  41.564  1.00  0.00     0.200 A 
ATOM    113  F   UNL A   1      40.835  32.715  41.396  1.00  0.00    -0.200 F 
ATOM    114  F   UNL A   1      40.608  35.006  42.849  1.00  0.00    -0.200 F 
ENDBRANCH  84 104
BRANCH  87 115
ATOM    115  C   UNL A   1      42.631  28.129  34.729  1.00  0.00     0.064 A 
ATOM    116  C   UNL A   1      41.883  27.368  35.640  1.00  0.00     0.173 A 
ATOM    117  C   UNL A   1      43.475  27.419  33.855  1.00  0.00     0.173 A 
ATOM    118  F   UNL A   1      41.027  27.969  36.479  1.00  0.00    -0.203 F 
ATOM    119  C   UNL A   1      41.950  25.972  35.651  1.00  0.00     0.198 A 
ATOM    120  C   UNL A   1      43.546  26.026  33.871  1.00  0.00     0.198 A 
ATOM    121  F   UNL A   1      44.171  28.056  32.902  1.00  0.00    -0.203 F 
ATOM    122  F   UNL A   1      41.171  25.274  36.488  1.00  0.00    -0.200 F 
ATOM    123  C   UNL A   1      42.771  25.302  34.759  1.00  0.00     0.200 A 
ATOM    124  F   UNL A   1      44.317  25.389  32.978  1.00  0.00    -0.200 F 
ATOM    125  F   UNL A   1      42.783  23.962  34.723  1.00  0.00    -0.200 F 
ENDBRANCH  87 115
BRANCH 102 126
ATOM    126  C   UNL A   1      43.931  34.167  33.569  1.00  0.00     0.064 A 
ATOM    127  C   UNL A   1      43.229  34.016  32.360  1.00  0.00     0.173 A 
ATOM    128  C   UNL A   1      45.249  34.634  33.492  1.00  0.00     0.173 A 
ATOM    129  F   UNL A   1      41.935  33.674  32.350  1.00  0.00    -0.203 F 
ATOM    130  C   UNL A   1      43.837  34.273  31.133  1.00  0.00     0.198 A 
ATOM    131  C   UNL A   1      45.843  34.927  32.267  1.00  0.00     0.198 A 
ATOM    132  F   UNL A   1      45.951  34.852  34.615  1.00  0.00    -0.203 F 
ATOM    133  F   UNL A   1      43.151  34.104  29.992  1.00  0.00    -0.200 F 
ATOM    134  C   UNL A   1      45.142  34.734  31.088  1.00  0.00     0.200 A 
ATOM    135  F   UNL A   1      47.089  35.419  32.231  1.00  0.00    -0.200 F 
ATOM    136  F   UNL A   1      45.717  35.018  29.910  1.00  0.00    -0.200 F 
ENDBRANCH 102 126
ENDBRANCH  67  70
ENDBRANCH  57  60
ENDBRANCH  53  56
ENDBRANCH  50  53
ENDBRANCH  47  50
ENDBRANCH  44  47
ENDBRANCH   1  44
TORSDOF 17
ENDMDL
MODEL 10
REMARK VINA RESULT:     -11.9      5.558     10.565
REMARK SMILES NS(=O)(=O)c1ccc(-c2coc(=O)n2-c2ccc(C(=O)NCCCCCCNC(=O)c3ccc(-c4c5nc(c(-c6c(F)c(F)c(F)c(F)c6F)c6ccc([nH]6)c(-c6c(F)c(F)c(F)c(F)c6F)c6nc(c(-c7c(F)c(F)c(F)c(F)c7F)c7ccc4[nH]7)C=C6)C=C5)cc3)cc2)cc1
REMARK SMILES IDX 23 1 22 4 21 7 19 8 20 9 18 11 15 12 16 13 95 14 17 15 94 17
REMARK SMILES IDX 14 21 9 22 10 23 11 24 12 26 13 27 8 28 5 29 6 30 97 31 7 32
REMARK SMILES IDX 96 34 2 38 3 39 4 40 1 41 24 44 25 47 26 50 27 53 28 56
REMARK SMILES IDX 29 57 30 59 31 60 32 61 93 62 33 63 92 65 34 67 35 70 36 71
REMARK SMILES IDX 86 72 37 73 91 74 85 75 87 76 38 77 90 78 84 80 83 82 39 84
REMARK SMILES IDX 71 87 51 88 70 89 52 90 55 91 69 92 88 93 53 94 54 96 68 98
REMARK SMILES IDX 89 99 56 102 40 104 41 105 49 106 42 107 43 108 47 109
REMARK SMILES IDX 50 110 44 111 45 112 48 113 46 114 72 115 73 116 81 117
REMARK SMILES IDX 74 118 75 119 79 120 82 121 76 122 77 123 80 124 78 125
REMARK SMILES IDX 57 126 58 127 66 128 59 129 60 130 64 131 67 132 61 133
REMARK SMILES IDX 62 134 65 135 63 136
REMARK H PARENT 23 2 23 3 22 5 22 6 21 10 16 16 95 18 17 19 94 20 10 25 6 33
REMARK H PARENT 97 35 7 36 96 37 1 42 1 43 24 45 24 46 25 48 25 49 26 51 26 52
REMARK H PARENT 27 54 27 55 28 58 32 64 93 66 33 68 92 69 91 79 85 81 87 83
REMARK H PARENT 90 85 84 86 52 95 55 97 88 100 53 101 89 103
REMARK Flexibility Score: inf
ROOT
ATOM      1  C   UNL A   1      41.416  27.886  34.532  1.00  0.00    -0.036 C 
ATOM      2  H   UNL A   1      41.593  26.905  34.144  1.00  0.00     0.028 H 
ATOM      3  H   UNL A   1      40.379  28.151  34.508  1.00  0.00     0.028 H 
ENDROOT
BRANCH   1   4
ATOM      4  C   UNL A   1      42.160  28.898  33.656  1.00  0.00     0.018 C 
ATOM      5  H   UNL A   1      42.649  28.379  32.857  1.00  0.00     0.049 H 
ATOM      6  H   UNL A   1      41.458  29.600  33.262  1.00  0.00     0.049 H 
BRANCH   4   7
ATOM      7  N   UNL A   1      43.152  29.610  34.440  1.00  0.00    -0.352 N 
ATOM      8  C   UNL A   1      43.761  30.831  34.304  1.00  0.00     0.251 C 
ATOM      9  O   UNL A   1      44.573  31.156  35.171  1.00  0.00    -0.269 OA
ATOM     10  H   UNL A   1      43.448  29.113  35.237  1.00  0.00     0.163 HD
BRANCH   8  11
ATOM     11  C   UNL A   1      43.445  31.799  33.213  1.00  0.00     0.039 A 
ATOM     12  C   UNL A   1      42.601  33.655  31.270  1.00  0.00     0.053 A 
ATOM     13  C   UNL A   1      42.445  33.949  32.624  1.00  0.00    -0.037 A 
ATOM     14  C   UNL A   1      43.254  32.477  30.896  1.00  0.00    -0.037 A 
ATOM     15  C   UNL A   1      42.834  33.009  33.585  1.00  0.00    -0.047 A 
ATOM     16  H   UNL A   1      42.046  34.855  32.915  1.00  0.00     0.065 H 
ATOM     17  C   UNL A   1      43.727  31.588  31.864  1.00  0.00    -0.047 A 
ATOM     18  H   UNL A   1      43.387  32.261  29.894  1.00  0.00     0.065 H 
ATOM     19  H   UNL A   1      42.669  33.208  34.584  1.00  0.00     0.063 H 
ATOM     20  H   UNL A   1      44.290  30.771  31.579  1.00  0.00     0.063 H 
BRANCH  12  21
ATOM     21  N   UNL A   1      42.101  34.515  30.277  1.00  0.00    -0.242 N 
ATOM     22  C   UNL A   1      40.851  34.532  29.727  1.00  0.00     0.095 A 
ATOM     23  C   UNL A   1      40.896  35.422  28.743  1.00  0.00     0.121 A 
ATOM     24  O   UNL A   1      42.134  36.040  28.585  1.00  0.00    -0.415 OA
ATOM     25  H   UNL A   1      40.081  35.638  28.147  1.00  0.00     0.107 H 
ATOM     26  C   UNL A   1      42.882  35.452  29.606  1.00  0.00     0.424 A 
ATOM     27  O   UNL A   1      44.056  35.732  29.806  1.00  0.00    -0.223 OA
BRANCH  22  28
ATOM     28  C   UNL A   1      39.671  33.857  30.266  1.00  0.00     0.002 A 
ATOM     29  C   UNL A   1      37.450  32.505  31.310  1.00  0.00     0.082 A 
ATOM     30  C   UNL A   1      38.460  31.781  30.680  1.00  0.00    -0.041 A 
ATOM     31  C   UNL A   1      37.539  33.896  31.431  1.00  0.00    -0.041 A 
ATOM     32  C   UNL A   1      39.565  32.459  30.161  1.00  0.00    -0.051 A 
ATOM     33  H   UNL A   1      38.393  30.755  30.599  1.00  0.00     0.064 H 
ATOM     34  C   UNL A   1      38.653  34.569  30.915  1.00  0.00    -0.051 A 
ATOM     35  H   UNL A   1      36.786  34.425  31.900  1.00  0.00     0.064 H 
ATOM     36  H   UNL A   1      40.315  31.926  29.693  1.00  0.00     0.063 H 
ATOM     37  H   UNL A   1      38.725  35.593  31.013  1.00  0.00     0.063 H 
BRANCH  29  38
ATOM     38  S   UNL A   1      36.048  31.652  31.970  1.00  0.00     0.238 S 
ATOM     39  O   UNL A   1      36.262  30.222  31.836  1.00  0.00    -0.207 OA
ATOM     40  O   UNL A   1      34.858  32.308  31.514  1.00  0.00    -0.207 OA
BRANCH  38  41
ATOM     41  N   UNL A   1      36.163  31.951  33.621  1.00  0.00    -0.225 NA
ATOM     42  H   UNL A   1      36.637  32.841  33.772  1.00  0.00     0.137 HD
ATOM     43  H   UNL A   1      36.694  31.202  34.066  1.00  0.00     0.137 HD
ENDBRANCH  38  41
ENDBRANCH  29  38
ENDBRANCH  22  28
ENDBRANCH  12  21
ENDBRANCH   8  11
ENDBRANCH   4   7
ENDBRANCH   1   4
BRANCH   1  44
ATOM     44  C   UNL A   1      41.853  27.913  36.004  1.00  0.00    -0.052 C 
ATOM     45  H   UNL A   1      41.296  28.682  36.498  1.00  0.00     0.027 H 
ATOM     46  H   UNL A   1      42.909  28.082  35.992  1.00  0.00     0.027 H 
BRANCH  44  47
ATOM     47  C   UNL A   1      41.646  26.604  36.784  1.00  0.00    -0.052 C 
ATOM     48  H   UNL A   1      40.854  26.764  37.484  1.00  0.00     0.027 H 
ATOM     49  H   UNL A   1      42.594  26.386  37.231  1.00  0.00     0.027 H 
BRANCH  47  50
ATOM     50  C   UNL A   1      41.293  25.365  35.950  1.00  0.00    -0.036 C 
ATOM     51  H   UNL A   1      41.360  25.626  34.914  1.00  0.00     0.028 H 
ATOM     52  H   UNL A   1      40.306  25.069  36.238  1.00  0.00     0.028 H 
BRANCH  50  53
ATOM     53  C   UNL A   1      42.201  24.170  36.201  1.00  0.00     0.018 C 
ATOM     54  H   UNL A   1      42.512  23.769  35.258  1.00  0.00     0.049 H 
ATOM     55  H   UNL A   1      41.648  23.448  36.766  1.00  0.00     0.049 H 
BRANCH  53  56
ATOM     56  N   UNL A   1      43.388  24.532  36.972  1.00  0.00    -0.352 N 
ATOM     57  C   UNL A   1      44.690  24.674  36.544  1.00  0.00     0.251 C 
ATOM     58  H   UNL A   1      43.237  24.696  37.931  1.00  0.00     0.163 HD
ATOM     59  O   UNL A   1      45.622  24.637  37.339  1.00  0.00    -0.269 OA
BRANCH  57  60
ATOM     60  C   UNL A   1      44.953  24.851  35.105  1.00  0.00     0.039 A 
ATOM     61  C   UNL A   1      45.366  23.774  34.321  1.00  0.00    -0.049 A 
ATOM     62  C   UNL A   1      44.742  26.103  34.536  1.00  0.00    -0.049 A 
ATOM     63  C   UNL A   1      45.474  23.947  32.942  1.00  0.00    -0.053 A 
ATOM     64  H   UNL A   1      45.588  22.864  34.753  1.00  0.00     0.063 H 
ATOM     65  C   UNL A   1      44.705  26.231  33.166  1.00  0.00    -0.053 A 
ATOM     66  H   UNL A   1      44.614  26.931  35.138  1.00  0.00     0.063 H 
ATOM     67  C   UNL A   1      45.112  25.173  32.358  1.00  0.00    -0.014 A 
ATOM     68  H   UNL A   1      45.820  23.175  32.351  1.00  0.00     0.063 H 
ATOM     69  H   UNL A   1      44.378  27.111  32.738  1.00  0.00     0.063 H 
BRANCH  67  70
ATOM     70  C   UNL A   1      45.091  25.309  30.899  1.00  0.00     0.031 A 
ATOM     71  C   UNL A   1      46.120  26.215  30.308  1.00  0.00     0.074 A 
ATOM     72  C   UNL A   1      44.320  24.564  30.077  1.00  0.00     0.049 A 
ATOM     73  N   UNL A   1      45.925  27.300  29.630  1.00  0.00    -0.248 NA
ATOM     74  C   UNL A   1      47.539  25.917  30.556  1.00  0.00    -0.034 C 
ATOM     75  C   UNL A   1      43.454  23.426  30.403  1.00  0.00    -0.036 A 
ATOM     76  N   UNL A   1      44.232  24.628  28.718  1.00  0.00    -0.354 N 
ATOM     77  C   UNL A   1      47.183  27.754  29.238  1.00  0.00     0.074 A 
ATOM     78  C   UNL A   1      48.142  26.927  29.924  1.00  0.00    -0.034 C 
ATOM     79  H   UNL A   1      47.958  25.131  31.078  1.00  0.00     0.065 H 
ATOM     80  C   UNL A   1      43.117  22.772  29.271  1.00  0.00    -0.036 A 
ATOM     81  H   UNL A   1      43.147  23.165  31.354  1.00  0.00     0.065 H 
ATOM     82  C   UNL A   1      43.579  23.551  28.139  1.00  0.00     0.049 A 
ATOM     83  H   UNL A   1      44.599  25.375  28.193  1.00  0.00     0.167 HD
ATOM     84  C   UNL A   1      47.331  28.667  28.236  1.00  0.00     0.037 A 
ATOM     85  H   UNL A   1      49.161  27.094  29.928  1.00  0.00     0.065 H 
ATOM     86  H   UNL A   1      42.617  21.871  29.220  1.00  0.00     0.065 H 
ATOM     87  C   UNL A   1      43.425  23.304  26.818  1.00  0.00     0.037 A 
ATOM     88  C   UNL A   1      46.097  29.359  27.970  1.00  0.00     0.049 A 
ATOM     89  C   UNL A   1      43.590  24.589  26.103  1.00  0.00     0.074 A 
ATOM     90  C   UNL A   1      45.263  30.181  28.703  1.00  0.00    -0.036 A 
ATOM     91  N   UNL A   1      45.365  28.981  26.874  1.00  0.00    -0.354 N 
ATOM     92  N   UNL A   1      42.749  25.582  26.183  1.00  0.00    -0.248 NA
ATOM     93  C   UNL A   1      44.912  24.929  25.602  1.00  0.00    -0.034 C 
ATOM     94  C   UNL A   1      43.944  29.845  28.275  1.00  0.00    -0.036 A 
ATOM     95  H   UNL A   1      45.535  30.885  29.407  1.00  0.00     0.065 H 
ATOM     96  C   UNL A   1      44.060  28.876  27.278  1.00  0.00     0.049 A 
ATOM     97  H   UNL A   1      45.711  28.816  25.966  1.00  0.00     0.167 HD
ATOM     98  C   UNL A   1      43.544  26.716  26.162  1.00  0.00     0.074 A 
ATOM     99  C   UNL A   1      44.844  26.259  25.682  1.00  0.00    -0.034 C 
ATOM    100  H   UNL A   1      45.679  24.318  25.278  1.00  0.00     0.065 H 
ATOM    101  H   UNL A   1      43.065  30.246  28.637  1.00  0.00     0.065 H 
ATOM    102  C   UNL A   1      43.153  27.859  26.798  1.00  0.00     0.037 A 
ATOM    103  H   UNL A   1      45.620  26.892  25.432  1.00  0.00     0.065 H 
BRANCH  84 104
ATOM    104  C   UNL A   1      48.490  28.712  27.268  1.00  0.00     0.064 A 
ATOM    105  C   UNL A   1      48.762  27.585  26.462  1.00  0.00     0.173 A 
ATOM    106  C   UNL A   1      49.516  29.678  27.324  1.00  0.00     0.173 A 
ATOM    107  F   UNL A   1      47.863  26.595  26.342  1.00  0.00    -0.203 F 
ATOM    108  C   UNL A   1      50.000  27.401  25.840  1.00  0.00     0.198 A 
ATOM    109  C   UNL A   1      50.731  29.515  26.659  1.00  0.00     0.198 A 
ATOM    110  F   UNL A   1      49.431  30.758  28.110  1.00  0.00    -0.203 F 
ATOM    111  F   UNL A   1      50.259  26.254  25.197  1.00  0.00    -0.200 F 
ATOM    112  C   UNL A   1      50.987  28.362  25.947  1.00  0.00     0.200 A 
ATOM    113  F   UNL A   1      51.682  30.451  26.787  1.00  0.00    -0.200 F 
ATOM    114  F   UNL A   1      52.198  28.159  25.410  1.00  0.00    -0.200 F 
ENDBRANCH  84 104
BRANCH  87 115
ATOM    115  C   UNL A   1      43.386  21.998  26.130  1.00  0.00     0.064 A 
ATOM    116  C   UNL A   1      44.566  21.363  25.713  1.00  0.00     0.173 A 
ATOM    117  C   UNL A   1      42.213  21.218  26.124  1.00  0.00     0.173 A 
ATOM    118  F   UNL A   1      45.730  22.027  25.728  1.00  0.00    -0.203 F 
ATOM    119  C   UNL A   1      44.576  20.015  25.343  1.00  0.00     0.198 A 
ATOM    120  C   UNL A   1      42.225  19.876  25.749  1.00  0.00     0.198 A 
ATOM    121  F   UNL A   1      41.053  21.718  26.576  1.00  0.00    -0.203 F 
ATOM    122  F   UNL A   1      45.734  19.423  25.016  1.00  0.00    -0.200 F 
ATOM    123  C   UNL A   1      43.410  19.269  25.374  1.00  0.00     0.200 A 
ATOM    124  F   UNL A   1      41.095  19.157  25.818  1.00  0.00    -0.200 F 
ATOM    125  F   UNL A   1      43.433  17.961  25.087  1.00  0.00    -0.200 F 
ENDBRANCH  87 115
BRANCH 102 126
ATOM    126  C   UNL A   1      41.724  27.953  27.253  1.00  0.00     0.064 A 
ATOM    127  C   UNL A   1      41.244  27.411  28.458  1.00  0.00     0.173 A 
ATOM    128  C   UNL A   1      40.837  28.735  26.502  1.00  0.00     0.173 A 
ATOM    129  F   UNL A   1      42.053  26.738  29.284  1.00  0.00    -0.203 F 
ATOM    130  C   UNL A   1      39.924  27.602  28.862  1.00  0.00     0.198 A 
ATOM    131  C   UNL A   1      39.530  28.957  26.926  1.00  0.00     0.198 A 
ATOM    132  F   UNL A   1      41.255  29.326  25.371  1.00  0.00    -0.203 F 
ATOM    133  F   UNL A   1      39.485  27.058  30.008  1.00  0.00    -0.200 F 
ATOM    134  C   UNL A   1      39.070  28.380  28.098  1.00  0.00     0.200 A 
ATOM    135  F   UNL A   1      38.722  29.750  26.209  1.00  0.00    -0.200 F 
ATOM    136  F   UNL A   1      37.810  28.596  28.505  1.00  0.00    -0.200 F 
ENDBRANCH 102 126
ENDBRANCH  67  70
ENDBRANCH  57  60
ENDBRANCH  53  56
ENDBRANCH  50  53
ENDBRANCH  47  50
ENDBRANCH  44  47
ENDBRANCH   1  44
TORSDOF 17
ENDMDL
