MODEL 1
REMARK VINA RESULT:     -12.1      0.000      0.000
REMARK SMILES COc1ccc(-c2noc(CC(=O)NCCCCCCNC(=O)c3ccc(-c4c5nc(c(-c6c(F)c(F)c(F)c(F)c6F)c6ccc([nH]6)c(-c6c(F)c(F)c(F)c(F)c6F)c6nc(c(-c7c(F)c(F)c(F)c(F)c7F)c7ccc4[nH]7)C=C6)C=C5)cc3)c2-c2ccc(OC)cc2)cc1
REMARK SMILES IDX 16 1 15 4 14 7 12 8 13 9 11 11 10 14 7 15 8 16 87 17 9 18
REMARK SMILES IDX 6 19 3 20 4 21 97 22 5 23 96 25 2 29 1 30 88 34 89 35 95 36
REMARK SMILES IDX 90 37 94 39 91 41 92 44 93 45 17 49 18 52 19 55 20 58 21 61
REMARK SMILES IDX 22 62 23 64 24 65 25 66 86 67 26 68 85 70 27 72 28 75 29 76
REMARK SMILES IDX 79 77 30 78 84 79 78 80 80 81 31 82 83 83 77 85 76 87 32 89
REMARK SMILES IDX 64 92 44 93 63 94 45 95 48 96 62 97 81 98 46 99 47 101
REMARK SMILES IDX 61 103 82 104 49 107 33 109 34 110 42 111 35 112 36 113
REMARK SMILES IDX 40 114 43 115 37 116 38 117 41 118 39 119 65 120 66 121
REMARK SMILES IDX 74 122 67 123 68 124 72 125 75 126 69 127 70 128 73 129
REMARK SMILES IDX 71 130 50 131 51 132 59 133 52 134 53 135 57 136 60 137
REMARK SMILES IDX 54 138 55 139 58 140 56 141
REMARK H PARENT 16 2 16 3 15 5 15 6 14 10 11 12 11 13 4 24 97 26 5 27 96 28
REMARK H PARENT 1 31 1 32 1 33 89 38 95 40 90 42 94 43 93 46 93 47 93 48 17 50
REMARK H PARENT 17 51 18 53 18 54 19 56 19 57 20 59 20 60 21 63 25 69 86 71
REMARK H PARENT 26 73 85 74 84 84 78 86 80 88 83 90 77 91 45 100 48 102 81 105
REMARK H PARENT 46 106 82 108
REMARK Flexibility Score: inf
ROOT
ATOM      1  C   UNL A   1      34.281  20.437  25.004  1.00  0.00    -0.036 C 
ATOM      2  H   UNL A   1      34.060  19.747  24.217  1.00  0.00     0.028 H 
ATOM      3  H   UNL A   1      34.036  20.043  25.970  1.00  0.00     0.028 H 
ENDROOT
BRANCH   1   4
ATOM      4  C   UNL A   1      33.432  21.692  24.802  1.00  0.00     0.017 C 
ATOM      5  H   UNL A   1      34.077  22.540  24.700  1.00  0.00     0.049 H 
ATOM      6  H   UNL A   1      32.840  21.566  23.919  1.00  0.00     0.049 H 
BRANCH   4   7
ATOM      7  N   UNL A   1      32.545  21.903  25.928  1.00  0.00    -0.356 N 
ATOM      8  C   UNL A   1      32.307  23.051  26.628  1.00  0.00     0.227 C 
ATOM      9  O   UNL A   1      31.587  22.984  27.627  1.00  0.00    -0.275 OA
ATOM     10  H   UNL A   1      32.048  21.110  26.231  1.00  0.00     0.163 HD
BRANCH   8  11
ATOM     11  C   UNL A   1      32.825  24.379  26.117  1.00  0.00     0.088 C 
ATOM     12  H   UNL A   1      33.050  25.004  26.956  1.00  0.00     0.045 H 
ATOM     13  H   UNL A   1      33.695  24.179  25.527  1.00  0.00     0.045 H 
BRANCH  11  14
ATOM     14  C   UNL A   1      31.851  25.083  25.249  1.00  0.00     0.154 A 
ATOM     15  C   UNL A   1      30.511  26.364  24.031  1.00  0.00     0.122 A 
ATOM     16  N   UNL A   1      30.187  25.096  23.742  1.00  0.00    -0.079 NA
ATOM     17  C   UNL A   1      31.550  26.409  25.008  1.00  0.00     0.053 A 
ATOM     18  O   UNL A   1      31.042  24.302  24.482  1.00  0.00    -0.360 OA
BRANCH  15  19
ATOM     19  C   UNL A   1      29.854  27.492  23.385  1.00  0.00     0.005 A 
ATOM     20  C   UNL A   1      28.630  29.711  22.190  1.00  0.00     0.118 A 
ATOM     21  C   UNL A   1      27.868  28.794  22.916  1.00  0.00    -0.019 A 
ATOM     22  C   UNL A   1      30.008  29.537  22.082  1.00  0.00    -0.019 A 
ATOM     23  C   UNL A   1      28.472  27.677  23.500  1.00  0.00    -0.049 A 
ATOM     24  H   UNL A   1      26.852  28.943  23.024  1.00  0.00     0.066 H 
ATOM     25  C   UNL A   1      30.618  28.429  22.676  1.00  0.00    -0.049 A 
ATOM     26  H   UNL A   1      30.578  30.225  21.565  1.00  0.00     0.066 H 
ATOM     27  H   UNL A   1      27.899  26.989  24.014  1.00  0.00     0.063 H 
ATOM     28  H   UNL A   1      31.638  28.299  22.592  1.00  0.00     0.063 H 
BRANCH  20  29
ATOM     29  O   UNL A   1      27.950  30.774  21.662  1.00  0.00    -0.497 OA
BRANCH  29  30
ATOM     30  C   UNL A   1      28.532  32.040  21.963  1.00  0.00     0.078 C 
ATOM     31  H   UNL A   1      29.247  31.926  22.750  1.00  0.00     0.067 H 
ATOM     32  H   UNL A   1      27.767  32.720  22.272  1.00  0.00     0.067 H 
ATOM     33  H   UNL A   1      29.020  32.424  21.091  1.00  0.00     0.067 H 
ENDBRANCH  29  30
ENDBRANCH  20  29
ENDBRANCH  15  19
BRANCH  17  34
ATOM     34  C   UNL A   1      32.137  27.542  25.696  1.00  0.00    -0.012 A 
ATOM     35  C   UNL A   1      33.469  27.889  25.437  1.00  0.00    -0.050 A 
ATOM     36  C   UNL A   1      31.403  28.295  26.616  1.00  0.00    -0.050 A 
ATOM     37  C   UNL A   1      34.048  28.983  26.080  1.00  0.00    -0.019 A 
ATOM     38  H   UNL A   1      34.024  27.333  24.768  1.00  0.00     0.063 H 
ATOM     39  C   UNL A   1      31.989  29.393  27.260  1.00  0.00    -0.019 A 
ATOM     40  H   UNL A   1      30.424  28.042  26.822  1.00  0.00     0.063 H 
ATOM     41  C   UNL A   1      33.314  29.742  26.993  1.00  0.00     0.118 A 
ATOM     42  H   UNL A   1      35.029  29.235  25.878  1.00  0.00     0.066 H 
ATOM     43  H   UNL A   1      31.439  29.947  27.936  1.00  0.00     0.066 H 
BRANCH  41  44
ATOM     44  O   UNL A   1      34.002  30.785  27.545  1.00  0.00    -0.497 OA
BRANCH  44  45
ATOM     45  C   UNL A   1      33.326  32.034  27.625  1.00  0.00     0.078 C 
ATOM     46  H   UNL A   1      33.922  32.725  28.184  1.00  0.00     0.067 H 
ATOM     47  H   UNL A   1      32.384  31.899  28.112  1.00  0.00     0.067 H 
ATOM     48  H   UNL A   1      33.167  32.418  26.639  1.00  0.00     0.067 H 
ENDBRANCH  44  45
ENDBRANCH  41  44
ENDBRANCH  17  34
ENDBRANCH  11  14
ENDBRANCH   8  11
ENDBRANCH   4   7
ENDBRANCH   1   4
BRANCH   1  49
ATOM     49  C   UNL A   1      35.791  20.711  25.000  1.00  0.00    -0.052 C 
ATOM     50  H   UNL A   1      36.026  21.285  25.872  1.00  0.00     0.027 H 
ATOM     51  H   UNL A   1      35.999  21.223  24.085  1.00  0.00     0.027 H 
BRANCH  49  52
ATOM     52  C   UNL A   1      36.677  19.459  25.001  1.00  0.00    -0.052 C 
ATOM     53  H   UNL A   1      36.267  18.763  24.299  1.00  0.00     0.027 H 
ATOM     54  H   UNL A   1      36.680  19.098  26.008  1.00  0.00     0.027 H 
BRANCH  52  55
ATOM     55  C   UNL A   1      38.143  19.698  24.629  1.00  0.00    -0.036 C 
ATOM     56  H   UNL A   1      38.183  20.513  23.938  1.00  0.00     0.028 H 
ATOM     57  H   UNL A   1      38.505  18.779  24.220  1.00  0.00     0.028 H 
BRANCH  55  58
ATOM     58  C   UNL A   1      39.054  20.032  25.808  1.00  0.00     0.018 C 
ATOM     59  H   UNL A   1      38.472  20.028  26.706  1.00  0.00     0.049 H 
ATOM     60  H   UNL A   1      39.486  20.995  25.630  1.00  0.00     0.049 H 
BRANCH  58  61
ATOM     61  N   UNL A   1      40.139  19.073  25.948  1.00  0.00    -0.352 N 
ATOM     62  C   UNL A   1      41.480  19.288  26.121  1.00  0.00     0.251 C 
ATOM     63  H   UNL A   1      39.868  18.127  25.913  1.00  0.00     0.163 HD
ATOM     64  O   UNL A   1      42.271  18.348  26.024  1.00  0.00    -0.269 OA
BRANCH  62  65
ATOM     65  C   UNL A   1      41.995  20.643  26.410  1.00  0.00     0.039 A 
ATOM     66  C   UNL A   1      42.259  21.503  25.340  1.00  0.00    -0.049 A 
ATOM     67  C   UNL A   1      42.261  21.053  27.720  1.00  0.00    -0.049 A 
ATOM     68  C   UNL A   1      42.743  22.791  25.585  1.00  0.00    -0.053 A 
ATOM     69  H   UNL A   1      42.095  21.189  24.371  1.00  0.00     0.063 H 
ATOM     70  C   UNL A   1      42.687  22.356  27.968  1.00  0.00    -0.053 A 
ATOM     71  H   UNL A   1      42.141  20.391  28.502  1.00  0.00     0.063 H 
ATOM     72  C   UNL A   1      42.939  23.235  26.903  1.00  0.00    -0.014 A 
ATOM     73  H   UNL A   1      42.958  23.418  24.795  1.00  0.00     0.063 H 
ATOM     74  H   UNL A   1      42.818  22.677  28.940  1.00  0.00     0.063 H 
BRANCH  72  75
ATOM     75  C   UNL A   1      43.417  24.612  27.181  1.00  0.00     0.031 A 
ATOM     76  C   UNL A   1      42.476  25.641  27.741  1.00  0.00     0.074 A 
ATOM     77  C   UNL A   1      44.685  24.949  26.881  1.00  0.00     0.049 A 
ATOM     78  N   UNL A   1      42.692  26.906  28.003  1.00  0.00    -0.248 NA
ATOM     79  C   UNL A   1      41.103  25.195  28.026  1.00  0.00    -0.034 C 
ATOM     80  C   UNL A   1      45.681  24.052  26.294  1.00  0.00    -0.036 A 
ATOM     81  N   UNL A   1      45.351  26.141  27.019  1.00  0.00    -0.354 N 
ATOM     82  C   UNL A   1      41.484  27.408  28.467  1.00  0.00     0.074 A 
ATOM     83  C   UNL A   1      40.525  26.324  28.409  1.00  0.00    -0.034 C 
ATOM     84  H   UNL A   1      40.696  24.251  27.947  1.00  0.00     0.065 H 
ATOM     85  C   UNL A   1      46.837  24.718  26.141  1.00  0.00    -0.036 A 
ATOM     86  H   UNL A   1      45.521  23.065  26.039  1.00  0.00     0.065 H 
ATOM     87  C   UNL A   1      46.654  26.097  26.589  1.00  0.00     0.049 A 
ATOM     88  H   UNL A   1      44.934  26.951  27.393  1.00  0.00     0.167 HD
ATOM     89  C   UNL A   1      41.204  28.653  28.920  1.00  0.00     0.037 A 
ATOM     90  H   UNL A   1      39.523  26.420  28.636  1.00  0.00     0.065 H 
ATOM     91  H   UNL A   1      47.712  24.322  25.767  1.00  0.00     0.065 H 
ATOM     92  C   UNL A   1      47.594  27.060  26.559  1.00  0.00     0.037 A 
ATOM     93  C   UNL A   1      42.165  29.721  29.004  1.00  0.00     0.049 A 
ATOM     94  C   UNL A   1      47.259  28.433  27.072  1.00  0.00     0.074 A 
ATOM     95  C   UNL A   1      41.993  31.001  29.503  1.00  0.00    -0.036 A 
ATOM     96  N   UNL A   1      43.481  29.633  28.576  1.00  0.00    -0.354 N 
ATOM     97  N   UNL A   1      46.130  28.878  27.567  1.00  0.00    -0.248 NA
ATOM     98  C   UNL A   1      48.332  29.436  27.027  1.00  0.00    -0.034 C 
ATOM     99  C   UNL A   1      43.196  31.698  29.345  1.00  0.00    -0.036 A 
ATOM    100  H   UNL A   1      41.128  31.376  29.921  1.00  0.00     0.065 H 
ATOM    101  C   UNL A   1      44.128  30.840  28.784  1.00  0.00     0.049 A 
ATOM    102  H   UNL A   1      43.894  28.830  28.181  1.00  0.00     0.167 HD
ATOM    103  C   UNL A   1      46.362  30.201  27.916  1.00  0.00     0.074 A 
ATOM    104  C   UNL A   1      47.745  30.484  27.588  1.00  0.00    -0.034 C 
ATOM    105  H   UNL A   1      49.291  29.349  26.656  1.00  0.00     0.065 H 
ATOM    106  H   UNL A   1      43.360  32.684  29.601  1.00  0.00     0.065 H 
ATOM    107  C   UNL A   1      45.507  31.101  28.459  1.00  0.00     0.037 A 
ATOM    108  H   UNL A   1      48.213  31.386  27.770  1.00  0.00     0.065 H 
BRANCH  89 109
ATOM    109  C   UNL A   1      39.800  28.927  29.370  1.00  0.00     0.064 A 
ATOM    110  C   UNL A   1      38.828  29.420  28.485  1.00  0.00     0.173 A 
ATOM    111  C   UNL A   1      39.409  28.662  30.692  1.00  0.00     0.173 A 
ATOM    112  F   UNL A   1      39.154  29.700  27.215  1.00  0.00    -0.203 F 
ATOM    113  C   UNL A   1      37.525  29.661  28.912  1.00  0.00     0.198 A 
ATOM    114  C   UNL A   1      38.098  28.879  31.108  1.00  0.00     0.198 A 
ATOM    115  F   UNL A   1      40.296  28.184  31.577  1.00  0.00    -0.203 F 
ATOM    116  F   UNL A   1      36.627  30.174  28.060  1.00  0.00    -0.200 F 
ATOM    117  C   UNL A   1      37.159  29.385  30.221  1.00  0.00     0.200 A 
ATOM    118  F   UNL A   1      37.742  28.600  32.370  1.00  0.00    -0.200 F 
ATOM    119  F   UNL A   1      35.903  29.612  30.630  1.00  0.00    -0.200 F 
ENDBRANCH  89 109
BRANCH  92 120
ATOM    120  C   UNL A   1      48.955  26.749  26.051  1.00  0.00     0.064 A 
ATOM    121  C   UNL A   1      49.925  26.192  26.895  1.00  0.00     0.173 A 
ATOM    122  C   UNL A   1      49.313  27.003  24.720  1.00  0.00     0.173 A 
ATOM    123  F   UNL A   1      49.635  25.952  28.182  1.00  0.00    -0.203 F 
ATOM    124  C   UNL A   1      51.209  25.916  26.430  1.00  0.00     0.198 A 
ATOM    125  C   UNL A   1      50.590  26.703  24.250  1.00  0.00     0.198 A 
ATOM    126  F   UNL A   1      48.419  27.532  23.873  1.00  0.00    -0.203 F 
ATOM    127  F   UNL A   1      52.130  25.421  27.268  1.00  0.00    -0.200 F 
ATOM    128  C   UNL A   1      51.539  26.166  25.107  1.00  0.00     0.200 A 
ATOM    129  F   UNL A   1      50.902  26.936  22.967  1.00  0.00    -0.200 F 
ATOM    130  F   UNL A   1      52.773  25.898  24.659  1.00  0.00    -0.200 F 
ENDBRANCH  92 120
BRANCH 107 131
ATOM    131  C   UNL A   1      46.049  32.466  28.762  1.00  0.00     0.064 A 
ATOM    132  C   UNL A   1      46.663  32.756  29.989  1.00  0.00     0.173 A 
ATOM    133  C   UNL A   1      45.987  33.486  27.799  1.00  0.00     0.173 A 
ATOM    134  F   UNL A   1      46.731  31.820  30.948  1.00  0.00    -0.203 F 
ATOM    135  C   UNL A   1      47.175  34.024  30.250  1.00  0.00     0.198 A 
ATOM    136  C   UNL A   1      46.524  34.743  28.054  1.00  0.00     0.198 A 
ATOM    137  F   UNL A   1      45.415  33.256  26.608  1.00  0.00    -0.203 F 
ATOM    138  F   UNL A   1      47.719  34.292  31.445  1.00  0.00    -0.200 F 
ATOM    139  C   UNL A   1      47.112  35.014  29.280  1.00  0.00     0.200 A 
ATOM    140  F   UNL A   1      46.472  35.696  27.112  1.00  0.00    -0.200 F 
ATOM    141  F   UNL A   1      47.611  36.232  29.531  1.00  0.00    -0.200 F 
ENDBRANCH 107 131
ENDBRANCH  72  75
ENDBRANCH  62  65
ENDBRANCH  58  61
ENDBRANCH  55  58
ENDBRANCH  52  55
ENDBRANCH  49  52
ENDBRANCH   1  49
TORSDOF 20
ENDMDL
MODEL 2
REMARK VINA RESULT:     -12.0      4.451      8.721
REMARK SMILES COc1ccc(-c2noc(CC(=O)NCCCCCCNC(=O)c3ccc(-c4c5nc(c(-c6c(F)c(F)c(F)c(F)c6F)c6ccc([nH]6)c(-c6c(F)c(F)c(F)c(F)c6F)c6nc(c(-c7c(F)c(F)c(F)c(F)c7F)c7ccc4[nH]7)C=C6)C=C5)cc3)c2-c2ccc(OC)cc2)cc1
REMARK SMILES IDX 16 1 15 4 14 7 12 8 13 9 11 11 10 14 7 15 8 16 87 17 9 18
REMARK SMILES IDX 6 19 3 20 4 21 97 22 5 23 96 25 2 29 1 30 88 34 89 35 95 36
REMARK SMILES IDX 90 37 94 39 91 41 92 44 93 45 17 49 18 52 19 55 20 58 21 61
REMARK SMILES IDX 22 62 23 64 24 65 25 66 86 67 26 68 85 70 27 72 28 75 29 76
REMARK SMILES IDX 79 77 30 78 84 79 78 80 80 81 31 82 83 83 77 85 76 87 32 89
REMARK SMILES IDX 64 92 44 93 63 94 45 95 48 96 62 97 81 98 46 99 47 101
REMARK SMILES IDX 61 103 82 104 49 107 33 109 34 110 42 111 35 112 36 113
REMARK SMILES IDX 40 114 43 115 37 116 38 117 41 118 39 119 65 120 66 121
REMARK SMILES IDX 74 122 67 123 68 124 72 125 75 126 69 127 70 128 73 129
REMARK SMILES IDX 71 130 50 131 51 132 59 133 52 134 53 135 57 136 60 137
REMARK SMILES IDX 54 138 55 139 58 140 56 141
REMARK H PARENT 16 2 16 3 15 5 15 6 14 10 11 12 11 13 4 24 97 26 5 27 96 28
REMARK H PARENT 1 31 1 32 1 33 89 38 95 40 90 42 94 43 93 46 93 47 93 48 17 50
REMARK H PARENT 17 51 18 53 18 54 19 56 19 57 20 59 20 60 21 63 25 69 86 71
REMARK H PARENT 26 73 85 74 84 84 78 86 80 88 83 90 77 91 45 100 48 102 81 105
REMARK H PARENT 46 106 82 108
REMARK Flexibility Score: inf
ROOT
ATOM      1  C   UNL A   1      30.371  28.734  22.990  1.00  0.00    -0.036 C 
ATOM      2  H   UNL A   1      29.333  28.992  23.025  1.00  0.00     0.028 H 
ATOM      3  H   UNL A   1      30.884  29.226  22.189  1.00  0.00     0.028 H 
ENDROOT
BRANCH   1   4
ATOM      4  C   UNL A   1      30.488  27.230  22.742  1.00  0.00     0.017 C 
ATOM      5  H   UNL A   1      30.735  26.741  23.662  1.00  0.00     0.049 H 
ATOM      6  H   UNL A   1      29.553  26.870  22.368  1.00  0.00     0.049 H 
BRANCH   4   7
ATOM      7  N   UNL A   1      31.519  26.947  21.763  1.00  0.00    -0.356 N 
ATOM      8  C   UNL A   1      32.755  26.400  21.954  1.00  0.00     0.227 C 
ATOM      9  O   UNL A   1      33.521  26.343  20.990  1.00  0.00    -0.275 OA
ATOM     10  H   UNL A   1      31.297  27.182  20.834  1.00  0.00     0.163 HD
BRANCH   8  11
ATOM     11  C   UNL A   1      33.120  25.783  23.288  1.00  0.00     0.088 C 
ATOM     12  H   UNL A   1      34.179  25.860  23.422  1.00  0.00     0.045 H 
ATOM     13  H   UNL A   1      32.584  26.315  24.045  1.00  0.00     0.045 H 
BRANCH  11  14
ATOM     14  C   UNL A   1      32.734  24.355  23.388  1.00  0.00     0.154 A 
ATOM     15  C   UNL A   1      32.385  22.183  23.672  1.00  0.00     0.122 A 
ATOM     16  N   UNL A   1      31.288  22.666  23.071  1.00  0.00    -0.079 NA
ATOM     17  C   UNL A   1      33.347  23.217  23.872  1.00  0.00     0.053 A 
ATOM     18  O   UNL A   1      31.499  24.023  22.920  1.00  0.00    -0.360 OA
BRANCH  15  19
ATOM     19  C   UNL A   1      32.500  20.781  24.050  1.00  0.00     0.005 A 
ATOM     20  C   UNL A   1      32.645  18.074  24.758  1.00  0.00     0.118 A 
ATOM     21  C   UNL A   1      32.791  19.064  25.731  1.00  0.00    -0.019 A 
ATOM     22  C   UNL A   1      32.399  18.433  23.434  1.00  0.00    -0.019 A 
ATOM     23  C   UNL A   1      32.736  20.416  25.379  1.00  0.00    -0.049 A 
ATOM     24  H   UNL A   1      32.940  18.796  26.717  1.00  0.00     0.066 H 
ATOM     25  C   UNL A   1      32.329  19.783  23.081  1.00  0.00    -0.049 A 
ATOM     26  H   UNL A   1      32.268  17.704  22.716  1.00  0.00     0.066 H 
ATOM     27  H   UNL A   1      32.870  21.143  26.100  1.00  0.00     0.063 H 
ATOM     28  H   UNL A   1      32.150  20.048  22.100  1.00  0.00     0.063 H 
BRANCH  20  29
ATOM     29  O   UNL A   1      32.708  16.781  25.200  1.00  0.00    -0.497 OA
BRANCH  29  30
ATOM     30  C   UNL A   1      33.693  15.991  24.539  1.00  0.00     0.078 C 
ATOM     31  H   UNL A   1      33.408  15.847  23.517  1.00  0.00     0.067 H 
ATOM     32  H   UNL A   1      33.772  15.041  25.023  1.00  0.00     0.067 H 
ATOM     33  H   UNL A   1      34.637  16.492  24.577  1.00  0.00     0.067 H 
ENDBRANCH  29  30
ENDBRANCH  20  29
ENDBRANCH  15  19
BRANCH  17  34
ATOM     34  C   UNL A   1      34.705  23.145  24.377  1.00  0.00    -0.012 A 
ATOM     35  C   UNL A   1      35.002  23.689  25.633  1.00  0.00    -0.050 A 
ATOM     36  C   UNL A   1      35.726  22.547  23.634  1.00  0.00    -0.050 A 
ATOM     37  C   UNL A   1      36.299  23.618  26.140  1.00  0.00    -0.019 A 
ATOM     38  H   UNL A   1      34.258  24.143  26.185  1.00  0.00     0.063 H 
ATOM     39  C   UNL A   1      37.029  22.479  24.147  1.00  0.00    -0.019 A 
ATOM     40  H   UNL A   1      35.521  22.153  22.703  1.00  0.00     0.063 H 
ATOM     41  C   UNL A   1      37.319  23.013  25.404  1.00  0.00     0.118 A 
ATOM     42  H   UNL A   1      36.507  24.016  27.070  1.00  0.00     0.066 H 
ATOM     43  H   UNL A   1      37.777  22.032  23.594  1.00  0.00     0.066 H 
BRANCH  41  44
ATOM     44  O   UNL A   1      38.538  23.011  26.020  1.00  0.00    -0.497 OA
BRANCH  44  45
ATOM     45  C   UNL A   1      39.244  21.776  26.050  1.00  0.00     0.078 C 
ATOM     46  H   UNL A   1      39.560  21.571  27.052  1.00  0.00     0.067 H 
ATOM     47  H   UNL A   1      40.100  21.839  25.412  1.00  0.00     0.067 H 
ATOM     48  H   UNL A   1      38.603  20.990  25.711  1.00  0.00     0.067 H 
ENDBRANCH  44  45
ENDBRANCH  41  44
ENDBRANCH  17  34
ENDBRANCH  11  14
ENDBRANCH   8  11
ENDBRANCH   4   7
ENDBRANCH   1   4
BRANCH   1  49
ATOM     49  C   UNL A   1      31.030  29.194  24.297  1.00  0.00    -0.052 C 
ATOM     50  H   UNL A   1      30.378  29.901  24.766  1.00  0.00     0.027 H 
ATOM     51  H   UNL A   1      31.979  29.605  24.025  1.00  0.00     0.027 H 
BRANCH  49  52
ATOM     52  C   UNL A   1      31.321  28.074  25.304  1.00  0.00    -0.052 C 
ATOM     53  H   UNL A   1      31.579  27.193  24.755  1.00  0.00     0.027 H 
ATOM     54  H   UNL A   1      30.434  27.966  25.894  1.00  0.00     0.027 H 
BRANCH  52  55
ATOM     55  C   UNL A   1      32.456  28.365  26.291  1.00  0.00    -0.036 C 
ATOM     56  H   UNL A   1      32.970  27.447  26.487  1.00  0.00     0.028 H 
ATOM     57  H   UNL A   1      31.999  28.786  27.161  1.00  0.00     0.028 H 
BRANCH  55  58
ATOM     58  C   UNL A   1      33.479  29.387  25.804  1.00  0.00     0.018 C 
ATOM     59  H   UNL A   1      33.547  29.328  24.739  1.00  0.00     0.049 H 
ATOM     60  H   UNL A   1      34.418  29.161  26.266  1.00  0.00     0.049 H 
BRANCH  58  61
ATOM     61  N   UNL A   1      33.113  30.745  26.176  1.00  0.00    -0.352 N 
ATOM     62  C   UNL A   1      33.611  31.545  27.170  1.00  0.00     0.251 C 
ATOM     63  H   UNL A   1      32.401  31.150  25.631  1.00  0.00     0.163 HD
ATOM     64  O   UNL A   1      33.038  32.597  27.457  1.00  0.00    -0.269 OA
BRANCH  62  65
ATOM     65  C   UNL A   1      34.824  31.151  27.917  1.00  0.00     0.039 A 
ATOM     66  C   UNL A   1      34.827  29.931  28.599  1.00  0.00    -0.049 A 
ATOM     67  C   UNL A   1      35.937  31.995  27.987  1.00  0.00    -0.049 A 
ATOM     68  C   UNL A   1      35.962  29.534  29.311  1.00  0.00    -0.053 A 
ATOM     69  H   UNL A   1      33.993  29.324  28.577  1.00  0.00     0.063 H 
ATOM     70  C   UNL A   1      37.090  31.572  28.647  1.00  0.00    -0.053 A 
ATOM     71  H   UNL A   1      35.905  32.929  27.550  1.00  0.00     0.063 H 
ATOM     72  C   UNL A   1      37.111  30.341  29.320  1.00  0.00    -0.014 A 
ATOM     73  H   UNL A   1      35.956  28.643  29.831  1.00  0.00     0.063 H 
ATOM     74  H   UNL A   1      37.933  32.167  28.639  1.00  0.00     0.063 H 
BRANCH  72  75
ATOM     75  C   UNL A   1      38.337  29.915  30.040  1.00  0.00     0.031 A 
ATOM     76  C   UNL A   1      38.626  30.441  31.418  1.00  0.00     0.074 A 
ATOM     77  C   UNL A   1      39.214  29.096  29.433  1.00  0.00     0.049 A 
ATOM     78  N   UNL A   1      39.665  30.226  32.185  1.00  0.00    -0.248 NA
ATOM     79  C   UNL A   1      37.624  31.344  32.004  1.00  0.00    -0.034 C 
ATOM     80  C   UNL A   1      39.067  28.553  28.081  1.00  0.00    -0.036 A 
ATOM     81  N   UNL A   1      40.409  28.582  29.869  1.00  0.00    -0.354 N 
ATOM     82  C   UNL A   1      39.449  30.976  33.333  1.00  0.00     0.074 A 
ATOM     83  C   UNL A   1      38.203  31.689  33.145  1.00  0.00    -0.034 C 
ATOM     84  H   UNL A   1      36.709  31.636  31.626  1.00  0.00     0.065 H 
ATOM     85  C   UNL A   1      40.120  27.767  27.806  1.00  0.00    -0.036 A 
ATOM     86  H   UNL A   1      38.278  28.743  27.443  1.00  0.00     0.065 H 
ATOM     87  C   UNL A   1      41.031  27.775  28.948  1.00  0.00     0.049 A 
ATOM     88  H   UNL A   1      40.785  28.774  30.758  1.00  0.00     0.167 HD
ATOM     89  C   UNL A   1      40.210  31.049  34.450  1.00  0.00     0.037 A 
ATOM     90  H   UNL A   1      37.817  32.375  33.812  1.00  0.00     0.065 H 
ATOM     91  H   UNL A   1      40.264  27.242  26.930  1.00  0.00     0.065 H 
ATOM     92  C   UNL A   1      42.204  27.119  29.017  1.00  0.00     0.037 A 
ATOM     93  C   UNL A   1      41.435  30.318  34.648  1.00  0.00     0.049 A 
ATOM     94  C   UNL A   1      43.028  27.212  30.271  1.00  0.00     0.074 A 
ATOM     95  C   UNL A   1      42.247  30.280  35.768  1.00  0.00    -0.036 A 
ATOM     96  N   UNL A   1      42.024  29.496  33.699  1.00  0.00    -0.354 N 
ATOM     97  N   UNL A   1      42.783  27.876  31.375  1.00  0.00    -0.248 NA
ATOM     98  C   UNL A   1      44.291  26.461  30.291  1.00  0.00    -0.034 C 
ATOM     99  C   UNL A   1      43.346  29.461  35.484  1.00  0.00    -0.036 A 
ATOM    100  H   UNL A   1      42.072  30.769  36.660  1.00  0.00     0.065 H 
ATOM    101  C   UNL A   1      43.198  28.959  34.202  1.00  0.00     0.049 A 
ATOM    102  H   UNL A   1      41.661  29.321  32.800  1.00  0.00     0.167 HD
ATOM    103  C   UNL A   1      43.843  27.602  32.227  1.00  0.00     0.074 A 
ATOM    104  C   UNL A   1      44.729  26.701  31.519  1.00  0.00    -0.034 C 
ATOM    105  H   UNL A   1      44.724  25.894  29.545  1.00  0.00     0.065 H 
ATOM    106  H   UNL A   1      44.134  29.267  36.121  1.00  0.00     0.065 H 
ATOM    107  C   UNL A   1      44.063  28.057  33.485  1.00  0.00     0.037 A 
ATOM    108  H   UNL A   1      45.589  26.297  31.920  1.00  0.00     0.065 H 
BRANCH  89 109
ATOM    109  C   UNL A   1      39.736  31.946  35.555  1.00  0.00     0.064 A 
ATOM    110  C   UNL A   1      38.770  31.521  36.482  1.00  0.00     0.173 A 
ATOM    111  C   UNL A   1      40.276  33.231  35.714  1.00  0.00     0.173 A 
ATOM    112  F   UNL A   1      38.215  30.306  36.367  1.00  0.00    -0.203 F 
ATOM    113  C   UNL A   1      38.346  32.360  37.509  1.00  0.00     0.198 A 
ATOM    114  C   UNL A   1      39.870  34.056  36.758  1.00  0.00     0.198 A 
ATOM    115  F   UNL A   1      41.207  33.684  34.860  1.00  0.00    -0.203 F 
ATOM    116  F   UNL A   1      37.390  31.948  38.355  1.00  0.00    -0.200 F 
ATOM    117  C   UNL A   1      38.899  33.623  37.651  1.00  0.00     0.200 A 
ATOM    118  F   UNL A   1      40.414  35.272  36.902  1.00  0.00    -0.200 F 
ATOM    119  F   UNL A   1      38.494  34.427  38.644  1.00  0.00    -0.200 F 
ENDBRANCH  89 109
BRANCH  92 120
ATOM    120  C   UNL A   1      42.655  26.288  27.871  1.00  0.00     0.064 A 
ATOM    121  C   UNL A   1      42.244  24.953  27.748  1.00  0.00     0.173 A 
ATOM    122  C   UNL A   1      43.503  26.805  26.882  1.00  0.00     0.173 A 
ATOM    123  F   UNL A   1      41.450  24.409  28.682  1.00  0.00    -0.203 F 
ATOM    124  C   UNL A   1      42.678  24.163  26.687  1.00  0.00     0.198 A 
ATOM    125  C   UNL A   1      43.916  26.020  25.808  1.00  0.00     0.198 A 
ATOM    126  F   UNL A   1      43.920  28.077  26.953  1.00  0.00    -0.203 F 
ATOM    127  F   UNL A   1      42.303  22.878  26.615  1.00  0.00    -0.200 F 
ATOM    128  C   UNL A   1      43.509  24.698  25.715  1.00  0.00     0.200 A 
ATOM    129  F   UNL A   1      44.710  26.544  24.863  1.00  0.00    -0.200 F 
ATOM    130  F   UNL A   1      43.924  23.938  24.692  1.00  0.00    -0.200 F 
ENDBRANCH  92 120
BRANCH 107 131
ATOM    131  C   UNL A   1      45.293  27.564  34.188  1.00  0.00     0.064 A 
ATOM    132  C   UNL A   1      46.506  28.264  34.123  1.00  0.00     0.173 A 
ATOM    133  C   UNL A   1      45.246  26.396  34.965  1.00  0.00     0.173 A 
ATOM    134  F   UNL A   1      46.604  29.377  33.378  1.00  0.00    -0.203 F 
ATOM    135  C   UNL A   1      47.635  27.802  34.793  1.00  0.00     0.198 A 
ATOM    136  C   UNL A   1      46.370  25.952  35.655  1.00  0.00     0.198 A 
ATOM    137  F   UNL A   1      44.108  25.694  35.063  1.00  0.00    -0.203 F 
ATOM    138  F   UNL A   1      48.795  28.464  34.682  1.00  0.00    -0.200 F 
ATOM    139  C   UNL A   1      47.564  26.652  35.564  1.00  0.00     0.200 A 
ATOM    140  F   UNL A   1      46.298  24.845  36.408  1.00  0.00    -0.200 F 
ATOM    141  F   UNL A   1      48.651  26.211  36.213  1.00  0.00    -0.200 F 
ENDBRANCH 107 131
ENDBRANCH  72  75
ENDBRANCH  62  65
ENDBRANCH  58  61
ENDBRANCH  55  58
ENDBRANCH  52  55
ENDBRANCH  49  52
ENDBRANCH   1  49
TORSDOF 20
ENDMDL
MODEL 3
REMARK VINA RESULT:     -11.9      5.216     11.195
REMARK SMILES COc1ccc(-c2noc(CC(=O)NCCCCCCNC(=O)c3ccc(-c4c5nc(c(-c6c(F)c(F)c(F)c(F)c6F)c6ccc([nH]6)c(-c6c(F)c(F)c(F)c(F)c6F)c6nc(c(-c7c(F)c(F)c(F)c(F)c7F)c7ccc4[nH]7)C=C6)C=C5)cc3)c2-c2ccc(OC)cc2)cc1
REMARK SMILES IDX 16 1 15 4 14 7 12 8 13 9 11 11 10 14 7 15 8 16 87 17 9 18
REMARK SMILES IDX 6 19 3 20 4 21 97 22 5 23 96 25 2 29 1 30 88 34 89 35 95 36
REMARK SMILES IDX 90 37 94 39 91 41 92 44 93 45 17 49 18 52 19 55 20 58 21 61
REMARK SMILES IDX 22 62 23 64 24 65 25 66 86 67 26 68 85 70 27 72 28 75 29 76
REMARK SMILES IDX 79 77 30 78 84 79 78 80 80 81 31 82 83 83 77 85 76 87 32 89
REMARK SMILES IDX 64 92 44 93 63 94 45 95 48 96 62 97 81 98 46 99 47 101
REMARK SMILES IDX 61 103 82 104 49 107 33 109 34 110 42 111 35 112 36 113
REMARK SMILES IDX 40 114 43 115 37 116 38 117 41 118 39 119 65 120 66 121
REMARK SMILES IDX 74 122 67 123 68 124 72 125 75 126 69 127 70 128 73 129
REMARK SMILES IDX 71 130 50 131 51 132 59 133 52 134 53 135 57 136 60 137
REMARK SMILES IDX 54 138 55 139 58 140 56 141
REMARK H PARENT 16 2 16 3 15 5 15 6 14 10 11 12 11 13 4 24 97 26 5 27 96 28
REMARK H PARENT 1 31 1 32 1 33 89 38 95 40 90 42 94 43 93 46 93 47 93 48 17 50
REMARK H PARENT 17 51 18 53 18 54 19 56 19 57 20 59 20 60 21 63 25 69 86 71
REMARK H PARENT 26 73 85 74 84 84 78 86 80 88 83 90 77 91 45 100 48 102 81 105
REMARK H PARENT 46 106 82 108
REMARK Flexibility Score: inf
ROOT
ATOM      1  C   UNL A   1      32.492  28.152  26.524  1.00  0.00    -0.036 C 
ATOM      2  H   UNL A   1      33.199  28.432  25.771  1.00  0.00     0.028 H 
ATOM      3  H   UNL A   1      32.961  27.694  27.371  1.00  0.00     0.028 H 
ENDROOT
BRANCH   1   4
ATOM      4  C   UNL A   1      31.534  27.120  25.929  1.00  0.00     0.017 C 
ATOM      5  H   UNL A   1      31.956  26.143  26.043  1.00  0.00     0.049 H 
ATOM      6  H   UNL A   1      30.599  27.183  26.445  1.00  0.00     0.049 H 
BRANCH   4   7
ATOM      7  N   UNL A   1      31.305  27.377  24.522  1.00  0.00    -0.356 N 
ATOM      8  C   UNL A   1      32.077  27.031  23.451  1.00  0.00     0.227 C 
ATOM      9  O   UNL A   1      31.747  27.444  22.338  1.00  0.00    -0.275 OA
ATOM     10  H   UNL A   1      30.481  27.871  24.310  1.00  0.00     0.163 HD
BRANCH   8  11
ATOM     11  C   UNL A   1      33.238  26.073  23.623  1.00  0.00     0.088 C 
ATOM     12  H   UNL A   1      33.937  26.237  22.830  1.00  0.00     0.045 H 
ATOM     13  H   UNL A   1      33.672  26.263  24.582  1.00  0.00     0.045 H 
BRANCH  11  14
ATOM     14  C   UNL A   1      32.820  24.650  23.599  1.00  0.00     0.154 A 
ATOM     15  C   UNL A   1      32.422  22.470  23.695  1.00  0.00     0.122 A 
ATOM     16  N   UNL A   1      31.344  23.026  23.126  1.00  0.00    -0.079 NA
ATOM     17  C   UNL A   1      33.403  23.462  23.992  1.00  0.00     0.053 A 
ATOM     18  O   UNL A   1      31.585  24.386  23.091  1.00  0.00    -0.360 OA
BRANCH  15  19
ATOM     19  C   UNL A   1      32.503  21.040  23.955  1.00  0.00     0.005 A 
ATOM     20  C   UNL A   1      32.581  18.281  24.439  1.00  0.00     0.118 A 
ATOM     21  C   UNL A   1      32.801  19.184  25.481  1.00  0.00    -0.019 A 
ATOM     22  C   UNL A   1      32.294  18.753  23.160  1.00  0.00    -0.019 A 
ATOM     23  C   UNL A   1      32.780  20.561  25.240  1.00  0.00    -0.049 A 
ATOM     24  H   UNL A   1      32.980  18.832  26.435  1.00  0.00     0.066 H 
ATOM     25  C   UNL A   1      32.258  20.129  22.919  1.00  0.00    -0.049 A 
ATOM     26  H   UNL A   1      32.108  18.089  22.392  1.00  0.00     0.066 H 
ATOM     27  H   UNL A   1      32.968  21.222  26.009  1.00  0.00     0.063 H 
ATOM     28  H   UNL A   1      32.049  20.478  21.970  1.00  0.00     0.063 H 
BRANCH  20  29
ATOM     29  O   UNL A   1      32.616  16.955  24.774  1.00  0.00    -0.497 OA
BRANCH  29  30
ATOM     30  C   UNL A   1      33.689  16.235  24.173  1.00  0.00     0.078 C 
ATOM     31  H   UNL A   1      33.356  15.254  23.907  1.00  0.00     0.067 H 
ATOM     32  H   UNL A   1      34.501  16.159  24.866  1.00  0.00     0.067 H 
ATOM     33  H   UNL A   1      34.017  16.751  23.294  1.00  0.00     0.067 H 
ENDBRANCH  29  30
ENDBRANCH  20  29
ENDBRANCH  15  19
BRANCH  17  34
ATOM     34  C   UNL A   1      34.753  23.319  24.503  1.00  0.00    -0.012 A 
ATOM     35  C   UNL A   1      35.698  22.601  23.759  1.00  0.00    -0.050 A 
ATOM     36  C   UNL A   1      35.131  23.879  25.725  1.00  0.00    -0.050 A 
ATOM     37  C   UNL A   1      37.004  22.463  24.228  1.00  0.00    -0.019 A 
ATOM     38  H   UNL A   1      35.426  22.173  22.860  1.00  0.00     0.063 H 
ATOM     39  C   UNL A   1      36.445  23.738  26.194  1.00  0.00    -0.019 A 
ATOM     40  H   UNL A   1      34.440  24.401  26.287  1.00  0.00     0.063 H 
ATOM     41  C   UNL A   1      37.386  23.030  25.445  1.00  0.00     0.118 A 
ATOM     42  H   UNL A   1      37.696  21.937  23.670  1.00  0.00     0.066 H 
ATOM     43  H   UNL A   1      36.717  24.158  27.096  1.00  0.00     0.066 H 
BRANCH  41  44
ATOM     44  O   UNL A   1      38.694  22.821  25.782  1.00  0.00    -0.497 OA
BRANCH  44  45
ATOM     45  C   UNL A   1      39.132  21.470  25.859  1.00  0.00     0.078 C 
ATOM     46  H   UNL A   1      38.311  20.817  25.647  1.00  0.00     0.067 H 
ATOM     47  H   UNL A   1      39.502  21.271  26.842  1.00  0.00     0.067 H 
ATOM     48  H   UNL A   1      39.911  21.306  25.144  1.00  0.00     0.067 H 
ENDBRANCH  44  45
ENDBRANCH  41  44
ENDBRANCH  17  34
ENDBRANCH  11  14
ENDBRANCH   8  11
ENDBRANCH   4   7
ENDBRANCH   1   4
BRANCH   1  49
ATOM     49  C   UNL A   1      31.791  29.421  27.028  1.00  0.00    -0.052 C 
ATOM     50  H   UNL A   1      32.370  29.821  27.834  1.00  0.00     0.027 H 
ATOM     51  H   UNL A   1      30.806  29.123  27.319  1.00  0.00     0.027 H 
BRANCH  49  52
ATOM     52  C   UNL A   1      31.613  30.523  25.977  1.00  0.00    -0.052 C 
ATOM     53  H   UNL A   1      30.741  30.293  25.400  1.00  0.00     0.027 H 
ATOM     54  H   UNL A   1      32.515  30.535  25.402  1.00  0.00     0.027 H 
BRANCH  52  55
ATOM     55  C   UNL A   1      31.448  31.938  26.539  1.00  0.00    -0.036 C 
ATOM     56  H   UNL A   1      30.616  31.935  27.212  1.00  0.00     0.028 H 
ATOM     57  H   UNL A   1      31.306  32.583  25.697  1.00  0.00     0.028 H 
BRANCH  55  58
ATOM     58  C   UNL A   1      32.664  32.473  27.290  1.00  0.00     0.018 C 
ATOM     59  H   UNL A   1      33.530  32.356  26.672  1.00  0.00     0.049 H 
ATOM     60  H   UNL A   1      32.760  31.919  28.201  1.00  0.00     0.049 H 
BRANCH  58  61
ATOM     61  N   UNL A   1      32.519  33.879  27.633  1.00  0.00    -0.352 N 
ATOM     62  C   UNL A   1      33.154  34.614  28.598  1.00  0.00     0.251 C 
ATOM     63  H   UNL A   1      31.867  34.377  27.090  1.00  0.00     0.163 HD
ATOM     64  O   UNL A   1      32.756  35.749  28.868  1.00  0.00    -0.269 OA
BRANCH  62  65
ATOM     65  C   UNL A   1      34.306  34.055  29.335  1.00  0.00     0.039 A 
ATOM     66  C   UNL A   1      34.064  33.197  30.412  1.00  0.00    -0.049 A 
ATOM     67  C   UNL A   1      35.618  34.405  29.002  1.00  0.00    -0.049 A 
ATOM     68  C   UNL A   1      35.135  32.653  31.124  1.00  0.00    -0.053 A 
ATOM     69  H   UNL A   1      33.095  32.966  30.681  1.00  0.00     0.063 H 
ATOM     70  C   UNL A   1      36.688  33.815  29.673  1.00  0.00    -0.053 A 
ATOM     71  H   UNL A   1      35.794  35.099  28.258  1.00  0.00     0.063 H 
ATOM     72  C   UNL A   1      36.457  32.940  30.745  1.00  0.00    -0.014 A 
ATOM     73  H   UNL A   1      34.955  32.037  31.932  1.00  0.00     0.063 H 
ATOM     74  H   UNL A   1      37.655  34.024  29.380  1.00  0.00     0.063 H 
BRANCH  72  75
ATOM     75  C   UNL A   1      37.606  32.339  31.467  1.00  0.00     0.031 A 
ATOM     76  C   UNL A   1      38.354  31.181  30.868  1.00  0.00     0.074 A 
ATOM     77  C   UNL A   1      37.942  32.803  32.685  1.00  0.00     0.049 A 
ATOM     78  N   UNL A   1      39.349  30.492  31.368  1.00  0.00    -0.248 NA
ATOM     79  C   UNL A   1      37.913  30.725  29.542  1.00  0.00    -0.034 C 
ATOM     80  C   UNL A   1      37.265  33.892  33.390  1.00  0.00    -0.036 A 
ATOM     81  N   UNL A   1      38.932  32.411  33.550  1.00  0.00    -0.354 N 
ATOM     82  C   UNL A   1      39.642  29.515  30.425  1.00  0.00     0.074 A 
ATOM     83  C   UNL A   1      38.690  29.670  29.345  1.00  0.00    -0.034 C 
ATOM     84  H   UNL A   1      37.187  31.121  28.925  1.00  0.00     0.065 H 
ATOM     85  C   UNL A   1      37.872  34.095  34.570  1.00  0.00    -0.036 A 
ATOM     86  H   UNL A   1      36.452  34.421  33.036  1.00  0.00     0.065 H 
ATOM     87  C   UNL A   1      38.958  33.131  34.719  1.00  0.00     0.049 A 
ATOM     88  H   UNL A   1      39.564  31.683  33.351  1.00  0.00     0.167 HD
ATOM     89  C   UNL A   1      40.626  28.586  30.449  1.00  0.00     0.037 A 
ATOM     90  H   UNL A   1      38.626  29.041  28.530  1.00  0.00     0.065 H 
ATOM     91  H   UNL A   1      37.612  34.815  35.262  1.00  0.00     0.065 H 
ATOM     92  C   UNL A   1      39.767  33.023  35.790  1.00  0.00     0.037 A 
ATOM     93  C   UNL A   1      41.589  28.450  31.511  1.00  0.00     0.049 A 
ATOM     94  C   UNL A   1      40.856  31.985  35.789  1.00  0.00     0.074 A 
ATOM     95  C   UNL A   1      42.661  27.579  31.599  1.00  0.00    -0.036 A 
ATOM     96  N   UNL A   1      41.595  29.211  32.671  1.00  0.00    -0.354 N 
ATOM     97  N   UNL A   1      41.162  31.108  34.865  1.00  0.00    -0.248 NA
ATOM     98  C   UNL A   1      41.716  31.928  36.980  1.00  0.00    -0.034 C 
ATOM     99  C   UNL A   1      43.295  27.788  32.829  1.00  0.00    -0.036 A 
ATOM    100  H   UNL A   1      42.945  26.893  30.882  1.00  0.00     0.065 H 
ATOM    101  C   UNL A   1      42.642  28.816  33.489  1.00  0.00     0.049 A 
ATOM    102  H   UNL A   1      40.951  29.924  32.882  1.00  0.00     0.167 HD
ATOM    103  C   UNL A   1      42.262  30.413  35.348  1.00  0.00     0.074 A 
ATOM    104  C   UNL A   1      42.579  30.980  36.643  1.00  0.00    -0.034 C 
ATOM    105  H   UNL A   1      41.661  32.480  37.850  1.00  0.00     0.065 H 
ATOM    106  H   UNL A   1      44.109  27.263  33.185  1.00  0.00     0.065 H 
ATOM    107  C   UNL A   1      42.948  29.397  34.771  1.00  0.00     0.037 A 
ATOM    108  H   UNL A   1      43.376  30.684  37.228  1.00  0.00     0.065 H 
BRANCH  89 109
ATOM    109  C   UNL A   1      40.719  27.644  29.286  1.00  0.00     0.064 A 
ATOM    110  C   UNL A   1      41.687  27.810  28.283  1.00  0.00     0.173 A 
ATOM    111  C   UNL A   1      39.856  26.542  29.188  1.00  0.00     0.173 A 
ATOM    112  F   UNL A   1      42.528  28.853  28.324  1.00  0.00    -0.203 F 
ATOM    113  C   UNL A   1      41.770  26.923  27.213  1.00  0.00     0.198 A 
ATOM    114  C   UNL A   1      39.959  25.641  28.132  1.00  0.00     0.198 A 
ATOM    115  F   UNL A   1      38.917  26.333  30.124  1.00  0.00    -0.203 F 
ATOM    116  F   UNL A   1      42.673  27.127  26.244  1.00  0.00    -0.200 F 
ATOM    117  C   UNL A   1      40.911  25.836  27.141  1.00  0.00     0.200 A 
ATOM    118  F   UNL A   1      39.137  24.585  28.069  1.00  0.00    -0.200 F 
ATOM    119  F   UNL A   1      40.996  24.980  26.113  1.00  0.00    -0.200 F 
ENDBRANCH  89 109
BRANCH  92 120
ATOM    120  C   UNL A   1      39.596  33.945  36.941  1.00  0.00     0.064 A 
ATOM    121  C   UNL A   1      38.832  33.567  38.054  1.00  0.00     0.173 A 
ATOM    122  C   UNL A   1      40.188  35.216  36.954  1.00  0.00     0.173 A 
ATOM    123  F   UNL A   1      38.229  32.370  38.077  1.00  0.00    -0.203 F 
ATOM    124  C   UNL A   1      38.652  34.435  39.130  1.00  0.00     0.198 A 
ATOM    125  C   UNL A   1      40.027  36.072  38.042  1.00  0.00     0.198 A 
ATOM    126  F   UNL A   1      40.931  35.621  35.915  1.00  0.00    -0.203 F 
ATOM    127  F   UNL A   1      37.883  34.065  40.163  1.00  0.00    -0.200 F 
ATOM    128  C   UNL A   1      39.253  35.683  39.126  1.00  0.00     0.200 A 
ATOM    129  F   UNL A   1      40.620  37.274  38.039  1.00  0.00    -0.200 F 
ATOM    130  F   UNL A   1      39.083  36.516  40.161  1.00  0.00    -0.200 F 
ENDBRANCH  92 120
BRANCH 107 131
ATOM    131  C   UNL A   1      44.127  28.853  35.521  1.00  0.00     0.064 A 
ATOM    132  C   UNL A   1      45.418  29.368  35.331  1.00  0.00     0.173 A 
ATOM    133  C   UNL A   1      43.958  27.830  36.466  1.00  0.00     0.173 A 
ATOM    134  F   UNL A   1      45.632  30.335  34.426  1.00  0.00    -0.203 F 
ATOM    135  C   UNL A   1      46.501  28.863  36.046  1.00  0.00     0.198 A 
ATOM    136  C   UNL A   1      45.039  27.346  37.197  1.00  0.00     0.198 A 
ATOM    137  F   UNL A   1      42.742  27.308  36.687  1.00  0.00    -0.203 F 
ATOM    138  F   UNL A   1      47.732  29.340  35.818  1.00  0.00    -0.200 F 
ATOM    139  C   UNL A   1      46.309  27.859  36.983  1.00  0.00     0.200 A 
ATOM    140  F   UNL A   1      44.851  26.382  38.110  1.00  0.00    -0.200 F 
ATOM    141  F   UNL A   1      47.352  27.378  37.673  1.00  0.00    -0.200 F 
ENDBRANCH 107 131
ENDBRANCH  72  75
ENDBRANCH  62  65
ENDBRANCH  58  61
ENDBRANCH  55  58
ENDBRANCH  52  55
ENDBRANCH  49  52
ENDBRANCH   1  49
TORSDOF 20
ENDMDL
MODEL 4
REMARK VINA RESULT:     -11.8      0.734      7.056
REMARK SMILES COc1ccc(-c2noc(CC(=O)NCCCCCCNC(=O)c3ccc(-c4c5nc(c(-c6c(F)c(F)c(F)c(F)c6F)c6ccc([nH]6)c(-c6c(F)c(F)c(F)c(F)c6F)c6nc(c(-c7c(F)c(F)c(F)c(F)c7F)c7ccc4[nH]7)C=C6)C=C5)cc3)c2-c2ccc(OC)cc2)cc1
REMARK SMILES IDX 16 1 15 4 14 7 12 8 13 9 11 11 10 14 7 15 8 16 87 17 9 18
REMARK SMILES IDX 6 19 3 20 4 21 97 22 5 23 96 25 2 29 1 30 88 34 89 35 95 36
REMARK SMILES IDX 90 37 94 39 91 41 92 44 93 45 17 49 18 52 19 55 20 58 21 61
REMARK SMILES IDX 22 62 23 64 24 65 25 66 86 67 26 68 85 70 27 72 28 75 29 76
REMARK SMILES IDX 79 77 30 78 84 79 78 80 80 81 31 82 83 83 77 85 76 87 32 89
REMARK SMILES IDX 64 92 44 93 63 94 45 95 48 96 62 97 81 98 46 99 47 101
REMARK SMILES IDX 61 103 82 104 49 107 33 109 34 110 42 111 35 112 36 113
REMARK SMILES IDX 40 114 43 115 37 116 38 117 41 118 39 119 65 120 66 121
REMARK SMILES IDX 74 122 67 123 68 124 72 125 75 126 69 127 70 128 73 129
REMARK SMILES IDX 71 130 50 131 51 132 59 133 52 134 53 135 57 136 60 137
REMARK SMILES IDX 54 138 55 139 58 140 56 141
REMARK H PARENT 16 2 16 3 15 5 15 6 14 10 11 12 11 13 4 24 97 26 5 27 96 28
REMARK H PARENT 1 31 1 32 1 33 89 38 95 40 90 42 94 43 93 46 93 47 93 48 17 50
REMARK H PARENT 17 51 18 53 18 54 19 56 19 57 20 59 20 60 21 63 25 69 86 71
REMARK H PARENT 26 73 85 74 84 84 78 86 80 88 83 90 77 91 45 100 48 102 81 105
REMARK H PARENT 46 106 82 108
REMARK Flexibility Score: inf
ROOT
ATOM      1  C   UNL A   1      36.189  22.389  23.979  1.00  0.00    -0.036 C 
ATOM      2  H   UNL A   1      36.936  23.153  24.028  1.00  0.00     0.028 H 
ATOM      3  H   UNL A   1      36.341  21.724  23.153  1.00  0.00     0.028 H 
ENDROOT
BRANCH   1   4
ATOM      4  C   UNL A   1      34.827  23.054  23.776  1.00  0.00     0.017 C 
ATOM      5  H   UNL A   1      34.797  23.968  24.333  1.00  0.00     0.049 H 
ATOM      6  H   UNL A   1      34.693  23.249  22.733  1.00  0.00     0.049 H 
BRANCH   4   7
ATOM      7  N   UNL A   1      33.757  22.188  24.228  1.00  0.00    -0.356 N 
ATOM      8  C   UNL A   1      32.800  22.429  25.171  1.00  0.00     0.227 C 
ATOM      9  O   UNL A   1      32.041  21.507  25.479  1.00  0.00    -0.275 OA
ATOM     10  H   UNL A   1      33.715  21.305  23.795  1.00  0.00     0.163 HD
BRANCH   8  11
ATOM     11  C   UNL A   1      32.613  23.823  25.733  1.00  0.00     0.088 C 
ATOM     12  H   UNL A   1      32.230  23.743  26.728  1.00  0.00     0.045 H 
ATOM     13  H   UNL A   1      33.567  24.308  25.712  1.00  0.00     0.045 H 
BRANCH  11  14
ATOM     14  C   UNL A   1      31.678  24.648  24.930  1.00  0.00     0.154 A 
ATOM     15  C   UNL A   1      30.403  26.096  23.836  1.00  0.00     0.122 A 
ATOM     16  N   UNL A   1      30.043  24.877  23.409  1.00  0.00    -0.079 NA
ATOM     17  C   UNL A   1      31.425  26.001  24.826  1.00  0.00     0.053 A 
ATOM     18  O   UNL A   1      30.857  23.981  24.074  1.00  0.00    -0.360 OA
BRANCH  15  19
ATOM     19  C   UNL A   1      29.796  27.308  23.304  1.00  0.00     0.005 A 
ATOM     20  C   UNL A   1      28.583  29.594  22.231  1.00  0.00     0.118 A 
ATOM     21  C   UNL A   1      29.947  29.367  22.040  1.00  0.00    -0.019 A 
ATOM     22  C   UNL A   1      27.816  28.667  22.934  1.00  0.00    -0.019 A 
ATOM     23  C   UNL A   1      30.559  28.236  22.588  1.00  0.00    -0.049 A 
ATOM     24  H   UNL A   1      30.506  30.038  21.490  1.00  0.00     0.066 H 
ATOM     25  C   UNL A   1      28.422  27.528  23.471  1.00  0.00    -0.049 A 
ATOM     26  H   UNL A   1      26.803  28.821  23.057  1.00  0.00     0.066 H 
ATOM     27  H   UNL A   1      31.573  28.087  22.464  1.00  0.00     0.063 H 
ATOM     28  H   UNL A   1      27.854  26.844  23.994  1.00  0.00     0.063 H 
BRANCH  20  29
ATOM     29  O   UNL A   1      28.074  30.724  21.651  1.00  0.00    -0.497 OA
BRANCH  29  30
ATOM     30  C   UNL A   1      28.749  31.921  22.029  1.00  0.00     0.078 C 
ATOM     31  H   UNL A   1      29.200  32.365  21.167  1.00  0.00     0.067 H 
ATOM     32  H   UNL A   1      29.507  31.692  22.748  1.00  0.00     0.067 H 
ATOM     33  H   UNL A   1      28.047  32.607  22.457  1.00  0.00     0.067 H 
ENDBRANCH  29  30
ENDBRANCH  20  29
ENDBRANCH  15  19
BRANCH  17  34
ATOM     34  C   UNL A   1      32.038  27.035  25.638  1.00  0.00    -0.012 A 
ATOM     35  C   UNL A   1      33.276  27.566  25.257  1.00  0.00    -0.050 A 
ATOM     36  C   UNL A   1      31.420  27.511  26.798  1.00  0.00    -0.050 A 
ATOM     37  C   UNL A   1      33.875  28.570  26.018  1.00  0.00    -0.019 A 
ATOM     38  H   UNL A   1      33.747  27.214  24.409  1.00  0.00     0.063 H 
ATOM     39  C   UNL A   1      32.026  28.519  27.561  1.00  0.00    -0.019 A 
ATOM     40  H   UNL A   1      30.513  27.119  27.094  1.00  0.00     0.063 H 
ATOM     41  C   UNL A   1      33.256  29.053  27.172  1.00  0.00     0.118 A 
ATOM     42  H   UNL A   1      34.786  28.960  25.726  1.00  0.00     0.066 H 
ATOM     43  H   UNL A   1      31.561  28.867  28.414  1.00  0.00     0.066 H 
BRANCH  41  44
ATOM     44  O   UNL A   1      33.950  30.036  27.819  1.00  0.00    -0.497 OA
BRANCH  44  45
ATOM     45  C   UNL A   1      33.582  31.380  27.535  1.00  0.00     0.078 C 
ATOM     46  H   UNL A   1      32.718  31.641  28.111  1.00  0.00     0.067 H 
ATOM     47  H   UNL A   1      33.360  31.477  26.494  1.00  0.00     0.067 H 
ATOM     48  H   UNL A   1      34.390  32.032  27.791  1.00  0.00     0.067 H 
ENDBRANCH  44  45
ENDBRANCH  41  44
ENDBRANCH  17  34
ENDBRANCH  11  14
ENDBRANCH   8  11
ENDBRANCH   4   7
ENDBRANCH   1   4
BRANCH   1  49
ATOM     49  C   UNL A   1      36.274  21.544  25.258  1.00  0.00    -0.052 C 
ATOM     50  H   UNL A   1      35.353  21.655  25.790  1.00  0.00     0.027 H 
ATOM     51  H   UNL A   1      37.123  21.905  25.798  1.00  0.00     0.027 H 
BRANCH  49  52
ATOM     52  C   UNL A   1      36.516  20.047  25.031  1.00  0.00    -0.052 C 
ATOM     53  H   UNL A   1      35.917  19.737  24.199  1.00  0.00     0.027 H 
ATOM     54  H   UNL A   1      36.255  19.561  25.948  1.00  0.00     0.027 H 
BRANCH  52  55
ATOM     55  C   UNL A   1      37.968  19.658  24.740  1.00  0.00    -0.036 C 
ATOM     56  H   UNL A   1      38.232  20.049  23.780  1.00  0.00     0.028 H 
ATOM     57  H   UNL A   1      38.010  18.590  24.786  1.00  0.00     0.028 H 
BRANCH  55  58
ATOM     58  C   UNL A   1      38.983  20.172  25.758  1.00  0.00     0.018 C 
ATOM     59  H   UNL A   1      38.490  20.309  26.697  1.00  0.00     0.049 H 
ATOM     60  H   UNL A   1      39.381  21.095  25.390  1.00  0.00     0.049 H 
BRANCH  58  61
ATOM     61  N   UNL A   1      40.091  19.247  25.939  1.00  0.00    -0.352 N 
ATOM     62  C   UNL A   1      41.415  19.503  26.172  1.00  0.00     0.251 C 
ATOM     63  H   UNL A   1      39.852  18.294  25.887  1.00  0.00     0.163 HD
ATOM     64  O   UNL A   1      42.239  18.589  26.104  1.00  0.00    -0.269 OA
BRANCH  62  65
ATOM     65  C   UNL A   1      41.873  20.872  26.490  1.00  0.00     0.039 A 
ATOM     66  C   UNL A   1      42.005  21.796  25.450  1.00  0.00    -0.049 A 
ATOM     67  C   UNL A   1      42.217  21.235  27.796  1.00  0.00    -0.049 A 
ATOM     68  C   UNL A   1      42.433  23.097  25.724  1.00  0.00    -0.053 A 
ATOM     69  H   UNL A   1      41.784  21.518  24.481  1.00  0.00     0.063 H 
ATOM     70  C   UNL A   1      42.587  22.549  28.078  1.00  0.00    -0.053 A 
ATOM     71  H   UNL A   1      42.196  20.531  28.550  1.00  0.00     0.063 H 
ATOM     72  C   UNL A   1      42.705  23.490  27.044  1.00  0.00    -0.014 A 
ATOM     73  H   UNL A   1      42.550  23.772  24.952  1.00  0.00     0.063 H 
ATOM     74  H   UNL A   1      42.774  22.831  29.053  1.00  0.00     0.063 H 
BRANCH  72  75
ATOM     75  C   UNL A   1      43.125  24.879  27.356  1.00  0.00     0.031 A 
ATOM     76  C   UNL A   1      44.534  25.323  27.081  1.00  0.00     0.074 A 
ATOM     77  C   UNL A   1      42.251  25.724  27.932  1.00  0.00     0.049 A 
ATOM     78  N   UNL A   1      45.102  26.476  27.330  1.00  0.00    -0.248 NA
ATOM     79  C   UNL A   1      45.430  24.333  26.464  1.00  0.00    -0.034 C 
ATOM     80  C   UNL A   1      40.869  25.399  28.287  1.00  0.00    -0.036 A 
ATOM     81  N   UNL A   1      42.398  27.029  28.331  1.00  0.00    -0.354 N 
ATOM     82  C   UNL A   1      46.421  26.345  26.914  1.00  0.00     0.074 A 
ATOM     83  C   UNL A   1      46.583  24.987  26.440  1.00  0.00    -0.034 C 
ATOM     84  H   UNL A   1      45.218  23.378  26.137  1.00  0.00     0.065 H 
ATOM     85  C   UNL A   1      40.288  26.480  28.831  1.00  0.00    -0.036 A 
ATOM     86  H   UNL A   1      40.414  24.484  28.141  1.00  0.00     0.065 H 
ATOM     87  C   UNL A   1      41.265  27.564  28.893  1.00  0.00     0.049 A 
ATOM     88  H   UNL A   1      43.236  27.534  28.222  1.00  0.00     0.167 HD
ATOM     89  C   UNL A   1      47.402  27.278  26.910  1.00  0.00     0.037 A 
ATOM     90  H   UNL A   1      47.478  24.582  26.125  1.00  0.00     0.065 H 
ATOM     91  H   UNL A   1      39.311  26.536  29.155  1.00  0.00     0.065 H 
ATOM     92  C   UNL A   1      41.042  28.790  29.403  1.00  0.00     0.037 A 
ATOM     93  C   UNL A   1      47.232  28.637  27.355  1.00  0.00     0.049 A 
ATOM     94  C   UNL A   1      42.147  29.810  29.382  1.00  0.00     0.074 A 
ATOM     95  C   UNL A   1      48.149  29.673  27.336  1.00  0.00    -0.036 A 
ATOM     96  N   UNL A   1      46.064  29.147  27.902  1.00  0.00    -0.354 N 
ATOM     97  N   UNL A   1      43.372  29.693  28.929  1.00  0.00    -0.248 NA
ATOM     98  C   UNL A   1      41.836  31.134  29.938  1.00  0.00    -0.034 C 
ATOM     99  C   UNL A   1      47.547  30.802  27.903  1.00  0.00    -0.036 A 
ATOM    100  H   UNL A   1      49.112  29.624  26.965  1.00  0.00     0.065 H 
ATOM    101  C   UNL A   1      46.243  30.479  28.240  1.00  0.00     0.049 A 
ATOM    102  H   UNL A   1      45.232  28.637  28.032  1.00  0.00     0.167 HD
ATOM    103  C   UNL A   1      43.968  30.931  29.121  1.00  0.00     0.074 A 
ATOM    104  C   UNL A   1      42.968  31.790  29.719  1.00  0.00    -0.034 C 
ATOM    105  H   UNL A   1      40.967  31.466  30.382  1.00  0.00     0.065 H 
ATOM    106  H   UNL A   1      47.999  31.718  28.048  1.00  0.00     0.065 H 
ATOM    107  C   UNL A   1      45.233  31.321  28.827  1.00  0.00     0.037 A 
ATOM    108  H   UNL A   1      43.115  32.786  29.945  1.00  0.00     0.065 H 
BRANCH  89 109
ATOM    109  C   UNL A   1      48.750  26.865  26.398  1.00  0.00     0.064 A 
ATOM    110  C   UNL A   1      49.112  27.049  25.055  1.00  0.00     0.173 A 
ATOM    111  C   UNL A   1      49.704  26.311  27.265  1.00  0.00     0.173 A 
ATOM    112  F   UNL A   1      48.232  27.563  24.183  1.00  0.00    -0.203 F 
ATOM    113  C   UNL A   1      50.370  26.670  24.594  1.00  0.00     0.198 A 
ATOM    114  C   UNL A   1      50.970  25.959  26.807  1.00  0.00     0.198 A 
ATOM    115  F   UNL A   1      49.411  26.119  28.561  1.00  0.00    -0.203 F 
ATOM    116  F   UNL A   1      50.678  26.815  23.297  1.00  0.00    -0.200 F 
ATOM    117  C   UNL A   1      51.301  26.132  25.470  1.00  0.00     0.200 A 
ATOM    118  F   UNL A   1      51.873  25.450  27.657  1.00  0.00    -0.200 F 
ATOM    119  F   UNL A   1      52.513  25.773  25.026  1.00  0.00    -0.200 F 
ENDBRANCH  89 109
BRANCH  92 120
ATOM    120  C   UNL A   1      39.704  29.131  29.949  1.00  0.00     0.064 A 
ATOM    121  C   UNL A   1      39.367  28.809  31.272  1.00  0.00     0.173 A 
ATOM    122  C   UNL A   1      38.738  29.779  29.167  1.00  0.00     0.173 A 
ATOM    123  F   UNL A   1      40.251  28.169  32.051  1.00  0.00    -0.203 F 
ATOM    124  C   UNL A   1      38.107  29.109  31.785  1.00  0.00     0.198 A 
ATOM    125  C   UNL A   1      37.487  30.100  29.691  1.00  0.00     0.198 A 
ATOM    126  F   UNL A   1      39.014  30.111  27.899  1.00  0.00    -0.203 F 
ATOM    127  F   UNL A   1      37.797  28.754  33.040  1.00  0.00    -0.200 F 
ATOM    128  C   UNL A   1      37.171  29.759  30.997  1.00  0.00     0.200 A 
ATOM    129  F   UNL A   1      36.588  30.739  28.929  1.00  0.00    -0.200 F 
ATOM    130  F   UNL A   1      35.960  30.049  31.492  1.00  0.00    -0.200 F 
ENDBRANCH  92 120
BRANCH 107 131
ATOM    131  C   UNL A   1      45.596  32.747  29.120  1.00  0.00     0.064 A 
ATOM    132  C   UNL A   1      45.372  33.767  28.184  1.00  0.00     0.173 A 
ATOM    133  C   UNL A   1      46.139  33.100  30.364  1.00  0.00     0.173 A 
ATOM    134  F   UNL A   1      44.871  33.476  26.974  1.00  0.00    -0.203 F 
ATOM    135  C   UNL A   1      45.700  35.089  28.476  1.00  0.00     0.198 A 
ATOM    136  C   UNL A   1      46.441  34.426  30.662  1.00  0.00     0.198 A 
ATOM    137  F   UNL A   1      46.367  32.161  31.295  1.00  0.00    -0.203 F 
ATOM    138  F   UNL A   1      45.518  36.041  27.552  1.00  0.00    -0.200 F 
ATOM    139  C   UNL A   1      46.226  35.417  29.716  1.00  0.00     0.200 A 
ATOM    140  F   UNL A   1      46.940  34.744  31.864  1.00  0.00    -0.200 F 
ATOM    141  F   UNL A   1      46.537  36.690  29.997  1.00  0.00    -0.200 F 
ENDBRANCH 107 131
ENDBRANCH  72  75
ENDBRANCH  62  65
ENDBRANCH  58  61
ENDBRANCH  55  58
ENDBRANCH  52  55
ENDBRANCH  49  52
ENDBRANCH   1  49
TORSDOF 20
ENDMDL
MODEL 5
REMARK VINA RESULT:     -11.8      0.620      2.102
REMARK SMILES COc1ccc(-c2noc(CC(=O)NCCCCCCNC(=O)c3ccc(-c4c5nc(c(-c6c(F)c(F)c(F)c(F)c6F)c6ccc([nH]6)c(-c6c(F)c(F)c(F)c(F)c6F)c6nc(c(-c7c(F)c(F)c(F)c(F)c7F)c7ccc4[nH]7)C=C6)C=C5)cc3)c2-c2ccc(OC)cc2)cc1
REMARK SMILES IDX 16 1 15 4 14 7 12 8 13 9 11 11 10 14 7 15 8 16 87 17 9 18
REMARK SMILES IDX 6 19 3 20 4 21 97 22 5 23 96 25 2 29 1 30 88 34 89 35 95 36
REMARK SMILES IDX 90 37 94 39 91 41 92 44 93 45 17 49 18 52 19 55 20 58 21 61
REMARK SMILES IDX 22 62 23 64 24 65 25 66 86 67 26 68 85 70 27 72 28 75 29 76
REMARK SMILES IDX 79 77 30 78 84 79 78 80 80 81 31 82 83 83 77 85 76 87 32 89
REMARK SMILES IDX 64 92 44 93 63 94 45 95 48 96 62 97 81 98 46 99 47 101
REMARK SMILES IDX 61 103 82 104 49 107 33 109 34 110 42 111 35 112 36 113
REMARK SMILES IDX 40 114 43 115 37 116 38 117 41 118 39 119 65 120 66 121
REMARK SMILES IDX 74 122 67 123 68 124 72 125 75 126 69 127 70 128 73 129
REMARK SMILES IDX 71 130 50 131 51 132 59 133 52 134 53 135 57 136 60 137
REMARK SMILES IDX 54 138 55 139 58 140 56 141
REMARK H PARENT 16 2 16 3 15 5 15 6 14 10 11 12 11 13 4 24 97 26 5 27 96 28
REMARK H PARENT 1 31 1 32 1 33 89 38 95 40 90 42 94 43 93 46 93 47 93 48 17 50
REMARK H PARENT 17 51 18 53 18 54 19 56 19 57 20 59 20 60 21 63 25 69 86 71
REMARK H PARENT 26 73 85 74 84 84 78 86 80 88 83 90 77 91 45 100 48 102 81 105
REMARK H PARENT 46 106 82 108
REMARK Flexibility Score: inf
ROOT
ATOM      1  C   UNL A   1      36.381  22.274  24.079  1.00  0.00    -0.036 C 
ATOM      2  H   UNL A   1      37.127  23.032  24.190  1.00  0.00     0.028 H 
ATOM      3  H   UNL A   1      36.557  21.652  23.226  1.00  0.00     0.028 H 
ENDROOT
BRANCH   1   4
ATOM      4  C   UNL A   1      35.027  22.953  23.869  1.00  0.00     0.017 C 
ATOM      5  H   UNL A   1      35.008  23.873  24.416  1.00  0.00     0.049 H 
ATOM      6  H   UNL A   1      34.896  23.138  22.824  1.00  0.00     0.049 H 
BRANCH   4   7
ATOM      7  N   UNL A   1      33.947  22.105  24.330  1.00  0.00    -0.356 N 
ATOM      8  C   UNL A   1      32.983  22.374  25.259  1.00  0.00     0.227 C 
ATOM      9  O   UNL A   1      32.215  21.465  25.580  1.00  0.00    -0.275 OA
ATOM     10  H   UNL A   1      33.902  21.213  23.917  1.00  0.00     0.163 HD
BRANCH   8  11
ATOM     11  C   UNL A   1      32.802  23.782  25.788  1.00  0.00     0.088 C 
ATOM     12  H   UNL A   1      32.446  23.725  26.795  1.00  0.00     0.045 H 
ATOM     13  H   UNL A   1      33.751  24.271  25.728  1.00  0.00     0.045 H 
BRANCH  11  14
ATOM     14  C   UNL A   1      31.839  24.578  24.989  1.00  0.00     0.154 A 
ATOM     15  C   UNL A   1      30.514  25.987  23.904  1.00  0.00     0.122 A 
ATOM     16  N   UNL A   1      30.202  24.759  23.465  1.00  0.00    -0.079 NA
ATOM     17  C   UNL A   1      31.536  25.922  24.897  1.00  0.00     0.053 A 
ATOM     18  O   UNL A   1      31.047  23.888  24.124  1.00  0.00    -0.360 OA
BRANCH  15  19
ATOM     19  C   UNL A   1      29.863  27.180  23.380  1.00  0.00     0.005 A 
ATOM     20  C   UNL A   1      28.567  29.428  22.325  1.00  0.00     0.118 A 
ATOM     21  C   UNL A   1      29.932  29.237  22.106  1.00  0.00    -0.019 A 
ATOM     22  C   UNL A   1      27.840  28.485  23.048  1.00  0.00    -0.019 A 
ATOM     23  C   UNL A   1      30.586  28.125  22.645  1.00  0.00    -0.049 A 
ATOM     24  H   UNL A   1      30.461  29.920  21.541  1.00  0.00     0.066 H 
ATOM     25  C   UNL A   1      28.488  27.365  23.576  1.00  0.00    -0.049 A 
ATOM     26  H   UNL A   1      26.827  28.612  23.193  1.00  0.00     0.066 H 
ATOM     27  H   UNL A   1      31.600  28.002  22.500  1.00  0.00     0.063 H 
ATOM     28  H   UNL A   1      27.949  26.668  24.114  1.00  0.00     0.063 H 
BRANCH  20  29
ATOM     29  O   UNL A   1      28.016  30.542  21.753  1.00  0.00    -0.497 OA
BRANCH  29  30
ATOM     30  C   UNL A   1      27.835  31.628  22.659  1.00  0.00     0.078 C 
ATOM     31  H   UNL A   1      26.975  32.195  22.369  1.00  0.00     0.067 H 
ATOM     32  H   UNL A   1      28.699  32.258  22.638  1.00  0.00     0.067 H 
ATOM     33  H   UNL A   1      27.693  31.247  23.649  1.00  0.00     0.067 H 
ENDBRANCH  29  30
ENDBRANCH  20  29
ENDBRANCH  15  19
BRANCH  17  34
ATOM     34  C   UNL A   1      32.107  26.970  25.721  1.00  0.00    -0.012 A 
ATOM     35  C   UNL A   1      33.390  27.450  25.433  1.00  0.00    -0.050 A 
ATOM     36  C   UNL A   1      31.403  27.511  26.800  1.00  0.00    -0.050 A 
ATOM     37  C   UNL A   1      33.951  28.466  26.206  1.00  0.00    -0.019 A 
ATOM     38  H   UNL A   1      33.923  27.049  24.645  1.00  0.00     0.063 H 
ATOM     39  C   UNL A   1      31.970  28.531  27.575  1.00  0.00    -0.019 A 
ATOM     40  H   UNL A   1      30.461  27.158  27.028  1.00  0.00     0.063 H 
ATOM     41  C   UNL A   1      33.246  29.014  27.279  1.00  0.00     0.118 A 
ATOM     42  H   UNL A   1      34.896  28.818  25.982  1.00  0.00     0.066 H 
ATOM     43  H   UNL A   1      31.443  28.928  28.369  1.00  0.00     0.066 H 
BRANCH  41  44
ATOM     44  O   UNL A   1      33.911  30.002  27.948  1.00  0.00    -0.497 OA
BRANCH  44  45
ATOM     45  C   UNL A   1      33.624  31.343  27.571  1.00  0.00     0.078 C 
ATOM     46  H   UNL A   1      34.474  31.960  27.776  1.00  0.00     0.067 H 
ATOM     47  H   UNL A   1      32.782  31.698  28.127  1.00  0.00     0.067 H 
ATOM     48  H   UNL A   1      33.403  31.380  26.525  1.00  0.00     0.067 H 
ENDBRANCH  44  45
ENDBRANCH  41  44
ENDBRANCH  17  34
ENDBRANCH  11  14
ENDBRANCH   8  11
ENDBRANCH   4   7
ENDBRANCH   1   4
BRANCH   1  49
ATOM     49  C   UNL A   1      36.425  21.365  25.315  1.00  0.00    -0.052 C 
ATOM     50  H   UNL A   1      35.483  21.441  25.817  1.00  0.00     0.027 H 
ATOM     51  H   UNL A   1      37.250  21.703  25.906  1.00  0.00     0.027 H 
BRANCH  49  52
ATOM     52  C   UNL A   1      36.689  19.883  25.020  1.00  0.00    -0.052 C 
ATOM     53  H   UNL A   1      36.117  19.610  24.158  1.00  0.00     0.027 H 
ATOM     54  H   UNL A   1      36.408  19.349  25.905  1.00  0.00     0.027 H 
BRANCH  52  55
ATOM     55  C   UNL A   1      38.152  19.522  24.752  1.00  0.00    -0.036 C 
ATOM     56  H   UNL A   1      38.438  19.960  23.819  1.00  0.00     0.028 H 
ATOM     57  H   UNL A   1      38.205  18.454  24.750  1.00  0.00     0.028 H 
BRANCH  55  58
ATOM     58  C   UNL A   1      39.134  19.999  25.820  1.00  0.00     0.018 C 
ATOM     59  H   UNL A   1      38.617  20.076  26.753  1.00  0.00     0.049 H 
ATOM     60  H   UNL A   1      39.522  20.948  25.512  1.00  0.00     0.049 H 
BRANCH  58  61
ATOM     61  N   UNL A   1      40.255  19.086  25.977  1.00  0.00    -0.352 N 
ATOM     62  C   UNL A   1      41.583  19.357  26.169  1.00  0.00     0.251 C 
ATOM     63  H   UNL A   1      40.024  18.130  25.941  1.00  0.00     0.163 HD
ATOM     64  O   UNL A   1      42.414  18.450  26.085  1.00  0.00    -0.269 OA
BRANCH  62  65
ATOM     65  C   UNL A   1      42.038  20.732  26.461  1.00  0.00     0.039 A 
ATOM     66  C   UNL A   1      42.246  21.103  27.793  1.00  0.00    -0.049 A 
ATOM     67  C   UNL A   1      42.215  21.669  25.438  1.00  0.00    -0.049 A 
ATOM     68  C   UNL A   1      42.678  22.397  28.096  1.00  0.00    -0.053 A 
ATOM     69  H   UNL A   1      42.082  20.423  28.551  1.00  0.00     0.063 H 
ATOM     70  C   UNL A   1      42.703  22.940  25.736  1.00  0.00    -0.053 A 
ATOM     71  H   UNL A   1      41.985  21.419  24.464  1.00  0.00     0.063 H 
ATOM     72  C   UNL A   1      42.933  23.318  27.067  1.00  0.00    -0.014 A 
ATOM     73  H   UNL A   1      42.811  22.676  29.081  1.00  0.00     0.063 H 
ATOM     74  H   UNL A   1      42.898  23.607  24.972  1.00  0.00     0.063 H 
BRANCH  72  75
ATOM     75  C   UNL A   1      43.428  24.684  27.372  1.00  0.00     0.031 A 
ATOM     76  C   UNL A   1      42.489  25.727  27.908  1.00  0.00     0.074 A 
ATOM     77  C   UNL A   1      44.712  24.997  27.116  1.00  0.00     0.049 A 
ATOM     78  N   UNL A   1      42.722  26.985  28.187  1.00  0.00    -0.248 NA
ATOM     79  C   UNL A   1      41.100  25.306  28.144  1.00  0.00    -0.034 C 
ATOM     80  C   UNL A   1      45.709  24.085  26.556  1.00  0.00    -0.036 A 
ATOM     81  N   UNL A   1      45.396  26.175  27.286  1.00  0.00    -0.354 N 
ATOM     82  C   UNL A   1      41.508  27.507  28.615  1.00  0.00     0.074 A 
ATOM     83  C   UNL A   1      40.531  26.444  28.517  1.00  0.00    -0.034 C 
ATOM     84  H   UNL A   1      40.677  24.371  28.044  1.00  0.00     0.065 H 
ATOM     85  C   UNL A   1      46.882  24.729  26.447  1.00  0.00    -0.036 A 
ATOM     86  H   UNL A   1      45.538  23.103  26.288  1.00  0.00     0.065 H 
ATOM     87  C   UNL A   1      46.712  26.107  26.900  1.00  0.00     0.049 A 
ATOM     88  H   UNL A   1      44.983  26.990  27.652  1.00  0.00     0.167 HD
ATOM     89  C   UNL A   1      41.239  28.754  29.068  1.00  0.00     0.037 A 
ATOM     90  H   UNL A   1      39.524  26.558  28.711  1.00  0.00     0.065 H 
ATOM     91  H   UNL A   1      47.762  24.318  26.098  1.00  0.00     0.065 H 
ATOM     92  C   UNL A   1      47.671  27.052  26.908  1.00  0.00     0.037 A 
ATOM     93  C   UNL A   1      42.217  29.803  29.193  1.00  0.00     0.049 A 
ATOM     94  C   UNL A   1      47.346  28.428  27.421  1.00  0.00     0.074 A 
ATOM     95  C   UNL A   1      42.054  31.082  29.696  1.00  0.00    -0.036 A 
ATOM     96  N   UNL A   1      43.545  29.691  28.808  1.00  0.00    -0.354 N 
ATOM     97  N   UNL A   1      46.210  28.892  27.882  1.00  0.00    -0.248 NA
ATOM     98  C   UNL A   1      48.440  29.410  27.419  1.00  0.00    -0.034 C 
ATOM     99  C   UNL A   1      43.275  31.756  29.584  1.00  0.00    -0.036 A 
ATOM    100  H   UNL A   1      41.182  31.471  30.089  1.00  0.00     0.065 H 
ATOM    101  C   UNL A   1      44.208  30.884  29.047  1.00  0.00     0.049 A 
ATOM    102  H   UNL A   1      43.955  28.884  28.421  1.00  0.00     0.167 HD
ATOM    103  C   UNL A   1      46.457  30.207  28.248  1.00  0.00     0.074 A 
ATOM    104  C   UNL A   1      47.855  30.465  27.969  1.00  0.00    -0.034 C 
ATOM    105  H   UNL A   1      49.408  29.306  27.080  1.00  0.00     0.065 H 
ATOM    106  H   UNL A   1      43.450  32.736  29.853  1.00  0.00     0.065 H 
ATOM    107  C   UNL A   1      45.602  31.120  28.770  1.00  0.00     0.037 A 
ATOM    108  H   UNL A   1      48.334  31.355  28.173  1.00  0.00     0.065 H 
BRANCH  89 109
ATOM    109  C   UNL A   1      39.826  29.053  29.474  1.00  0.00     0.064 A 
ATOM    110  C   UNL A   1      39.401  28.922  30.805  1.00  0.00     0.173 A 
ATOM    111  C   UNL A   1      38.893  29.511  28.530  1.00  0.00     0.173 A 
ATOM    112  F   UNL A   1      40.250  28.477  31.743  1.00  0.00    -0.203 F 
ATOM    113  C   UNL A   1      38.089  29.212  31.171  1.00  0.00     0.198 A 
ATOM    114  C   UNL A   1      37.590  29.827  28.905  1.00  0.00     0.198 A 
ATOM    115  F   UNL A   1      39.249  29.661  27.245  1.00  0.00    -0.203 F 
ATOM    116  F   UNL A   1      37.695  29.036  32.440  1.00  0.00    -0.200 F 
ATOM    117  C   UNL A   1      37.187  29.671  30.223  1.00  0.00     0.200 A 
ATOM    118  F   UNL A   1      36.722  30.282  27.990  1.00  0.00    -0.200 F 
ATOM    119  F   UNL A   1      35.926  29.956  30.578  1.00  0.00    -0.200 F 
ENDBRANCH  89 109
BRANCH  92 120
ATOM    120  C   UNL A   1      49.041  26.718  26.443  1.00  0.00     0.064 A 
ATOM    121  C   UNL A   1      49.410  26.911  25.104  1.00  0.00     0.173 A 
ATOM    122  C   UNL A   1      50.006  26.201  27.319  1.00  0.00     0.173 A 
ATOM    123  F   UNL A   1      48.514  27.383  24.224  1.00  0.00    -0.203 F 
ATOM    124  C   UNL A   1      50.688  26.583  24.656  1.00  0.00     0.198 A 
ATOM    125  C   UNL A   1      51.290  25.897  26.874  1.00  0.00     0.198 A 
ATOM    126  F   UNL A   1      49.703  26.002  28.609  1.00  0.00    -0.203 F 
ATOM    127  F   UNL A   1      51.001  26.739  23.362  1.00  0.00    -0.200 F 
ATOM    128  C   UNL A   1      51.628  26.081  25.541  1.00  0.00     0.200 A 
ATOM    129  F   UNL A   1      52.201  25.423  27.736  1.00  0.00    -0.200 F 
ATOM    130  F   UNL A   1      52.858  25.768  25.111  1.00  0.00    -0.200 F 
ENDBRANCH  92 120
BRANCH 107 131
ATOM    131  C   UNL A   1      46.160  32.472  29.102  1.00  0.00     0.064 A 
ATOM    132  C   UNL A   1      46.175  33.511  28.160  1.00  0.00     0.173 A 
ATOM    133  C   UNL A   1      46.652  32.741  30.388  1.00  0.00     0.173 A 
ATOM    134  F   UNL A   1      45.731  33.297  26.911  1.00  0.00    -0.203 F 
ATOM    135  C   UNL A   1      46.682  34.765  28.487  1.00  0.00     0.198 A 
ATOM    136  C   UNL A   1      47.134  34.004  30.719  1.00  0.00     0.198 A 
ATOM    137  F   UNL A   1      46.655  31.782  31.326  1.00  0.00    -0.203 F 
ATOM    138  F   UNL A   1      46.726  35.731  27.559  1.00  0.00    -0.200 F 
ATOM    139  C   UNL A   1      47.154  35.013  29.768  1.00  0.00     0.200 A 
ATOM    140  F   UNL A   1      47.580  34.245  31.960  1.00  0.00    -0.200 F 
ATOM    141  F   UNL A   1      47.637  36.222  30.082  1.00  0.00    -0.200 F 
ENDBRANCH 107 131
ENDBRANCH  72  75
ENDBRANCH  62  65
ENDBRANCH  58  61
ENDBRANCH  55  58
ENDBRANCH  52  55
ENDBRANCH  49  52
ENDBRANCH   1  49
TORSDOF 20
ENDMDL
MODEL 6
REMARK VINA RESULT:     -11.8      4.481      8.563
REMARK SMILES COc1ccc(-c2noc(CC(=O)NCCCCCCNC(=O)c3ccc(-c4c5nc(c(-c6c(F)c(F)c(F)c(F)c6F)c6ccc([nH]6)c(-c6c(F)c(F)c(F)c(F)c6F)c6nc(c(-c7c(F)c(F)c(F)c(F)c7F)c7ccc4[nH]7)C=C6)C=C5)cc3)c2-c2ccc(OC)cc2)cc1
REMARK SMILES IDX 16 1 15 4 14 7 12 8 13 9 11 11 10 14 7 15 8 16 87 17 9 18
REMARK SMILES IDX 6 19 3 20 4 21 97 22 5 23 96 25 2 29 1 30 88 34 89 35 95 36
REMARK SMILES IDX 90 37 94 39 91 41 92 44 93 45 17 49 18 52 19 55 20 58 21 61
REMARK SMILES IDX 22 62 23 64 24 65 25 66 86 67 26 68 85 70 27 72 28 75 29 76
REMARK SMILES IDX 79 77 30 78 84 79 78 80 80 81 31 82 83 83 77 85 76 87 32 89
REMARK SMILES IDX 64 92 44 93 63 94 45 95 48 96 62 97 81 98 46 99 47 101
REMARK SMILES IDX 61 103 82 104 49 107 33 109 34 110 42 111 35 112 36 113
REMARK SMILES IDX 40 114 43 115 37 116 38 117 41 118 39 119 65 120 66 121
REMARK SMILES IDX 74 122 67 123 68 124 72 125 75 126 69 127 70 128 73 129
REMARK SMILES IDX 71 130 50 131 51 132 59 133 52 134 53 135 57 136 60 137
REMARK SMILES IDX 54 138 55 139 58 140 56 141
REMARK H PARENT 16 2 16 3 15 5 15 6 14 10 11 12 11 13 4 24 97 26 5 27 96 28
REMARK H PARENT 1 31 1 32 1 33 89 38 95 40 90 42 94 43 93 46 93 47 93 48 17 50
REMARK H PARENT 17 51 18 53 18 54 19 56 19 57 20 59 20 60 21 63 25 69 86 71
REMARK H PARENT 26 73 85 74 84 84 78 86 80 88 83 90 77 91 45 100 48 102 81 105
REMARK H PARENT 46 106 82 108
REMARK Flexibility Score: inf
ROOT
ATOM      1  C   UNL A   1      31.791  28.748  23.152  1.00  0.00    -0.036 C 
ATOM      2  H   UNL A   1      31.573  29.635  22.594  1.00  0.00     0.028 H 
ATOM      3  H   UNL A   1      32.822  28.467  23.080  1.00  0.00     0.028 H 
ENDROOT
BRANCH   1   4
ATOM      4  C   UNL A   1      30.969  27.597  22.574  1.00  0.00     0.017 C 
ATOM      5  H   UNL A   1      30.782  26.878  23.344  1.00  0.00     0.049 H 
ATOM      6  H   UNL A   1      30.047  27.989  22.198  1.00  0.00     0.049 H 
BRANCH   4   7
ATOM      7  N   UNL A   1      31.676  26.953  21.485  1.00  0.00    -0.356 N 
ATOM      8  C   UNL A   1      32.756  26.120  21.538  1.00  0.00     0.227 C 
ATOM      9  O   UNL A   1      33.269  25.764  20.475  1.00  0.00    -0.275 OA
ATOM     10  H   UNL A   1      31.330  27.144  20.584  1.00  0.00     0.163 HD
BRANCH   8  11
ATOM     11  C   UNL A   1      33.229  25.566  22.866  1.00  0.00     0.088 C 
ATOM     12  H   UNL A   1      34.296  25.640  22.907  1.00  0.00     0.045 H 
ATOM     13  H   UNL A   1      32.761  26.139  23.638  1.00  0.00     0.045 H 
BRANCH  11  14
ATOM     14  C   UNL A   1      32.845  24.148  23.070  1.00  0.00     0.154 A 
ATOM     15  C   UNL A   1      32.488  22.008  23.530  1.00  0.00     0.122 A 
ATOM     16  N   UNL A   1      31.443  22.416  22.796  1.00  0.00    -0.079 NA
ATOM     17  C   UNL A   1      33.423  23.070  23.709  1.00  0.00     0.053 A 
ATOM     18  O   UNL A   1      31.656  23.756  22.535  1.00  0.00    -0.360 OA
BRANCH  15  19
ATOM     19  C   UNL A   1      32.580  20.650  24.048  1.00  0.00     0.005 A 
ATOM     20  C   UNL A   1      32.681  18.027  25.026  1.00  0.00     0.118 A 
ATOM     21  C   UNL A   1      32.834  19.108  25.896  1.00  0.00    -0.019 A 
ATOM     22  C   UNL A   1      32.450  18.253  23.671  1.00  0.00    -0.019 A 
ATOM     23  C   UNL A   1      32.801  20.418  25.409  1.00  0.00    -0.049 A 
ATOM     24  H   UNL A   1      32.970  18.938  26.905  1.00  0.00     0.066 H 
ATOM     25  C   UNL A   1      32.403  19.562  23.183  1.00  0.00    -0.049 A 
ATOM     26  H   UNL A   1      32.314  17.457  23.029  1.00  0.00     0.066 H 
ATOM     27  H   UNL A   1      32.939  21.212  26.054  1.00  0.00     0.063 H 
ATOM     28  H   UNL A   1      32.235  19.728  22.178  1.00  0.00     0.063 H 
BRANCH  20  29
ATOM     29  O   UNL A   1      32.722  16.784  25.597  1.00  0.00    -0.497 OA
BRANCH  29  30
ATOM     30  C   UNL A   1      33.972  16.117  25.441  1.00  0.00     0.078 C 
ATOM     31  H   UNL A   1      33.915  15.442  24.613  1.00  0.00     0.067 H 
ATOM     32  H   UNL A   1      34.198  15.570  26.332  1.00  0.00     0.067 H 
ATOM     33  H   UNL A   1      34.741  16.839  25.260  1.00  0.00     0.067 H 
ENDBRANCH  29  30
ENDBRANCH  20  29
ENDBRANCH  15  19
BRANCH  17  34
ATOM     34  C   UNL A   1      34.734  23.066  24.330  1.00  0.00    -0.012 A 
ATOM     35  C   UNL A   1      35.827  22.547  23.625  1.00  0.00    -0.050 A 
ATOM     36  C   UNL A   1      34.930  23.568  25.619  1.00  0.00    -0.050 A 
ATOM     37  C   UNL A   1      37.098  22.547  24.200  1.00  0.00    -0.019 A 
ATOM     38  H   UNL A   1      35.691  22.163  22.676  1.00  0.00     0.063 H 
ATOM     39  C   UNL A   1      36.209  23.565  26.193  1.00  0.00    -0.019 A 
ATOM     40  H   UNL A   1      34.130  23.944  26.152  1.00  0.00     0.063 H 
ATOM     41  C   UNL A   1      37.298  23.056  25.484  1.00  0.00     0.118 A 
ATOM     42  H   UNL A   1      37.899  22.167  23.670  1.00  0.00     0.066 H 
ATOM     43  H   UNL A   1      36.346  23.941  27.145  1.00  0.00     0.066 H 
BRANCH  41  44
ATOM     44  O   UNL A   1      38.590  22.996  25.922  1.00  0.00    -0.497 OA
BRANCH  44  45
ATOM     45  C   UNL A   1      39.174  21.704  26.036  1.00  0.00     0.078 C 
ATOM     46  H   UNL A   1      38.670  21.152  26.803  1.00  0.00     0.067 H 
ATOM     47  H   UNL A   1      40.209  21.801  26.288  1.00  0.00     0.067 H 
ATOM     48  H   UNL A   1      39.080  21.186  25.105  1.00  0.00     0.067 H 
ENDBRANCH  44  45
ENDBRANCH  41  44
ENDBRANCH  17  34
ENDBRANCH  11  14
ENDBRANCH   8  11
ENDBRANCH   4   7
ENDBRANCH   1   4
BRANCH   1  49
ATOM     49  C   UNL A   1      31.503  29.025  24.634  1.00  0.00    -0.052 C 
ATOM     50  H   UNL A   1      30.459  29.236  24.734  1.00  0.00     0.027 H 
ATOM     51  H   UNL A   1      32.131  29.843  24.913  1.00  0.00     0.027 H 
BRANCH  49  52
ATOM     52  C   UNL A   1      31.850  27.874  25.587  1.00  0.00    -0.052 C 
ATOM     53  H   UNL A   1      32.407  27.145  25.037  1.00  0.00     0.027 H 
ATOM     54  H   UNL A   1      30.917  27.506  25.960  1.00  0.00     0.027 H 
BRANCH  52  55
ATOM     55  C   UNL A   1      32.673  28.271  26.815  1.00  0.00    -0.036 C 
ATOM     56  H   UNL A   1      32.948  27.378  27.335  1.00  0.00     0.028 H 
ATOM     57  H   UNL A   1      32.056  28.924  27.395  1.00  0.00     0.028 H 
BRANCH  55  58
ATOM     58  C   UNL A   1      33.949  29.051  26.504  1.00  0.00     0.018 C 
ATOM     59  H   UNL A   1      34.160  28.964  25.459  1.00  0.00     0.049 H 
ATOM     60  H   UNL A   1      34.740  28.638  27.095  1.00  0.00     0.049 H 
BRANCH  58  61
ATOM     61  N   UNL A   1      33.823  30.460  26.843  1.00  0.00    -0.352 N 
ATOM     62  C   UNL A   1      34.565  31.221  27.706  1.00  0.00     0.251 C 
ATOM     63  H   UNL A   1      33.097  30.938  26.381  1.00  0.00     0.163 HD
ATOM     64  O   UNL A   1      34.184  32.354  28.008  1.00  0.00    -0.269 OA
BRANCH  62  65
ATOM     65  C   UNL A   1      35.813  30.694  28.294  1.00  0.00     0.039 A 
ATOM     66  C   UNL A   1      37.019  31.337  28.002  1.00  0.00    -0.049 A 
ATOM     67  C   UNL A   1      35.809  29.546  29.093  1.00  0.00    -0.049 A 
ATOM     68  C   UNL A   1      38.213  30.860  28.548  1.00  0.00    -0.053 A 
ATOM     69  H   UNL A   1      37.028  32.163  27.384  1.00  0.00     0.063 H 
ATOM     70  C   UNL A   1      36.991  29.106  29.686  1.00  0.00    -0.053 A 
ATOM     71  H   UNL A   1      34.930  29.026  29.244  1.00  0.00     0.063 H 
ATOM     72  C   UNL A   1      38.205  29.754  29.413  1.00  0.00    -0.014 A 
ATOM     73  H   UNL A   1      39.106  31.323  28.314  1.00  0.00     0.063 H 
ATOM     74  H   UNL A   1      36.973  28.299  30.330  1.00  0.00     0.063 H 
BRANCH  72  75
ATOM     75  C   UNL A   1      39.460  29.259  30.031  1.00  0.00     0.031 A 
ATOM     76  C   UNL A   1      40.009  29.922  31.263  1.00  0.00     0.074 A 
ATOM     77  C   UNL A   1      40.132  28.246  29.453  1.00  0.00     0.049 A 
ATOM     78  N   UNL A   1      41.115  29.667  31.917  1.00  0.00    -0.248 NA
ATOM     79  C   UNL A   1      39.223  31.032  31.822  1.00  0.00    -0.034 C 
ATOM     80  C   UNL A   1      39.723  27.550  28.232  1.00  0.00    -0.036 A 
ATOM     81  N   UNL A   1      41.305  27.631  29.810  1.00  0.00    -0.354 N 
ATOM     82  C   UNL A   1      41.163  30.591  32.953  1.00  0.00     0.074 A 
ATOM     83  C   UNL A   1      40.000  31.443  32.814  1.00  0.00    -0.034 C 
ATOM     84  H   UNL A   1      38.306  31.397  31.521  1.00  0.00     0.065 H 
ATOM     85  C   UNL A   1      40.620  26.590  27.953  1.00  0.00    -0.036 A 
ATOM     86  H   UNL A   1      38.880  27.762  27.676  1.00  0.00     0.065 H 
ATOM     87  C   UNL A   1      41.681  26.624  28.956  1.00  0.00     0.049 A 
ATOM     88  H   UNL A   1      41.827  27.887  30.605  1.00  0.00     0.167 HD
ATOM     89  C   UNL A   1      42.081  30.706  33.940  1.00  0.00     0.037 A 
ATOM     90  H   UNL A   1      39.804  32.262  33.409  1.00  0.00     0.065 H 
ATOM     91  H   UNL A   1      40.568  25.935  27.158  1.00  0.00     0.065 H 
ATOM     92  C   UNL A   1      42.761  25.822  28.978  1.00  0.00     0.037 A 
ATOM     93  C   UNL A   1      43.222  29.841  34.094  1.00  0.00     0.049 A 
ATOM     94  C   UNL A   1      43.765  25.967  30.089  1.00  0.00     0.074 A 
ATOM     95  C   UNL A   1      44.177  29.840  35.095  1.00  0.00    -0.036 A 
ATOM     96  N   UNL A   1      43.560  28.820  33.218  1.00  0.00    -0.354 N 
ATOM     97  N   UNL A   1      43.767  26.804  31.097  1.00  0.00    -0.248 NA
ATOM     98  C   UNL A   1      44.914  25.051  30.067  1.00  0.00    -0.034 C 
ATOM     99  C   UNL A   1      45.114  28.841  34.806  1.00  0.00    -0.036 A 
ATOM    100  H   UNL A   1      44.196  30.467  35.915  1.00  0.00     0.065 H 
ATOM    101  C   UNL A   1      44.719  28.194  33.647  1.00  0.00     0.049 A 
ATOM    102  H   UNL A   1      43.051  28.577  32.410  1.00  0.00     0.167 HD
ATOM    103  C   UNL A   1      44.897  26.501  31.843  1.00  0.00     0.074 A 
ATOM    104  C   UNL A   1      45.552  25.393  31.178  1.00  0.00    -0.034 C 
ATOM    105  H   UNL A   1      45.160  24.332  29.370  1.00  0.00     0.065 H 
ATOM    106  H   UNL A   1      45.955  28.624  35.362  1.00  0.00     0.065 H 
ATOM    107  C   UNL A   1      45.352  27.087  32.976  1.00  0.00     0.037 A 
ATOM    108  H   UNL A   1      46.405  24.928  31.525  1.00  0.00     0.065 H 
BRANCH  89 109
ATOM    109  C   UNL A   1      41.887  31.805  34.943  1.00  0.00     0.064 A 
ATOM    110  C   UNL A   1      42.583  33.020  34.844  1.00  0.00     0.173 A 
ATOM    111  C   UNL A   1      40.970  31.658  35.995  1.00  0.00     0.173 A 
ATOM    112  F   UNL A   1      43.479  33.205  33.863  1.00  0.00    -0.203 F 
ATOM    113  C   UNL A   1      42.387  34.036  35.775  1.00  0.00     0.198 A 
ATOM    114  C   UNL A   1      40.756  32.687  36.908  1.00  0.00     0.198 A 
ATOM    115  F   UNL A   1      40.274  30.519  36.132  1.00  0.00    -0.203 F 
ATOM    116  F   UNL A   1      43.095  35.171  35.685  1.00  0.00    -0.200 F 
ATOM    117  C   UNL A   1      41.469  33.872  36.802  1.00  0.00     0.200 A 
ATOM    118  F   UNL A   1      39.861  32.532  37.893  1.00  0.00    -0.200 F 
ATOM    119  F   UNL A   1      41.277  34.854  37.694  1.00  0.00    -0.200 F 
ENDBRANCH  89 109
BRANCH  92 120
ATOM    120  C   UNL A   1      42.935  24.785  27.928  1.00  0.00     0.064 A 
ATOM    121  C   UNL A   1      42.565  23.454  28.168  1.00  0.00     0.173 A 
ATOM    122  C   UNL A   1      43.472  25.100  26.672  1.00  0.00     0.173 A 
ATOM    123  F   UNL A   1      42.067  23.102  29.362  1.00  0.00    -0.203 F 
ATOM    124  C   UNL A   1      42.742  22.473  27.194  1.00  0.00     0.198 A 
ATOM    125  C   UNL A   1      43.625  24.122  25.692  1.00  0.00     0.198 A 
ATOM    126  F   UNL A   1      43.837  26.359  26.394  1.00  0.00    -0.203 F 
ATOM    127  F   UNL A   1      42.418  21.201  27.463  1.00  0.00    -0.200 F 
ATOM    128  C   UNL A   1      43.266  22.808  25.956  1.00  0.00     0.200 A 
ATOM    129  F   UNL A   1      44.122  24.452  24.491  1.00  0.00    -0.200 F 
ATOM    130  F   UNL A   1      43.434  21.865  25.019  1.00  0.00    -0.200 F 
ENDBRANCH  92 120
BRANCH 107 131
ATOM    131  C   UNL A   1      46.601  26.523  33.587  1.00  0.00     0.064 A 
ATOM    132  C   UNL A   1      46.554  25.468  34.509  1.00  0.00     0.173 A 
ATOM    133  C   UNL A   1      47.860  27.020  33.216  1.00  0.00     0.173 A 
ATOM    134  F   UNL A   1      45.372  24.971  34.908  1.00  0.00    -0.203 F 
ATOM    135  C   UNL A   1      47.722  24.944  35.056  1.00  0.00     0.198 A 
ATOM    136  C   UNL A   1      49.026  26.476  33.745  1.00  0.00     0.198 A 
ATOM    137  F   UNL A   1      47.958  28.025  32.334  1.00  0.00    -0.203 F 
ATOM    138  F   UNL A   1      47.652  23.965  35.968  1.00  0.00    -0.200 F 
ATOM    139  C   UNL A   1      48.957  25.443  34.668  1.00  0.00     0.200 A 
ATOM    140  F   UNL A   1      50.219  26.952  33.362  1.00  0.00    -0.200 F 
ATOM    141  F   UNL A   1      50.081  24.934  35.192  1.00  0.00    -0.200 F 
ENDBRANCH 107 131
ENDBRANCH  72  75
ENDBRANCH  62  65
ENDBRANCH  58  61
ENDBRANCH  55  58
ENDBRANCH  52  55
ENDBRANCH  49  52
ENDBRANCH   1  49
TORSDOF 20
ENDMDL
MODEL 7
REMARK VINA RESULT:     -11.8      4.745      9.405
REMARK SMILES COc1ccc(-c2noc(CC(=O)NCCCCCCNC(=O)c3ccc(-c4c5nc(c(-c6c(F)c(F)c(F)c(F)c6F)c6ccc([nH]6)c(-c6c(F)c(F)c(F)c(F)c6F)c6nc(c(-c7c(F)c(F)c(F)c(F)c7F)c7ccc4[nH]7)C=C6)C=C5)cc3)c2-c2ccc(OC)cc2)cc1
REMARK SMILES IDX 16 1 15 4 14 7 12 8 13 9 11 11 10 14 7 15 8 16 87 17 9 18
REMARK SMILES IDX 6 19 3 20 4 21 97 22 5 23 96 25 2 29 1 30 88 34 89 35 95 36
REMARK SMILES IDX 90 37 94 39 91 41 92 44 93 45 17 49 18 52 19 55 20 58 21 61
REMARK SMILES IDX 22 62 23 64 24 65 25 66 86 67 26 68 85 70 27 72 28 75 29 76
REMARK SMILES IDX 79 77 30 78 84 79 78 80 80 81 31 82 83 83 77 85 76 87 32 89
REMARK SMILES IDX 64 92 44 93 63 94 45 95 48 96 62 97 81 98 46 99 47 101
REMARK SMILES IDX 61 103 82 104 49 107 33 109 34 110 42 111 35 112 36 113
REMARK SMILES IDX 40 114 43 115 37 116 38 117 41 118 39 119 65 120 66 121
REMARK SMILES IDX 74 122 67 123 68 124 72 125 75 126 69 127 70 128 73 129
REMARK SMILES IDX 71 130 50 131 51 132 59 133 52 134 53 135 57 136 60 137
REMARK SMILES IDX 54 138 55 139 58 140 56 141
REMARK H PARENT 16 2 16 3 15 5 15 6 14 10 11 12 11 13 4 24 97 26 5 27 96 28
REMARK H PARENT 1 31 1 32 1 33 89 38 95 40 90 42 94 43 93 46 93 47 93 48 17 50
REMARK H PARENT 17 51 18 53 18 54 19 56 19 57 20 59 20 60 21 63 25 69 86 71
REMARK H PARENT 26 73 85 74 84 84 78 86 80 88 83 90 77 91 45 100 48 102 81 105
REMARK H PARENT 46 106 82 108
REMARK Flexibility Score: inf
ROOT
ATOM      1  C   UNL A   1      30.576  28.141  24.152  1.00  0.00    -0.036 C 
ATOM      2  H   UNL A   1      31.450  27.634  24.505  1.00  0.00     0.028 H 
ATOM      3  H   UNL A   1      29.709  27.911  24.738  1.00  0.00     0.028 H 
ENDROOT
BRANCH   1   4
ATOM      4  C   UNL A   1      30.289  27.677  22.724  1.00  0.00     0.017 C 
ATOM      5  H   UNL A   1      29.755  26.750  22.757  1.00  0.00     0.049 H 
ATOM      6  H   UNL A   1      29.706  28.426  22.231  1.00  0.00     0.049 H 
BRANCH   4   7
ATOM      7  N   UNL A   1      31.521  27.489  21.985  1.00  0.00    -0.356 N 
ATOM      8  C   UNL A   1      32.699  26.942  22.407  1.00  0.00     0.227 C 
ATOM      9  O   UNL A   1      33.663  26.975  21.640  1.00  0.00    -0.275 OA
ATOM     10  H   UNL A   1      31.507  27.799  21.052  1.00  0.00     0.163 HD
BRANCH   8  11
ATOM     11  C   UNL A   1      32.773  26.219  23.736  1.00  0.00     0.088 C 
ATOM     12  H   UNL A   1      33.775  26.286  24.107  1.00  0.00     0.045 H 
ATOM     13  H   UNL A   1      32.073  26.688  24.396  1.00  0.00     0.045 H 
BRANCH  11  14
ATOM     14  C   UNL A   1      32.400  24.788  23.636  1.00  0.00     0.154 A 
ATOM     15  C   UNL A   1      32.078  22.594  23.603  1.00  0.00     0.122 A 
ATOM     16  N   UNL A   1      30.954  23.148  23.128  1.00  0.00    -0.079 NA
ATOM     17  C   UNL A   1      33.041  23.598  23.917  1.00  0.00     0.053 A 
ATOM     18  O   UNL A   1      31.149  24.514  23.175  1.00  0.00    -0.360 OA
BRANCH  15  19
ATOM     19  C   UNL A   1      32.218  21.153  23.760  1.00  0.00     0.005 A 
ATOM     20  C   UNL A   1      32.562  18.391  24.087  1.00  0.00     0.118 A 
ATOM     21  C   UNL A   1      32.356  18.928  22.815  1.00  0.00    -0.019 A 
ATOM     22  C   UNL A   1      32.625  19.233  25.194  1.00  0.00    -0.019 A 
ATOM     23  C   UNL A   1      32.167  20.304  22.650  1.00  0.00    -0.049 A 
ATOM     24  H   UNL A   1      32.344  18.306  21.991  1.00  0.00     0.066 H 
ATOM     25  C   UNL A   1      32.451  20.610  25.032  1.00  0.00    -0.049 A 
ATOM     26  H   UNL A   1      32.799  18.843  26.133  1.00  0.00     0.066 H 
ATOM     27  H   UNL A   1      31.990  20.691  21.710  1.00  0.00     0.063 H 
ATOM     28  H   UNL A   1      32.493  21.233  25.853  1.00  0.00     0.063 H 
BRANCH  20  29
ATOM     29  O   UNL A   1      32.743  17.036  24.145  1.00  0.00    -0.497 OA
BRANCH  29  30
ATOM     30  C   UNL A   1      33.933  16.583  23.505  1.00  0.00     0.078 C 
ATOM     31  H   UNL A   1      34.782  16.853  24.097  1.00  0.00     0.067 H 
ATOM     32  H   UNL A   1      34.014  17.036  22.540  1.00  0.00     0.067 H 
ATOM     33  H   UNL A   1      33.897  15.518  23.400  1.00  0.00     0.067 H 
ENDBRANCH  29  30
ENDBRANCH  20  29
ENDBRANCH  15  19
BRANCH  17  34
ATOM     34  C   UNL A   1      34.420  23.468  24.347  1.00  0.00    -0.012 A 
ATOM     35  C   UNL A   1      34.753  23.740  25.680  1.00  0.00    -0.050 A 
ATOM     36  C   UNL A   1      35.426  23.081  23.459  1.00  0.00    -0.050 A 
ATOM     37  C   UNL A   1      36.071  23.609  26.116  1.00  0.00    -0.019 A 
ATOM     38  H   UNL A   1      34.019  24.038  26.342  1.00  0.00     0.063 H 
ATOM     39  C   UNL A   1      36.750  22.951  23.901  1.00  0.00    -0.019 A 
ATOM     40  H   UNL A   1      35.195  22.888  22.472  1.00  0.00     0.063 H 
ATOM     41  C   UNL A   1      37.077  23.213  25.233  1.00  0.00     0.118 A 
ATOM     42  H   UNL A   1      36.306  23.805  27.103  1.00  0.00     0.066 H 
ATOM     43  H   UNL A   1      37.487  22.661  23.239  1.00  0.00     0.066 H 
BRANCH  41  44
ATOM     44  O   UNL A   1      38.320  23.123  25.792  1.00  0.00    -0.497 OA
BRANCH  44  45
ATOM     45  C   UNL A   1      38.867  21.818  25.941  1.00  0.00     0.078 C 
ATOM     46  H   UNL A   1      38.872  21.324  24.992  1.00  0.00     0.067 H 
ATOM     47  H   UNL A   1      38.273  21.259  26.632  1.00  0.00     0.067 H 
ATOM     48  H   UNL A   1      39.869  21.892  26.309  1.00  0.00     0.067 H 
ENDBRANCH  44  45
ENDBRANCH  41  44
ENDBRANCH  17  34
ENDBRANCH  11  14
ENDBRANCH   8  11
ENDBRANCH   4   7
ENDBRANCH   1   4
BRANCH   1  49
ATOM     49  C   UNL A   1      30.810  29.653  24.271  1.00  0.00    -0.052 C 
ATOM     50  H   UNL A   1      29.866  30.121  24.455  1.00  0.00     0.027 H 
ATOM     51  H   UNL A   1      31.264  29.958  23.352  1.00  0.00     0.027 H 
BRANCH  49  52
ATOM     52  C   UNL A   1      31.776  30.073  25.386  1.00  0.00    -0.052 C 
ATOM     53  H   UNL A   1      32.745  30.203  24.953  1.00  0.00     0.027 H 
ATOM     54  H   UNL A   1      31.737  29.297  26.122  1.00  0.00     0.027 H 
BRANCH  52  55
ATOM     55  C   UNL A   1      31.406  31.368  26.114  1.00  0.00    -0.036 C 
ATOM     56  H   UNL A   1      30.420  31.256  26.514  1.00  0.00     0.028 H 
ATOM     57  H   UNL A   1      31.481  32.154  25.392  1.00  0.00     0.028 H 
BRANCH  55  58
ATOM     58  C   UNL A   1      32.342  31.746  27.260  1.00  0.00     0.018 C 
ATOM     59  H   UNL A   1      33.272  31.235  27.128  1.00  0.00     0.049 H 
ATOM     60  H   UNL A   1      31.871  31.464  28.179  1.00  0.00     0.049 H 
BRANCH  58  61
ATOM     61  N   UNL A   1      32.595  33.178  27.308  1.00  0.00    -0.352 N 
ATOM     62  C   UNL A   1      33.565  33.873  27.979  1.00  0.00     0.251 C 
ATOM     63  H   UNL A   1      31.977  33.730  26.777  1.00  0.00     0.163 HD
ATOM     64  O   UNL A   1      33.501  35.101  28.054  1.00  0.00    -0.269 OA
BRANCH  62  65
ATOM     65  C   UNL A   1      34.684  33.163  28.633  1.00  0.00     0.039 A 
ATOM     66  C   UNL A   1      35.982  33.655  28.465  1.00  0.00    -0.049 A 
ATOM     67  C   UNL A   1      34.469  31.994  29.370  1.00  0.00    -0.049 A 
ATOM     68  C   UNL A   1      37.058  33.005  29.074  1.00  0.00    -0.053 A 
ATOM     69  H   UNL A   1      36.145  34.498  27.893  1.00  0.00     0.063 H 
ATOM     70  C   UNL A   1      35.534  31.380  30.027  1.00  0.00    -0.053 A 
ATOM     71  H   UNL A   1      33.522  31.588  29.428  1.00  0.00     0.063 H 
ATOM     72  C   UNL A   1      36.838  31.875  29.880  1.00  0.00    -0.014 A 
ATOM     73  H   UNL A   1      38.017  33.356  28.933  1.00  0.00     0.063 H 
ATOM     74  H   UNL A   1      35.361  30.557  30.626  1.00  0.00     0.063 H 
BRANCH  72  75
ATOM     75  C   UNL A   1      37.967  31.196  30.565  1.00  0.00     0.031 A 
ATOM     76  C   UNL A   1      38.285  31.517  31.998  1.00  0.00     0.074 A 
ATOM     77  C   UNL A   1      38.735  30.329  29.880  1.00  0.00     0.049 A 
ATOM     78  N   UNL A   1      39.258  31.067  32.750  1.00  0.00    -0.248 NA
ATOM     79  C   UNL A   1      37.407  32.487  32.668  1.00  0.00    -0.034 C 
ATOM     80  C   UNL A   1      38.553  29.967  28.474  1.00  0.00    -0.036 A 
ATOM     81  N   UNL A   1      39.829  29.600  30.272  1.00  0.00    -0.354 N 
ATOM     82  C   UNL A   1      39.117  31.709  33.974  1.00  0.00     0.074 A 
ATOM     83  C   UNL A   1      37.993  32.614  33.850  1.00  0.00    -0.034 C 
ATOM     84  H   UNL A   1      36.556  32.950  32.312  1.00  0.00     0.065 H 
ATOM     85  C   UNL A   1      39.490  29.070  28.126  1.00  0.00    -0.036 A 
ATOM     86  H   UNL A   1      37.821  30.341  27.849  1.00  0.00     0.065 H 
ATOM     87  C   UNL A   1      40.356  28.817  29.274  1.00  0.00     0.049 A 
ATOM     88  H   UNL A   1      40.200  29.634  31.183  1.00  0.00     0.167 HD
ATOM     89  C   UNL A   1      39.845  31.544  35.103  1.00  0.00     0.037 A 
ATOM     90  H   UNL A   1      37.690  33.271  34.585  1.00  0.00     0.065 H 
ATOM     91  H   UNL A   1      39.584  28.631  27.197  1.00  0.00     0.065 H 
ATOM     92  C   UNL A   1      41.419  27.992  29.285  1.00  0.00     0.037 A 
ATOM     93  C   UNL A   1      40.944  30.624  35.234  1.00  0.00     0.049 A 
ATOM     94  C   UNL A   1      42.209  27.823  30.554  1.00  0.00     0.074 A 
ATOM     95  C   UNL A   1      41.706  30.342  36.354  1.00  0.00    -0.036 A 
ATOM     96  N   UNL A   1      41.437  29.835  34.205  1.00  0.00    -0.354 N 
ATOM     97  N   UNL A   1      42.027  28.389  31.723  1.00  0.00    -0.248 NA
ATOM     98  C   UNL A   1      43.348  26.896  30.506  1.00  0.00    -0.034 C 
ATOM     99  C   UNL A   1      42.684  29.407  35.994  1.00  0.00    -0.036 A 
ATOM    100  H   UNL A   1      41.576  30.749  37.293  1.00  0.00     0.065 H 
ATOM    101  C   UNL A   1      42.505  29.078  34.661  1.00  0.00     0.049 A 
ATOM    102  H   UNL A   1      41.082  29.816  33.287  1.00  0.00     0.167 HD
ATOM    103  C   UNL A   1      43.009  27.869  32.554  1.00  0.00     0.074 A 
ATOM    104  C   UNL A   1      43.777  26.932  31.761  1.00  0.00    -0.034 C 
ATOM    105  H   UNL A   1      43.717  26.359  29.707  1.00  0.00     0.065 H 
ATOM    106  H   UNL A   1      43.415  29.029  36.617  1.00  0.00     0.065 H 
ATOM    107  C   UNL A   1      43.253  28.144  33.859  1.00  0.00     0.037 A 
ATOM    108  H   UNL A   1      44.557  26.363  32.125  1.00  0.00     0.065 H 
BRANCH  89 109
ATOM    109  C   UNL A   1      39.470  32.373  36.296  1.00  0.00     0.064 A 
ATOM    110  C   UNL A   1      40.114  33.588  36.576  1.00  0.00     0.173 A 
ATOM    111  C   UNL A   1      38.434  31.967  37.150  1.00  0.00     0.173 A 
ATOM    112  F   UNL A   1      41.119  34.014  35.797  1.00  0.00    -0.203 F 
ATOM    113  C   UNL A   1      39.750  34.354  37.681  1.00  0.00     0.198 A 
ATOM    114  C   UNL A   1      38.054  32.748  38.238  1.00  0.00     0.198 A 
ATOM    115  F   UNL A   1      37.781  30.817  36.924  1.00  0.00    -0.203 F 
ATOM    116  F   UNL A   1      40.409  35.489  37.953  1.00  0.00    -0.200 F 
ATOM    117  C   UNL A   1      38.717  33.937  38.508  1.00  0.00     0.200 A 
ATOM    118  F   UNL A   1      37.048  32.351  39.029  1.00  0.00    -0.200 F 
ATOM    119  F   UNL A   1      38.365  34.678  39.568  1.00  0.00    -0.200 F 
ENDBRANCH  89 109
BRANCH  92 120
ATOM    120  C   UNL A   1      41.781  27.236  28.059  1.00  0.00     0.064 A 
ATOM    121  C   UNL A   1      42.574  27.824  27.063  1.00  0.00     0.173 A 
ATOM    122  C   UNL A   1      41.345  25.920  27.856  1.00  0.00     0.173 A 
ATOM    123  F   UNL A   1      42.996  29.089  27.203  1.00  0.00    -0.203 F 
ATOM    124  C   UNL A   1      42.901  27.128  25.901  1.00  0.00     0.198 A 
ATOM    125  C   UNL A   1      41.695  25.217  26.705  1.00  0.00     0.198 A 
ATOM    126  F   UNL A   1      40.589  25.313  28.781  1.00  0.00    -0.203 F 
ATOM    127  F   UNL A   1      43.626  27.728  24.947  1.00  0.00    -0.200 F 
ATOM    128  C   UNL A   1      42.467  25.824  25.726  1.00  0.00     0.200 A 
ATOM    129  F   UNL A   1      41.282  23.951  26.544  1.00  0.00    -0.200 F 
ATOM    130  F   UNL A   1      42.784  25.154  24.610  1.00  0.00    -0.200 F 
ENDBRANCH  92 120
BRANCH 107 131
ATOM    131  C   UNL A   1      44.375  27.400  34.518  1.00  0.00     0.064 A 
ATOM    132  C   UNL A   1      44.176  26.143  35.107  1.00  0.00     0.173 A 
ATOM    133  C   UNL A   1      45.673  27.934  34.528  1.00  0.00     0.173 A 
ATOM    134  F   UNL A   1      42.950  25.598  35.137  1.00  0.00    -0.203 F 
ATOM    135  C   UNL A   1      45.231  25.456  35.702  1.00  0.00     0.198 A 
ATOM    136  C   UNL A   1      46.730  27.233  35.100  1.00  0.00     0.198 A 
ATOM    137  F   UNL A   1      45.916  29.131  33.973  1.00  0.00    -0.203 F 
ATOM    138  F   UNL A   1      45.010  24.276  36.297  1.00  0.00    -0.200 F 
ATOM    139  C   UNL A   1      46.508  25.999  35.691  1.00  0.00     0.200 A 
ATOM    140  F   UNL A   1      47.965  27.754  35.081  1.00  0.00    -0.200 F 
ATOM    141  F   UNL A   1      47.524  25.335  36.260  1.00  0.00    -0.200 F 
ENDBRANCH 107 131
ENDBRANCH  72  75
ENDBRANCH  62  65
ENDBRANCH  58  61
ENDBRANCH  55  58
ENDBRANCH  52  55
ENDBRANCH  49  52
ENDBRANCH   1  49
TORSDOF 20
ENDMDL
MODEL 8
REMARK VINA RESULT:     -11.6      4.414      8.638
REMARK SMILES COc1ccc(-c2noc(CC(=O)NCCCCCCNC(=O)c3ccc(-c4c5nc(c(-c6c(F)c(F)c(F)c(F)c6F)c6ccc([nH]6)c(-c6c(F)c(F)c(F)c(F)c6F)c6nc(c(-c7c(F)c(F)c(F)c(F)c7F)c7ccc4[nH]7)C=C6)C=C5)cc3)c2-c2ccc(OC)cc2)cc1
REMARK SMILES IDX 16 1 15 4 14 7 12 8 13 9 11 11 10 14 7 15 8 16 87 17 9 18
REMARK SMILES IDX 6 19 3 20 4 21 97 22 5 23 96 25 2 29 1 30 88 34 89 35 95 36
REMARK SMILES IDX 90 37 94 39 91 41 92 44 93 45 17 49 18 52 19 55 20 58 21 61
REMARK SMILES IDX 22 62 23 64 24 65 25 66 86 67 26 68 85 70 27 72 28 75 29 76
REMARK SMILES IDX 79 77 30 78 84 79 78 80 80 81 31 82 83 83 77 85 76 87 32 89
REMARK SMILES IDX 64 92 44 93 63 94 45 95 48 96 62 97 81 98 46 99 47 101
REMARK SMILES IDX 61 103 82 104 49 107 33 109 34 110 42 111 35 112 36 113
REMARK SMILES IDX 40 114 43 115 37 116 38 117 41 118 39 119 65 120 66 121
REMARK SMILES IDX 74 122 67 123 68 124 72 125 75 126 69 127 70 128 73 129
REMARK SMILES IDX 71 130 50 131 51 132 59 133 52 134 53 135 57 136 60 137
REMARK SMILES IDX 54 138 55 139 58 140 56 141
REMARK H PARENT 16 2 16 3 15 5 15 6 14 10 11 12 11 13 4 24 97 26 5 27 96 28
REMARK H PARENT 1 31 1 32 1 33 89 38 95 40 90 42 94 43 93 46 93 47 93 48 17 50
REMARK H PARENT 17 51 18 53 18 54 19 56 19 57 20 59 20 60 21 63 25 69 86 71
REMARK H PARENT 26 73 85 74 84 84 78 86 80 88 83 90 77 91 45 100 48 102 81 105
REMARK H PARENT 46 106 82 108
REMARK Flexibility Score: inf
ROOT
ATOM      1  C   UNL A   1      30.787  27.909  24.016  1.00  0.00    -0.036 C 
ATOM      2  H   UNL A   1      31.422  27.341  24.663  1.00  0.00     0.028 H 
ATOM      3  H   UNL A   1      29.890  28.229  24.506  1.00  0.00     0.028 H 
ENDROOT
BRANCH   1   4
ATOM      4  C   UNL A   1      30.368  27.021  22.845  1.00  0.00     0.017 C 
ATOM      5  H   UNL A   1      30.046  26.072  23.221  1.00  0.00     0.049 H 
ATOM      6  H   UNL A   1      29.571  27.503  22.318  1.00  0.00     0.049 H 
BRANCH   4   7
ATOM      7  N   UNL A   1      31.473  26.818  21.929  1.00  0.00    -0.356 N 
ATOM      8  C   UNL A   1      32.700  26.272  22.174  1.00  0.00     0.227 C 
ATOM      9  O   UNL A   1      33.536  26.291  21.269  1.00  0.00    -0.275 OA
ATOM     10  H   UNL A   1      31.317  27.116  21.005  1.00  0.00     0.163 HD
BRANCH   8  11
ATOM     11  C   UNL A   1      32.974  25.567  23.486  1.00  0.00     0.088 C 
ATOM     12  H   UNL A   1      34.015  25.666  23.717  1.00  0.00     0.045 H 
ATOM     13  H   UNL A   1      32.357  26.022  24.231  1.00  0.00     0.045 H 
BRANCH  11  14
ATOM     14  C   UNL A   1      32.634  24.124  23.448  1.00  0.00     0.154 A 
ATOM     15  C   UNL A   1      32.355  21.925  23.521  1.00  0.00     0.122 A 
ATOM     16  N   UNL A   1      31.246  22.428  22.960  1.00  0.00    -0.079 NA
ATOM     17  C   UNL A   1      33.282  22.965  23.827  1.00  0.00     0.053 A 
ATOM     18  O   UNL A   1      31.413  23.799  22.940  1.00  0.00    -0.360 OA
BRANCH  15  19
ATOM     19  C   UNL A   1      32.514  20.498  23.766  1.00  0.00     0.005 A 
ATOM     20  C   UNL A   1      32.743  17.742  24.217  1.00  0.00     0.118 A 
ATOM     21  C   UNL A   1      32.880  18.642  25.276  1.00  0.00    -0.019 A 
ATOM     22  C   UNL A   1      32.465  18.214  22.936  1.00  0.00    -0.019 A 
ATOM     23  C   UNL A   1      32.783  20.018  25.052  1.00  0.00    -0.049 A 
ATOM     24  H   UNL A   1      33.052  18.287  26.230  1.00  0.00     0.066 H 
ATOM     25  C   UNL A   1      32.353  19.589  22.711  1.00  0.00    -0.049 A 
ATOM     26  H   UNL A   1      32.341  17.552  22.155  1.00  0.00     0.066 H 
ATOM     27  H   UNL A   1      32.910  20.679  25.835  1.00  0.00     0.063 H 
ATOM     28  H   UNL A   1      32.150  19.938  21.761  1.00  0.00     0.063 H 
BRANCH  20  29
ATOM     29  O   UNL A   1      32.848  16.416  24.536  1.00  0.00    -0.497 OA
BRANCH  29  30
ATOM     30  C   UNL A   1      33.822  16.139  25.539  1.00  0.00     0.078 C 
ATOM     31  H   UNL A   1      33.519  16.583  26.464  1.00  0.00     0.067 H 
ATOM     32  H   UNL A   1      34.766  16.545  25.243  1.00  0.00     0.067 H 
ATOM     33  H   UNL A   1      33.912  15.080  25.666  1.00  0.00     0.067 H 
ENDBRANCH  29  30
ENDBRANCH  20  29
ENDBRANCH  15  19
BRANCH  17  34
ATOM     34  C   UNL A   1      34.639  22.889  24.333  1.00  0.00    -0.012 A 
ATOM     35  C   UNL A   1      34.873  23.071  25.702  1.00  0.00    -0.050 A 
ATOM     36  C   UNL A   1      35.719  22.642  23.483  1.00  0.00    -0.050 A 
ATOM     37  C   UNL A   1      36.170  22.989  26.209  1.00  0.00    -0.019 A 
ATOM     38  H   UNL A   1      34.084  23.265  26.337  1.00  0.00     0.063 H 
ATOM     39  C   UNL A   1      37.021  22.562  23.997  1.00  0.00    -0.019 A 
ATOM     40  H   UNL A   1      35.560  22.517  22.471  1.00  0.00     0.063 H 
ATOM     41  C   UNL A   1      37.250  22.733  25.363  1.00  0.00     0.118 A 
ATOM     42  H   UNL A   1      36.333  23.118  27.221  1.00  0.00     0.066 H 
ATOM     43  H   UNL A   1      37.814  22.375  23.363  1.00  0.00     0.066 H 
BRANCH  41  44
ATOM     44  O   UNL A   1      38.462  22.676  25.993  1.00  0.00    -0.497 OA
BRANCH  44  45
ATOM     45  C   UNL A   1      39.156  21.436  25.946  1.00  0.00     0.078 C 
ATOM     46  H   UNL A   1      38.462  20.648  25.739  1.00  0.00     0.067 H 
ATOM     47  H   UNL A   1      39.629  21.256  26.888  1.00  0.00     0.067 H 
ATOM     48  H   UNL A   1      39.896  21.470  25.175  1.00  0.00     0.067 H 
ENDBRANCH  44  45
ENDBRANCH  41  44
ENDBRANCH  17  34
ENDBRANCH  11  14
ENDBRANCH   8  11
ENDBRANCH   4   7
ENDBRANCH   1   4
BRANCH   1  49
ATOM     49  C   UNL A   1      31.541  29.176  23.587  1.00  0.00    -0.052 C 
ATOM     50  H   UNL A   1      30.955  30.023  23.875  1.00  0.00     0.027 H 
ATOM     51  H   UNL A   1      31.683  29.096  22.530  1.00  0.00     0.027 H 
BRANCH  49  52
ATOM     52  C   UNL A   1      32.939  29.335  24.196  1.00  0.00    -0.052 C 
ATOM     53  H   UNL A   1      33.021  30.330  24.582  1.00  0.00     0.027 H 
ATOM     54  H   UNL A   1      33.633  29.125  23.408  1.00  0.00     0.027 H 
BRANCH  52  55
ATOM     55  C   UNL A   1      33.273  28.359  25.328  1.00  0.00    -0.036 C 
ATOM     56  H   UNL A   1      33.643  27.456  24.891  1.00  0.00     0.028 H 
ATOM     57  H   UNL A   1      32.369  28.220  25.883  1.00  0.00     0.028 H 
BRANCH  55  58
ATOM     58  C   UNL A   1      34.315  28.866  26.322  1.00  0.00     0.018 C 
ATOM     59  H   UNL A   1      35.265  28.908  25.834  1.00  0.00     0.049 H 
ATOM     60  H   UNL A   1      34.335  28.192  27.153  1.00  0.00     0.049 H 
BRANCH  58  61
ATOM     61  N   UNL A   1      33.987  30.191  26.827  1.00  0.00    -0.352 N 
ATOM     62  C   UNL A   1      34.590  30.924  27.814  1.00  0.00     0.251 C 
ATOM     63  H   UNL A   1      33.218  30.625  26.395  1.00  0.00     0.163 HD
ATOM     64  O   UNL A   1      34.049  31.947  28.237  1.00  0.00    -0.269 OA
BRANCH  62  65
ATOM     65  C   UNL A   1      35.880  30.493  28.392  1.00  0.00     0.039 A 
ATOM     66  C   UNL A   1      35.868  29.643  29.503  1.00  0.00    -0.049 A 
ATOM     67  C   UNL A   1      37.095  30.955  27.878  1.00  0.00    -0.049 A 
ATOM     68  C   UNL A   1      37.074  29.219  30.067  1.00  0.00    -0.053 A 
ATOM     69  H   UNL A   1      34.972  29.330  29.905  1.00  0.00     0.063 H 
ATOM     70  C   UNL A   1      38.297  30.484  28.403  1.00  0.00    -0.053 A 
ATOM     71  H   UNL A   1      37.102  31.644  27.109  1.00  0.00     0.063 H 
ATOM     72  C   UNL A   1      38.298  29.617  29.506  1.00  0.00    -0.014 A 
ATOM     73  H   UNL A   1      37.064  28.609  30.899  1.00  0.00     0.063 H 
ATOM     74  H   UNL A   1      39.192  30.774  27.977  1.00  0.00     0.063 H 
BRANCH  72  75
ATOM     75  C   UNL A   1      39.586  29.144  30.071  1.00  0.00     0.031 A 
ATOM     76  C   UNL A   1      40.203  29.852  31.244  1.00  0.00     0.074 A 
ATOM     77  C   UNL A   1      40.225  28.108  29.495  1.00  0.00     0.049 A 
ATOM     78  N   UNL A   1      41.343  29.620  31.845  1.00  0.00    -0.248 NA
ATOM     79  C   UNL A   1      39.449  30.984  31.804  1.00  0.00    -0.034 C 
ATOM     80  C   UNL A   1      39.749  27.367  28.327  1.00  0.00    -0.036 A 
ATOM     81  N   UNL A   1      41.416  27.505  29.810  1.00  0.00    -0.354 N 
ATOM     82  C   UNL A   1      41.449  30.583  32.840  1.00  0.00     0.074 A 
ATOM     83  C   UNL A   1      40.280  31.431  32.735  1.00  0.00    -0.034 C 
ATOM     84  H   UNL A   1      38.517  31.339  31.541  1.00  0.00     0.065 H 
ATOM     85  C   UNL A   1      40.629  26.396  28.034  1.00  0.00    -0.036 A 
ATOM     86  H   UNL A   1      38.876  27.560  27.811  1.00  0.00     0.065 H 
ATOM     87  C   UNL A   1      41.745  26.466  28.974  1.00  0.00     0.049 A 
ATOM     88  H   UNL A   1      41.982  27.790  30.564  1.00  0.00     0.167 HD
ATOM     89  C   UNL A   1      42.421  30.733  33.770  1.00  0.00     0.037 A 
ATOM     90  H   UNL A   1      40.117  32.272  33.308  1.00  0.00     0.065 H 
ATOM     91  H   UNL A   1      40.533  25.711  27.269  1.00  0.00     0.065 H 
ATOM     92  C   UNL A   1      42.825  25.663  28.967  1.00  0.00     0.037 A 
ATOM     93  C   UNL A   1      43.569  29.873  33.893  1.00  0.00     0.049 A 
ATOM     94  C   UNL A   1      43.889  25.849  30.014  1.00  0.00     0.074 A 
ATOM     95  C   UNL A   1      44.578  29.908  34.838  1.00  0.00    -0.036 A 
ATOM     96  N   UNL A   1      43.858  28.819  33.038  1.00  0.00    -0.354 N 
ATOM     97  N   UNL A   1      43.946  26.723  30.988  1.00  0.00    -0.248 NA
ATOM     98  C   UNL A   1      45.035  24.931  29.962  1.00  0.00    -0.034 C 
ATOM     99  C   UNL A   1      45.498  28.897  34.536  1.00  0.00    -0.036 A 
ATOM    100  H   UNL A   1      44.643  30.566  35.631  1.00  0.00     0.065 H 
ATOM    101  C   UNL A   1      45.039  28.207  33.425  1.00  0.00     0.049 A 
ATOM    102  H   UNL A   1      43.305  28.546  32.270  1.00  0.00     0.167 HD
ATOM    103  C   UNL A   1      45.117  26.446  31.680  1.00  0.00     0.074 A 
ATOM    104  C   UNL A   1      45.734  25.313  31.022  1.00  0.00    -0.034 C 
ATOM    105  H   UNL A   1      45.242  24.185  29.280  1.00  0.00     0.065 H 
ATOM    106  H   UNL A   1      46.369  28.700  35.051  1.00  0.00     0.065 H 
ATOM    107  C   UNL A   1      45.635  27.075  32.763  1.00  0.00     0.037 A 
ATOM    108  H   UNL A   1      46.605  24.860  31.339  1.00  0.00     0.065 H 
BRANCH  89 109
ATOM    109  C   UNL A   1      42.283  31.870  34.739  1.00  0.00     0.064 A 
ATOM    110  C   UNL A   1      42.834  33.133  34.473  1.00  0.00     0.173 A 
ATOM    111  C   UNL A   1      41.562  31.708  35.933  1.00  0.00     0.173 A 
ATOM    112  F   UNL A   1      43.541  33.337  33.352  1.00  0.00    -0.203 F 
ATOM    113  C   UNL A   1      42.690  34.183  35.376  1.00  0.00     0.198 A 
ATOM    114  C   UNL A   1      41.397  32.767  36.820  1.00  0.00     0.198 A 
ATOM    115  F   UNL A   1      41.010  30.522  36.233  1.00  0.00    -0.203 F 
ATOM    116  F   UNL A   1      43.263  35.368  35.119  1.00  0.00    -0.200 F 
ATOM    117  C   UNL A   1      41.967  34.002  36.545  1.00  0.00     0.200 A 
ATOM    118  F   UNL A   1      40.688  32.594  37.944  1.00  0.00    -0.200 F 
ATOM    119  F   UNL A   1      41.825  35.015  37.411  1.00  0.00    -0.200 F 
ENDBRANCH  89 109
BRANCH  92 120
ATOM    120  C   UNL A   1      42.940  24.587  27.949  1.00  0.00     0.064 A 
ATOM    121  C   UNL A   1      43.407  24.870  26.657  1.00  0.00     0.173 A 
ATOM    122  C   UNL A   1      42.586  23.263  28.242  1.00  0.00     0.173 A 
ATOM    123  F   UNL A   1      43.736  26.126  26.325  1.00  0.00    -0.203 F 
ATOM    124  C   UNL A   1      43.499  23.869  25.692  1.00  0.00     0.198 A 
ATOM    125  C   UNL A   1      42.703  22.260  27.283  1.00  0.00     0.198 A 
ATOM    126  F   UNL A   1      42.138  22.942  29.464  1.00  0.00    -0.203 F 
ATOM    127  F   UNL A   1      43.910  24.174  24.453  1.00  0.00    -0.200 F 
ATOM    128  C   UNL A   1      43.153  22.565  26.007  1.00  0.00     0.200 A 
ATOM    129  F   UNL A   1      42.378  20.997  27.594  1.00  0.00    -0.200 F 
ATOM    130  F   UNL A   1      43.244  21.602  25.079  1.00  0.00    -0.200 F 
ENDBRANCH  92 120
BRANCH 107 131
ATOM    131  C   UNL A   1      46.915  26.532  33.324  1.00  0.00     0.064 A 
ATOM    132  C   UNL A   1      48.162  27.033  32.924  1.00  0.00     0.173 A 
ATOM    133  C   UNL A   1      46.892  25.525  34.301  1.00  0.00     0.173 A 
ATOM    134  F   UNL A   1      48.236  27.984  31.980  1.00  0.00    -0.203 F 
ATOM    135  C   UNL A   1      49.342  26.530  33.465  1.00  0.00     0.198 A 
ATOM    136  C   UNL A   1      48.073  25.044  34.859  1.00  0.00     0.198 A 
ATOM    137  F   UNL A   1      45.724  25.017  34.722  1.00  0.00    -0.203 F 
ATOM    138  F   UNL A   1      50.524  26.993  33.036  1.00  0.00    -0.200 F 
ATOM    139  C   UNL A   1      49.296  25.542  34.437  1.00  0.00     0.200 A 
ATOM    140  F   UNL A   1      48.026  24.095  35.806  1.00  0.00    -0.200 F 
ATOM    141  F   UNL A   1      50.433  25.062  34.961  1.00  0.00    -0.200 F 
ENDBRANCH 107 131
ENDBRANCH  72  75
ENDBRANCH  62  65
ENDBRANCH  58  61
ENDBRANCH  55  58
ENDBRANCH  52  55
ENDBRANCH  49  52
ENDBRANCH   1  49
TORSDOF 20
ENDMDL
MODEL 9
REMARK VINA RESULT:     -11.5      1.819      7.244
REMARK SMILES COc1ccc(-c2noc(CC(=O)NCCCCCCNC(=O)c3ccc(-c4c5nc(c(-c6c(F)c(F)c(F)c(F)c6F)c6ccc([nH]6)c(-c6c(F)c(F)c(F)c(F)c6F)c6nc(c(-c7c(F)c(F)c(F)c(F)c7F)c7ccc4[nH]7)C=C6)C=C5)cc3)c2-c2ccc(OC)cc2)cc1
REMARK SMILES IDX 16 1 15 4 14 7 12 8 13 9 11 11 10 14 7 15 8 16 87 17 9 18
REMARK SMILES IDX 6 19 3 20 4 21 97 22 5 23 96 25 2 29 1 30 88 34 89 35 95 36
REMARK SMILES IDX 90 37 94 39 91 41 92 44 93 45 17 49 18 52 19 55 20 58 21 61
REMARK SMILES IDX 22 62 23 64 24 65 25 66 86 67 26 68 85 70 27 72 28 75 29 76
REMARK SMILES IDX 79 77 30 78 84 79 78 80 80 81 31 82 83 83 77 85 76 87 32 89
REMARK SMILES IDX 64 92 44 93 63 94 45 95 48 96 62 97 81 98 46 99 47 101
REMARK SMILES IDX 61 103 82 104 49 107 33 109 34 110 42 111 35 112 36 113
REMARK SMILES IDX 40 114 43 115 37 116 38 117 41 118 39 119 65 120 66 121
REMARK SMILES IDX 74 122 67 123 68 124 72 125 75 126 69 127 70 128 73 129
REMARK SMILES IDX 71 130 50 131 51 132 59 133 52 134 53 135 57 136 60 137
REMARK SMILES IDX 54 138 55 139 58 140 56 141
REMARK H PARENT 16 2 16 3 15 5 15 6 14 10 11 12 11 13 4 24 97 26 5 27 96 28
REMARK H PARENT 1 31 1 32 1 33 89 38 95 40 90 42 94 43 93 46 93 47 93 48 17 50
REMARK H PARENT 17 51 18 53 18 54 19 56 19 57 20 59 20 60 21 63 25 69 86 71
REMARK H PARENT 26 73 85 74 84 84 78 86 80 88 83 90 77 91 45 100 48 102 81 105
REMARK H PARENT 46 106 82 108
REMARK Flexibility Score: inf
ROOT
ATOM      1  C   UNL A   1      32.744  20.181  23.947  1.00  0.00    -0.036 C 
ATOM      2  H   UNL A   1      33.572  19.836  23.364  1.00  0.00     0.028 H 
ATOM      3  H   UNL A   1      31.944  19.470  23.977  1.00  0.00     0.028 H 
ENDROOT
BRANCH   1   4
ATOM      4  C   UNL A   1      32.192  21.452  23.302  1.00  0.00     0.017 C 
ATOM      5  H   UNL A   1      31.778  21.208  22.345  1.00  0.00     0.049 H 
ATOM      6  H   UNL A   1      31.437  21.860  23.941  1.00  0.00     0.049 H 
BRANCH   4   7
ATOM      7  N   UNL A   1      33.237  22.440  23.129  1.00  0.00    -0.356 N 
ATOM      8  C   UNL A   1      33.330  23.693  23.663  1.00  0.00     0.227 C 
ATOM      9  O   UNL A   1      34.261  24.413  23.299  1.00  0.00    -0.275 OA
ATOM     10  H   UNL A   1      33.982  22.170  22.545  1.00  0.00     0.163 HD
BRANCH   8  11
ATOM     11  C   UNL A   1      32.376  24.130  24.755  1.00  0.00     0.088 C 
ATOM     12  H   UNL A   1      31.865  23.268  25.129  1.00  0.00     0.045 H 
ATOM     13  H   UNL A   1      32.956  24.610  25.515  1.00  0.00     0.045 H 
BRANCH  11  14
ATOM     14  C   UNL A   1      31.367  25.109  24.281  1.00  0.00     0.154 A 
ATOM     15  C   UNL A   1      30.011  26.761  23.691  1.00  0.00     0.122 A 
ATOM     16  N   UNL A   1      29.517  25.648  23.130  1.00  0.00    -0.079 NA
ATOM     17  C   UNL A   1      31.177  26.465  24.457  1.00  0.00     0.053 A 
ATOM     18  O   UNL A   1      30.379  24.627  23.479  1.00  0.00    -0.360 OA
BRANCH  15  19
ATOM     19  C   UNL A   1      29.392  28.064  23.489  1.00  0.00     0.005 A 
ATOM     20  C   UNL A   1      28.219  30.589  23.174  1.00  0.00     0.118 A 
ATOM     21  C   UNL A   1      27.432  29.437  23.125  1.00  0.00    -0.019 A 
ATOM     22  C   UNL A   1      29.589  30.485  23.407  1.00  0.00    -0.019 A 
ATOM     23  C   UNL A   1      28.015  28.175  23.265  1.00  0.00    -0.049 A 
ATOM     24  H   UNL A   1      26.412  29.519  22.986  1.00  0.00     0.066 H 
ATOM     25  C   UNL A   1      30.174  29.225  23.561  1.00  0.00    -0.049 A 
ATOM     26  H   UNL A   1      30.170  31.335  23.466  1.00  0.00     0.066 H 
ATOM     27  H   UNL A   1      27.431  27.326  23.203  1.00  0.00     0.063 H 
ATOM     28  H   UNL A   1      31.189  29.148  23.730  1.00  0.00     0.063 H 
BRANCH  20  29
ATOM     29  O   UNL A   1      27.556  31.777  23.033  1.00  0.00    -0.497 OA
BRANCH  29  30
ATOM     30  C   UNL A   1      28.403  32.877  22.706  1.00  0.00     0.078 C 
ATOM     31  H   UNL A   1      28.188  33.698  23.357  1.00  0.00     0.067 H 
ATOM     32  H   UNL A   1      28.230  33.172  21.693  1.00  0.00     0.067 H 
ATOM     33  H   UNL A   1      29.426  32.586  22.825  1.00  0.00     0.067 H 
ENDBRANCH  29  30
ENDBRANCH  20  29
ENDBRANCH  15  19
BRANCH  17  34
ATOM     34  C   UNL A   1      31.973  27.321  25.316  1.00  0.00    -0.012 A 
ATOM     35  C   UNL A   1      33.236  27.744  24.885  1.00  0.00    -0.050 A 
ATOM     36  C   UNL A   1      31.508  27.729  26.568  1.00  0.00    -0.050 A 
ATOM     37  C   UNL A   1      34.011  28.578  25.691  1.00  0.00    -0.019 A 
ATOM     38  H   UNL A   1      33.595  27.439  23.966  1.00  0.00     0.063 H 
ATOM     39  C   UNL A   1      32.290  28.566  27.376  1.00  0.00    -0.019 A 
ATOM     40  H   UNL A   1      30.583  27.415  26.901  1.00  0.00     0.063 H 
ATOM     41  C   UNL A   1      33.545  28.994  26.939  1.00  0.00     0.118 A 
ATOM     42  H   UNL A   1      34.939  28.890  25.362  1.00  0.00     0.066 H 
ATOM     43  H   UNL A   1      31.937  28.866  28.299  1.00  0.00     0.066 H 
BRANCH  41  44
ATOM     44  O   UNL A   1      34.403  29.809  27.622  1.00  0.00    -0.497 OA
BRANCH  44  45
ATOM     45  C   UNL A   1      34.106  31.200  27.628  1.00  0.00     0.078 C 
ATOM     46  H   UNL A   1      34.846  31.724  27.060  1.00  0.00     0.067 H 
ATOM     47  H   UNL A   1      34.105  31.561  28.634  1.00  0.00     0.067 H 
ATOM     48  H   UNL A   1      33.143  31.360  27.190  1.00  0.00     0.067 H 
ENDBRANCH  44  45
ENDBRANCH  41  44
ENDBRANCH  17  34
ENDBRANCH  11  14
ENDBRANCH   8  11
ENDBRANCH   4   7
ENDBRANCH   1   4
BRANCH   1  49
ATOM     49  C   UNL A   1      33.220  20.384  25.392  1.00  0.00    -0.052 C 
ATOM     50  H   UNL A   1      32.931  19.525  25.960  1.00  0.00     0.027 H 
ATOM     51  H   UNL A   1      32.767  21.291  25.732  1.00  0.00     0.027 H 
BRANCH  49  52
ATOM     52  C   UNL A   1      34.733  20.574  25.555  1.00  0.00    -0.052 C 
ATOM     53  H   UNL A   1      35.184  20.492  24.588  1.00  0.00     0.027 H 
ATOM     54  H   UNL A   1      35.056  19.820  26.242  1.00  0.00     0.027 H 
BRANCH  52  55
ATOM     55  C   UNL A   1      35.160  21.913  26.163  1.00  0.00    -0.036 C 
ATOM     56  H   UNL A   1      35.148  21.815  27.228  1.00  0.00     0.028 H 
ATOM     57  H   UNL A   1      34.468  22.644  25.799  1.00  0.00     0.028 H 
BRANCH  55  58
ATOM     58  C   UNL A   1      36.549  22.391  25.745  1.00  0.00     0.018 C 
ATOM     59  H   UNL A   1      36.826  23.223  26.358  1.00  0.00     0.049 H 
ATOM     60  H   UNL A   1      36.507  22.666  24.712  1.00  0.00     0.049 H 
BRANCH  58  61
ATOM     61  N   UNL A   1      37.551  21.346  25.891  1.00  0.00    -0.352 N 
ATOM     62  C   UNL A   1      38.895  21.451  26.127  1.00  0.00     0.251 C 
ATOM     63  H   UNL A   1      37.211  20.426  25.808  1.00  0.00     0.163 HD
ATOM     64  O   UNL A   1      39.617  20.457  26.025  1.00  0.00    -0.269 OA
BRANCH  62  65
ATOM     65  C   UNL A   1      39.498  22.751  26.490  1.00  0.00     0.039 A 
ATOM     66  C   UNL A   1      40.408  22.798  27.550  1.00  0.00    -0.049 A 
ATOM     67  C   UNL A   1      39.138  23.927  25.823  1.00  0.00    -0.049 A 
ATOM     68  C   UNL A   1      40.994  24.014  27.911  1.00  0.00    -0.053 A 
ATOM     69  H   UNL A   1      40.647  21.936  28.065  1.00  0.00     0.063 H 
ATOM     70  C   UNL A   1      39.768  25.128  26.144  1.00  0.00    -0.053 A 
ATOM     71  H   UNL A   1      38.408  23.904  25.094  1.00  0.00     0.063 H 
ATOM     72  C   UNL A   1      40.696  25.184  27.195  1.00  0.00    -0.014 A 
ATOM     73  H   UNL A   1      41.649  24.051  28.707  1.00  0.00     0.063 H 
ATOM     74  H   UNL A   1      39.550  25.981  25.605  1.00  0.00     0.063 H 
BRANCH  72  75
ATOM     75  C   UNL A   1      41.339  26.476  27.543  1.00  0.00     0.031 A 
ATOM     76  C   UNL A   1      42.763  26.743  27.143  1.00  0.00     0.074 A 
ATOM     77  C   UNL A   1      40.657  27.386  28.262  1.00  0.00     0.049 A 
ATOM     78  N   UNL A   1      43.512  27.787  27.398  1.00  0.00    -0.248 NA
ATOM     79  C   UNL A   1      43.442  25.690  26.373  1.00  0.00    -0.034 C 
ATOM     80  C   UNL A   1      39.285  27.226  28.745  1.00  0.00    -0.036 A 
ATOM     81  N   UNL A   1      41.028  28.625  28.720  1.00  0.00    -0.354 N 
ATOM     82  C   UNL A   1      44.750  27.509  26.834  1.00  0.00     0.074 A 
ATOM     83  C   UNL A   1      44.667  26.181  26.263  1.00  0.00    -0.034 C 
ATOM     84  H   UNL A   1      43.063  24.800  26.013  1.00  0.00     0.065 H 
ATOM     85  C   UNL A   1      38.922  28.332  29.414  1.00  0.00    -0.036 A 
ATOM     86  H   UNL A   1      38.691  26.395  28.594  1.00  0.00     0.065 H 
ATOM     87  C   UNL A   1      40.046  29.265  29.435  1.00  0.00     0.049 A 
ATOM     88  H   UNL A   1      41.915  29.018  28.552  1.00  0.00     0.167 HD
ATOM     89  C   UNL A   1      45.849  28.298  26.779  1.00  0.00     0.037 A 
ATOM     90  H   UNL A   1      45.460  25.683  25.828  1.00  0.00     0.065 H 
ATOM     91  H   UNL A   1      38.000  28.496  29.846  1.00  0.00     0.065 H 
ATOM     92  C   UNL A   1      40.052  30.468  30.039  1.00  0.00     0.037 A 
ATOM     93  C   UNL A   1      45.921  29.629  27.322  1.00  0.00     0.049 A 
ATOM     94  C   UNL A   1      41.284  31.326  29.960  1.00  0.00     0.074 A 
ATOM     95  C   UNL A   1      46.971  30.530  27.265  1.00  0.00    -0.036 A 
ATOM     96  N   UNL A   1      44.899  30.251  28.023  1.00  0.00    -0.354 N 
ATOM     97  N   UNL A   1      42.428  31.079  29.370  1.00  0.00    -0.248 NA
ATOM     98  C   UNL A   1      41.223  32.635  30.626  1.00  0.00    -0.034 C 
ATOM     99  C   UNL A   1      46.596  31.684  27.963  1.00  0.00    -0.036 A 
ATOM    100  H   UNL A   1      47.874  30.378  26.790  1.00  0.00     0.065 H 
ATOM    101  C   UNL A   1      45.299  31.517  28.420  1.00  0.00     0.049 A 
ATOM    102  H   UNL A   1      44.019  29.851  28.212  1.00  0.00     0.167 HD
ATOM    103  C   UNL A   1      43.212  32.206  29.570  1.00  0.00     0.074 A 
ATOM    104  C   UNL A   1      42.409  33.146  30.325  1.00  0.00    -0.034 C 
ATOM    105  H   UNL A   1      40.459  33.048  31.182  1.00  0.00     0.065 H 
ATOM    106  H   UNL A   1      47.186  32.517  28.113  1.00  0.00     0.065 H 
ATOM    107  C   UNL A   1      44.484  32.442  29.164  1.00  0.00     0.037 A 
ATOM    108  H   UNL A   1      42.720  34.092  30.594  1.00  0.00     0.065 H 
BRANCH  89 109
ATOM    109  C   UNL A   1      47.066  27.745  26.098  1.00  0.00     0.064 A 
ATOM    110  C   UNL A   1      47.234  27.835  24.708  1.00  0.00     0.173 A 
ATOM    111  C   UNL A   1      48.094  27.149  26.846  1.00  0.00     0.173 A 
ATOM    112  F   UNL A   1      46.275  28.384  23.948  1.00  0.00    -0.203 F 
ATOM    113  C   UNL A   1      48.373  27.326  24.089  1.00  0.00     0.198 A 
ATOM    114  C   UNL A   1      49.243  26.667  26.227  1.00  0.00     0.198 A 
ATOM    115  F   UNL A   1      47.987  27.044  28.179  1.00  0.00    -0.203 F 
ATOM    116  F   UNL A   1      48.490  27.384  22.755  1.00  0.00    -0.200 F 
ATOM    117  C   UNL A   1      49.379  26.749  24.849  1.00  0.00     0.200 A 
ATOM    118  F   UNL A   1      50.221  26.121  26.963  1.00  0.00    -0.200 F 
ATOM    119  F   UNL A   1      50.478  26.266  24.252  1.00  0.00    -0.200 F 
ENDBRANCH  89 109
BRANCH  92 120
ATOM    120  C   UNL A   1      38.838  30.945  30.749  1.00  0.00     0.064 A 
ATOM    121  C   UNL A   1      38.683  30.734  32.126  1.00  0.00     0.173 A 
ATOM    122  C   UNL A   1      37.811  31.617  30.070  1.00  0.00     0.173 A 
ATOM    123  F   UNL A   1      39.629  30.077  32.813  1.00  0.00    -0.203 F 
ATOM    124  C   UNL A   1      37.538  31.163  32.794  1.00  0.00     0.198 A 
ATOM    125  C   UNL A   1      36.678  32.066  30.745  1.00  0.00     0.198 A 
ATOM    126  F   UNL A   1      37.914  31.846  28.754  1.00  0.00    -0.203 F 
ATOM    127  F   UNL A   1      37.397  30.912  34.104  1.00  0.00    -0.200 F 
ATOM    128  C   UNL A   1      36.540  31.833  32.106  1.00  0.00     0.200 A 
ATOM    129  F   UNL A   1      35.720  32.724  30.078  1.00  0.00    -0.200 F 
ATOM    130  F   UNL A   1      35.440  32.247  32.749  1.00  0.00    -0.200 F 
ENDBRANCH  92 120
BRANCH 107 131
ATOM    131  C   UNL A   1      45.074  33.778  29.501  1.00  0.00     0.064 A 
ATOM    132  C   UNL A   1      45.798  33.983  30.685  1.00  0.00     0.173 A 
ATOM    133  C   UNL A   1      44.947  34.857  28.612  1.00  0.00     0.173 A 
ATOM    134  F   UNL A   1      45.933  32.987  31.575  1.00  0.00    -0.203 F 
ATOM    135  C   UNL A   1      46.354  35.225  30.977  1.00  0.00     0.198 A 
ATOM    136  C   UNL A   1      45.526  36.089  28.896  1.00  0.00     0.198 A 
ATOM    137  F   UNL A   1      44.268  34.710  27.464  1.00  0.00    -0.203 F 
ATOM    138  F   UNL A   1      47.005  35.410  32.134  1.00  0.00    -0.200 F 
ATOM    139  C   UNL A   1      46.225  36.274  30.079  1.00  0.00     0.200 A 
ATOM    140  F   UNL A   1      45.409  37.099  28.022  1.00  0.00    -0.200 F 
ATOM    141  F   UNL A   1      46.765  37.468  30.360  1.00  0.00    -0.200 F 
ENDBRANCH 107 131
ENDBRANCH  72  75
ENDBRANCH  62  65
ENDBRANCH  58  61
ENDBRANCH  55  58
ENDBRANCH  52  55
ENDBRANCH  49  52
ENDBRANCH   1  49
TORSDOF 20
ENDMDL
MODEL 10
REMARK VINA RESULT:     -11.5      4.868     11.236
REMARK SMILES COc1ccc(-c2noc(CC(=O)NCCCCCCNC(=O)c3ccc(-c4c5nc(c(-c6c(F)c(F)c(F)c(F)c6F)c6ccc([nH]6)c(-c6c(F)c(F)c(F)c(F)c6F)c6nc(c(-c7c(F)c(F)c(F)c(F)c7F)c7ccc4[nH]7)C=C6)C=C5)cc3)c2-c2ccc(OC)cc2)cc1
REMARK SMILES IDX 16 1 15 4 14 7 12 8 13 9 11 11 10 14 7 15 8 16 87 17 9 18
REMARK SMILES IDX 6 19 3 20 4 21 97 22 5 23 96 25 2 29 1 30 88 34 89 35 95 36
REMARK SMILES IDX 90 37 94 39 91 41 92 44 93 45 17 49 18 52 19 55 20 58 21 61
REMARK SMILES IDX 22 62 23 64 24 65 25 66 86 67 26 68 85 70 27 72 28 75 29 76
REMARK SMILES IDX 79 77 30 78 84 79 78 80 80 81 31 82 83 83 77 85 76 87 32 89
REMARK SMILES IDX 64 92 44 93 63 94 45 95 48 96 62 97 81 98 46 99 47 101
REMARK SMILES IDX 61 103 82 104 49 107 33 109 34 110 42 111 35 112 36 113
REMARK SMILES IDX 40 114 43 115 37 116 38 117 41 118 39 119 65 120 66 121
REMARK SMILES IDX 74 122 67 123 68 124 72 125 75 126 69 127 70 128 73 129
REMARK SMILES IDX 71 130 50 131 51 132 59 133 52 134 53 135 57 136 60 137
REMARK SMILES IDX 54 138 55 139 58 140 56 141
REMARK H PARENT 16 2 16 3 15 5 15 6 14 10 11 12 11 13 4 24 97 26 5 27 96 28
REMARK H PARENT 1 31 1 32 1 33 89 38 95 40 90 42 94 43 93 46 93 47 93 48 17 50
REMARK H PARENT 17 51 18 53 18 54 19 56 19 57 20 59 20 60 21 63 25 69 86 71
REMARK H PARENT 26 73 85 74 84 84 78 86 80 88 83 90 77 91 45 100 48 102 81 105
REMARK H PARENT 46 106 82 108
REMARK Flexibility Score: inf
ROOT
ATOM      1  C   UNL A   1      32.105  27.951  26.242  1.00  0.00    -0.036 C 
ATOM      2  H   UNL A   1      32.814  28.177  25.474  1.00  0.00     0.028 H 
ATOM      3  H   UNL A   1      32.532  27.363  27.029  1.00  0.00     0.028 H 
ENDROOT
BRANCH   1   4
ATOM      4  C   UNL A   1      30.972  27.129  25.630  1.00  0.00     0.017 C 
ATOM      5  H   UNL A   1      30.106  27.749  25.523  1.00  0.00     0.049 H 
ATOM      6  H   UNL A   1      31.290  26.765  24.675  1.00  0.00     0.049 H 
BRANCH   4   7
ATOM      7  N   UNL A   1      30.642  25.996  26.472  1.00  0.00    -0.356 N 
ATOM      8  C   UNL A   1      30.719  24.664  26.185  1.00  0.00     0.227 C 
ATOM      9  O   UNL A   1      30.286  23.864  27.016  1.00  0.00    -0.275 OA
ATOM     10  H   UNL A   1      30.316  26.219  27.373  1.00  0.00     0.163 HD
BRANCH   8  11
ATOM     11  C   UNL A   1      31.422  24.192  24.929  1.00  0.00     0.088 C 
ATOM     12  H   UNL A   1      31.001  23.253  24.634  1.00  0.00     0.045 H 
ATOM     13  H   UNL A   1      31.282  24.943  24.181  1.00  0.00     0.045 H 
BRANCH  11  14
ATOM     14  C   UNL A   1      32.883  24.018  25.116  1.00  0.00     0.154 A 
ATOM     15  C   UNL A   1      35.026  23.496  25.349  1.00  0.00     0.122 A 
ATOM     16  N   UNL A   1      34.948  24.831  25.454  1.00  0.00    -0.079 NA
ATOM     17  C   UNL A   1      33.731  22.930  25.158  1.00  0.00     0.053 A 
ATOM     18  O   UNL A   1      33.615  25.153  25.283  1.00  0.00    -0.360 OA
BRANCH  15  19
ATOM     19  C   UNL A   1      36.299  22.793  25.417  1.00  0.00     0.005 A 
ATOM     20  C   UNL A   1      38.715  21.386  25.596  1.00  0.00     0.118 A 
ATOM     21  C   UNL A   1      38.610  22.672  26.128  1.00  0.00    -0.019 A 
ATOM     22  C   UNL A   1      37.608  20.789  24.997  1.00  0.00    -0.019 A 
ATOM     23  C   UNL A   1      37.411  23.384  26.026  1.00  0.00    -0.049 A 
ATOM     24  H   UNL A   1      39.422  23.099  26.601  1.00  0.00     0.066 H 
ATOM     25  C   UNL A   1      36.404  21.492  24.906  1.00  0.00    -0.049 A 
ATOM     26  H   UNL A   1      37.676  19.830  24.623  1.00  0.00     0.066 H 
ATOM     27  H   UNL A   1      37.347  24.344  26.399  1.00  0.00     0.063 H 
ATOM     28  H   UNL A   1      35.585  21.050  24.460  1.00  0.00     0.063 H 
BRANCH  20  29
ATOM     29  O   UNL A   1      39.926  20.768  25.750  1.00  0.00    -0.497 OA
BRANCH  29  30
ATOM     30  C   UNL A   1      40.571  21.061  26.987  1.00  0.00     0.078 C 
ATOM     31  H   UNL A   1      41.078  20.188  27.341  1.00  0.00     0.067 H 
ATOM     32  H   UNL A   1      39.841  21.365  27.707  1.00  0.00     0.067 H 
ATOM     33  H   UNL A   1      41.280  21.850  26.842  1.00  0.00     0.067 H 
ENDBRANCH  29  30
ENDBRANCH  20  29
ENDBRANCH  15  19
BRANCH  17  34
ATOM     34  C   UNL A   1      33.318  21.540  25.103  1.00  0.00    -0.012 A 
ATOM     35  C   UNL A   1      32.928  20.987  23.877  1.00  0.00    -0.050 A 
ATOM     36  C   UNL A   1      33.297  20.742  26.249  1.00  0.00    -0.050 A 
ATOM     37  C   UNL A   1      32.540  19.649  23.802  1.00  0.00    -0.019 A 
ATOM     38  H   UNL A   1      32.929  21.570  23.026  1.00  0.00     0.063 H 
ATOM     39  C   UNL A   1      32.905  19.398  26.169  1.00  0.00    -0.019 A 
ATOM     40  H   UNL A   1      33.572  21.142  27.159  1.00  0.00     0.063 H 
ATOM     41  C   UNL A   1      32.527  18.847  24.944  1.00  0.00     0.118 A 
ATOM     42  H   UNL A   1      32.260  19.248  22.892  1.00  0.00     0.066 H 
ATOM     43  H   UNL A   1      32.896  18.814  27.020  1.00  0.00     0.066 H 
BRANCH  41  44
ATOM     44  O   UNL A   1      32.129  17.558  24.727  1.00  0.00    -0.497 OA
BRANCH  44  45
ATOM     45  C   UNL A   1      33.152  16.577  24.610  1.00  0.00     0.078 C 
ATOM     46  H   UNL A   1      32.749  15.694  24.159  1.00  0.00     0.067 H 
ATOM     47  H   UNL A   1      33.533  16.341  25.581  1.00  0.00     0.067 H 
ATOM     48  H   UNL A   1      33.944  16.959  23.999  1.00  0.00     0.067 H 
ENDBRANCH  44  45
ENDBRANCH  41  44
ENDBRANCH  17  34
ENDBRANCH  11  14
ENDBRANCH   8  11
ENDBRANCH   4   7
ENDBRANCH   1   4
BRANCH   1  49
ATOM     49  C   UNL A   1      31.635  29.270  26.872  1.00  0.00    -0.052 C 
ATOM     50  H   UNL A   1      32.377  29.584  27.577  1.00  0.00     0.027 H 
ATOM     51  H   UNL A   1      30.685  29.067  27.317  1.00  0.00     0.027 H 
BRANCH  49  52
ATOM     52  C   UNL A   1      31.406  30.416  25.879  1.00  0.00    -0.052 C 
ATOM     53  H   UNL A   1      30.509  30.209  25.336  1.00  0.00     0.027 H 
ATOM     54  H   UNL A   1      32.280  30.454  25.262  1.00  0.00     0.027 H 
BRANCH  52  55
ATOM     55  C   UNL A   1      31.269  31.805  26.509  1.00  0.00    -0.036 C 
ATOM     56  H   UNL A   1      30.685  31.711  27.399  1.00  0.00     0.028 H 
ATOM     57  H   UNL A   1      30.813  32.429  25.769  1.00  0.00     0.028 H 
BRANCH  55  58
ATOM     58  C   UNL A   1      32.592  32.473  26.877  1.00  0.00     0.018 C 
ATOM     59  H   UNL A   1      33.210  32.518  26.005  1.00  0.00     0.049 H 
ATOM     60  H   UNL A   1      33.052  31.892  27.649  1.00  0.00     0.049 H 
BRANCH  58  61
ATOM     61  N   UNL A   1      32.399  33.823  27.385  1.00  0.00    -0.352 N 
ATOM     62  C   UNL A   1      33.019  34.463  28.424  1.00  0.00     0.251 C 
ATOM     63  H   UNL A   1      31.721  34.355  26.911  1.00  0.00     0.163 HD
ATOM     64  O   UNL A   1      32.582  35.542  28.830  1.00  0.00    -0.269 OA
BRANCH  62  65
ATOM     65  C   UNL A   1      34.201  33.866  29.080  1.00  0.00     0.039 A 
ATOM     66  C   UNL A   1      35.466  34.386  28.789  1.00  0.00    -0.049 A 
ATOM     67  C   UNL A   1      34.076  32.770  29.940  1.00  0.00    -0.049 A 
ATOM     68  C   UNL A   1      36.599  33.841  29.397  1.00  0.00    -0.053 A 
ATOM     69  H   UNL A   1      35.562  35.172  28.127  1.00  0.00     0.063 H 
ATOM     70  C   UNL A   1      35.200  32.266  30.592  1.00  0.00    -0.053 A 
ATOM     71  H   UNL A   1      33.152  32.337  30.093  1.00  0.00     0.063 H 
ATOM     72  C   UNL A   1      36.473  32.792  30.322  1.00  0.00    -0.014 A 
ATOM     73  H   UNL A   1      37.534  34.212  29.166  1.00  0.00     0.063 H 
ATOM     74  H   UNL A   1      35.096  31.502  31.279  1.00  0.00     0.063 H 
BRANCH  72  75
ATOM     75  C   UNL A   1      37.664  32.229  31.004  1.00  0.00     0.031 A 
ATOM     76  C   UNL A   1      38.500  31.181  30.325  1.00  0.00     0.074 A 
ATOM     77  C   UNL A   1      37.963  32.624  32.256  1.00  0.00     0.049 A 
ATOM     78  N   UNL A   1      39.545  30.534  30.777  1.00  0.00    -0.248 NA
ATOM     79  C   UNL A   1      38.095  30.793  28.965  1.00  0.00    -0.034 C 
ATOM     80  C   UNL A   1      37.204  33.603  33.036  1.00  0.00    -0.036 A 
ATOM     81  N   UNL A   1      38.980  32.245  33.095  1.00  0.00    -0.354 N 
ATOM     82  C   UNL A   1      39.912  29.656  29.766  1.00  0.00     0.074 A 
ATOM     83  C   UNL A   1      38.952  29.818  28.695  1.00  0.00    -0.034 C 
ATOM     84  H   UNL A   1      37.341  31.177  28.376  1.00  0.00     0.065 H 
ATOM     85  C   UNL A   1      37.793  33.762  34.232  1.00  0.00    -0.036 A 
ATOM     86  H   UNL A   1      36.353  34.092  32.718  1.00  0.00     0.065 H 
ATOM     87  C   UNL A   1      38.951  32.875  34.315  1.00  0.00     0.049 A 
ATOM     88  H   UNL A   1      39.666  31.585  32.846  1.00  0.00     0.167 HD
ATOM     89  C   UNL A   1      40.965  28.806  29.727  1.00  0.00     0.037 A 
ATOM     90  H   UNL A   1      38.937  29.249  27.834  1.00  0.00     0.065 H 
ATOM     91  H   UNL A   1      37.478  34.406  34.974  1.00  0.00     0.065 H 
ATOM     92  C   UNL A   1      39.765  32.750  35.379  1.00  0.00     0.037 A 
ATOM     93  C   UNL A   1      41.935  28.665  30.781  1.00  0.00     0.049 A 
ATOM     94  C   UNL A   1      40.931  31.802  35.308  1.00  0.00     0.074 A 
ATOM     95  C   UNL A   1      43.071  27.874  30.810  1.00  0.00    -0.036 A 
ATOM     96  N   UNL A   1      41.882  29.334  31.995  1.00  0.00    -0.354 N 
ATOM     97  N   UNL A   1      41.304  31.022  34.322  1.00  0.00    -0.248 NA
ATOM     98  C   UNL A   1      41.792  31.721  36.496  1.00  0.00    -0.034 C 
ATOM     99  C   UNL A   1      43.686  28.038  32.056  1.00  0.00    -0.036 A 
ATOM    100  H   UNL A   1      43.407  27.269  30.045  1.00  0.00     0.065 H 
ATOM    101  C   UNL A   1      42.956  28.961  32.787  1.00  0.00     0.049 A 
ATOM    102  H   UNL A   1      41.185  29.979  32.255  1.00  0.00     0.167 HD
ATOM    103  C   UNL A   1      42.454  30.380  34.759  1.00  0.00     0.074 A 
ATOM    104  C   UNL A   1      42.726  30.870  36.094  1.00  0.00    -0.034 C 
ATOM    105  H   UNL A   1      41.695  32.200  37.404  1.00  0.00     0.065 H 
ATOM    106  H   UNL A   1      44.538  27.553  32.377  1.00  0.00     0.065 H 
ATOM    107  C   UNL A   1      43.216  29.465  34.111  1.00  0.00     0.037 A 
ATOM    108  H   UNL A   1      43.543  30.593  36.660  1.00  0.00     0.065 H 
BRANCH  89 109
ATOM    109  C   UNL A   1      41.131  27.964  28.496  1.00  0.00     0.064 A 
ATOM    110  C   UNL A   1      41.823  28.438  27.371  1.00  0.00     0.173 A 
ATOM    111  C   UNL A   1      40.623  26.656  28.452  1.00  0.00     0.173 A 
ATOM    112  F   UNL A   1      42.317  29.684  27.358  1.00  0.00    -0.203 F 
ATOM    113  C   UNL A   1      41.979  27.643  26.238  1.00  0.00     0.198 A 
ATOM    114  C   UNL A   1      40.805  25.855  27.328  1.00  0.00     0.198 A 
ATOM    115  F   UNL A   1      39.959  26.152  29.503  1.00  0.00    -0.203 F 
ATOM    116  F   UNL A   1      42.605  28.133  25.159  1.00  0.00    -0.200 F 
ATOM    117  C   UNL A   1      41.476  26.350  26.220  1.00  0.00     0.200 A 
ATOM    118  F   UNL A   1      40.329  24.602  27.316  1.00  0.00    -0.200 F 
ATOM    119  F   UNL A   1      41.632  25.584  25.131  1.00  0.00    -0.200 F 
ENDBRANCH  89 109
BRANCH  92 120
ATOM    120  C   UNL A   1      39.524  33.567  36.596  1.00  0.00     0.064 A 
ATOM    121  C   UNL A   1      40.070  34.852  36.715  1.00  0.00     0.173 A 
ATOM    122  C   UNL A   1      38.748  33.084  37.659  1.00  0.00     0.173 A 
ATOM    123  F   UNL A   1      40.837  35.348  35.733  1.00  0.00    -0.203 F 
ATOM    124  C   UNL A   1      39.863  35.617  37.862  1.00  0.00     0.198 A 
ATOM    125  C   UNL A   1      38.522  33.860  38.793  1.00  0.00     0.198 A 
ATOM    126  F   UNL A   1      38.201  31.862  37.590  1.00  0.00    -0.203 F 
ATOM    127  F   UNL A   1      40.431  36.826  37.968  1.00  0.00    -0.200 F 
ATOM    128  C   UNL A   1      39.086  35.123  38.897  1.00  0.00     0.200 A 
ATOM    129  F   UNL A   1      37.760  33.383  39.788  1.00  0.00    -0.200 F 
ATOM    130  F   UNL A   1      38.885  35.860  39.998  1.00  0.00    -0.200 F 
ENDBRANCH  92 120
BRANCH 107 131
ATOM    131  C   UNL A   1      44.433  28.959  34.825  1.00  0.00     0.064 A 
ATOM    132  C   UNL A   1      44.394  27.797  35.610  1.00  0.00     0.173 A 
ATOM    133  C   UNL A   1      45.663  29.622  34.691  1.00  0.00     0.173 A 
ATOM    134  F   UNL A   1      43.237  27.138  35.782  1.00  0.00    -0.203 F 
ATOM    135  C   UNL A   1      45.536  27.330  36.254  1.00  0.00     0.198 A 
ATOM    136  C   UNL A   1      46.808  29.137  35.314  1.00  0.00     0.198 A 
ATOM    137  F   UNL A   1      45.754  30.734  33.946  1.00  0.00    -0.203 F 
ATOM    138  F   UNL A   1      45.465  26.243  37.034  1.00  0.00    -0.200 F 
ATOM    139  C   UNL A   1      46.743  27.995  36.099  1.00  0.00     0.200 A 
ATOM    140  F   UNL A   1      47.977  29.775  35.156  1.00  0.00    -0.200 F 
ATOM    141  F   UNL A   1      47.843  27.541  36.716  1.00  0.00    -0.200 F 
ENDBRANCH 107 131
ENDBRANCH  72  75
ENDBRANCH  62  65
ENDBRANCH  58  61
ENDBRANCH  55  58
ENDBRANCH  52  55
ENDBRANCH  49  52
ENDBRANCH   1  49
TORSDOF 20
ENDMDL
