MODEL 1
REMARK VINA RESULT:     -12.7      0.000      0.000
REMARK SMILES O=C(NCCCCCCNC(=O)c1ccccc1/N=C/c1coc2ccccc2c1=O)c1ccc(-c2c3nc(c(-c4c(F)c(F)c(F)c(F)c4F)c4ccc([nH]4)c(-c4c(F)c(F)c(F)c(F)c4F)c4nc(c(-c5c(F)c(F)c(F)c(F)c5F)c5ccc2[nH]5)C=C4)C=C3)cc1
REMARK SMILES IDX 6 1 5 4 4 7 3 10 1 11 2 12 32 14 33 15 94 16 34 17 93 19
REMARK SMILES IDX 35 21 36 24 37 25 87 26 38 27 92 28 86 29 88 30 39 31 91 32
REMARK SMILES IDX 85 34 84 36 40 38 72 41 52 42 71 43 53 44 56 45 70 46 89 47
REMARK SMILES IDX 54 48 55 50 69 52 90 53 57 56 41 58 42 59 50 60 43 61 44 62
REMARK SMILES IDX 48 63 51 64 45 65 46 66 49 67 47 68 73 69 74 70 82 71 75 72
REMARK SMILES IDX 76 73 80 74 83 75 77 76 78 77 81 78 79 79 58 80 59 81 67 82
REMARK SMILES IDX 60 83 61 84 65 85 68 86 62 87 63 88 66 89 64 90 7 91 8 94
REMARK SMILES IDX 9 97 10 100 11 101 12 103 13 104 14 105 18 106 15 107 17 109
REMARK SMILES IDX 16 110 19 114 20 115 21 117 22 118 30 119 23 120 29 122
REMARK SMILES IDX 31 123 24 124 28 125 25 126 27 127 26 129
REMARK H PARENT 6 2 6 3 5 5 5 6 4 8 4 9 3 13 33 18 94 20 34 22 93 23 92 33
REMARK H PARENT 86 35 88 37 91 39 85 40 53 49 56 51 89 54 54 55 90 57 7 92
REMARK H PARENT 7 93 8 95 8 96 9 98 9 99 10 102 14 108 15 111 17 112 16 113
REMARK H PARENT 20 116 22 121 28 128 25 130 27 131 26 132
REMARK Flexibility Score: inf
ROOT
ATOM      1  C   UNL A   1      31.232  30.723  25.586  1.00  0.00    -0.052 C 
ATOM      2  H   UNL A   1      31.732  31.011  24.685  1.00  0.00     0.027 H 
ATOM      3  H   UNL A   1      30.227  30.390  25.438  1.00  0.00     0.027 H 
ENDROOT
BRANCH   1   4
ATOM      4  C   UNL A   1      31.133  31.957  26.482  1.00  0.00    -0.036 C 
ATOM      5  H   UNL A   1      30.680  32.740  25.909  1.00  0.00     0.028 H 
ATOM      6  H   UNL A   1      30.565  31.646  27.333  1.00  0.00     0.028 H 
BRANCH   4   7
ATOM      7  C   UNL A   1      32.444  32.492  27.043  1.00  0.00     0.018 C 
ATOM      8  H   UNL A   1      32.747  31.863  27.855  1.00  0.00     0.049 H 
ATOM      9  H   UNL A   1      33.154  32.490  26.243  1.00  0.00     0.049 H 
BRANCH   7  10
ATOM     10  N   UNL A   1      32.350  33.856  27.529  1.00  0.00    -0.352 N 
ATOM     11  O   UNL A   1      32.784  35.657  28.805  1.00  0.00    -0.269 OA
ATOM     12  C   UNL A   1      33.105  34.516  28.468  1.00  0.00     0.251 C 
ATOM     13  H   UNL A   1      31.634  34.394  27.121  1.00  0.00     0.163 HD
BRANCH  12  14
ATOM     14  C   UNL A   1      34.284  33.880  29.104  1.00  0.00     0.039 A 
ATOM     15  C   UNL A   1      34.166  32.787  29.965  1.00  0.00    -0.049 A 
ATOM     16  C   UNL A   1      35.559  34.360  28.775  1.00  0.00    -0.049 A 
ATOM     17  C   UNL A   1      35.299  32.252  30.579  1.00  0.00    -0.053 A 
ATOM     18  H   UNL A   1      33.238  32.373  30.149  1.00  0.00     0.063 H 
ATOM     19  C   UNL A   1      36.702  33.785  29.342  1.00  0.00    -0.053 A 
ATOM     20  H   UNL A   1      35.655  35.144  28.111  1.00  0.00     0.063 H 
ATOM     21  C   UNL A   1      36.578  32.741  30.270  1.00  0.00    -0.014 A 
ATOM     22  H   UNL A   1      35.196  31.490  31.267  1.00  0.00     0.063 H 
ATOM     23  H   UNL A   1      37.637  34.130  29.077  1.00  0.00     0.063 H 
BRANCH  21  24
ATOM     24  C   UNL A   1      37.772  32.115  30.891  1.00  0.00     0.031 A 
ATOM     25  C   UNL A   1      38.181  32.446  32.298  1.00  0.00     0.074 A 
ATOM     26  C   UNL A   1      38.475  31.208  30.185  1.00  0.00     0.049 A 
ATOM     27  N   UNL A   1      39.169  31.956  33.006  1.00  0.00    -0.248 NA
ATOM     28  C   UNL A   1      37.385  33.462  33.001  1.00  0.00    -0.034 C 
ATOM     29  C   UNL A   1      38.195  30.815  28.804  1.00  0.00    -0.036 A 
ATOM     30  N   UNL A   1      39.552  30.436  30.541  1.00  0.00    -0.354 N 
ATOM     31  C   UNL A   1      39.126  32.616  34.226  1.00  0.00     0.074 A 
ATOM     32  C   UNL A   1      38.020  33.550  34.161  1.00  0.00    -0.034 C 
ATOM     33  H   UNL A   1      36.549  33.974  32.676  1.00  0.00     0.065 H 
ATOM     34  C   UNL A   1      39.043  29.839  28.446  1.00  0.00    -0.036 A 
ATOM     35  H   UNL A   1      37.463  31.224  28.202  1.00  0.00     0.065 H 
ATOM     36  C   UNL A   1      39.944  29.559  29.560  1.00  0.00     0.049 A 
ATOM     37  H   UNL A   1      40.000  30.503  31.415  1.00  0.00     0.167 HD
ATOM     38  C   UNL A   1      39.932  32.454  35.302  1.00  0.00     0.037 A 
ATOM     39  H   UNL A   1      37.761  34.199  34.922  1.00  0.00     0.065 H 
ATOM     40  H   UNL A   1      39.056  29.362  27.530  1.00  0.00     0.065 H 
ATOM     41  C   UNL A   1      40.913  28.626  29.561  1.00  0.00     0.037 A 
ATOM     42  C   UNL A   1      41.015  31.511  35.384  1.00  0.00     0.049 A 
ATOM     43  C   UNL A   1      41.764  28.440  30.781  1.00  0.00     0.074 A 
ATOM     44  C   UNL A   1      41.877  31.272  36.443  1.00  0.00    -0.036 A 
ATOM     45  N   UNL A   1      41.382  30.643  34.368  1.00  0.00    -0.354 N 
ATOM     46  N   UNL A   1      41.707  29.067  31.929  1.00  0.00    -0.248 NA
ATOM     47  C   UNL A   1      42.818  27.418  30.703  1.00  0.00    -0.034 C 
ATOM     48  C   UNL A   1      42.772  30.266  36.062  1.00  0.00    -0.036 A 
ATOM     49  H   UNL A   1      41.861  31.754  37.356  1.00  0.00     0.065 H 
ATOM     50  C   UNL A   1      42.457  29.868  34.773  1.00  0.00     0.049 A 
ATOM     51  H   UNL A   1      40.944  30.586  33.488  1.00  0.00     0.167 HD
ATOM     52  C   UNL A   1      42.716  28.524  32.708  1.00  0.00     0.074 A 
ATOM     53  C   UNL A   1      43.356  27.497  31.912  1.00  0.00    -0.034 C 
ATOM     54  H   UNL A   1      43.072  26.802  29.915  1.00  0.00     0.065 H 
ATOM     55  H   UNL A   1      43.537  29.886  36.642  1.00  0.00     0.065 H 
ATOM     56  C   UNL A   1      43.084  28.855  33.968  1.00  0.00     0.037 A 
ATOM     57  H   UNL A   1      44.134  26.903  32.244  1.00  0.00     0.065 H 
BRANCH  38  58
ATOM     58  C   UNL A   1      39.674  33.326  36.492  1.00  0.00     0.064 A 
ATOM     59  C   UNL A   1      40.318  34.562  36.641  1.00  0.00     0.173 A 
ATOM     60  C   UNL A   1      38.737  32.945  37.463  1.00  0.00     0.173 A 
ATOM     61  F   UNL A   1      41.229  34.962  35.740  1.00  0.00    -0.203 F 
ATOM     62  C   UNL A   1      40.038  35.384  37.729  1.00  0.00     0.198 A 
ATOM     63  C   UNL A   1      38.451  33.776  38.543  1.00  0.00     0.198 A 
ATOM     64  F   UNL A   1      38.095  31.773  37.359  1.00  0.00    -0.203 F 
ATOM     65  F   UNL A   1      40.679  36.554  37.864  1.00  0.00    -0.200 F 
ATOM     66  C   UNL A   1      39.102  34.993  38.675  1.00  0.00     0.200 A 
ATOM     67  F   UNL A   1      37.542  33.401  39.454  1.00  0.00    -0.200 F 
ATOM     68  F   UNL A   1      38.830  35.790  39.718  1.00  0.00    -0.200 F 
ENDBRANCH  38  58
BRANCH  41  69
ATOM     69  C   UNL A   1      41.104  27.776  28.363  1.00  0.00     0.064 A 
ATOM     70  C   UNL A   1      41.989  28.162  27.349  1.00  0.00     0.173 A 
ATOM     71  C   UNL A   1      40.432  26.554  28.226  1.00  0.00     0.173 A 
ATOM     72  F   UNL A   1      42.637  29.332  27.435  1.00  0.00    -0.203 F 
ATOM     73  C   UNL A   1      42.196  27.352  26.234  1.00  0.00     0.198 A 
ATOM     74  C   UNL A   1      40.651  25.739  27.117  1.00  0.00     0.198 A 
ATOM     75  F   UNL A   1      39.577  26.147  29.175  1.00  0.00    -0.203 F 
ATOM     76  F   UNL A   1      43.034  27.750  25.267  1.00  0.00    -0.200 F 
ATOM     77  C   UNL A   1      41.530  26.140  26.122  1.00  0.00     0.200 A 
ATOM     78  F   UNL A   1      40.013  24.566  27.014  1.00  0.00    -0.200 F 
ATOM     79  F   UNL A   1      41.736  25.359  25.052  1.00  0.00    -0.200 F 
ENDBRANCH  41  69
BRANCH  56  80
ATOM     80  C   UNL A   1      44.237  28.103  34.557  1.00  0.00     0.064 A 
ATOM     81  C   UNL A   1      45.548  28.583  34.435  1.00  0.00     0.173 A 
ATOM     82  C   UNL A   1      44.027  26.914  35.267  1.00  0.00     0.173 A 
ATOM     83  F   UNL A   1      45.794  29.709  33.750  1.00  0.00    -0.203 F 
ATOM     84  C   UNL A   1      46.615  27.886  34.994  1.00  0.00     0.198 A 
ATOM     85  C   UNL A   1      45.095  26.226  35.835  1.00  0.00     0.198 A 
ATOM     86  F   UNL A   1      42.788  26.418  35.406  1.00  0.00    -0.203 F 
ATOM     87  F   UNL A   1      47.865  28.345  34.843  1.00  0.00    -0.200 F 
ATOM     88  C   UNL A   1      46.388  26.711  35.695  1.00  0.00     0.200 A 
ATOM     89  F   UNL A   1      44.876  25.091  36.511  1.00  0.00    -0.200 F 
ATOM     90  F   UNL A   1      47.418  26.039  36.230  1.00  0.00    -0.200 F 
ENDBRANCH  56  80
ENDBRANCH  21  24
ENDBRANCH  12  14
ENDBRANCH   7  10
ENDBRANCH   4   7
ENDBRANCH   1   4
BRANCH   1  91
ATOM     91  C   UNL A   1      31.983  29.528  26.178  1.00  0.00    -0.052 C 
ATOM     92  H   UNL A   1      31.342  28.674  26.106  1.00  0.00     0.027 H 
ATOM     93  H   UNL A   1      32.228  29.815  27.180  1.00  0.00     0.027 H 
BRANCH  91  94
ATOM     94  C   UNL A   1      33.321  29.166  25.520  1.00  0.00    -0.036 C 
ATOM     95  H   UNL A   1      34.104  29.560  26.135  1.00  0.00     0.028 H 
ATOM     96  H   UNL A   1      33.279  29.586  24.537  1.00  0.00     0.028 H 
BRANCH  94  97
ATOM     97  C   UNL A   1      33.595  27.675  25.316  1.00  0.00     0.018 C 
ATOM     98  H   UNL A   1      32.712  27.127  25.569  1.00  0.00     0.049 H 
ATOM     99  H   UNL A   1      34.421  27.411  25.943  1.00  0.00     0.049 H 
BRANCH  97 100
ATOM    100  N   UNL A   1      33.965  27.350  23.950  1.00  0.00    -0.352 N 
ATOM    101  C   UNL A   1      33.193  27.380  22.820  1.00  0.00     0.253 C 
ATOM    102  H   UNL A   1      34.899  27.067  23.819  1.00  0.00     0.163 HD
ATOM    103  O   UNL A   1      33.694  27.141  21.723  1.00  0.00    -0.269 OA
BRANCH 101 104
ATOM    104  C   UNL A   1      31.753  27.666  22.890  1.00  0.00     0.065 A 
ATOM    105  C   UNL A   1      31.320  28.890  22.354  1.00  0.00    -0.047 A 
ATOM    106  C   UNL A   1      30.841  26.809  23.513  1.00  0.00     0.076 A 
ATOM    107  C   UNL A   1      29.972  29.249  22.410  1.00  0.00    -0.061 A 
ATOM    108  H   UNL A   1      32.002  29.528  21.916  1.00  0.00     0.063 H 
ATOM    109  C   UNL A   1      29.492  27.196  23.571  1.00  0.00    -0.036 A 
ATOM    110  C   UNL A   1      29.056  28.404  23.027  1.00  0.00    -0.060 A 
ATOM    111  H   UNL A   1      29.656  30.140  21.995  1.00  0.00     0.062 H 
ATOM    112  H   UNL A   1      28.807  26.572  24.026  1.00  0.00     0.065 H 
ATOM    113  H   UNL A   1      28.060  28.668  23.081  1.00  0.00     0.062 H 
BRANCH 106 114
ATOM    114  N   UNL A   1      31.092  25.511  23.944  1.00  0.00    -0.255 NA
ATOM    115  C   UNL A   1      30.876  25.086  25.147  1.00  0.00     0.042 C 
ATOM    116  H   UNL A   1      30.619  25.717  25.923  1.00  0.00     0.085 H 
BRANCH 115 117
ATOM    117  C   UNL A   1      31.027  23.622  25.322  1.00  0.00     0.076 A 
ATOM    118  C   UNL A   1      31.234  23.028  24.132  1.00  0.00     0.104 A 
ATOM    119  C   UNL A   1      31.920  23.138  26.406  1.00  0.00     0.201 A 
ATOM    120  O   UNL A   1      32.290  22.154  23.886  1.00  0.00    -0.463 OA
ATOM    121  H   UNL A   1      30.577  23.230  23.361  1.00  0.00     0.105 H 
ATOM    122  C   UNL A   1      33.292  22.902  25.942  1.00  0.00     0.065 A 
ATOM    123  O   UNL A   1      31.580  23.052  27.575  1.00  0.00    -0.288 OA
ATOM    124  C   UNL A   1      33.419  22.440  24.630  1.00  0.00     0.137 A 
ATOM    125  C   UNL A   1      34.395  23.317  26.683  1.00  0.00    -0.047 A 
ATOM    126  C   UNL A   1      34.674  22.377  24.040  1.00  0.00    -0.019 A 
ATOM    127  C   UNL A   1      35.649  23.291  26.077  1.00  0.00    -0.061 A 
ATOM    128  H   UNL A   1      34.286  23.637  27.659  1.00  0.00     0.063 H 
ATOM    129  C   UNL A   1      35.788  22.824  24.763  1.00  0.00    -0.059 A 
ATOM    130  H   UNL A   1      34.785  22.006  23.083  1.00  0.00     0.066 H 
ATOM    131  H   UNL A   1      36.480  23.617  26.597  1.00  0.00     0.062 H 
ATOM    132  H   UNL A   1      36.722  22.808  24.323  1.00  0.00     0.062 H 
ENDBRANCH 115 117
ENDBRANCH 106 114
ENDBRANCH 101 104
ENDBRANCH  97 100
ENDBRANCH  94  97
ENDBRANCH  91  94
ENDBRANCH   1  91
TORSDOF 15
ENDMDL
MODEL 2
REMARK VINA RESULT:     -12.7      0.356      1.260
REMARK SMILES O=C(NCCCCCCNC(=O)c1ccccc1/N=C/c1coc2ccccc2c1=O)c1ccc(-c2c3nc(c(-c4c(F)c(F)c(F)c(F)c4F)c4ccc([nH]4)c(-c4c(F)c(F)c(F)c(F)c4F)c4nc(c(-c5c(F)c(F)c(F)c(F)c5F)c5ccc2[nH]5)C=C4)C=C3)cc1
REMARK SMILES IDX 6 1 5 4 4 7 3 10 1 11 2 12 32 14 33 15 94 16 34 17 93 19
REMARK SMILES IDX 35 21 36 24 37 25 87 26 38 27 92 28 86 29 88 30 39 31 91 32
REMARK SMILES IDX 85 34 84 36 40 38 72 41 52 42 71 43 53 44 56 45 70 46 89 47
REMARK SMILES IDX 54 48 55 50 69 52 90 53 57 56 41 58 42 59 50 60 43 61 44 62
REMARK SMILES IDX 48 63 51 64 45 65 46 66 49 67 47 68 73 69 74 70 82 71 75 72
REMARK SMILES IDX 76 73 80 74 83 75 77 76 78 77 81 78 79 79 58 80 59 81 67 82
REMARK SMILES IDX 60 83 61 84 65 85 68 86 62 87 63 88 66 89 64 90 7 91 8 94
REMARK SMILES IDX 9 97 10 100 11 101 12 103 13 104 14 105 18 106 15 107 17 109
REMARK SMILES IDX 16 110 19 114 20 115 21 117 22 118 30 119 23 120 29 122
REMARK SMILES IDX 31 123 24 124 28 125 25 126 27 127 26 129
REMARK H PARENT 6 2 6 3 5 5 5 6 4 8 4 9 3 13 33 18 94 20 34 22 93 23 92 33
REMARK H PARENT 86 35 88 37 91 39 85 40 53 49 56 51 89 54 54 55 90 57 7 92
REMARK H PARENT 7 93 8 95 8 96 9 98 9 99 10 102 14 108 15 111 17 112 16 113
REMARK H PARENT 20 116 22 121 28 128 25 130 27 131 26 132
REMARK Flexibility Score: inf
ROOT
ATOM      1  C   UNL A   1      31.258  30.460  25.735  1.00  0.00    -0.052 C 
ATOM      2  H   UNL A   1      31.903  30.607  24.893  1.00  0.00     0.027 H 
ATOM      3  H   UNL A   1      30.251  30.211  25.472  1.00  0.00     0.027 H 
ENDROOT
BRANCH   1   4
ATOM      4  C   UNL A   1      31.174  31.783  26.495  1.00  0.00    -0.036 C 
ATOM      5  H   UNL A   1      30.636  32.478  25.884  1.00  0.00     0.028 H 
ATOM      6  H   UNL A   1      30.696  31.548  27.423  1.00  0.00     0.028 H 
BRANCH   4   7
ATOM      7  C   UNL A   1      32.500  32.429  26.876  1.00  0.00     0.018 C 
ATOM      8  H   UNL A   1      32.974  31.819  27.616  1.00  0.00     0.049 H 
ATOM      9  H   UNL A   1      33.082  32.506  25.981  1.00  0.00     0.049 H 
BRANCH   7  10
ATOM     10  N   UNL A   1      32.356  33.771  27.409  1.00  0.00    -0.352 N 
ATOM     11  O   UNL A   1      32.722  35.540  28.749  1.00  0.00    -0.269 OA
ATOM     12  C   UNL A   1      33.084  34.425  28.372  1.00  0.00     0.251 C 
ATOM     13  H   UNL A   1      31.620  34.297  27.019  1.00  0.00     0.163 HD
BRANCH  12  14
ATOM     14  C   UNL A   1      34.286  33.810  28.989  1.00  0.00     0.039 A 
ATOM     15  C   UNL A   1      35.574  34.294  28.753  1.00  0.00    -0.049 A 
ATOM     16  C   UNL A   1      34.105  32.747  29.884  1.00  0.00    -0.049 A 
ATOM     17  C   UNL A   1      36.678  33.652  29.316  1.00  0.00    -0.053 A 
ATOM     18  H   UNL A   1      35.711  35.128  28.160  1.00  0.00     0.063 H 
ATOM     19  C   UNL A   1      35.206  32.141  30.498  1.00  0.00    -0.053 A 
ATOM     20  H   UNL A   1      33.152  32.409  30.091  1.00  0.00     0.063 H 
ATOM     21  C   UNL A   1      36.506  32.574  30.198  1.00  0.00    -0.014 A 
ATOM     22  H   UNL A   1      37.630  33.974  29.081  1.00  0.00     0.063 H 
ATOM     23  H   UNL A   1      35.063  31.375  31.173  1.00  0.00     0.063 H 
BRANCH  21  24
ATOM     24  C   UNL A   1      37.694  31.948  30.831  1.00  0.00     0.031 A 
ATOM     25  C   UNL A   1      38.082  32.272  32.245  1.00  0.00     0.074 A 
ATOM     26  C   UNL A   1      38.410  31.049  30.129  1.00  0.00     0.049 A 
ATOM     27  N   UNL A   1      39.062  31.782  32.964  1.00  0.00    -0.248 NA
ATOM     28  C   UNL A   1      37.272  33.280  32.944  1.00  0.00    -0.034 C 
ATOM     29  C   UNL A   1      38.150  30.664  28.742  1.00  0.00    -0.036 A 
ATOM     30  N   UNL A   1      39.485  30.279  30.495  1.00  0.00    -0.354 N 
ATOM     31  C   UNL A   1      38.999  32.433  34.188  1.00  0.00     0.074 A 
ATOM     32  C   UNL A   1      37.891  33.363  34.114  1.00  0.00    -0.034 C 
ATOM     33  H   UNL A   1      36.439  33.791  32.611  1.00  0.00     0.065 H 
ATOM     34  C   UNL A   1      39.007  29.693  28.389  1.00  0.00    -0.036 A 
ATOM     35  H   UNL A   1      37.425  31.074  28.132  1.00  0.00     0.065 H 
ATOM     36  C   UNL A   1      39.894  29.410  29.513  1.00  0.00     0.049 A 
ATOM     37  H   UNL A   1      39.921  30.342  31.375  1.00  0.00     0.167 HD
ATOM     38  C   UNL A   1      39.791  32.267  35.273  1.00  0.00     0.037 A 
ATOM     39  H   UNL A   1      37.619  34.006  34.875  1.00  0.00     0.065 H 
ATOM     40  H   UNL A   1      39.035  29.223  27.470  1.00  0.00     0.065 H 
ATOM     41  C   UNL A   1      40.867  28.481  29.522  1.00  0.00     0.037 A 
ATOM     42  C   UNL A   1      40.878  31.329  35.364  1.00  0.00     0.049 A 
ATOM     43  C   UNL A   1      41.701  28.290  30.752  1.00  0.00     0.074 A 
ATOM     44  C   UNL A   1      41.725  31.086  36.433  1.00  0.00    -0.036 A 
ATOM     45  N   UNL A   1      41.261  30.468  34.348  1.00  0.00    -0.354 N 
ATOM     46  N   UNL A   1      41.626  28.910  31.903  1.00  0.00    -0.248 NA
ATOM     47  C   UNL A   1      42.760  27.273  30.682  1.00  0.00    -0.034 C 
ATOM     48  C   UNL A   1      42.630  30.086  36.058  1.00  0.00    -0.036 A 
ATOM     49  H   UNL A   1      41.695  31.562  37.349  1.00  0.00     0.065 H 
ATOM     50  C   UNL A   1      42.334  29.695  34.762  1.00  0.00     0.049 A 
ATOM     51  H   UNL A   1      40.836  30.415  33.462  1.00  0.00     0.167 HD
ATOM     52  C   UNL A   1      42.627  28.365  32.692  1.00  0.00     0.074 A 
ATOM     53  C   UNL A   1      43.282  27.346  31.899  1.00  0.00    -0.034 C 
ATOM     54  H   UNL A   1      43.028  26.663  29.893  1.00  0.00     0.065 H 
ATOM     55  H   UNL A   1      43.388  29.705  36.646  1.00  0.00     0.065 H 
ATOM     56  C   UNL A   1      42.977  28.690  33.960  1.00  0.00     0.037 A 
ATOM     57  H   UNL A   1      44.057  26.753  32.237  1.00  0.00     0.065 H 
BRANCH  38  58
ATOM     58  C   UNL A   1      39.513  33.131  36.465  1.00  0.00     0.064 A 
ATOM     59  C   UNL A   1      40.131  34.380  36.618  1.00  0.00     0.173 A 
ATOM     60  C   UNL A   1      38.584  32.727  37.435  1.00  0.00     0.173 A 
ATOM     61  F   UNL A   1      41.033  34.802  35.719  1.00  0.00    -0.203 F 
ATOM     62  C   UNL A   1      39.832  35.193  37.707  1.00  0.00     0.198 A 
ATOM     63  C   UNL A   1      38.279  33.549  38.516  1.00  0.00     0.198 A 
ATOM     64  F   UNL A   1      37.968  31.541  37.327  1.00  0.00    -0.203 F 
ATOM     65  F   UNL A   1      40.447  36.377  37.846  1.00  0.00    -0.200 F 
ATOM     66  C   UNL A   1      38.904  34.780  38.652  1.00  0.00     0.200 A 
ATOM     67  F   UNL A   1      37.378  33.152  39.426  1.00  0.00    -0.200 F 
ATOM     68  F   UNL A   1      38.614  35.568  39.697  1.00  0.00    -0.200 F 
ENDBRANCH  38  58
BRANCH  41  69
ATOM     69  C   UNL A   1      41.077  27.639  28.321  1.00  0.00     0.064 A 
ATOM     70  C   UNL A   1      41.939  28.058  27.300  1.00  0.00     0.173 A 
ATOM     71  C   UNL A   1      40.449  26.394  28.188  1.00  0.00     0.173 A 
ATOM     72  F   UNL A   1      42.546  29.250  27.382  1.00  0.00    -0.203 F 
ATOM     73  C   UNL A   1      42.165  27.257  26.182  1.00  0.00     0.198 A 
ATOM     74  C   UNL A   1      40.687  25.589  27.076  1.00  0.00     0.198 A 
ATOM     75  F   UNL A   1      39.616  25.956  29.144  1.00  0.00    -0.203 F 
ATOM     76  F   UNL A   1      42.979  27.686  25.208  1.00  0.00    -0.200 F 
ATOM     77  C   UNL A   1      41.542  26.022  26.074  1.00  0.00     0.200 A 
ATOM     78  F   UNL A   1      40.090  24.394  26.978  1.00  0.00    -0.200 F 
ATOM     79  F   UNL A   1      41.766  25.250  25.002  1.00  0.00    -0.200 F 
ENDBRANCH  41  69
BRANCH  56  80
ATOM     80  C   UNL A   1      44.124  27.939  34.559  1.00  0.00     0.064 A 
ATOM     81  C   UNL A   1      43.923  26.709  35.200  1.00  0.00     0.173 A 
ATOM     82  C   UNL A   1      45.430  28.438  34.472  1.00  0.00     0.173 A 
ATOM     83  F   UNL A   1      42.687  26.203  35.320  1.00  0.00    -0.203 F 
ATOM     84  C   UNL A   1      44.994  26.008  35.747  1.00  0.00     0.198 A 
ATOM     85  C   UNL A   1      46.500  27.730  35.010  1.00  0.00     0.198 A 
ATOM     86  F   UNL A   1      45.666  29.614  33.869  1.00  0.00    -0.203 F 
ATOM     87  F   UNL A   1      44.780  24.847  36.380  1.00  0.00    -0.200 F 
ATOM     88  C   UNL A   1      46.281  26.517  35.649  1.00  0.00     0.200 A 
ATOM     89  F   UNL A   1      47.743  28.221  34.915  1.00  0.00    -0.200 F 
ATOM     90  F   UNL A   1      47.311  25.843  36.179  1.00  0.00    -0.200 F 
ENDBRANCH  56  80
ENDBRANCH  21  24
ENDBRANCH  12  14
ENDBRANCH   7  10
ENDBRANCH   4   7
ENDBRANCH   1   4
BRANCH   1  91
ATOM     91  C   UNL A   1      31.788  29.266  26.530  1.00  0.00    -0.052 C 
ATOM     92  H   UNL A   1      31.004  28.539  26.586  1.00  0.00     0.027 H 
ATOM     93  H   UNL A   1      32.089  29.666  27.476  1.00  0.00     0.027 H 
BRANCH  91  94
ATOM     94  C   UNL A   1      33.034  28.567  25.969  1.00  0.00    -0.036 C 
ATOM     95  H   UNL A   1      32.748  27.581  25.670  1.00  0.00     0.028 H 
ATOM     96  H   UNL A   1      33.758  28.598  26.757  1.00  0.00     0.028 H 
BRANCH  94  97
ATOM     97  C   UNL A   1      33.707  29.239  24.771  1.00  0.00     0.018 C 
ATOM     98  H   UNL A   1      34.629  29.673  25.095  1.00  0.00     0.049 H 
ATOM     99  H   UNL A   1      33.030  29.977  24.394  1.00  0.00     0.049 H 
BRANCH  97 100
ATOM    100  N   UNL A   1      33.988  28.314  23.688  1.00  0.00    -0.352 N 
ATOM    101  C   UNL A   1      33.133  27.805  22.748  1.00  0.00     0.253 C 
ATOM    102  H   UNL A   1      34.922  28.010  23.621  1.00  0.00     0.163 HD
ATOM    103  O   UNL A   1      33.562  27.082  21.850  1.00  0.00    -0.269 OA
BRANCH 101 104
ATOM    104  C   UNL A   1      31.690  28.079  22.804  1.00  0.00     0.065 A 
ATOM    105  C   UNL A   1      31.247  29.276  22.218  1.00  0.00    -0.047 A 
ATOM    106  C   UNL A   1      30.786  27.239  23.459  1.00  0.00     0.076 A 
ATOM    107  C   UNL A   1      29.895  29.623  22.257  1.00  0.00    -0.061 A 
ATOM    108  H   UNL A   1      31.924  29.902  21.756  1.00  0.00     0.063 H 
ATOM    109  C   UNL A   1      29.432  27.615  23.499  1.00  0.00    -0.036 A 
ATOM    110  C   UNL A   1      28.986  28.795  22.906  1.00  0.00    -0.060 A 
ATOM    111  H   UNL A   1      29.571  30.494  21.806  1.00  0.00     0.062 H 
ATOM    112  H   UNL A   1      28.753  27.003  23.977  1.00  0.00     0.065 H 
ATOM    113  H   UNL A   1      27.988  29.051  22.948  1.00  0.00     0.062 H 
BRANCH 106 114
ATOM    114  N   UNL A   1      31.048  25.961  23.943  1.00  0.00    -0.255 NA
ATOM    115  C   UNL A   1      30.774  25.564  25.142  1.00  0.00     0.042 C 
ATOM    116  H   UNL A   1      30.453  26.208  25.883  1.00  0.00     0.085 H 
BRANCH 115 117
ATOM    117  C   UNL A   1      30.957  24.111  25.369  1.00  0.00     0.076 A 
ATOM    118  C   UNL A   1      31.026  23.459  24.194  1.00  0.00     0.104 A 
ATOM    119  C   UNL A   1      31.977  23.683  26.362  1.00  0.00     0.201 A 
ATOM    120  O   UNL A   1      32.052  22.577  23.867  1.00  0.00    -0.463 OA
ATOM    121  H   UNL A   1      30.280  23.621  23.498  1.00  0.00     0.105 H 
ATOM    122  C   UNL A   1      33.286  23.428  25.749  1.00  0.00     0.065 A 
ATOM    123  O   UNL A   1      31.779  23.654  27.565  1.00  0.00    -0.288 OA
ATOM    124  C   UNL A   1      33.260  22.902  24.456  1.00  0.00     0.137 A 
ATOM    125  C   UNL A   1      34.466  23.882  26.333  1.00  0.00    -0.047 A 
ATOM    126  C   UNL A   1      34.436  22.813  23.724  1.00  0.00    -0.019 A 
ATOM    127  C   UNL A   1      35.639  23.829  25.583  1.00  0.00    -0.061 A 
ATOM    128  H   UNL A   1      34.470  24.249  27.298  1.00  0.00     0.063 H 
ATOM    129  C   UNL A   1      35.624  23.298  24.286  1.00  0.00    -0.059 A 
ATOM    130  H   UNL A   1      34.436  22.396  22.780  1.00  0.00     0.066 H 
ATOM    131  H   UNL A   1      36.523  24.182  25.984  1.00  0.00     0.062 H 
ATOM    132  H   UNL A   1      36.499  23.263  23.739  1.00  0.00     0.062 H 
ENDBRANCH 115 117
ENDBRANCH 106 114
ENDBRANCH 101 104
ENDBRANCH  97 100
ENDBRANCH  94  97
ENDBRANCH  91  94
ENDBRANCH   1  91
TORSDOF 15
ENDMDL
MODEL 3
REMARK VINA RESULT:     -12.5      2.874      5.357
REMARK SMILES O=C(NCCCCCCNC(=O)c1ccccc1/N=C/c1coc2ccccc2c1=O)c1ccc(-c2c3nc(c(-c4c(F)c(F)c(F)c(F)c4F)c4ccc([nH]4)c(-c4c(F)c(F)c(F)c(F)c4F)c4nc(c(-c5c(F)c(F)c(F)c(F)c5F)c5ccc2[nH]5)C=C4)C=C3)cc1
REMARK SMILES IDX 6 1 5 4 4 7 3 10 1 11 2 12 32 14 33 15 94 16 34 17 93 19
REMARK SMILES IDX 35 21 36 24 37 25 87 26 38 27 92 28 86 29 88 30 39 31 91 32
REMARK SMILES IDX 85 34 84 36 40 38 72 41 52 42 71 43 53 44 56 45 70 46 89 47
REMARK SMILES IDX 54 48 55 50 69 52 90 53 57 56 41 58 42 59 50 60 43 61 44 62
REMARK SMILES IDX 48 63 51 64 45 65 46 66 49 67 47 68 73 69 74 70 82 71 75 72
REMARK SMILES IDX 76 73 80 74 83 75 77 76 78 77 81 78 79 79 58 80 59 81 67 82
REMARK SMILES IDX 60 83 61 84 65 85 68 86 62 87 63 88 66 89 64 90 7 91 8 94
REMARK SMILES IDX 9 97 10 100 11 101 12 103 13 104 14 105 18 106 15 107 17 109
REMARK SMILES IDX 16 110 19 114 20 115 21 117 22 118 30 119 23 120 29 122
REMARK SMILES IDX 31 123 24 124 28 125 25 126 27 127 26 129
REMARK H PARENT 6 2 6 3 5 5 5 6 4 8 4 9 3 13 33 18 94 20 34 22 93 23 92 33
REMARK H PARENT 86 35 88 37 91 39 85 40 53 49 56 51 89 54 54 55 90 57 7 92
REMARK H PARENT 7 93 8 95 8 96 9 98 9 99 10 102 14 108 15 111 17 112 16 113
REMARK H PARENT 20 116 22 121 28 128 25 130 27 131 26 132
REMARK Flexibility Score: inf
ROOT
ATOM      1  C   UNL A   1      32.402  26.319  26.103  1.00  0.00    -0.052 C 
ATOM      2  H   UNL A   1      32.997  25.530  26.515  1.00  0.00     0.027 H 
ATOM      3  H   UNL A   1      32.717  26.639  25.132  1.00  0.00     0.027 H 
ENDROOT
BRANCH   1   4
ATOM      4  C   UNL A   1      32.549  27.538  27.012  1.00  0.00    -0.036 C 
ATOM      5  H   UNL A   1      31.714  28.183  26.829  1.00  0.00     0.028 H 
ATOM      6  H   UNL A   1      32.597  27.148  28.007  1.00  0.00     0.028 H 
BRANCH   4   7
ATOM      7  C   UNL A   1      33.818  28.362  26.838  1.00  0.00     0.018 C 
ATOM      8  H   UNL A   1      34.582  27.942  27.459  1.00  0.00     0.049 H 
ATOM      9  H   UNL A   1      34.076  28.328  25.800  1.00  0.00     0.049 H 
BRANCH   7  10
ATOM     10  N   UNL A   1      33.653  29.759  27.193  1.00  0.00    -0.352 N 
ATOM     11  O   UNL A   1      34.102  31.738  28.164  1.00  0.00    -0.269 OA
ATOM     12  C   UNL A   1      34.489  30.603  27.883  1.00  0.00     0.251 C 
ATOM     13  H   UNL A   1      32.810  30.168  26.892  1.00  0.00     0.163 HD
BRANCH  12  14
ATOM     14  C   UNL A   1      35.839  30.172  28.321  1.00  0.00     0.039 A 
ATOM     15  C   UNL A   1      36.065  29.581  29.566  1.00  0.00    -0.049 A 
ATOM     16  C   UNL A   1      36.907  30.310  27.422  1.00  0.00    -0.049 A 
ATOM     17  C   UNL A   1      37.361  29.237  29.953  1.00  0.00    -0.053 A 
ATOM     18  H   UNL A   1      35.273  29.399  30.202  1.00  0.00     0.063 H 
ATOM     19  C   UNL A   1      38.197  29.908  27.786  1.00  0.00    -0.053 A 
ATOM     20  H   UNL A   1      36.739  30.711  26.487  1.00  0.00     0.063 H 
ATOM     21  C   UNL A   1      38.438  29.391  29.067  1.00  0.00    -0.014 A 
ATOM     22  H   UNL A   1      37.528  28.865  30.902  1.00  0.00     0.063 H 
ATOM     23  H   UNL A   1      38.971  29.992  27.111  1.00  0.00     0.063 H 
BRANCH  21  24
ATOM     24  C   UNL A   1      39.796  28.960  29.482  1.00  0.00     0.031 A 
ATOM     25  C   UNL A   1      40.569  29.721  30.521  1.00  0.00     0.074 A 
ATOM     26  C   UNL A   1      40.323  27.846  28.938  1.00  0.00     0.049 A 
ATOM     27  N   UNL A   1      41.747  29.456  31.031  1.00  0.00    -0.248 NA
ATOM     28  C   UNL A   1      39.946  30.941  31.054  1.00  0.00    -0.034 C 
ATOM     29  C   UNL A   1      39.684  27.030  27.906  1.00  0.00    -0.036 A 
ATOM     30  N   UNL A   1      41.503  27.195  29.197  1.00  0.00    -0.354 N 
ATOM     31  C   UNL A   1      42.014  30.483  31.926  1.00  0.00     0.074 A 
ATOM     32  C   UNL A   1      40.880  31.383  31.885  1.00  0.00    -0.034 C 
ATOM     33  H   UNL A   1      39.022  31.348  30.838  1.00  0.00     0.065 H 
ATOM     34  C   UNL A   1      40.454  25.960  27.655  1.00  0.00    -0.036 A 
ATOM     35  H   UNL A   1      38.786  27.245  27.443  1.00  0.00     0.065 H 
ATOM     36  C   UNL A   1      41.651  26.030  28.486  1.00  0.00     0.049 A 
ATOM     37  H   UNL A   1      42.177  27.530  29.831  1.00  0.00     0.167 HD
ATOM     38  C   UNL A   1      43.103  30.654  32.712  1.00  0.00     0.037 A 
ATOM     39  H   UNL A   1      40.810  32.255  32.433  1.00  0.00     0.065 H 
ATOM     40  H   UNL A   1      40.233  25.208  26.982  1.00  0.00     0.065 H 
ATOM     41  C   UNL A   1      42.637  25.114  28.509  1.00  0.00     0.037 A 
ATOM     42  C   UNL A   1      44.222  29.752  32.778  1.00  0.00     0.049 A 
ATOM     43  C   UNL A   1      43.811  25.309  29.420  1.00  0.00     0.074 A 
ATOM     44  C   UNL A   1      45.363  29.843  33.558  1.00  0.00    -0.036 A 
ATOM     45  N   UNL A   1      44.335  28.584  32.041  1.00  0.00    -0.354 N 
ATOM     46  N   UNL A   1      44.046  26.281  30.265  1.00  0.00    -0.248 NA
ATOM     47  C   UNL A   1      44.860  24.280  29.376  1.00  0.00    -0.034 C 
ATOM     48  C   UNL A   1      46.173  28.736  33.283  1.00  0.00    -0.036 A 
ATOM     49  H   UNL A   1      45.579  30.600  34.227  1.00  0.00     0.065 H 
ATOM     50  C   UNL A   1      45.528  27.947  32.345  1.00  0.00     0.049 A 
ATOM     51  H   UNL A   1      43.668  28.256  31.395  1.00  0.00     0.167 HD
ATOM     52  C   UNL A   1      45.268  25.988  30.849  1.00  0.00     0.074 A 
ATOM     53  C   UNL A   1      45.716  24.734  30.282  1.00  0.00    -0.034 C 
ATOM     54  H   UNL A   1      44.916  23.430  28.795  1.00  0.00     0.065 H 
ATOM     55  H   UNL A   1      47.094  28.540  33.706  1.00  0.00     0.065 H 
ATOM     56  C   UNL A   1      45.960  26.703  31.768  1.00  0.00     0.037 A 
ATOM     57  H   UNL A   1      46.591  24.253  30.548  1.00  0.00     0.065 H 
BRANCH  38  58
ATOM     58  C   UNL A   1      43.143  31.879  33.574  1.00  0.00     0.064 A 
ATOM     59  C   UNL A   1      42.628  31.867  34.877  1.00  0.00     0.173 A 
ATOM     60  C   UNL A   1      43.746  33.056  33.109  1.00  0.00     0.173 A 
ATOM     61  F   UNL A   1      42.033  30.766  35.360  1.00  0.00    -0.203 F 
ATOM     62  C   UNL A   1      42.709  32.999  35.685  1.00  0.00     0.198 A 
ATOM     63  C   UNL A   1      43.836  34.181  33.924  1.00  0.00     0.198 A 
ATOM     64  F   UNL A   1      44.255  33.111  31.870  1.00  0.00    -0.203 F 
ATOM     65  F   UNL A   1      42.194  32.975  36.922  1.00  0.00    -0.200 F 
ATOM     66  C   UNL A   1      43.317  34.152  35.210  1.00  0.00     0.200 A 
ATOM     67  F   UNL A   1      44.429  35.293  33.467  1.00  0.00    -0.200 F 
ATOM     68  F   UNL A   1      43.399  35.237  35.991  1.00  0.00    -0.200 F 
ENDBRANCH  38  58
BRANCH  41  69
ATOM     69  C   UNL A   1      42.529  23.910  27.653  1.00  0.00     0.064 A 
ATOM     70  C   UNL A   1      42.941  23.948  26.315  1.00  0.00     0.173 A 
ATOM     71  C   UNL A   1      42.044  22.698  28.162  1.00  0.00     0.173 A 
ATOM     72  F   UNL A   1      43.395  25.093  25.786  1.00  0.00    -0.203 F 
ATOM     73  C   UNL A   1      42.871  22.811  25.513  1.00  0.00     0.198 A 
ATOM     74  C   UNL A   1      41.988  21.559  27.363  1.00  0.00     0.198 A 
ATOM     75  F   UNL A   1      41.640  22.620  29.438  1.00  0.00    -0.203 F 
ATOM     76  F   UNL A   1      43.254  22.875  24.231  1.00  0.00    -0.200 F 
ATOM     77  C   UNL A   1      42.399  21.617  26.039  1.00  0.00     0.200 A 
ATOM     78  F   UNL A   1      41.539  20.405  27.875  1.00  0.00    -0.200 F 
ATOM     79  F   UNL A   1      42.339  20.523  25.268  1.00  0.00    -0.200 F 
ENDBRANCH  41  69
BRANCH  56  80
ATOM     80  C   UNL A   1      47.278  26.145  32.208  1.00  0.00     0.064 A 
ATOM     81  C   UNL A   1      47.369  25.313  33.332  1.00  0.00     0.173 A 
ATOM     82  C   UNL A   1      48.448  26.423  31.490  1.00  0.00     0.173 A 
ATOM     83  F   UNL A   1      46.275  25.035  34.057  1.00  0.00    -0.203 F 
ATOM     84  C   UNL A   1      48.594  24.787  33.731  1.00  0.00     0.198 A 
ATOM     85  C   UNL A   1      49.670  25.886  31.885  1.00  0.00     0.198 A 
ATOM     86  F   UNL A   1      48.406  27.217  30.409  1.00  0.00    -0.203 F 
ATOM     87  F   UNL A   1      48.666  24.016  34.824  1.00  0.00    -0.200 F 
ATOM     88  C   UNL A   1      49.742  25.072  33.006  1.00  0.00     0.200 A 
ATOM     89  F   UNL A   1      50.778  26.161  31.185  1.00  0.00    -0.200 F 
ATOM     90  F   UNL A   1      50.922  24.567  33.394  1.00  0.00    -0.200 F 
ENDBRANCH  56  80
ENDBRANCH  21  24
ENDBRANCH  12  14
ENDBRANCH   7  10
ENDBRANCH   4   7
ENDBRANCH   1   4
BRANCH   1  91
ATOM     91  C   UNL A   1      30.978  25.789  25.924  1.00  0.00    -0.052 C 
ATOM     92  H   UNL A   1      30.402  26.558  25.454  1.00  0.00     0.027 H 
ATOM     93  H   UNL A   1      30.647  25.524  26.907  1.00  0.00     0.027 H 
BRANCH  91  94
ATOM     94  C   UNL A   1      30.823  24.512  25.085  1.00  0.00    -0.036 C 
ATOM     95  H   UNL A   1      30.953  24.780  24.058  1.00  0.00     0.028 H 
ATOM     96  H   UNL A   1      29.852  24.131  25.323  1.00  0.00     0.028 H 
BRANCH  94  97
ATOM     97  C   UNL A   1      31.796  23.374  25.396  1.00  0.00     0.018 C 
ATOM     98  H   UNL A   1      31.608  23.026  26.390  1.00  0.00     0.049 H 
ATOM     99  H   UNL A   1      32.788  23.761  25.290  1.00  0.00     0.049 H 
BRANCH  97 100
ATOM    100  N   UNL A   1      31.666  22.253  24.482  1.00  0.00    -0.352 N 
ATOM    101  C   UNL A   1      32.649  21.494  23.908  1.00  0.00     0.253 C 
ATOM    102  H   UNL A   1      30.743  22.006  24.242  1.00  0.00     0.163 HD
ATOM    103  O   UNL A   1      32.353  20.527  23.208  1.00  0.00    -0.269 OA
BRANCH 101 104
ATOM    104  C   UNL A   1      34.069  21.828  24.083  1.00  0.00     0.065 A 
ATOM    105  C   UNL A   1      34.858  20.905  24.789  1.00  0.00    -0.047 A 
ATOM    106  C   UNL A   1      34.624  23.031  23.637  1.00  0.00     0.076 A 
ATOM    107  C   UNL A   1      36.210  21.165  25.025  1.00  0.00    -0.061 A 
ATOM    108  H   UNL A   1      34.436  20.029  25.135  1.00  0.00     0.063 H 
ATOM    109  C   UNL A   1      35.982  23.279  23.898  1.00  0.00    -0.036 A 
ATOM    110  C   UNL A   1      36.771  22.358  24.585  1.00  0.00    -0.060 A 
ATOM    111  H   UNL A   1      36.790  20.472  25.524  1.00  0.00     0.062 H 
ATOM    112  H   UNL A   1      36.405  24.162  23.573  1.00  0.00     0.065 H 
ATOM    113  H   UNL A   1      37.767  22.561  24.766  1.00  0.00     0.062 H 
BRANCH 106 114
ATOM    114  N   UNL A   1      34.014  23.960  22.800  1.00  0.00    -0.255 NA
ATOM    115  C   UNL A   1      33.913  25.222  23.061  1.00  0.00     0.042 C 
ATOM    116  H   UNL A   1      34.164  25.624  23.979  1.00  0.00     0.085 H 
BRANCH 115 117
ATOM    117  C   UNL A   1      33.407  26.047  21.938  1.00  0.00     0.076 A 
ATOM    118  C   UNL A   1      32.223  25.574  21.507  1.00  0.00     0.104 A 
ATOM    119  C   UNL A   1      33.454  27.526  22.082  1.00  0.00     0.201 A 
ATOM    120  O   UNL A   1      31.089  26.368  21.358  1.00  0.00    -0.463 OA
ATOM    121  H   UNL A   1      32.151  24.570  21.274  1.00  0.00     0.105 H 
ATOM    122  C   UNL A   1      32.209  28.078  22.628  1.00  0.00     0.065 A 
ATOM    123  O   UNL A   1      34.453  28.194  21.874  1.00  0.00    -0.288 OA
ATOM    124  C   UNL A   1      31.036  27.417  22.257  1.00  0.00     0.137 A 
ATOM    125  C   UNL A   1      32.217  29.055  23.620  1.00  0.00    -0.047 A 
ATOM    126  C   UNL A   1      29.837  27.741  22.876  1.00  0.00    -0.019 A 
ATOM    127  C   UNL A   1      31.021  29.352  24.269  1.00  0.00    -0.061 A 
ATOM    128  H   UNL A   1      33.090  29.548  23.868  1.00  0.00     0.063 H 
ATOM    129  C   UNL A   1      29.837  28.698  23.899  1.00  0.00    -0.059 A 
ATOM    130  H   UNL A   1      28.957  27.284  22.587  1.00  0.00     0.066 H 
ATOM    131  H   UNL A   1      31.005  30.055  25.024  1.00  0.00     0.062 H 
ATOM    132  H   UNL A   1      28.955  28.925  24.385  1.00  0.00     0.062 H 
ENDBRANCH 115 117
ENDBRANCH 106 114
ENDBRANCH 101 104
ENDBRANCH  97 100
ENDBRANCH  94  97
ENDBRANCH  91  94
ENDBRANCH   1  91
TORSDOF 15
ENDMDL
MODEL 4
REMARK VINA RESULT:     -12.5      4.922     10.232
REMARK SMILES O=C(NCCCCCCNC(=O)c1ccccc1/N=C/c1coc2ccccc2c1=O)c1ccc(-c2c3nc(c(-c4c(F)c(F)c(F)c(F)c4F)c4ccc([nH]4)c(-c4c(F)c(F)c(F)c(F)c4F)c4nc(c(-c5c(F)c(F)c(F)c(F)c5F)c5ccc2[nH]5)C=C4)C=C3)cc1
REMARK SMILES IDX 6 1 5 4 4 7 3 10 1 11 2 12 32 14 33 15 94 16 34 17 93 19
REMARK SMILES IDX 35 21 36 24 37 25 87 26 38 27 92 28 86 29 88 30 39 31 91 32
REMARK SMILES IDX 85 34 84 36 40 38 72 41 52 42 71 43 53 44 56 45 70 46 89 47
REMARK SMILES IDX 54 48 55 50 69 52 90 53 57 56 41 58 42 59 50 60 43 61 44 62
REMARK SMILES IDX 48 63 51 64 45 65 46 66 49 67 47 68 73 69 74 70 82 71 75 72
REMARK SMILES IDX 76 73 80 74 83 75 77 76 78 77 81 78 79 79 58 80 59 81 67 82
REMARK SMILES IDX 60 83 61 84 65 85 68 86 62 87 63 88 66 89 64 90 7 91 8 94
REMARK SMILES IDX 9 97 10 100 11 101 12 103 13 104 14 105 18 106 15 107 17 109
REMARK SMILES IDX 16 110 19 114 20 115 21 117 22 118 30 119 23 120 29 122
REMARK SMILES IDX 31 123 24 124 28 125 25 126 27 127 26 129
REMARK H PARENT 6 2 6 3 5 5 5 6 4 8 4 9 3 13 33 18 94 20 34 22 93 23 92 33
REMARK H PARENT 86 35 88 37 91 39 85 40 53 49 56 51 89 54 54 55 90 57 7 92
REMARK H PARENT 7 93 8 95 8 96 9 98 9 99 10 102 14 108 15 111 17 112 16 113
REMARK H PARENT 20 116 22 121 28 128 25 130 27 131 26 132
REMARK Flexibility Score: inf
ROOT
ATOM      1  C   UNL A   1      36.889  20.231  24.938  1.00  0.00    -0.052 C 
ATOM      2  H   UNL A   1      36.410  20.159  25.892  1.00  0.00     0.027 H 
ATOM      3  H   UNL A   1      36.301  19.856  24.126  1.00  0.00     0.027 H 
ENDROOT
BRANCH   1   4
ATOM      4  C   UNL A   1      38.145  19.361  24.977  1.00  0.00    -0.036 C 
ATOM      5  H   UNL A   1      37.849  18.374  25.267  1.00  0.00     0.028 H 
ATOM      6  H   UNL A   1      38.567  19.426  23.996  1.00  0.00     0.028 H 
BRANCH   4   7
ATOM      7  C   UNL A   1      39.250  19.811  25.924  1.00  0.00     0.018 C 
ATOM      8  H   UNL A   1      39.497  20.828  25.697  1.00  0.00     0.049 H 
ATOM      9  H   UNL A   1      38.876  19.699  26.920  1.00  0.00     0.049 H 
BRANCH   7  10
ATOM     10  N   UNL A   1      40.456  19.010  25.825  1.00  0.00    -0.352 N 
ATOM     11  O   UNL A   1      42.654  18.540  25.752  1.00  0.00    -0.269 OA
ATOM     12  C   UNL A   1      41.773  19.368  25.982  1.00  0.00     0.251 C 
ATOM     13  H   UNL A   1      40.308  18.060  25.614  1.00  0.00     0.163 HD
BRANCH  12  14
ATOM     14  C   UNL A   1      42.161  20.738  26.399  1.00  0.00     0.039 A 
ATOM     15  C   UNL A   1      42.372  21.765  25.477  1.00  0.00    -0.049 A 
ATOM     16  C   UNL A   1      42.255  21.016  27.770  1.00  0.00    -0.049 A 
ATOM     17  C   UNL A   1      42.783  23.025  25.914  1.00  0.00    -0.053 A 
ATOM     18  H   UNL A   1      42.224  21.593  24.470  1.00  0.00     0.063 H 
ATOM     19  C   UNL A   1      42.608  22.296  28.212  1.00  0.00    -0.053 A 
ATOM     20  H   UNL A   1      42.064  20.271  28.458  1.00  0.00     0.063 H 
ATOM     21  C   UNL A   1      42.900  23.305  27.284  1.00  0.00    -0.014 A 
ATOM     22  H   UNL A   1      43.005  23.759  25.221  1.00  0.00     0.063 H 
ATOM     23  H   UNL A   1      42.653  22.497  29.223  1.00  0.00     0.063 H 
BRANCH  21  24
ATOM     24  C   UNL A   1      43.281  24.671  27.723  1.00  0.00     0.031 A 
ATOM     25  C   UNL A   1      44.718  25.108  27.745  1.00  0.00     0.074 A 
ATOM     26  C   UNL A   1      42.312  25.539  28.073  1.00  0.00     0.049 A 
ATOM     27  N   UNL A   1      45.219  26.278  28.058  1.00  0.00    -0.248 NA
ATOM     28  C   UNL A   1      45.725  24.103  27.376  1.00  0.00    -0.034 C 
ATOM     29  C   UNL A   1      40.882  25.232  28.115  1.00  0.00    -0.036 A 
ATOM     30  N   UNL A   1      42.381  26.860  28.435  1.00  0.00    -0.354 N 
ATOM     31  C   UNL A   1      46.596  26.145  27.943  1.00  0.00     0.074 A 
ATOM     32  C   UNL A   1      46.855  24.778  27.541  1.00  0.00    -0.034 C 
ATOM     33  H   UNL A   1      45.589  23.127  27.068  1.00  0.00     0.065 H 
ATOM     34  C   UNL A   1      40.204  26.346  28.431  1.00  0.00    -0.036 A 
ATOM     35  H   UNL A   1      40.463  24.306  27.932  1.00  0.00     0.065 H 
ATOM     36  C   UNL A   1      41.152  27.435  28.642  1.00  0.00     0.049 A 
ATOM     37  H   UNL A   1      43.230  27.349  28.535  1.00  0.00     0.167 HD
ATOM     38  C   UNL A   1      47.554  27.080  28.149  1.00  0.00     0.037 A 
ATOM     39  H   UNL A   1      47.798  24.381  27.400  1.00  0.00     0.065 H 
ATOM     40  H   UNL A   1      39.177  26.420  28.511  1.00  0.00     0.065 H 
ATOM     41  C   UNL A   1      40.824  28.701  28.957  1.00  0.00     0.037 A 
ATOM     42  C   UNL A   1      47.304  28.446  28.523  1.00  0.00     0.049 A 
ATOM     43  C   UNL A   1      41.903  29.725  29.139  1.00  0.00     0.074 A 
ATOM     44  C   UNL A   1      48.217  29.465  28.741  1.00  0.00    -0.036 A 
ATOM     45  N   UNL A   1      46.045  28.989  28.725  1.00  0.00    -0.354 N 
ATOM     46  N   UNL A   1      43.200  29.586  29.020  1.00  0.00    -0.248 NA
ATOM     47  C   UNL A   1      41.473  31.083  29.503  1.00  0.00    -0.034 C 
ATOM     48  C   UNL A   1      47.510  30.622  29.088  1.00  0.00    -0.036 A 
ATOM     49  H   UNL A   1      49.243  29.384  28.663  1.00  0.00     0.065 H 
ATOM     50  C   UNL A   1      46.157  30.327  29.068  1.00  0.00     0.049 A 
ATOM     51  H   UNL A   1      45.197  28.496  28.640  1.00  0.00     0.167 HD
ATOM     52  C   UNL A   1      43.741  30.831  29.300  1.00  0.00     0.074 A 
ATOM     53  C   UNL A   1      42.633  31.722  29.570  1.00  0.00    -0.034 C 
ATOM     54  H   UNL A   1      40.519  31.444  29.665  1.00  0.00     0.065 H 
ATOM     55  H   UNL A   1      47.926  31.538  29.319  1.00  0.00     0.065 H 
ATOM     56  C   UNL A   1      45.045  31.197  29.338  1.00  0.00     0.037 A 
ATOM     57  H   UNL A   1      42.733  32.727  29.788  1.00  0.00     0.065 H 
BRANCH  38  58
ATOM     58  C   UNL A   1      48.979  26.653  27.977  1.00  0.00     0.064 A 
ATOM     59  C   UNL A   1      49.588  26.646  26.714  1.00  0.00     0.173 A 
ATOM     60  C   UNL A   1      49.754  26.297  29.090  1.00  0.00     0.173 A 
ATOM     61  F   UNL A   1      48.882  26.970  25.621  1.00  0.00    -0.203 F 
ATOM     62  C   UNL A   1      50.927  26.289  26.572  1.00  0.00     0.198 A 
ATOM     63  C   UNL A   1      51.096  25.952  28.944  1.00  0.00     0.198 A 
ATOM     64  F   UNL A   1      49.213  26.292  30.316  1.00  0.00    -0.203 F 
ATOM     65  F   UNL A   1      51.487  26.270  25.354  1.00  0.00    -0.200 F 
ATOM     66  C   UNL A   1      51.679  25.948  27.686  1.00  0.00     0.200 A 
ATOM     67  F   UNL A   1      51.824  25.628  30.021  1.00  0.00    -0.200 F 
ATOM     68  F   UNL A   1      52.969  25.610  27.546  1.00  0.00    -0.200 F 
ENDBRANCH  38  58
BRANCH  41  69
ATOM     69  C   UNL A   1      39.395  29.070  29.088  1.00  0.00     0.064 A 
ATOM     70  C   UNL A   1      38.641  29.414  27.959  1.00  0.00     0.173 A 
ATOM     71  C   UNL A   1      38.753  29.054  30.333  1.00  0.00     0.173 A 
ATOM     72  F   UNL A   1      39.224  29.457  26.753  1.00  0.00    -0.203 F 
ATOM     73  C   UNL A   1      37.289  29.732  28.072  1.00  0.00     0.198 A 
ATOM     74  C   UNL A   1      37.398  29.358  30.442  1.00  0.00     0.198 A 
ATOM     75  F   UNL A   1      39.439  28.729  31.439  1.00  0.00    -0.203 F 
ATOM     76  F   UNL A   1      36.592  30.076  26.981  1.00  0.00    -0.200 F 
ATOM     77  C   UNL A   1      36.669  29.699  29.313  1.00  0.00     0.200 A 
ATOM     78  F   UNL A   1      36.799  29.319  31.640  1.00  0.00    -0.200 F 
ATOM     79  F   UNL A   1      35.367  29.998  29.418  1.00  0.00    -0.200 F 
ENDBRANCH  41  69
BRANCH  56  80
ATOM     80  C   UNL A   1      45.337  32.622  29.693  1.00  0.00     0.064 A 
ATOM     81  C   UNL A   1      45.402  33.612  28.703  1.00  0.00     0.173 A 
ATOM     82  C   UNL A   1      45.529  33.002  31.027  1.00  0.00     0.173 A 
ATOM     83  F   UNL A   1      45.240  33.288  27.412  1.00  0.00    -0.203 F 
ATOM     84  C   UNL A   1      45.664  34.937  29.038  1.00  0.00     0.198 A 
ATOM     85  C   UNL A   1      45.779  34.330  31.360  1.00  0.00     0.198 A 
ATOM     86  F   UNL A   1      45.478  32.086  32.006  1.00  0.00    -0.203 F 
ATOM     87  F   UNL A   1      45.749  35.865  28.076  1.00  0.00    -0.200 F 
ATOM     88  C   UNL A   1      45.849  35.296  30.365  1.00  0.00     0.200 A 
ATOM     89  F   UNL A   1      45.958  34.677  32.641  1.00  0.00    -0.200 F 
ATOM     90  F   UNL A   1      46.103  36.572  30.686  1.00  0.00    -0.200 F 
ENDBRANCH  56  80
ENDBRANCH  21  24
ENDBRANCH  12  14
ENDBRANCH   7  10
ENDBRANCH   4   7
ENDBRANCH   1   4
BRANCH   1  91
ATOM     91  C   UNL A   1      37.115  21.714  24.636  1.00  0.00    -0.052 C 
ATOM     92  H   UNL A   1      36.511  21.969  23.790  1.00  0.00     0.027 H 
ATOM     93  H   UNL A   1      38.168  21.814  24.476  1.00  0.00     0.027 H 
BRANCH  91  94
ATOM     94  C   UNL A   1      36.780  22.701  25.763  1.00  0.00    -0.036 C 
ATOM     95  H   UNL A   1      37.612  23.364  25.874  1.00  0.00     0.028 H 
ATOM     96  H   UNL A   1      36.580  22.095  26.623  1.00  0.00     0.028 H 
BRANCH  94  97
ATOM     97  C   UNL A   1      35.527  23.555  25.567  1.00  0.00     0.018 C 
ATOM     98  H   UNL A   1      35.053  23.263  24.653  1.00  0.00     0.049 H 
ATOM     99  H   UNL A   1      35.836  24.579  25.546  1.00  0.00     0.049 H 
BRANCH  97 100
ATOM    100  N   UNL A   1      34.569  23.412  26.649  1.00  0.00    -0.352 N 
ATOM    101  C   UNL A   1      33.504  22.558  26.747  1.00  0.00     0.253 C 
ATOM    102  H   UNL A   1      34.704  24.013  27.417  1.00  0.00     0.163 HD
ATOM    103  O   UNL A   1      32.835  22.521  27.778  1.00  0.00    -0.269 OA
BRANCH 101 104
ATOM    104  C   UNL A   1      33.116  21.693  25.624  1.00  0.00     0.065 A 
ATOM    105  C   UNL A   1      33.411  20.325  25.743  1.00  0.00    -0.047 A 
ATOM    106  C   UNL A   1      32.539  22.189  24.452  1.00  0.00     0.076 A 
ATOM    107  C   UNL A   1      33.103  19.443  24.706  1.00  0.00    -0.061 A 
ATOM    108  H   UNL A   1      33.858  19.970  26.602  1.00  0.00     0.063 H 
ATOM    109  C   UNL A   1      32.250  21.286  23.415  1.00  0.00    -0.036 A 
ATOM    110  C   UNL A   1      32.528  19.925  23.535  1.00  0.00    -0.060 A 
ATOM    111  H   UNL A   1      33.301  18.435  24.808  1.00  0.00     0.062 H 
ATOM    112  H   UNL A   1      31.822  21.638  22.545  1.00  0.00     0.065 H 
ATOM    113  H   UNL A   1      32.307  19.280  22.761  1.00  0.00     0.062 H 
BRANCH 106 114
ATOM    114  N   UNL A   1      32.053  23.477  24.253  1.00  0.00    -0.255 NA
ATOM    115  C   UNL A   1      32.558  24.328  23.421  1.00  0.00     0.042 C 
ATOM    116  H   UNL A   1      33.450  24.162  22.927  1.00  0.00     0.085 H 
BRANCH 115 117
ATOM    117  C   UNL A   1      31.756  25.560  23.233  1.00  0.00     0.076 A 
ATOM    118  C   UNL A   1      30.657  25.525  24.010  1.00  0.00     0.104 A 
ATOM    119  C   UNL A   1      32.467  26.864  23.245  1.00  0.00     0.201 A 
ATOM    120  O   UNL A   1      30.298  26.557  24.874  1.00  0.00    -0.463 OA
ATOM    121  H   UNL A   1      30.049  24.692  23.964  1.00  0.00     0.105 H 
ATOM    122  C   UNL A   1      32.503  27.474  24.579  1.00  0.00     0.065 A 
ATOM    123  O   UNL A   1      33.052  27.325  22.278  1.00  0.00    -0.288 OA
ATOM    124  C   UNL A   1      31.384  27.245  25.382  1.00  0.00     0.137 A 
ATOM    125  C   UNL A   1      33.663  28.054  25.086  1.00  0.00    -0.047 A 
ATOM    126  C   UNL A   1      31.409  27.612  26.721  1.00  0.00    -0.019 A 
ATOM    127  C   UNL A   1      33.703  28.385  26.438  1.00  0.00    -0.061 A 
ATOM    128  H   UNL A   1      34.474  28.235  24.473  1.00  0.00     0.063 H 
ATOM    129  C   UNL A   1      32.582  28.165  27.251  1.00  0.00    -0.059 A 
ATOM    130  H   UNL A   1      30.577  27.479  27.317  1.00  0.00     0.066 H 
ATOM    131  H   UNL A   1      34.559  28.794  26.844  1.00  0.00     0.062 H 
ATOM    132  H   UNL A   1      32.621  28.414  28.253  1.00  0.00     0.062 H 
ENDBRANCH 115 117
ENDBRANCH 106 114
ENDBRANCH 101 104
ENDBRANCH  97 100
ENDBRANCH  94  97
ENDBRANCH  91  94
ENDBRANCH   1  91
TORSDOF 15
ENDMDL
MODEL 5
REMARK VINA RESULT:     -12.4      4.704      9.973
REMARK SMILES O=C(NCCCCCCNC(=O)c1ccccc1/N=C/c1coc2ccccc2c1=O)c1ccc(-c2c3nc(c(-c4c(F)c(F)c(F)c(F)c4F)c4ccc([nH]4)c(-c4c(F)c(F)c(F)c(F)c4F)c4nc(c(-c5c(F)c(F)c(F)c(F)c5F)c5ccc2[nH]5)C=C4)C=C3)cc1
REMARK SMILES IDX 6 1 5 4 4 7 3 10 1 11 2 12 32 14 33 15 94 16 34 17 93 19
REMARK SMILES IDX 35 21 36 24 37 25 87 26 38 27 92 28 86 29 88 30 39 31 91 32
REMARK SMILES IDX 85 34 84 36 40 38 72 41 52 42 71 43 53 44 56 45 70 46 89 47
REMARK SMILES IDX 54 48 55 50 69 52 90 53 57 56 41 58 42 59 50 60 43 61 44 62
REMARK SMILES IDX 48 63 51 64 45 65 46 66 49 67 47 68 73 69 74 70 82 71 75 72
REMARK SMILES IDX 76 73 80 74 83 75 77 76 78 77 81 78 79 79 58 80 59 81 67 82
REMARK SMILES IDX 60 83 61 84 65 85 68 86 62 87 63 88 66 89 64 90 7 91 8 94
REMARK SMILES IDX 9 97 10 100 11 101 12 103 13 104 14 105 18 106 15 107 17 109
REMARK SMILES IDX 16 110 19 114 20 115 21 117 22 118 30 119 23 120 29 122
REMARK SMILES IDX 31 123 24 124 28 125 25 126 27 127 26 129
REMARK H PARENT 6 2 6 3 5 5 5 6 4 8 4 9 3 13 33 18 94 20 34 22 93 23 92 33
REMARK H PARENT 86 35 88 37 91 39 85 40 53 49 56 51 89 54 54 55 90 57 7 92
REMARK H PARENT 7 93 8 95 8 96 9 98 9 99 10 102 14 108 15 111 17 112 16 113
REMARK H PARENT 20 116 22 121 28 128 25 130 27 131 26 132
REMARK Flexibility Score: inf
ROOT
ATOM      1  C   UNL A   1      37.862  21.339  24.895  1.00  0.00    -0.052 C 
ATOM      2  H   UNL A   1      36.803  21.204  24.977  1.00  0.00     0.027 H 
ATOM      3  H   UNL A   1      38.177  21.750  23.959  1.00  0.00     0.027 H 
ENDROOT
BRANCH   1   4
ATOM      4  C   UNL A   1      38.517  19.961  24.986  1.00  0.00    -0.036 C 
ATOM      5  H   UNL A   1      37.736  19.229  25.011  1.00  0.00     0.028 H 
ATOM      6  H   UNL A   1      39.157  19.894  24.131  1.00  0.00     0.028 H 
BRANCH   4   7
ATOM      7  C   UNL A   1      39.418  19.719  26.188  1.00  0.00     0.018 C 
ATOM      8  H   UNL A   1      39.655  20.665  26.630  1.00  0.00     0.049 H 
ATOM      9  H   UNL A   1      38.883  19.081  26.861  1.00  0.00     0.049 H 
BRANCH   7  10
ATOM     10  N   UNL A   1      40.659  19.043  25.854  1.00  0.00    -0.352 N 
ATOM     11  O   UNL A   1      42.854  18.785  25.442  1.00  0.00    -0.269 OA
ATOM     12  C   UNL A   1      41.951  19.507  25.866  1.00  0.00     0.251 C 
ATOM     13  H   UNL A   1      40.558  18.104  25.575  1.00  0.00     0.163 HD
BRANCH  12  14
ATOM     14  C   UNL A   1      42.284  20.867  26.354  1.00  0.00     0.039 A 
ATOM     15  C   UNL A   1      42.491  21.941  25.485  1.00  0.00    -0.049 A 
ATOM     16  C   UNL A   1      42.329  21.086  27.739  1.00  0.00    -0.049 A 
ATOM     17  C   UNL A   1      42.850  23.191  25.989  1.00  0.00    -0.053 A 
ATOM     18  H   UNL A   1      42.378  21.809  24.468  1.00  0.00     0.063 H 
ATOM     19  C   UNL A   1      42.629  22.354  28.247  1.00  0.00    -0.053 A 
ATOM     20  H   UNL A   1      42.141  20.305  28.386  1.00  0.00     0.063 H 
ATOM     21  C   UNL A   1      42.918  23.413  27.374  1.00  0.00    -0.014 A 
ATOM     22  H   UNL A   1      43.069  23.961  25.337  1.00  0.00     0.063 H 
ATOM     23  H   UNL A   1      42.638  22.512  29.266  1.00  0.00     0.063 H 
BRANCH  21  24
ATOM     24  C   UNL A   1      43.243  24.768  27.884  1.00  0.00     0.031 A 
ATOM     25  C   UNL A   1      44.667  25.226  28.020  1.00  0.00     0.074 A 
ATOM     26  C   UNL A   1      42.237  25.608  28.196  1.00  0.00     0.049 A 
ATOM     27  N   UNL A   1      45.124  26.393  28.406  1.00  0.00    -0.248 NA
ATOM     28  C   UNL A   1      45.715  24.251  27.687  1.00  0.00    -0.034 C 
ATOM     29  C   UNL A   1      40.813  25.277  28.128  1.00  0.00    -0.036 A 
ATOM     30  N   UNL A   1      42.257  26.917  28.605  1.00  0.00    -0.354 N 
ATOM     31  C   UNL A   1      46.508  26.285  28.382  1.00  0.00     0.074 A 
ATOM     32  C   UNL A   1      46.818  24.937  27.953  1.00  0.00    -0.034 C 
ATOM     33  H   UNL A   1      45.617  23.285  27.338  1.00  0.00     0.065 H 
ATOM     34  C   UNL A   1      40.095  26.369  28.434  1.00  0.00    -0.036 A 
ATOM     35  H   UNL A   1      40.424  24.352  27.885  1.00  0.00     0.065 H 
ATOM     36  C   UNL A   1      41.007  27.465  28.747  1.00  0.00     0.049 A 
ATOM     37  H   UNL A   1      43.087  27.415  28.781  1.00  0.00     0.167 HD
ATOM     38  C   UNL A   1      47.432  27.227  28.685  1.00  0.00     0.037 A 
ATOM     39  H   UNL A   1      47.776  24.560  27.865  1.00  0.00     0.065 H 
ATOM     40  H   UNL A   1      39.064  26.424  28.445  1.00  0.00     0.065 H 
ATOM     41  C   UNL A   1      40.635  28.714  29.080  1.00  0.00     0.037 A 
ATOM     42  C   UNL A   1      47.133  28.575  29.087  1.00  0.00     0.049 A 
ATOM     43  C   UNL A   1      41.680  29.748  29.371  1.00  0.00     0.074 A 
ATOM     44  C   UNL A   1      48.010  29.600  29.402  1.00  0.00    -0.036 A 
ATOM     45  N   UNL A   1      45.853  29.091  29.220  1.00  0.00    -0.354 N 
ATOM     46  N   UNL A   1      42.984  29.633  29.338  1.00  0.00    -0.248 NA
ATOM     47  C   UNL A   1      41.201  31.085  29.750  1.00  0.00    -0.034 C 
ATOM     48  C   UNL A   1      47.260  30.733  29.738  1.00  0.00    -0.036 A 
ATOM     49  H   UNL A   1      49.041  29.538  29.392  1.00  0.00     0.065 H 
ATOM     50  C   UNL A   1      45.917  30.418  29.615  1.00  0.00     0.049 A 
ATOM     51  H   UNL A   1      45.022  28.589  29.060  1.00  0.00     0.167 HD
ATOM     52  C   UNL A   1      43.483  30.876  29.696  1.00  0.00     0.074 A 
ATOM     53  C   UNL A   1      42.343  31.740  29.919  1.00  0.00    -0.034 C 
ATOM     54  H   UNL A   1      40.233  31.425  29.858  1.00  0.00     0.065 H 
ATOM     55  H   UNL A   1      47.643  31.647  30.028  1.00  0.00     0.065 H 
ATOM     56  C   UNL A   1      44.774  31.261  29.837  1.00  0.00     0.037 A 
ATOM     57  H   UNL A   1      42.409  32.737  30.177  1.00  0.00     0.065 H 
BRANCH  38  58
ATOM     58  C   UNL A   1      48.873  26.828  28.598  1.00  0.00     0.064 A 
ATOM     59  C   UNL A   1      49.585  26.935  27.395  1.00  0.00     0.173 A 
ATOM     60  C   UNL A   1      49.559  26.386  29.738  1.00  0.00     0.173 A 
ATOM     61  F   UNL A   1      48.966  27.344  26.277  1.00  0.00    -0.203 F 
ATOM     62  C   UNL A   1      50.936  26.603  27.335  1.00  0.00     0.198 A 
ATOM     63  C   UNL A   1      50.913  26.067  29.676  1.00  0.00     0.198 A 
ATOM     64  F   UNL A   1      48.919  26.272  30.910  1.00  0.00    -0.203 F 
ATOM     65  F   UNL A   1      51.595  26.692  26.171  1.00  0.00    -0.200 F 
ATOM     66  C   UNL A   1      51.599  26.174  28.476  1.00  0.00     0.200 A 
ATOM     67  F   UNL A   1      51.555  25.658  30.780  1.00  0.00    -0.200 F 
ATOM     68  F   UNL A   1      52.901  25.861  28.417  1.00  0.00    -0.200 F 
ENDBRANCH  38  58
BRANCH  41  69
ATOM     69  C   UNL A   1      39.193  29.055  29.125  1.00  0.00     0.064 A 
ATOM     70  C   UNL A   1      38.491  29.023  30.336  1.00  0.00     0.173 A 
ATOM     71  C   UNL A   1      38.504  29.449  27.970  1.00  0.00     0.173 A 
ATOM     72  F   UNL A   1      39.111  28.636  31.460  1.00  0.00    -0.203 F 
ATOM     73  C   UNL A   1      37.144  29.372  30.390  1.00  0.00     0.198 A 
ATOM     74  C   UNL A   1      37.160  29.811  28.029  1.00  0.00     0.198 A 
ATOM     75  F   UNL A   1      39.141  29.494  26.791  1.00  0.00    -0.203 F 
ATOM     76  F   UNL A   1      36.487  29.316  31.557  1.00  0.00    -0.200 F 
ATOM     77  C   UNL A   1      36.482  29.770  29.238  1.00  0.00     0.200 A 
ATOM     78  F   UNL A   1      36.525  30.201  26.916  1.00  0.00    -0.200 F 
ATOM     79  F   UNL A   1      35.187  30.112  29.293  1.00  0.00    -0.200 F 
ENDBRANCH  41  69
BRANCH  56  80
ATOM     80  C   UNL A   1      45.016  32.676  30.259  1.00  0.00     0.064 A 
ATOM     81  C   UNL A   1      45.123  33.702  29.310  1.00  0.00     0.173 A 
ATOM     82  C   UNL A   1      45.116  33.012  31.615  1.00  0.00     0.173 A 
ATOM     83  F   UNL A   1      45.049  33.422  28.001  1.00  0.00    -0.203 F 
ATOM     84  C   UNL A   1      45.337  35.019  29.707  1.00  0.00     0.198 A 
ATOM     85  C   UNL A   1      45.318  34.331  32.009  1.00  0.00     0.198 A 
ATOM     86  F   UNL A   1      45.022  32.060  32.556  1.00  0.00    -0.203 F 
ATOM     87  F   UNL A   1      45.465  35.983  28.785  1.00  0.00    -0.200 F 
ATOM     88  C   UNL A   1      45.431  35.333  31.055  1.00  0.00     0.200 A 
ATOM     89  F   UNL A   1      45.410  34.634  33.311  1.00  0.00    -0.200 F 
ATOM     90  F   UNL A   1      45.641  36.601  31.436  1.00  0.00    -0.200 F 
ENDBRANCH  56  80
ENDBRANCH  21  24
ENDBRANCH  12  14
ENDBRANCH   7  10
ENDBRANCH   4   7
ENDBRANCH   1   4
BRANCH   1  91
ATOM     91  C   UNL A   1      38.290  22.351  25.959  1.00  0.00    -0.052 C 
ATOM     92  H   UNL A   1      39.354  22.452  25.901  1.00  0.00     0.027 H 
ATOM     93  H   UNL A   1      37.931  21.957  26.887  1.00  0.00     0.027 H 
BRANCH  91  94
ATOM     94  C   UNL A   1      37.681  23.756  25.851  1.00  0.00    -0.036 C 
ATOM     95  H   UNL A   1      38.096  24.226  24.985  1.00  0.00     0.028 H 
ATOM     96  H   UNL A   1      37.920  24.242  26.774  1.00  0.00     0.028 H 
BRANCH  94  97
ATOM     97  C   UNL A   1      36.158  23.828  25.735  1.00  0.00     0.018 C 
ATOM     98  H   UNL A   1      35.800  24.595  26.390  1.00  0.00     0.049 H 
ATOM     99  H   UNL A   1      35.769  22.867  25.997  1.00  0.00     0.049 H 
BRANCH  97 100
ATOM    100  N   UNL A   1      35.707  24.126  24.387  1.00  0.00    -0.352 N 
ATOM    101  C   UNL A   1      34.645  23.603  23.700  1.00  0.00     0.253 C 
ATOM    102  H   UNL A   1      36.240  24.796  23.900  1.00  0.00     0.163 HD
ATOM    103  O   UNL A   1      34.364  24.028  22.581  1.00  0.00    -0.269 OA
BRANCH 101 104
ATOM    104  C   UNL A   1      33.841  22.509  24.261  1.00  0.00     0.065 A 
ATOM    105  C   UNL A   1      34.427  21.233  24.282  1.00  0.00    -0.047 A 
ATOM    106  C   UNL A   1      32.526  22.686  24.702  1.00  0.00     0.076 A 
ATOM    107  C   UNL A   1      33.715  20.135  24.770  1.00  0.00    -0.061 A 
ATOM    108  H   UNL A   1      35.390  21.106  23.933  1.00  0.00     0.063 H 
ATOM    109  C   UNL A   1      31.824  21.565  25.177  1.00  0.00    -0.036 A 
ATOM    110  C   UNL A   1      32.407  20.300  25.211  1.00  0.00    -0.060 A 
ATOM    111  H   UNL A   1      34.160  19.204  24.803  1.00  0.00     0.062 H 
ATOM    112  H   UNL A   1      30.853  21.682  25.507  1.00  0.00     0.065 H 
ATOM    113  H   UNL A   1      31.872  19.491  25.564  1.00  0.00     0.062 H 
BRANCH 106 114
ATOM    114  N   UNL A   1      31.875  23.901  24.886  1.00  0.00    -0.255 NA
ATOM    115  C   UNL A   1      30.956  24.363  24.102  1.00  0.00     0.042 C 
ATOM    116  H   UNL A   1      30.721  23.922  23.198  1.00  0.00     0.085 H 
BRANCH 115 117
ATOM    117  C   UNL A   1      30.266  25.575  24.605  1.00  0.00     0.076 A 
ATOM    118  C   UNL A   1      30.200  25.551  25.949  1.00  0.00     0.104 A 
ATOM    119  C   UNL A   1      30.665  26.889  24.039  1.00  0.00     0.201 A 
ATOM    120  O   UNL A   1      30.618  26.607  26.754  1.00  0.00    -0.463 OA
ATOM    121  H   UNL A   1      29.820  24.707  26.408  1.00  0.00     0.105 H 
ATOM    122  C   UNL A   1      31.712  27.547  24.829  1.00  0.00     0.065 A 
ATOM    123  O   UNL A   1      30.249  27.324  22.978  1.00  0.00    -0.288 OA
ATOM    124  C   UNL A   1      31.662  27.330  26.207  1.00  0.00     0.137 A 
ATOM    125  C   UNL A   1      32.805  28.163  24.223  1.00  0.00    -0.047 A 
ATOM    126  C   UNL A   1      32.715  27.745  27.010  1.00  0.00    -0.019 A 
ATOM    127  C   UNL A   1      33.880  28.543  25.024  1.00  0.00    -0.061 A 
ATOM    128  H   UNL A   1      32.817  28.334  23.205  1.00  0.00     0.063 H 
ATOM    129  C   UNL A   1      33.835  28.335  26.409  1.00  0.00    -0.059 A 
ATOM    130  H   UNL A   1      32.675  27.621  28.034  1.00  0.00     0.066 H 
ATOM    131  H   UNL A   1      34.712  28.979  24.596  1.00  0.00     0.062 H 
ATOM    132  H   UNL A   1      34.637  28.620  26.994  1.00  0.00     0.062 H 
ENDBRANCH 115 117
ENDBRANCH 106 114
ENDBRANCH 101 104
ENDBRANCH  97 100
ENDBRANCH  94  97
ENDBRANCH  91  94
ENDBRANCH   1  91
TORSDOF 15
ENDMDL
MODEL 6
REMARK VINA RESULT:     -12.4      2.811      5.203
REMARK SMILES O=C(NCCCCCCNC(=O)c1ccccc1/N=C/c1coc2ccccc2c1=O)c1ccc(-c2c3nc(c(-c4c(F)c(F)c(F)c(F)c4F)c4ccc([nH]4)c(-c4c(F)c(F)c(F)c(F)c4F)c4nc(c(-c5c(F)c(F)c(F)c(F)c5F)c5ccc2[nH]5)C=C4)C=C3)cc1
REMARK SMILES IDX 6 1 5 4 4 7 3 10 1 11 2 12 32 14 33 15 94 16 34 17 93 19
REMARK SMILES IDX 35 21 36 24 37 25 87 26 38 27 92 28 86 29 88 30 39 31 91 32
REMARK SMILES IDX 85 34 84 36 40 38 72 41 52 42 71 43 53 44 56 45 70 46 89 47
REMARK SMILES IDX 54 48 55 50 69 52 90 53 57 56 41 58 42 59 50 60 43 61 44 62
REMARK SMILES IDX 48 63 51 64 45 65 46 66 49 67 47 68 73 69 74 70 82 71 75 72
REMARK SMILES IDX 76 73 80 74 83 75 77 76 78 77 81 78 79 79 58 80 59 81 67 82
REMARK SMILES IDX 60 83 61 84 65 85 68 86 62 87 63 88 66 89 64 90 7 91 8 94
REMARK SMILES IDX 9 97 10 100 11 101 12 103 13 104 14 105 18 106 15 107 17 109
REMARK SMILES IDX 16 110 19 114 20 115 21 117 22 118 30 119 23 120 29 122
REMARK SMILES IDX 31 123 24 124 28 125 25 126 27 127 26 129
REMARK H PARENT 6 2 6 3 5 5 5 6 4 8 4 9 3 13 33 18 94 20 34 22 93 23 92 33
REMARK H PARENT 86 35 88 37 91 39 85 40 53 49 56 51 89 54 54 55 90 57 7 92
REMARK H PARENT 7 93 8 95 8 96 9 98 9 99 10 102 14 108 15 111 17 112 16 113
REMARK H PARENT 20 116 22 121 28 128 25 130 27 131 26 132
REMARK Flexibility Score: inf
ROOT
ATOM      1  C   UNL A   1      32.575  26.393  26.150  1.00  0.00    -0.052 C 
ATOM      2  H   UNL A   1      33.202  25.614  26.533  1.00  0.00     0.027 H 
ATOM      3  H   UNL A   1      32.828  26.707  25.159  1.00  0.00     0.027 H 
ENDROOT
BRANCH   1   4
ATOM      4  C   UNL A   1      32.763  27.623  27.037  1.00  0.00    -0.036 C 
ATOM      5  H   UNL A   1      31.894  28.238  26.930  1.00  0.00     0.028 H 
ATOM      6  H   UNL A   1      32.916  27.241  28.024  1.00  0.00     0.028 H 
BRANCH   4   7
ATOM      7  C   UNL A   1      33.982  28.487  26.744  1.00  0.00     0.018 C 
ATOM      8  H   UNL A   1      34.818  28.087  27.280  1.00  0.00     0.049 H 
ATOM      9  H   UNL A   1      34.135  28.469  25.684  1.00  0.00     0.049 H 
BRANCH   7  10
ATOM     10  N   UNL A   1      33.812  29.876  27.128  1.00  0.00    -0.352 N 
ATOM     11  O   UNL A   1      34.239  31.830  28.157  1.00  0.00    -0.269 OA
ATOM     12  C   UNL A   1      34.630  30.700  27.860  1.00  0.00     0.251 C 
ATOM     13  H   UNL A   1      32.978  30.294  26.813  1.00  0.00     0.163 HD
BRANCH  12  14
ATOM     14  C   UNL A   1      35.967  30.255  28.324  1.00  0.00     0.039 A 
ATOM     15  C   UNL A   1      36.159  29.640  29.563  1.00  0.00    -0.049 A 
ATOM     16  C   UNL A   1      37.058  30.405  27.455  1.00  0.00    -0.049 A 
ATOM     17  C   UNL A   1      37.443  29.282  29.976  1.00  0.00    -0.053 A 
ATOM     18  H   UNL A   1      35.350  29.449  30.175  1.00  0.00     0.063 H 
ATOM     19  C   UNL A   1      38.336  29.990  27.844  1.00  0.00    -0.053 A 
ATOM     20  H   UNL A   1      36.916  30.824  26.523  1.00  0.00     0.063 H 
ATOM     21  C   UNL A   1      38.543  29.447  29.120  1.00  0.00    -0.014 A 
ATOM     22  H   UNL A   1      37.585  28.892  30.922  1.00  0.00     0.063 H 
ATOM     23  H   UNL A   1      39.128  30.083  27.190  1.00  0.00     0.063 H 
BRANCH  21  24
ATOM     24  C   UNL A   1      39.888  29.002  29.562  1.00  0.00     0.031 A 
ATOM     25  C   UNL A   1      40.641  29.744  30.630  1.00  0.00     0.074 A 
ATOM     26  C   UNL A   1      40.422  27.893  29.014  1.00  0.00     0.049 A 
ATOM     27  N   UNL A   1      41.804  29.464  31.163  1.00  0.00    -0.248 NA
ATOM     28  C   UNL A   1      40.012  30.960  31.165  1.00  0.00    -0.034 C 
ATOM     29  C   UNL A   1      39.803  27.096  27.955  1.00  0.00    -0.036 A 
ATOM     30  N   UNL A   1      41.591  27.231  29.292  1.00  0.00    -0.354 N 
ATOM     31  C   UNL A   1      42.056  30.476  32.079  1.00  0.00     0.074 A 
ATOM     32  C   UNL A   1      40.929  31.384  32.025  1.00  0.00    -0.034 C 
ATOM     33  H   UNL A   1      39.096  31.375  30.933  1.00  0.00     0.065 H 
ATOM     34  C   UNL A   1      40.572  26.025  27.707  1.00  0.00    -0.036 A 
ATOM     35  H   UNL A   1      38.917  27.323  27.474  1.00  0.00     0.065 H 
ATOM     36  C   UNL A   1      41.749  26.076  28.568  1.00  0.00     0.049 A 
ATOM     37  H   UNL A   1      42.252  27.553  29.946  1.00  0.00     0.167 HD
ATOM     38  C   UNL A   1      43.127  30.630  32.894  1.00  0.00     0.037 A 
ATOM     39  H   UNL A   1      40.850  32.249  32.583  1.00  0.00     0.065 H 
ATOM     40  H   UNL A   1      40.364  25.284  27.018  1.00  0.00     0.065 H 
ATOM     41  C   UNL A   1      42.729  25.154  28.601  1.00  0.00     0.037 A 
ATOM     42  C   UNL A   1      44.238  29.720  32.973  1.00  0.00     0.049 A 
ATOM     43  C   UNL A   1      43.882  25.328  29.542  1.00  0.00     0.074 A 
ATOM     44  C   UNL A   1      45.361  29.793  33.782  1.00  0.00    -0.036 A 
ATOM     45  N   UNL A   1      44.362  28.562  32.222  1.00  0.00    -0.354 N 
ATOM     46  N   UNL A   1      44.102  26.287  30.406  1.00  0.00    -0.248 NA
ATOM     47  C   UNL A   1      44.926  24.293  29.509  1.00  0.00    -0.034 C 
ATOM     48  C   UNL A   1      46.171  28.684  33.510  1.00  0.00    -0.036 A 
ATOM     49  H   UNL A   1      45.566  30.538  34.466  1.00  0.00     0.065 H 
ATOM     50  C   UNL A   1      45.543  27.913  32.545  1.00  0.00     0.049 A 
ATOM     51  H   UNL A   1      43.709  28.247  31.556  1.00  0.00     0.167 HD
ATOM     52  C   UNL A   1      45.308  25.977  31.015  1.00  0.00     0.074 A 
ATOM     53  C   UNL A   1      45.763  24.729  30.441  1.00  0.00    -0.034 C 
ATOM     54  H   UNL A   1      44.991  23.451  28.916  1.00  0.00     0.065 H 
ATOM     55  H   UNL A   1      47.080  28.477  33.952  1.00  0.00     0.065 H 
ATOM     56  C   UNL A   1      45.983  26.675  31.961  1.00  0.00     0.037 A 
ATOM     57  H   UNL A   1      46.629  24.239  30.720  1.00  0.00     0.065 H 
BRANCH  38  58
ATOM     58  C   UNL A   1      43.152  31.841  33.774  1.00  0.00     0.064 A 
ATOM     59  C   UNL A   1      43.731  33.042  33.340  1.00  0.00     0.173 A 
ATOM     60  C   UNL A   1      42.549  31.815  35.039  1.00  0.00     0.173 A 
ATOM     61  F   UNL A   1      44.327  33.110  32.140  1.00  0.00    -0.203 F 
ATOM     62  C   UNL A   1      43.711  34.175  34.149  1.00  0.00     0.198 A 
ATOM     63  C   UNL A   1      42.520  32.954  35.840  1.00  0.00     0.198 A 
ATOM     64  F   UNL A   1      41.981  30.688  35.493  1.00  0.00    -0.203 F 
ATOM     65  F   UNL A   1      44.285  35.310  33.725  1.00  0.00    -0.200 F 
ATOM     66  C   UNL A   1      43.102  34.131  35.395  1.00  0.00     0.200 A 
ATOM     67  F   UNL A   1      41.927  32.912  37.041  1.00  0.00    -0.200 F 
ATOM     68  F   UNL A   1      43.078  35.225  36.169  1.00  0.00    -0.200 F 
ENDBRANCH  38  58
BRANCH  41  69
ATOM     69  C   UNL A   1      42.635  23.962  27.725  1.00  0.00     0.064 A 
ATOM     70  C   UNL A   1      42.991  24.043  26.373  1.00  0.00     0.173 A 
ATOM     71  C   UNL A   1      42.220  22.722  28.228  1.00  0.00     0.173 A 
ATOM     72  F   UNL A   1      43.376  25.216  25.850  1.00  0.00    -0.203 F 
ATOM     73  C   UNL A   1      42.933  22.919  25.551  1.00  0.00     0.198 A 
ATOM     74  C   UNL A   1      42.177  21.597  27.408  1.00  0.00     0.198 A 
ATOM     75  F   UNL A   1      41.871  22.603  29.517  1.00  0.00    -0.203 F 
ATOM     76  F   UNL A   1      43.261  23.023  24.256  1.00  0.00    -0.200 F 
ATOM     77  C   UNL A   1      42.531  21.697  26.071  1.00  0.00     0.200 A 
ATOM     78  F   UNL A   1      41.795  20.417  27.913  1.00  0.00    -0.200 F 
ATOM     79  F   UNL A   1      42.483  20.616  25.280  1.00  0.00    -0.200 F 
ENDBRANCH  41  69
BRANCH  56  80
ATOM     80  C   UNL A   1      47.286  26.103  32.424  1.00  0.00     0.064 A 
ATOM     81  C   UNL A   1      47.333  25.170  33.469  1.00  0.00     0.173 A 
ATOM     82  C   UNL A   1      48.488  26.469  31.805  1.00  0.00     0.173 A 
ATOM     83  F   UNL A   1      46.206  24.805  34.099  1.00  0.00    -0.203 F 
ATOM     84  C   UNL A   1      48.545  24.632  33.889  1.00  0.00     0.198 A 
ATOM     85  C   UNL A   1      49.698  25.920  32.220  1.00  0.00     0.198 A 
ATOM     86  F   UNL A   1      48.489  27.361  30.802  1.00  0.00    -0.203 F 
ATOM     87  F   UNL A   1      48.574  23.763  34.908  1.00  0.00    -0.200 F 
ATOM     88  C   UNL A   1      49.726  25.005  33.263  1.00  0.00     0.200 A 
ATOM     89  F   UNL A   1      50.838  26.280  31.616  1.00  0.00    -0.200 F 
ATOM     90  F   UNL A   1      50.894  24.488  33.671  1.00  0.00    -0.200 F 
ENDBRANCH  56  80
ENDBRANCH  21  24
ENDBRANCH  12  14
ENDBRANCH   7  10
ENDBRANCH   4   7
ENDBRANCH   1   4
BRANCH   1  91
ATOM     91  C   UNL A   1      31.149  25.847  26.061  1.00  0.00    -0.052 C 
ATOM     92  H   UNL A   1      30.523  26.631  25.688  1.00  0.00     0.027 H 
ATOM     93  H   UNL A   1      30.907  25.521  27.052  1.00  0.00     0.027 H 
BRANCH  91  94
ATOM     94  C   UNL A   1      30.940  24.618  25.166  1.00  0.00    -0.036 C 
ATOM     95  H   UNL A   1      31.118  24.918  24.154  1.00  0.00     0.028 H 
ATOM     96  H   UNL A   1      29.940  24.289  25.359  1.00  0.00     0.028 H 
BRANCH  94  97
ATOM     97  C   UNL A   1      31.830  23.408  25.456  1.00  0.00     0.018 C 
ATOM     98  H   UNL A   1      31.610  23.050  26.440  1.00  0.00     0.049 H 
ATOM     99  H   UNL A   1      32.847  23.728  25.367  1.00  0.00     0.049 H 
BRANCH  97 100
ATOM    100  N   UNL A   1      31.632  22.321  24.514  1.00  0.00    -0.352 N 
ATOM    101  C   UNL A   1      32.570  21.552  23.879  1.00  0.00     0.253 C 
ATOM    102  H   UNL A   1      30.694  22.110  24.301  1.00  0.00     0.163 HD
ATOM    103  O   UNL A   1      32.218  20.617  23.162  1.00  0.00    -0.269 OA
BRANCH 101 104
ATOM    104  C   UNL A   1      34.005  21.839  24.011  1.00  0.00     0.065 A 
ATOM    105  C   UNL A   1      34.784  20.888  24.690  1.00  0.00    -0.047 A 
ATOM    106  C   UNL A   1      34.585  23.024  23.550  1.00  0.00     0.076 A 
ATOM    107  C   UNL A   1      36.150  21.102  24.885  1.00  0.00    -0.061 A 
ATOM    108  H   UNL A   1      34.344  20.026  25.048  1.00  0.00     0.063 H 
ATOM    109  C   UNL A   1      35.959  23.225  23.769  1.00  0.00    -0.036 A 
ATOM    110  C   UNL A   1      36.738  22.277  24.430  1.00  0.00    -0.060 A 
ATOM    111  H   UNL A   1      36.722  20.389  25.365  1.00  0.00     0.062 H 
ATOM    112  H   UNL A   1      36.401  24.095  23.432  1.00  0.00     0.065 H 
ATOM    113  H   UNL A   1      37.745  22.446  24.580  1.00  0.00     0.062 H 
BRANCH 106 114
ATOM    114  N   UNL A   1      33.981  23.974  22.734  1.00  0.00    -0.255 NA
ATOM    115  C   UNL A   1      33.922  25.237  23.004  1.00  0.00     0.042 C 
ATOM    116  H   UNL A   1      34.208  25.626  23.917  1.00  0.00     0.085 H 
BRANCH 115 117
ATOM    117  C   UNL A   1      33.412  26.083  21.899  1.00  0.00     0.076 A 
ATOM    118  C   UNL A   1      32.228  25.615  21.461  1.00  0.00     0.104 A 
ATOM    119  C   UNL A   1      33.455  27.558  22.072  1.00  0.00     0.201 A 
ATOM    120  O   UNL A   1      31.092  26.410  21.330  1.00  0.00    -0.463 OA
ATOM    121  H   UNL A   1      32.158  24.616  21.209  1.00  0.00     0.105 H 
ATOM    122  C   UNL A   1      32.210  28.096  22.632  1.00  0.00     0.065 A 
ATOM    123  O   UNL A   1      34.452  28.234  21.875  1.00  0.00    -0.288 OA
ATOM    124  C   UNL A   1      31.038  27.440  22.250  1.00  0.00     0.137 A 
ATOM    125  C   UNL A   1      32.218  29.054  23.643  1.00  0.00    -0.047 A 
ATOM    126  C   UNL A   1      29.840  27.749  22.877  1.00  0.00    -0.019 A 
ATOM    127  C   UNL A   1      31.022  29.335  24.300  1.00  0.00    -0.061 A 
ATOM    128  H   UNL A   1      33.090  29.544  23.899  1.00  0.00     0.063 H 
ATOM    129  C   UNL A   1      29.839  28.685  23.919  1.00  0.00    -0.059 A 
ATOM    130  H   UNL A   1      28.961  27.295  22.582  1.00  0.00     0.066 H 
ATOM    131  H   UNL A   1      31.006  30.023  25.069  1.00  0.00     0.062 H 
ATOM    132  H   UNL A   1      28.958  28.901  24.412  1.00  0.00     0.062 H 
ENDBRANCH 115 117
ENDBRANCH 106 114
ENDBRANCH 101 104
ENDBRANCH  97 100
ENDBRANCH  94  97
ENDBRANCH  91  94
ENDBRANCH   1  91
TORSDOF 15
ENDMDL
MODEL 7
REMARK VINA RESULT:     -12.3      4.921     10.596
REMARK SMILES O=C(NCCCCCCNC(=O)c1ccccc1/N=C/c1coc2ccccc2c1=O)c1ccc(-c2c3nc(c(-c4c(F)c(F)c(F)c(F)c4F)c4ccc([nH]4)c(-c4c(F)c(F)c(F)c(F)c4F)c4nc(c(-c5c(F)c(F)c(F)c(F)c5F)c5ccc2[nH]5)C=C4)C=C3)cc1
REMARK SMILES IDX 6 1 5 4 4 7 3 10 1 11 2 12 32 14 33 15 94 16 34 17 93 19
REMARK SMILES IDX 35 21 36 24 37 25 87 26 38 27 92 28 86 29 88 30 39 31 91 32
REMARK SMILES IDX 85 34 84 36 40 38 72 41 52 42 71 43 53 44 56 45 70 46 89 47
REMARK SMILES IDX 54 48 55 50 69 52 90 53 57 56 41 58 42 59 50 60 43 61 44 62
REMARK SMILES IDX 48 63 51 64 45 65 46 66 49 67 47 68 73 69 74 70 82 71 75 72
REMARK SMILES IDX 76 73 80 74 83 75 77 76 78 77 81 78 79 79 58 80 59 81 67 82
REMARK SMILES IDX 60 83 61 84 65 85 68 86 62 87 63 88 66 89 64 90 7 91 8 94
REMARK SMILES IDX 9 97 10 100 11 101 12 103 13 104 14 105 18 106 15 107 17 109
REMARK SMILES IDX 16 110 19 114 20 115 21 117 22 118 30 119 23 120 29 122
REMARK SMILES IDX 31 123 24 124 28 125 25 126 27 127 26 129
REMARK H PARENT 6 2 6 3 5 5 5 6 4 8 4 9 3 13 33 18 94 20 34 22 93 23 92 33
REMARK H PARENT 86 35 88 37 91 39 85 40 53 49 56 51 89 54 54 55 90 57 7 92
REMARK H PARENT 7 93 8 95 8 96 9 98 9 99 10 102 14 108 15 111 17 112 16 113
REMARK H PARENT 20 116 22 121 28 128 25 130 27 131 26 132
REMARK Flexibility Score: inf
ROOT
ATOM      1  C   UNL A   1      36.733  20.066  24.967  1.00  0.00    -0.052 C 
ATOM      2  H   UNL A   1      36.327  20.027  25.957  1.00  0.00     0.027 H 
ATOM      3  H   UNL A   1      36.111  19.614  24.224  1.00  0.00     0.027 H 
ENDROOT
BRANCH   1   4
ATOM      4  C   UNL A   1      38.035  19.265  24.964  1.00  0.00    -0.036 C 
ATOM      5  H   UNL A   1      37.817  18.287  25.340  1.00  0.00     0.028 H 
ATOM      6  H   UNL A   1      38.377  19.283  23.950  1.00  0.00     0.028 H 
BRANCH   4   7
ATOM      7  C   UNL A   1      39.182  19.835  25.788  1.00  0.00     0.018 C 
ATOM      8  H   UNL A   1      39.450  20.789  25.382  1.00  0.00     0.049 H 
ATOM      9  H   UNL A   1      38.837  19.909  26.799  1.00  0.00     0.049 H 
BRANCH   7  10
ATOM     10  N   UNL A   1      40.362  18.991  25.797  1.00  0.00    -0.352 N 
ATOM     11  O   UNL A   1      42.541  18.443  25.883  1.00  0.00    -0.269 OA
ATOM     12  C   UNL A   1      41.678  19.309  26.025  1.00  0.00     0.251 C 
ATOM     13  H   UNL A   1      40.192  18.038  25.612  1.00  0.00     0.163 HD
BRANCH  12  14
ATOM     14  C   UNL A   1      42.089  20.680  26.415  1.00  0.00     0.039 A 
ATOM     15  C   UNL A   1      42.233  21.063  27.750  1.00  0.00    -0.049 A 
ATOM     16  C   UNL A   1      42.400  21.597  25.400  1.00  0.00    -0.049 A 
ATOM     17  C   UNL A   1      42.574  22.378  28.069  1.00  0.00    -0.053 A 
ATOM     18  H   UNL A   1      42.086  20.372  28.503  1.00  0.00     0.063 H 
ATOM     19  C   UNL A   1      42.803  22.898  25.719  1.00  0.00    -0.053 A 
ATOM     20  H   UNL A   1      42.332  21.308  24.412  1.00  0.00     0.063 H 
ATOM     21  C   UNL A   1      42.868  23.307  27.059  1.00  0.00    -0.014 A 
ATOM     22  H   UNL A   1      42.610  22.670  29.059  1.00  0.00     0.063 H 
ATOM     23  H   UNL A   1      43.052  23.559  24.967  1.00  0.00     0.063 H 
BRANCH  21  24
ATOM     24  C   UNL A   1      43.287  24.682  27.427  1.00  0.00     0.031 A 
ATOM     25  C   UNL A   1      44.678  25.173  27.142  1.00  0.00     0.074 A 
ATOM     26  C   UNL A   1      42.388  25.510  27.995  1.00  0.00     0.049 A 
ATOM     27  N   UNL A   1      45.194  26.358  27.357  1.00  0.00    -0.248 NA
ATOM     28  C   UNL A   1      45.615  24.210  26.545  1.00  0.00    -0.034 C 
ATOM     29  C   UNL A   1      41.014  25.148  28.342  1.00  0.00    -0.036 A 
ATOM     30  N   UNL A   1      42.489  26.830  28.354  1.00  0.00    -0.354 N 
ATOM     31  C   UNL A   1      46.516  26.279  26.942  1.00  0.00     0.074 A 
ATOM     32  C   UNL A   1      46.729  24.926  26.471  1.00  0.00    -0.034 C 
ATOM     33  H   UNL A   1      45.449  23.232  26.258  1.00  0.00     0.065 H 
ATOM     34  C   UNL A   1      40.383  26.233  28.817  1.00  0.00    -0.036 A 
ATOM     35  H   UNL A   1      40.598  24.209  28.240  1.00  0.00     0.065 H 
ATOM     36  C   UNL A   1      41.315  27.356  28.834  1.00  0.00     0.049 A 
ATOM     37  H   UNL A   1      43.321  27.350  28.275  1.00  0.00     0.167 HD
ATOM     38  C   UNL A   1      47.463  27.247  26.950  1.00  0.00     0.037 A 
ATOM     39  H   UNL A   1      47.632  24.566  26.121  1.00  0.00     0.065 H 
ATOM     40  H   UNL A   1      39.397  26.268  29.121  1.00  0.00     0.065 H 
ATOM     41  C   UNL A   1      41.020  28.606  29.234  1.00  0.00     0.037 A 
ATOM     42  C   UNL A   1      47.253  28.600  27.392  1.00  0.00     0.049 A 
ATOM     43  C   UNL A   1      42.076  29.669  29.192  1.00  0.00     0.074 A 
ATOM     44  C   UNL A   1      48.155  29.651  27.422  1.00  0.00    -0.036 A 
ATOM     45  N   UNL A   1      46.050  29.093  27.873  1.00  0.00    -0.354 N 
ATOM     46  N   UNL A   1      43.319  29.580  28.792  1.00  0.00    -0.248 NA
ATOM     47  C   UNL A   1      41.688  31.006  29.665  1.00  0.00    -0.034 C 
ATOM     48  C   UNL A   1      47.501  30.777  27.934  1.00  0.00    -0.036 A 
ATOM     49  H   UNL A   1      49.142  29.609  27.120  1.00  0.00     0.065 H 
ATOM     50  C   UNL A   1      46.187  30.431  28.206  1.00  0.00     0.049 A 
ATOM     51  H   UNL A   1      45.222  28.569  27.967  1.00  0.00     0.167 HD
ATOM     52  C   UNL A   1      43.865  30.841  28.967  1.00  0.00     0.074 A 
ATOM     53  C   UNL A   1      42.812  31.688  29.487  1.00  0.00    -0.034 C 
ATOM     54  H   UNL A   1      40.781  31.329  30.036  1.00  0.00     0.065 H 
ATOM     55  H   UNL A   1      47.925  31.707  28.084  1.00  0.00     0.065 H 
ATOM     56  C   UNL A   1      45.132  31.257  28.726  1.00  0.00     0.037 A 
ATOM     57  H   UNL A   1      42.921  32.694  29.695  1.00  0.00     0.065 H 
BRANCH  38  58
ATOM     58  C   UNL A   1      48.830  26.876  26.464  1.00  0.00     0.064 A 
ATOM     59  C   UNL A   1      49.791  26.343  27.334  1.00  0.00     0.173 A 
ATOM     60  C   UNL A   1      49.162  27.006  25.108  1.00  0.00     0.173 A 
ATOM     61  F   UNL A   1      49.518  26.209  28.641  1.00  0.00    -0.203 F 
ATOM     62  C   UNL A   1      51.044  25.960  26.863  1.00  0.00     0.198 A 
ATOM     63  C   UNL A   1      50.412  26.611  24.638  1.00  0.00     0.198 A 
ATOM     64  F   UNL A   1      48.273  27.509  24.239  1.00  0.00    -0.203 F 
ATOM     65  F   UNL A   1      51.956  25.470  27.713  1.00  0.00    -0.200 F 
ATOM     66  C   UNL A   1      51.351  26.090  25.516  1.00  0.00     0.200 A 
ATOM     67  F   UNL A   1      50.707  26.732  23.336  1.00  0.00    -0.200 F 
ATOM     68  F   UNL A   1      52.556  25.715  25.064  1.00  0.00    -0.200 F 
ENDBRANCH  38  58
BRANCH  41  69
ATOM     69  C   UNL A   1      39.642  28.919  29.680  1.00  0.00     0.064 A 
ATOM     70  C   UNL A   1      39.263  28.720  31.013  1.00  0.00     0.173 A 
ATOM     71  C   UNL A   1      38.695  29.451  28.794  1.00  0.00     0.173 A 
ATOM     72  F   UNL A   1      40.135  28.197  31.887  1.00  0.00    -0.203 F 
ATOM     73  C   UNL A   1      37.978  29.040  31.446  1.00  0.00     0.198 A 
ATOM     74  C   UNL A   1      37.415  29.784  29.233  1.00  0.00     0.198 A 
ATOM     75  F   UNL A   1      39.019  29.658  27.510  1.00  0.00    -0.203 F 
ATOM     76  F   UNL A   1      37.630  28.823  32.722  1.00  0.00    -0.200 F 
ATOM     77  C   UNL A   1      37.058  29.577  30.557  1.00  0.00     0.200 A 
ATOM     78  F   UNL A   1      36.531  30.308  28.374  1.00  0.00    -0.200 F 
ATOM     79  F   UNL A   1      35.825  29.891  30.977  1.00  0.00    -0.200 F 
ENDBRANCH  41  69
BRANCH  56  80
ATOM     80  C   UNL A   1      45.444  32.688  29.032  1.00  0.00     0.064 A 
ATOM     81  C   UNL A   1      45.941  33.065  30.286  1.00  0.00     0.173 A 
ATOM     82  C   UNL A   1      45.271  33.681  28.059  1.00  0.00     0.173 A 
ATOM     83  F   UNL A   1      46.107  32.148  31.251  1.00  0.00    -0.203 F 
ATOM     84  C   UNL A   1      46.242  34.396  30.563  1.00  0.00     0.198 A 
ATOM     85  C   UNL A   1      45.583  35.010  28.335  1.00  0.00     0.198 A 
ATOM     86  F   UNL A   1      44.795  33.365  26.845  1.00  0.00    -0.203 F 
ATOM     87  F   UNL A   1      46.689  34.742  31.777  1.00  0.00    -0.200 F 
ATOM     88  C   UNL A   1      46.065  35.366  29.587  1.00  0.00     0.200 A 
ATOM     89  F   UNL A   1      45.413  35.946  27.393  1.00  0.00    -0.200 F 
ATOM     90  F   UNL A   1      46.352  36.647  29.855  1.00  0.00    -0.200 F 
ENDBRANCH  56  80
ENDBRANCH  21  24
ENDBRANCH  12  14
ENDBRANCH   7  10
ENDBRANCH   4   7
ENDBRANCH   1   4
BRANCH   1  91
ATOM     91  C   UNL A   1      36.855  21.538  24.567  1.00  0.00    -0.052 C 
ATOM     92  H   UNL A   1      36.198  21.705  23.739  1.00  0.00     0.027 H 
ATOM     93  H   UNL A   1      37.892  21.688  24.348  1.00  0.00     0.027 H 
BRANCH  91  94
ATOM     94  C   UNL A   1      36.515  22.572  25.649  1.00  0.00    -0.036 C 
ATOM     95  H   UNL A   1      37.423  23.069  25.922  1.00  0.00     0.028 H 
ATOM     96  H   UNL A   1      36.061  22.016  26.443  1.00  0.00     0.028 H 
BRANCH  94  97
ATOM     97  C   UNL A   1      35.495  23.645  25.266  1.00  0.00     0.018 C 
ATOM     98  H   UNL A   1      35.074  23.392  24.315  1.00  0.00     0.049 H 
ATOM     99  H   UNL A   1      36.009  24.582  25.237  1.00  0.00     0.049 H 
BRANCH  97 100
ATOM    100  N   UNL A   1      34.416  23.770  26.230  1.00  0.00    -0.352 N 
ATOM    101  C   UNL A   1      33.307  22.984  26.385  1.00  0.00     0.253 C 
ATOM    102  H   UNL A   1      34.493  24.525  26.857  1.00  0.00     0.163 HD
ATOM    103  O   UNL A   1      32.525  23.195  27.311  1.00  0.00    -0.269 OA
BRANCH 101 104
ATOM    104  C   UNL A   1      33.005  21.898  25.442  1.00  0.00     0.065 A 
ATOM    105  C   UNL A   1      33.225  20.585  25.892  1.00  0.00    -0.047 A 
ATOM    106  C   UNL A   1      32.581  22.131  24.131  1.00  0.00     0.076 A 
ATOM    107  C   UNL A   1      32.992  19.500  25.044  1.00  0.00    -0.061 A 
ATOM    108  H   UNL A   1      33.560  20.422  26.853  1.00  0.00     0.063 H 
ATOM    109  C   UNL A   1      32.367  21.025  23.291  1.00  0.00    -0.036 A 
ATOM    110  C   UNL A   1      32.570  19.721  23.738  1.00  0.00    -0.060 A 
ATOM    111  H   UNL A   1      33.134  18.537  25.387  1.00  0.00     0.062 H 
ATOM    112  H   UNL A   1      32.052  21.182  22.321  1.00  0.00     0.065 H 
ATOM    113  H   UNL A   1      32.406  18.923  23.103  1.00  0.00     0.062 H 
BRANCH 106 114
ATOM    114  N   UNL A   1      32.176  23.351  23.600  1.00  0.00    -0.255 NA
ATOM    115  C   UNL A   1      30.962  23.795  23.634  1.00  0.00     0.042 C 
ATOM    116  H   UNL A   1      30.166  23.218  23.946  1.00  0.00     0.085 H 
BRANCH 115 117
ATOM    117  C   UNL A   1      30.806  25.201  23.188  1.00  0.00     0.076 A 
ATOM    118  C   UNL A   1      29.812  25.800  23.871  1.00  0.00     0.104 A 
ATOM    119  C   UNL A   1      32.032  26.029  23.049  1.00  0.00     0.201 A 
ATOM    120  O   UNL A   1      29.961  27.018  24.528  1.00  0.00    -0.463 OA
ATOM    121  H   UNL A   1      28.892  25.332  23.910  1.00  0.00     0.105 H 
ATOM    122  C   UNL A   1      32.342  26.785  24.267  1.00  0.00     0.065 A 
ATOM    123  O   UNL A   1      32.761  25.999  22.070  1.00  0.00    -0.288 OA
ATOM    124  C   UNL A   1      31.242  27.228  25.004  1.00  0.00     0.137 A 
ATOM    125  C   UNL A   1      33.639  26.866  24.766  1.00  0.00    -0.047 A 
ATOM    126  C   UNL A   1      31.433  27.776  26.265  1.00  0.00    -0.019 A 
ATOM    127  C   UNL A   1      33.827  27.380  26.047  1.00  0.00    -0.061 A 
ATOM    128  H   UNL A   1      34.443  26.553  24.198  1.00  0.00     0.063 H 
ATOM    129  C   UNL A   1      32.729  27.832  26.793  1.00  0.00    -0.059 A 
ATOM    130  H   UNL A   1      30.631  28.137  26.807  1.00  0.00     0.066 H 
ATOM    131  H   UNL A   1      34.776  27.428  26.449  1.00  0.00     0.062 H 
ATOM    132  H   UNL A   1      32.878  28.211  27.741  1.00  0.00     0.062 H 
ENDBRANCH 115 117
ENDBRANCH 106 114
ENDBRANCH 101 104
ENDBRANCH  97 100
ENDBRANCH  94  97
ENDBRANCH  91  94
ENDBRANCH   1  91
TORSDOF 15
ENDMDL
MODEL 8
REMARK VINA RESULT:     -12.3      0.871      7.317
REMARK SMILES O=C(NCCCCCCNC(=O)c1ccccc1/N=C/c1coc2ccccc2c1=O)c1ccc(-c2c3nc(c(-c4c(F)c(F)c(F)c(F)c4F)c4ccc([nH]4)c(-c4c(F)c(F)c(F)c(F)c4F)c4nc(c(-c5c(F)c(F)c(F)c(F)c5F)c5ccc2[nH]5)C=C4)C=C3)cc1
REMARK SMILES IDX 6 1 5 4 4 7 3 10 1 11 2 12 32 14 33 15 94 16 34 17 93 19
REMARK SMILES IDX 35 21 36 24 37 25 87 26 38 27 92 28 86 29 88 30 39 31 91 32
REMARK SMILES IDX 85 34 84 36 40 38 72 41 52 42 71 43 53 44 56 45 70 46 89 47
REMARK SMILES IDX 54 48 55 50 69 52 90 53 57 56 41 58 42 59 50 60 43 61 44 62
REMARK SMILES IDX 48 63 51 64 45 65 46 66 49 67 47 68 73 69 74 70 82 71 75 72
REMARK SMILES IDX 76 73 80 74 83 75 77 76 78 77 81 78 79 79 58 80 59 81 67 82
REMARK SMILES IDX 60 83 61 84 65 85 68 86 62 87 63 88 66 89 64 90 7 91 8 94
REMARK SMILES IDX 9 97 10 100 11 101 12 103 13 104 14 105 18 106 15 107 17 109
REMARK SMILES IDX 16 110 19 114 20 115 21 117 22 118 30 119 23 120 29 122
REMARK SMILES IDX 31 123 24 124 28 125 25 126 27 127 26 129
REMARK H PARENT 6 2 6 3 5 5 5 6 4 8 4 9 3 13 33 18 94 20 34 22 93 23 92 33
REMARK H PARENT 86 35 88 37 91 39 85 40 53 49 56 51 89 54 54 55 90 57 7 92
REMARK H PARENT 7 93 8 95 8 96 9 98 9 99 10 102 14 108 15 111 17 112 16 113
REMARK H PARENT 20 116 22 121 28 128 25 130 27 131 26 132
REMARK Flexibility Score: inf
ROOT
ATOM      1  C   UNL A   1      31.283  30.955  25.914  1.00  0.00    -0.052 C 
ATOM      2  H   UNL A   1      31.601  31.004  24.893  1.00  0.00     0.027 H 
ATOM      3  H   UNL A   1      30.284  30.594  26.041  1.00  0.00     0.027 H 
ENDROOT
BRANCH   1   4
ATOM      4  C   UNL A   1      31.285  32.377  26.473  1.00  0.00    -0.036 C 
ATOM      5  H   UNL A   1      31.165  33.051  25.651  1.00  0.00     0.028 H 
ATOM      6  H   UNL A   1      30.488  32.403  27.186  1.00  0.00     0.028 H 
BRANCH   4   7
ATOM      7  C   UNL A   1      32.530  32.800  27.242  1.00  0.00     0.018 C 
ATOM      8  H   UNL A   1      32.602  32.201  28.126  1.00  0.00     0.049 H 
ATOM      9  H   UNL A   1      33.367  32.659  26.589  1.00  0.00     0.049 H 
BRANCH   7  10
ATOM     10  N   UNL A   1      32.521  34.198  27.632  1.00  0.00    -0.352 N 
ATOM     11  O   UNL A   1      33.036  36.044  28.807  1.00  0.00    -0.269 OA
ATOM     12  C   UNL A   1      33.282  34.863  28.562  1.00  0.00     0.251 C 
ATOM     13  H   UNL A   1      31.868  34.758  27.154  1.00  0.00     0.163 HD
BRANCH  12  14
ATOM     14  C   UNL A   1      34.378  34.186  29.297  1.00  0.00     0.039 A 
ATOM     15  C   UNL A   1      35.723  34.479  29.063  1.00  0.00    -0.049 A 
ATOM     16  C   UNL A   1      34.040  33.267  30.300  1.00  0.00    -0.049 A 
ATOM     17  C   UNL A   1      36.721  33.781  29.745  1.00  0.00    -0.053 A 
ATOM     18  H   UNL A   1      35.981  35.214  28.386  1.00  0.00     0.063 H 
ATOM     19  C   UNL A   1      35.039  32.610  31.027  1.00  0.00    -0.053 A 
ATOM     20  H   UNL A   1      33.047  33.073  30.503  1.00  0.00     0.063 H 
ATOM     21  C   UNL A   1      36.390  32.845  30.736  1.00  0.00    -0.014 A 
ATOM     22  H   UNL A   1      37.713  33.955  29.516  1.00  0.00     0.063 H 
ATOM     23  H   UNL A   1      34.781  31.953  31.779  1.00  0.00     0.063 H 
BRANCH  21  24
ATOM     24  C   UNL A   1      37.472  32.160  31.488  1.00  0.00     0.031 A 
ATOM     25  C   UNL A   1      38.263  31.044  30.868  1.00  0.00     0.074 A 
ATOM     26  C   UNL A   1      37.765  32.577  32.735  1.00  0.00     0.049 A 
ATOM     27  N   UNL A   1      39.270  30.370  31.369  1.00  0.00    -0.248 NA
ATOM     28  C   UNL A   1      37.873  30.623  29.515  1.00  0.00    -0.034 C 
ATOM     29  C   UNL A   1      37.058  33.635  33.457  1.00  0.00    -0.036 A 
ATOM     30  N   UNL A   1      38.750  32.179  33.604  1.00  0.00    -0.354 N 
ATOM     31  C   UNL A   1      39.619  29.436  30.404  1.00  0.00     0.074 A 
ATOM     32  C   UNL A   1      38.712  29.621  29.290  1.00  0.00    -0.034 C 
ATOM     33  H   UNL A   1      37.138  31.007  28.900  1.00  0.00     0.065 H 
ATOM     34  C   UNL A   1      37.663  33.838  34.638  1.00  0.00    -0.036 A 
ATOM     35  H   UNL A   1      36.227  34.142  33.114  1.00  0.00     0.065 H 
ATOM     36  C   UNL A   1      38.779  32.907  34.767  1.00  0.00     0.049 A 
ATOM     37  H   UNL A   1      39.375  31.443  33.412  1.00  0.00     0.167 HD
ATOM     38  C   UNL A   1      40.609  28.513  30.443  1.00  0.00     0.037 A 
ATOM     39  H   UNL A   1      38.719  29.046  28.432  1.00  0.00     0.065 H 
ATOM     40  H   UNL A   1      37.384  34.541  35.341  1.00  0.00     0.065 H 
ATOM     41  C   UNL A   1      39.619  32.840  35.816  1.00  0.00     0.037 A 
ATOM     42  C   UNL A   1      41.531  28.339  31.534  1.00  0.00     0.049 A 
ATOM     43  C   UNL A   1      40.731  31.835  35.815  1.00  0.00     0.074 A 
ATOM     44  C   UNL A   1      42.574  27.435  31.652  1.00  0.00    -0.036 A 
ATOM     45  N   UNL A   1      41.526  29.096  32.696  1.00  0.00    -0.354 N 
ATOM     46  N   UNL A   1      41.053  30.963  34.893  1.00  0.00    -0.248 NA
ATOM     47  C   UNL A   1      41.596  31.804  37.004  1.00  0.00    -0.034 C 
ATOM     48  C   UNL A   1      43.192  27.636  32.891  1.00  0.00    -0.036 A 
ATOM     49  H   UNL A   1      42.846  26.732  30.946  1.00  0.00     0.065 H 
ATOM     50  C   UNL A   1      42.546  28.677  33.536  1.00  0.00     0.049 A 
ATOM     51  H   UNL A   1      40.892  29.821  32.895  1.00  0.00     0.167 HD
ATOM     52  C   UNL A   1      42.149  30.275  35.388  1.00  0.00     0.074 A 
ATOM     53  C   UNL A   1      42.456  30.847  36.683  1.00  0.00    -0.034 C 
ATOM     54  H   UNL A   1      41.546  32.375  37.862  1.00  0.00     0.065 H 
ATOM     55  H   UNL A   1      43.994  27.101  33.260  1.00  0.00     0.065 H 
ATOM     56  C   UNL A   1      42.834  29.253  34.822  1.00  0.00     0.037 A 
ATOM     57  H   UNL A   1      43.243  30.547  37.280  1.00  0.00     0.065 H 
BRANCH  38  58
ATOM     58  C   UNL A   1      40.748  27.604  29.261  1.00  0.00     0.064 A 
ATOM     59  C   UNL A   1      39.873  26.527  29.065  1.00  0.00     0.173 A 
ATOM     60  C   UNL A   1      41.733  27.844  28.292  1.00  0.00     0.173 A 
ATOM     61  F   UNL A   1      38.922  26.255  29.972  1.00  0.00    -0.203 F 
ATOM     62  C   UNL A   1      39.984  25.714  27.940  1.00  0.00     0.198 A 
ATOM     63  C   UNL A   1      41.832  27.036  27.162  1.00  0.00     0.198 A 
ATOM     64  F   UNL A   1      42.590  28.864  28.437  1.00  0.00    -0.203 F 
ATOM     65  F   UNL A   1      39.150  24.677  27.779  1.00  0.00    -0.200 F 
ATOM     66  C   UNL A   1      40.960  25.973  26.988  1.00  0.00     0.200 A 
ATOM     67  F   UNL A   1      42.772  27.289  26.239  1.00  0.00    -0.200 F 
ATOM     68  F   UNL A   1      41.061  25.193  25.902  1.00  0.00    -0.200 F 
ENDBRANCH  38  58
BRANCH  41  69
ATOM     69  C   UNL A   1      39.446  33.783  36.946  1.00  0.00     0.064 A 
ATOM     70  C   UNL A   1      38.689  33.421  38.067  1.00  0.00     0.173 A 
ATOM     71  C   UNL A   1      40.058  35.044  36.938  1.00  0.00     0.173 A 
ATOM     72  F   UNL A   1      38.074  32.231  38.104  1.00  0.00    -0.203 F 
ATOM     73  C   UNL A   1      38.548  34.292  39.145  1.00  0.00     0.198 A 
ATOM     74  C   UNL A   1      39.927  35.907  38.024  1.00  0.00     0.198 A 
ATOM     75  F   UNL A   1      40.792  35.428  35.884  1.00  0.00    -0.203 F 
ATOM     76  F   UNL A   1      37.804  33.933  40.200  1.00  0.00    -0.200 F 
ATOM     77  C   UNL A   1      39.171  35.532  39.124  1.00  0.00     0.200 A 
ATOM     78  F   UNL A   1      40.535  37.101  38.004  1.00  0.00    -0.200 F 
ATOM     79  F   UNL A   1      39.040  36.365  40.165  1.00  0.00    -0.200 F 
ENDBRANCH  41  69
BRANCH  56  80
ATOM     80  C   UNL A   1      43.976  28.686  35.606  1.00  0.00     0.064 A 
ATOM     81  C   UNL A   1      43.776  27.639  36.515  1.00  0.00     0.173 A 
ATOM     82  C   UNL A   1      45.277  29.173  35.429  1.00  0.00     0.173 A 
ATOM     83  F   UNL A   1      42.543  27.154  36.726  1.00  0.00    -0.203 F 
ATOM     84  C   UNL A   1      44.842  27.107  37.234  1.00  0.00     0.198 A 
ATOM     85  C   UNL A   1      46.343  28.631  36.140  1.00  0.00     0.198 A 
ATOM     86  F   UNL A   1      45.513  30.177  34.569  1.00  0.00    -0.203 F 
ATOM     87  F   UNL A   1      44.627  26.125  38.120  1.00  0.00    -0.200 F 
ATOM     88  C   UNL A   1      46.124  27.601  37.044  1.00  0.00     0.200 A 
ATOM     89  F   UNL A   1      47.581  29.108  35.957  1.00  0.00    -0.200 F 
ATOM     90  F   UNL A   1      47.150  27.090  37.740  1.00  0.00    -0.200 F 
ENDBRANCH  56  80
ENDBRANCH  21  24
ENDBRANCH  12  14
ENDBRANCH   7  10
ENDBRANCH   4   7
ENDBRANCH   1   4
BRANCH   1  91
ATOM     91  C   UNL A   1      32.183  29.952  26.639  1.00  0.00    -0.052 C 
ATOM     92  H   UNL A   1      31.604  29.072  26.826  1.00  0.00     0.027 H 
ATOM     93  H   UNL A   1      32.519  30.458  27.521  1.00  0.00     0.027 H 
BRANCH  91  94
ATOM     94  C   UNL A   1      33.461  29.523  25.905  1.00  0.00    -0.036 C 
ATOM     95  H   UNL A   1      34.293  29.753  26.537  1.00  0.00     0.028 H 
ATOM     96  H   UNL A   1      33.450  30.057  24.977  1.00  0.00     0.028 H 
BRANCH  94  97
ATOM     97  C   UNL A   1      33.561  28.046  25.523  1.00  0.00     0.018 C 
ATOM     98  H   UNL A   1      32.594  27.600  25.627  1.00  0.00     0.049 H 
ATOM     99  H   UNL A   1      34.279  27.593  26.174  1.00  0.00     0.049 H 
BRANCH  97 100
ATOM    100  N   UNL A   1      34.020  27.843  24.161  1.00  0.00    -0.352 N 
ATOM    101  C   UNL A   1      33.288  27.792  23.006  1.00  0.00     0.253 C 
ATOM    102  H   UNL A   1      34.991  27.725  24.054  1.00  0.00     0.163 HD
ATOM    103  O   UNL A   1      33.854  27.684  21.920  1.00  0.00    -0.269 OA
BRANCH 101 104
ATOM    104  C   UNL A   1      31.819  27.832  23.034  1.00  0.00     0.065 A 
ATOM    105  C   UNL A   1      31.208  29.047  22.682  1.00  0.00    -0.047 A 
ATOM    106  C   UNL A   1      31.040  26.747  23.449  1.00  0.00     0.076 A 
ATOM    107  C   UNL A   1      29.818  29.174  22.714  1.00  0.00    -0.061 A 
ATOM    108  H   UNL A   1      31.790  29.849  22.398  1.00  0.00     0.063 H 
ATOM    109  C   UNL A   1      29.644  26.902  23.487  1.00  0.00    -0.036 A 
ATOM    110  C   UNL A   1      29.034  28.102  23.125  1.00  0.00    -0.060 A 
ATOM    111  H   UNL A   1      29.374  30.063  22.433  1.00  0.00     0.062 H 
ATOM    112  H   UNL A   1      29.057  26.109  23.790  1.00  0.00     0.065 H 
ATOM    113  H   UNL A   1      28.007  28.193  23.161  1.00  0.00     0.062 H 
BRANCH 106 114
ATOM    114  N   UNL A   1      31.487  25.450  23.674  1.00  0.00    -0.255 NA
ATOM    115  C   UNL A   1      31.456  24.856  24.822  1.00  0.00     0.042 C 
ATOM    116  H   UNL A   1      31.214  25.347  25.698  1.00  0.00     0.085 H 
BRANCH 115 117
ATOM    117  C   UNL A   1      31.796  23.413  24.782  1.00  0.00     0.076 A 
ATOM    118  C   UNL A   1      32.116  23.044  23.527  1.00  0.00     0.104 A 
ATOM    119  C   UNL A   1      32.714  22.883  25.823  1.00  0.00     0.201 A 
ATOM    120  O   UNL A   1      33.285  22.360  23.205  1.00  0.00    -0.463 OA
ATOM    121  H   UNL A   1      31.460  23.279  22.764  1.00  0.00     0.105 H 
ATOM    122  C   UNL A   1      34.118  22.899  25.398  1.00  0.00     0.065 A 
ATOM    123  O   UNL A   1      32.354  22.573  26.947  1.00  0.00    -0.288 OA
ATOM    124  C   UNL A   1      34.344  22.668  24.039  1.00  0.00     0.137 A 
ATOM    125  C   UNL A   1      35.133  23.330  26.247  1.00  0.00    -0.047 A 
ATOM    126  C   UNL A   1      35.613  22.857  23.510  1.00  0.00    -0.019 A 
ATOM    127  C   UNL A   1      36.397  23.558  25.708  1.00  0.00    -0.061 A 
ATOM    128  H   UNL A   1      34.953  23.476  27.254  1.00  0.00     0.063 H 
ATOM    129  C   UNL A   1      36.635  23.324  24.346  1.00  0.00    -0.059 A 
ATOM    130  H   UNL A   1      35.801  22.658  22.515  1.00  0.00     0.066 H 
ATOM    131  H   UNL A   1      37.161  23.902  26.311  1.00  0.00     0.062 H 
ATOM    132  H   UNL A   1      37.575  23.496  23.956  1.00  0.00     0.062 H 
ENDBRANCH 115 117
ENDBRANCH 106 114
ENDBRANCH 101 104
ENDBRANCH  97 100
ENDBRANCH  94  97
ENDBRANCH  91  94
ENDBRANCH   1  91
TORSDOF 15
ENDMDL
MODEL 9
REMARK VINA RESULT:     -12.3      4.946      9.283
REMARK SMILES O=C(NCCCCCCNC(=O)c1ccccc1/N=C/c1coc2ccccc2c1=O)c1ccc(-c2c3nc(c(-c4c(F)c(F)c(F)c(F)c4F)c4ccc([nH]4)c(-c4c(F)c(F)c(F)c(F)c4F)c4nc(c(-c5c(F)c(F)c(F)c(F)c5F)c5ccc2[nH]5)C=C4)C=C3)cc1
REMARK SMILES IDX 6 1 5 4 4 7 3 10 1 11 2 12 32 14 33 15 94 16 34 17 93 19
REMARK SMILES IDX 35 21 36 24 37 25 87 26 38 27 92 28 86 29 88 30 39 31 91 32
REMARK SMILES IDX 85 34 84 36 40 38 72 41 52 42 71 43 53 44 56 45 70 46 89 47
REMARK SMILES IDX 54 48 55 50 69 52 90 53 57 56 41 58 42 59 50 60 43 61 44 62
REMARK SMILES IDX 48 63 51 64 45 65 46 66 49 67 47 68 73 69 74 70 82 71 75 72
REMARK SMILES IDX 76 73 80 74 83 75 77 76 78 77 81 78 79 79 58 80 59 81 67 82
REMARK SMILES IDX 60 83 61 84 65 85 68 86 62 87 63 88 66 89 64 90 7 91 8 94
REMARK SMILES IDX 9 97 10 100 11 101 12 103 13 104 14 105 18 106 15 107 17 109
REMARK SMILES IDX 16 110 19 114 20 115 21 117 22 118 30 119 23 120 29 122
REMARK SMILES IDX 31 123 24 124 28 125 25 126 27 127 26 129
REMARK H PARENT 6 2 6 3 5 5 5 6 4 8 4 9 3 13 33 18 94 20 34 22 93 23 92 33
REMARK H PARENT 86 35 88 37 91 39 85 40 53 49 56 51 89 54 54 55 90 57 7 92
REMARK H PARENT 7 93 8 95 8 96 9 98 9 99 10 102 14 108 15 111 17 112 16 113
REMARK H PARENT 20 116 22 121 28 128 25 130 27 131 26 132
REMARK Flexibility Score: inf
ROOT
ATOM      1  C   UNL A   1      36.736  20.124  24.962  1.00  0.00    -0.052 C 
ATOM      2  H   UNL A   1      36.388  20.016  25.968  1.00  0.00     0.027 H 
ATOM      3  H   UNL A   1      36.135  19.617  24.237  1.00  0.00     0.027 H 
ENDROOT
BRANCH   1   4
ATOM      4  C   UNL A   1      38.121  19.485  24.874  1.00  0.00    -0.036 C 
ATOM      5  H   UNL A   1      38.007  18.435  25.045  1.00  0.00     0.028 H 
ATOM      6  H   UNL A   1      38.490  19.738  23.902  1.00  0.00     0.028 H 
BRANCH   4   7
ATOM      7  C   UNL A   1      39.168  20.003  25.852  1.00  0.00     0.018 C 
ATOM      8  H   UNL A   1      39.503  20.962  25.512  1.00  0.00     0.049 H 
ATOM      9  H   UNL A   1      38.702  20.055  26.814  1.00  0.00     0.049 H 
BRANCH   7  10
ATOM     10  N   UNL A   1      40.321  19.131  25.979  1.00  0.00    -0.352 N 
ATOM     11  O   UNL A   1      42.478  18.534  26.193  1.00  0.00    -0.269 OA
ATOM     12  C   UNL A   1      41.638  19.433  26.225  1.00  0.00     0.251 C 
ATOM     13  H   UNL A   1      40.129  18.171  25.874  1.00  0.00     0.163 HD
BRANCH  12  14
ATOM     14  C   UNL A   1      42.077  20.822  26.506  1.00  0.00     0.039 A 
ATOM     15  C   UNL A   1      42.345  21.271  27.801  1.00  0.00    -0.049 A 
ATOM     16  C   UNL A   1      42.285  21.687  25.422  1.00  0.00    -0.049 A 
ATOM     17  C   UNL A   1      42.708  22.600  28.021  1.00  0.00    -0.053 A 
ATOM     18  H   UNL A   1      42.274  20.619  28.598  1.00  0.00     0.063 H 
ATOM     19  C   UNL A   1      42.709  23.003  25.636  1.00  0.00    -0.053 A 
ATOM     20  H   UNL A   1      42.125  21.350  24.461  1.00  0.00     0.063 H 
ATOM     21  C   UNL A   1      42.899  23.478  26.942  1.00  0.00    -0.014 A 
ATOM     22  H   UNL A   1      42.836  22.942  28.987  1.00  0.00     0.063 H 
ATOM     23  H   UNL A   1      42.882  23.625  24.833  1.00  0.00     0.063 H 
BRANCH  21  24
ATOM     24  C   UNL A   1      43.345  24.870  27.200  1.00  0.00     0.031 A 
ATOM     25  C   UNL A   1      42.427  25.874  27.838  1.00  0.00     0.074 A 
ATOM     26  C   UNL A   1      44.606  25.221  26.885  1.00  0.00     0.049 A 
ATOM     27  N   UNL A   1      42.671  27.117  28.175  1.00  0.00    -0.248 NA
ATOM     28  C   UNL A   1      41.057  25.431  28.132  1.00  0.00    -0.034 C 
ATOM     29  C   UNL A   1      45.588  24.348  26.243  1.00  0.00    -0.036 A 
ATOM     30  N   UNL A   1      45.285  26.397  27.087  1.00  0.00    -0.354 N 
ATOM     31  C   UNL A   1      41.484  27.609  28.699  1.00  0.00     0.074 A 
ATOM     32  C   UNL A   1      40.515  26.535  28.629  1.00  0.00    -0.034 C 
ATOM     33  H   UNL A   1      40.628  24.503  27.989  1.00  0.00     0.065 H 
ATOM     34  C   UNL A   1      46.758  24.998  26.149  1.00  0.00    -0.036 A 
ATOM     35  H   UNL A   1      45.408  23.386  25.913  1.00  0.00     0.065 H 
ATOM     36  C   UNL A   1      46.600  26.341  26.697  1.00  0.00     0.049 A 
ATOM     37  H   UNL A   1      44.870  27.201  27.473  1.00  0.00     0.167 HD
ATOM     38  C   UNL A   1      41.229  28.842  29.198  1.00  0.00     0.037 A 
ATOM     39  H   UNL A   1      39.530  26.619  28.929  1.00  0.00     0.065 H 
ATOM     40  H   UNL A   1      47.629  24.610  25.753  1.00  0.00     0.065 H 
ATOM     41  C   UNL A   1      47.574  27.266  26.782  1.00  0.00     0.037 A 
ATOM     42  C   UNL A   1      42.193  29.906  29.295  1.00  0.00     0.049 A 
ATOM     43  C   UNL A   1      47.274  28.609  27.376  1.00  0.00     0.074 A 
ATOM     44  C   UNL A   1      42.022  31.185  29.799  1.00  0.00    -0.036 A 
ATOM     45  N   UNL A   1      43.514  29.811  28.887  1.00  0.00    -0.354 N 
ATOM     46  N   UNL A   1      46.149  29.057  27.873  1.00  0.00    -0.248 NA
ATOM     47  C   UNL A   1      48.380  29.577  27.416  1.00  0.00    -0.034 C 
ATOM     48  C   UNL A   1      43.238  31.868  29.684  1.00  0.00    -0.036 A 
ATOM     49  H   UNL A   1      41.147  31.569  30.190  1.00  0.00     0.065 H 
ATOM     50  C   UNL A   1      44.169  31.009  29.125  1.00  0.00     0.049 A 
ATOM     51  H   UNL A   1      43.925  29.012  28.486  1.00  0.00     0.167 HD
ATOM     52  C   UNL A   1      46.406  30.357  28.279  1.00  0.00     0.074 A 
ATOM     53  C   UNL A   1      47.800  30.620  27.994  1.00  0.00    -0.034 C 
ATOM     54  H   UNL A   1      49.350  29.472  27.081  1.00  0.00     0.065 H 
ATOM     55  H   UNL A   1      43.412  32.846  29.968  1.00  0.00     0.065 H 
ATOM     56  C   UNL A   1      45.555  31.255  28.831  1.00  0.00     0.037 A 
ATOM     57  H   UNL A   1      48.283  31.507  28.213  1.00  0.00     0.065 H 
BRANCH  38  58
ATOM     58  C   UNL A   1      39.838  29.114  29.679  1.00  0.00     0.064 A 
ATOM     59  C   UNL A   1      38.827  29.514  28.794  1.00  0.00     0.173 A 
ATOM     60  C   UNL A   1      39.502  28.924  31.027  1.00  0.00     0.173 A 
ATOM     61  F   UNL A   1      39.106  29.717  27.497  1.00  0.00    -0.203 F 
ATOM     62  C   UNL A   1      37.527  29.722  29.245  1.00  0.00     0.198 A 
ATOM     63  C   UNL A   1      38.197  29.122  31.472  1.00  0.00     0.198 A 
ATOM     64  F   UNL A   1      40.436  28.539  31.909  1.00  0.00    -0.203 F 
ATOM     65  F   UNL A   1      36.578  30.123  28.387  1.00  0.00    -0.200 F 
ATOM     66  C   UNL A   1      37.212  29.521  30.581  1.00  0.00     0.200 A 
ATOM     67  F   UNL A   1      37.892  28.922  32.762  1.00  0.00    -0.200 F 
ATOM     68  F   UNL A   1      35.958  29.717  31.012  1.00  0.00    -0.200 F 
ENDBRANCH  38  58
BRANCH  41  69
ATOM     69  C   UNL A   1      48.938  26.929  26.312  1.00  0.00     0.064 A 
ATOM     70  C   UNL A   1      49.888  26.406  27.198  1.00  0.00     0.173 A 
ATOM     71  C   UNL A   1      49.305  27.092  24.969  1.00  0.00     0.173 A 
ATOM     72  F   UNL A   1      49.580  26.251  28.494  1.00  0.00    -0.203 F 
ATOM     73  C   UNL A   1      51.163  26.059  26.756  1.00  0.00     0.198 A 
ATOM     74  C   UNL A   1      50.575  26.731  24.527  1.00  0.00     0.198 A 
ATOM     75  F   UNL A   1      48.424  27.588  24.088  1.00  0.00    -0.203 F 
ATOM     76  F   UNL A   1      52.061  25.578  27.626  1.00  0.00    -0.200 F 
ATOM     77  C   UNL A   1      51.503  26.217  25.421  1.00  0.00     0.200 A 
ATOM     78  F   UNL A   1      50.899  26.878  23.236  1.00  0.00    -0.200 F 
ATOM     79  F   UNL A   1      52.727  25.876  24.997  1.00  0.00    -0.200 F 
ENDBRANCH  41  69
BRANCH  56  80
ATOM     80  C   UNL A   1      46.112  32.606  29.154  1.00  0.00     0.064 A 
ATOM     81  C   UNL A   1      46.709  32.862  30.396  1.00  0.00     0.173 A 
ATOM     82  C   UNL A   1      46.072  33.640  28.210  1.00  0.00     0.173 A 
ATOM     83  F   UNL A   1      46.754  31.904  31.333  1.00  0.00    -0.203 F 
ATOM     84  C   UNL A   1      47.236  34.116  30.688  1.00  0.00     0.198 A 
ATOM     85  C   UNL A   1      46.610  34.891  28.501  1.00  0.00     0.198 A 
ATOM     86  F   UNL A   1      45.507  33.440  27.010  1.00  0.00    -0.203 F 
ATOM     87  F   UNL A   1      47.778  34.350  31.891  1.00  0.00    -0.200 F 
ATOM     88  C   UNL A   1      47.189  35.128  29.740  1.00  0.00     0.200 A 
ATOM     89  F   UNL A   1      46.565  35.868  27.586  1.00  0.00    -0.200 F 
ATOM     90  F   UNL A   1      47.694  36.337  30.024  1.00  0.00    -0.200 F 
ENDBRANCH  56  80
ENDBRANCH  21  24
ENDBRANCH  12  14
ENDBRANCH   7  10
ENDBRANCH   4   7
ENDBRANCH   1   4
BRANCH   1  91
ATOM     91  C   UNL A   1      36.662  21.608  24.597  1.00  0.00    -0.052 C 
ATOM     92  H   UNL A   1      35.866  21.730  23.892  1.00  0.00     0.027 H 
ATOM     93  H   UNL A   1      37.632  21.856  24.218  1.00  0.00     0.027 H 
BRANCH  91  94
ATOM     94  C   UNL A   1      36.415  22.586  25.754  1.00  0.00    -0.036 C 
ATOM     95  H   UNL A   1      37.334  23.099  25.949  1.00  0.00     0.028 H 
ATOM     96  H   UNL A   1      36.064  21.985  26.566  1.00  0.00     0.028 H 
BRANCH  94  97
ATOM     97  C   UNL A   1      35.331  23.642  25.530  1.00  0.00     0.018 C 
ATOM     98  H   UNL A   1      34.877  23.470  24.577  1.00  0.00     0.049 H 
ATOM     99  H   UNL A   1      35.802  24.602  25.579  1.00  0.00     0.049 H 
BRANCH  97 100
ATOM    100  N   UNL A   1      34.295  23.614  26.547  1.00  0.00    -0.352 N 
ATOM    101  C   UNL A   1      33.256  22.735  26.690  1.00  0.00     0.253 C 
ATOM    102  H   UNL A   1      34.347  24.325  27.226  1.00  0.00     0.163 HD
ATOM    103  O   UNL A   1      32.507  22.818  27.663  1.00  0.00    -0.269 OA
BRANCH 101 104
ATOM    104  C   UNL A   1      32.989  21.700  25.681  1.00  0.00     0.065 A 
ATOM    105  C   UNL A   1      33.149  20.364  26.083  1.00  0.00    -0.047 A 
ATOM    106  C   UNL A   1      32.654  22.002  24.359  1.00  0.00     0.076 A 
ATOM    107  C   UNL A   1      32.946  19.324  25.174  1.00  0.00    -0.061 A 
ATOM    108  H   UNL A   1      33.419  20.150  27.055  1.00  0.00     0.063 H 
ATOM    109  C   UNL A   1      32.467  20.941  23.457  1.00  0.00    -0.036 A 
ATOM    110  C   UNL A   1      32.612  19.613  23.855  1.00  0.00    -0.060 A 
ATOM    111  H   UNL A   1      33.044  18.343  25.480  1.00  0.00     0.062 H 
ATOM    112  H   UNL A   1      32.217  21.149  22.478  1.00  0.00     0.065 H 
ATOM    113  H   UNL A   1      32.470  18.849  23.176  1.00  0.00     0.062 H 
BRANCH 106 114
ATOM    114  N   UNL A   1      32.311  23.255  23.860  1.00  0.00    -0.255 NA
ATOM    115  C   UNL A   1      32.843  23.793  22.811  1.00  0.00     0.042 C 
ATOM    116  H   UNL A   1      33.662  23.388  22.331  1.00  0.00     0.085 H 
BRANCH 115 117
ATOM    117  C   UNL A   1      32.182  25.039  22.354  1.00  0.00     0.076 A 
ATOM    118  C   UNL A   1      30.958  25.147  22.903  1.00  0.00     0.104 A 
ATOM    119  C   UNL A   1      32.972  26.297  22.379  1.00  0.00     0.201 A 
ATOM    120  O   UNL A   1      30.519  26.283  23.577  1.00  0.00    -0.463 OA
ATOM    121  H   UNL A   1      30.310  24.347  22.819  1.00  0.00     0.105 H 
ATOM    122  C   UNL A   1      32.801  27.045  23.630  1.00  0.00     0.065 A 
ATOM    123  O   UNL A   1      33.760  26.619  21.504  1.00  0.00    -0.288 OA
ATOM    124  C   UNL A   1      31.537  26.964  24.218  1.00  0.00     0.137 A 
ATOM    125  C   UNL A   1      33.884  27.614  24.294  1.00  0.00    -0.047 A 
ATOM    126  C   UNL A   1      31.338  27.471  25.495  1.00  0.00    -0.019 A 
ATOM    127  C   UNL A   1      33.694  28.086  25.591  1.00  0.00    -0.061 A 
ATOM    128  H   UNL A   1      34.807  27.683  23.836  1.00  0.00     0.063 H 
ATOM    129  C   UNL A   1      32.427  28.015  26.188  1.00  0.00    -0.059 A 
ATOM    130  H   UNL A   1      30.401  27.448  25.928  1.00  0.00     0.066 H 
ATOM    131  H   UNL A   1      34.486  28.490  26.114  1.00  0.00     0.062 H 
ATOM    132  H   UNL A   1      32.296  28.368  27.149  1.00  0.00     0.062 H 
ENDBRANCH 115 117
ENDBRANCH 106 114
ENDBRANCH 101 104
ENDBRANCH  97 100
ENDBRANCH  94  97
ENDBRANCH  91  94
ENDBRANCH   1  91
TORSDOF 15
ENDMDL
MODEL 10
REMARK VINA RESULT:     -12.2      3.829      8.447
REMARK SMILES O=C(NCCCCCCNC(=O)c1ccccc1/N=C/c1coc2ccccc2c1=O)c1ccc(-c2c3nc(c(-c4c(F)c(F)c(F)c(F)c4F)c4ccc([nH]4)c(-c4c(F)c(F)c(F)c(F)c4F)c4nc(c(-c5c(F)c(F)c(F)c(F)c5F)c5ccc2[nH]5)C=C4)C=C3)cc1
REMARK SMILES IDX 6 1 5 4 4 7 3 10 1 11 2 12 32 14 33 15 94 16 34 17 93 19
REMARK SMILES IDX 35 21 36 24 37 25 87 26 38 27 92 28 86 29 88 30 39 31 91 32
REMARK SMILES IDX 85 34 84 36 40 38 72 41 52 42 71 43 53 44 56 45 70 46 89 47
REMARK SMILES IDX 54 48 55 50 69 52 90 53 57 56 41 58 42 59 50 60 43 61 44 62
REMARK SMILES IDX 48 63 51 64 45 65 46 66 49 67 47 68 73 69 74 70 82 71 75 72
REMARK SMILES IDX 76 73 80 74 83 75 77 76 78 77 81 78 79 79 58 80 59 81 67 82
REMARK SMILES IDX 60 83 61 84 65 85 68 86 62 87 63 88 66 89 64 90 7 91 8 94
REMARK SMILES IDX 9 97 10 100 11 101 12 103 13 104 14 105 18 106 15 107 17 109
REMARK SMILES IDX 16 110 19 114 20 115 21 117 22 118 30 119 23 120 29 122
REMARK SMILES IDX 31 123 24 124 28 125 25 126 27 127 26 129
REMARK H PARENT 6 2 6 3 5 5 5 6 4 8 4 9 3 13 33 18 94 20 34 22 93 23 92 33
REMARK H PARENT 86 35 88 37 91 39 85 40 53 49 56 51 89 54 54 55 90 57 7 92
REMARK H PARENT 7 93 8 95 8 96 9 98 9 99 10 102 14 108 15 111 17 112 16 113
REMARK H PARENT 20 116 22 121 28 128 25 130 27 131 26 132
REMARK Flexibility Score: inf
ROOT
ATOM      1  C   UNL A   1      34.782  24.066  23.715  1.00  0.00    -0.052 C 
ATOM      2  H   UNL A   1      34.041  23.294  23.710  1.00  0.00     0.027 H 
ATOM      3  H   UNL A   1      34.801  24.656  22.823  1.00  0.00     0.027 H 
ENDROOT
BRANCH   1   4
ATOM      4  C   UNL A   1      36.154  23.398  23.801  1.00  0.00    -0.036 C 
ATOM      5  H   UNL A   1      35.999  22.340  23.851  1.00  0.00     0.028 H 
ATOM      6  H   UNL A   1      36.684  23.726  22.932  1.00  0.00     0.028 H 
BRANCH   4   7
ATOM      7  C   UNL A   1      37.027  23.796  24.983  1.00  0.00     0.018 C 
ATOM      8  H   UNL A   1      37.589  24.666  24.712  1.00  0.00     0.049 H 
ATOM      9  H   UNL A   1      36.373  23.979  25.811  1.00  0.00     0.049 H 
BRANCH   7  10
ATOM     10  N   UNL A   1      37.954  22.757  25.392  1.00  0.00    -0.352 N 
ATOM     11  O   UNL A   1      39.792  21.833  26.301  1.00  0.00    -0.269 OA
ATOM     12  C   UNL A   1      39.090  22.835  26.160  1.00  0.00     0.251 C 
ATOM     13  H   UNL A   1      37.734  21.854  25.069  1.00  0.00     0.163 HD
BRANCH  12  14
ATOM     14  C   UNL A   1      39.506  24.105  26.805  1.00  0.00     0.039 A 
ATOM     15  C   UNL A   1      39.282  24.359  28.160  1.00  0.00    -0.049 A 
ATOM     16  C   UNL A   1      40.200  25.048  26.034  1.00  0.00    -0.049 A 
ATOM     17  C   UNL A   1      39.647  25.588  28.711  1.00  0.00    -0.053 A 
ATOM     18  H   UNL A   1      38.846  23.638  28.755  1.00  0.00     0.063 H 
ATOM     19  C   UNL A   1      40.622  26.256  26.601  1.00  0.00    -0.053 A 
ATOM     20  H   UNL A   1      40.401  24.849  25.042  1.00  0.00     0.063 H 
ATOM     21  C   UNL A   1      40.325  26.546  27.940  1.00  0.00    -0.014 A 
ATOM     22  H   UNL A   1      39.416  25.795  29.696  1.00  0.00     0.063 H 
ATOM     23  H   UNL A   1      41.152  26.934  26.033  1.00  0.00     0.063 H 
BRANCH  21  24
ATOM     24  C   UNL A   1      40.756  27.821  28.568  1.00  0.00     0.031 A 
ATOM     25  C   UNL A   1      42.205  28.096  28.850  1.00  0.00     0.074 A 
ATOM     26  C   UNL A   1      39.828  28.754  28.854  1.00  0.00     0.049 A 
ATOM     27  N   UNL A   1      42.756  29.175  29.350  1.00  0.00    -0.248 NA
ATOM     28  C   UNL A   1      43.161  27.025  28.536  1.00  0.00    -0.034 C 
ATOM     29  C   UNL A   1      38.388  28.600  28.649  1.00  0.00    -0.036 A 
ATOM     30  N   UNL A   1      39.961  30.025  29.353  1.00  0.00    -0.354 N 
ATOM     31  C   UNL A   1      44.116  28.905  29.431  1.00  0.00     0.074 A 
ATOM     32  C   UNL A   1      44.308  27.557  28.936  1.00  0.00    -0.034 C 
ATOM     33  H   UNL A   1      42.985  26.099  28.114  1.00  0.00     0.065 H 
ATOM     34  C   UNL A   1      37.775  29.750  28.970  1.00  0.00    -0.036 A 
ATOM     35  H   UNL A   1      37.919  27.744  28.312  1.00  0.00     0.065 H 
ATOM     36  C   UNL A   1      38.774  30.709  29.431  1.00  0.00     0.049 A 
ATOM     37  H   UNL A   1      40.824  30.409  29.629  1.00  0.00     0.167 HD
ATOM     38  C   UNL A   1      45.111  29.710  29.872  1.00  0.00     0.037 A 
ATOM     39  H   UNL A   1      45.220  27.075  28.900  1.00  0.00     0.065 H 
ATOM     40  H   UNL A   1      36.760  29.927  28.902  1.00  0.00     0.065 H 
ATOM     41  C   UNL A   1      38.519  31.972  29.818  1.00  0.00     0.037 A 
ATOM     42  C   UNL A   1      44.933  31.059  30.341  1.00  0.00     0.049 A 
ATOM     43  C   UNL A   1      39.645  32.854  30.263  1.00  0.00     0.074 A 
ATOM     44  C   UNL A   1      45.890  31.951  30.796  1.00  0.00    -0.036 A 
ATOM     45  N   UNL A   1      43.713  31.715  30.405  1.00  0.00    -0.354 N 
ATOM     46  N   UNL A   1      40.925  32.587  30.328  1.00  0.00    -0.248 NA
ATOM     47  C   UNL A   1      39.290  34.214  30.694  1.00  0.00    -0.034 C 
ATOM     48  C   UNL A   1      45.247  33.143  31.147  1.00  0.00    -0.036 A 
ATOM     49  H   UNL A   1      46.903  31.767  30.865  1.00  0.00     0.065 H 
ATOM     50  C   UNL A   1      43.892  32.999  30.895  1.00  0.00     0.049 A 
ATOM     51  H   UNL A   1      42.848  31.325  30.144  1.00  0.00     0.167 HD
ATOM     52  C   UNL A   1      41.529  33.738  30.810  1.00  0.00     0.074 A 
ATOM     53  C   UNL A   1      40.479  34.717  30.999  1.00  0.00    -0.034 C 
ATOM     54  H   UNL A   1      38.361  34.660  30.746  1.00  0.00     0.065 H 
ATOM     55  H   UNL A   1      45.704  33.987  31.530  1.00  0.00     0.065 H 
ATOM     56  C   UNL A   1      42.837  33.957  31.081  1.00  0.00     0.037 A 
ATOM     57  H   UNL A   1      40.635  35.683  31.330  1.00  0.00     0.065 H 
BRANCH  38  58
ATOM     58  C   UNL A   1      46.499  29.149  29.874  1.00  0.00     0.064 A 
ATOM     59  C   UNL A   1      47.008  28.471  30.991  1.00  0.00     0.173 A 
ATOM     60  C   UNL A   1      47.307  29.245  28.732  1.00  0.00     0.173 A 
ATOM     61  F   UNL A   1      46.273  28.362  32.108  1.00  0.00    -0.203 F 
ATOM     62  C   UNL A   1      48.284  27.915  30.966  1.00  0.00     0.198 A 
ATOM     63  C   UNL A   1      48.578  28.677  28.707  1.00  0.00     0.198 A 
ATOM     64  F   UNL A   1      46.860  29.882  27.641  1.00  0.00    -0.203 F 
ATOM     65  F   UNL A   1      48.760  27.286  32.050  1.00  0.00    -0.200 F 
ATOM     66  C   UNL A   1      49.065  28.014  29.824  1.00  0.00     0.200 A 
ATOM     67  F   UNL A   1      49.330  28.768  27.602  1.00  0.00    -0.200 F 
ATOM     68  F   UNL A   1      50.291  27.472  29.801  1.00  0.00    -0.200 F 
ENDBRANCH  38  58
BRANCH  41  69
ATOM     69  C   UNL A   1      37.127  32.479  29.770  1.00  0.00     0.064 A 
ATOM     70  C   UNL A   1      36.262  32.288  30.854  1.00  0.00     0.173 A 
ATOM     71  C   UNL A   1      36.651  33.188  28.659  1.00  0.00     0.173 A 
ATOM     72  F   UNL A   1      36.675  31.600  31.928  1.00  0.00    -0.203 F 
ATOM     73  C   UNL A   1      34.962  32.789  30.827  1.00  0.00     0.198 A 
ATOM     74  C   UNL A   1      35.356  33.700  28.640  1.00  0.00     0.198 A 
ATOM     75  F   UNL A   1      37.449  33.393  27.601  1.00  0.00    -0.203 F 
ATOM     76  F   UNL A   1      34.144  32.578  31.868  1.00  0.00    -0.200 F 
ATOM     77  C   UNL A   1      34.513  33.498  29.723  1.00  0.00     0.200 A 
ATOM     78  F   UNL A   1      34.927  34.391  27.576  1.00  0.00    -0.200 F 
ATOM     79  F   UNL A   1      33.264  33.985  29.702  1.00  0.00    -0.200 F 
ENDBRANCH  41  69
BRANCH  56  80
ATOM     80  C   UNL A   1      43.201  35.307  31.618  1.00  0.00     0.064 A 
ATOM     81  C   UNL A   1      43.664  36.319  30.767  1.00  0.00     0.173 A 
ATOM     82  C   UNL A   1      43.062  35.595  32.981  1.00  0.00     0.173 A 
ATOM     83  F   UNL A   1      43.826  36.080  29.457  1.00  0.00    -0.203 F 
ATOM     84  C   UNL A   1      43.990  37.576  31.268  1.00  0.00     0.198 A 
ATOM     85  C   UNL A   1      43.378  36.856  33.478  1.00  0.00     0.198 A 
ATOM     86  F   UNL A   1      42.625  34.653  33.832  1.00  0.00    -0.203 F 
ATOM     87  F   UNL A   1      44.457  38.524  30.444  1.00  0.00    -0.200 F 
ATOM     88  C   UNL A   1      43.844  37.845  32.622  1.00  0.00     0.200 A 
ATOM     89  F   UNL A   1      43.238  37.116  34.784  1.00  0.00    -0.200 F 
ATOM     90  F   UNL A   1      44.162  39.054  33.103  1.00  0.00    -0.200 F 
ENDBRANCH  56  80
ENDBRANCH  21  24
ENDBRANCH  12  14
ENDBRANCH   7  10
ENDBRANCH   4   7
ENDBRANCH   1   4
BRANCH   1  91
ATOM     91  C   UNL A   1      34.441  25.036  24.848  1.00  0.00    -0.052 C 
ATOM     92  H   UNL A   1      35.320  25.159  25.446  1.00  0.00     0.027 H 
ATOM     93  H   UNL A   1      33.614  24.592  25.363  1.00  0.00     0.027 H 
BRANCH  91  94
ATOM     94  C   UNL A   1      33.958  26.432  24.432  1.00  0.00    -0.036 C 
ATOM     95  H   UNL A   1      32.939  26.344  24.118  1.00  0.00     0.028 H 
ATOM     96  H   UNL A   1      34.632  26.750  23.664  1.00  0.00     0.028 H 
BRANCH  94  97
ATOM     97  C   UNL A   1      34.022  27.520  25.506  1.00  0.00     0.018 C 
ATOM     98  H   UNL A   1      33.876  28.471  25.038  1.00  0.00     0.049 H 
ATOM     99  H   UNL A   1      34.980  27.451  25.977  1.00  0.00     0.049 H 
BRANCH  97 100
ATOM    100  N   UNL A   1      33.015  27.354  26.539  1.00  0.00    -0.352 N 
ATOM    101  C   UNL A   1      31.654  27.442  26.435  1.00  0.00     0.253 C 
ATOM    102  H   UNL A   1      33.361  27.152  27.439  1.00  0.00     0.163 HD
ATOM    103  O   UNL A   1      30.943  27.197  27.409  1.00  0.00    -0.269 OA
BRANCH 101 104
ATOM    104  C   UNL A   1      31.012  27.856  25.180  1.00  0.00     0.065 A 
ATOM    105  C   UNL A   1      31.196  29.189  24.780  1.00  0.00    -0.047 A 
ATOM    106  C   UNL A   1      30.196  27.003  24.430  1.00  0.00     0.076 A 
ATOM    107  C   UNL A   1      30.593  29.668  23.615  1.00  0.00    -0.061 A 
ATOM    108  H   UNL A   1      31.781  29.819  25.351  1.00  0.00     0.063 H 
ATOM    109  C   UNL A   1      29.588  27.510  23.269  1.00  0.00    -0.036 A 
ATOM    110  C   UNL A   1      29.780  28.829  22.862  1.00  0.00    -0.060 A 
ATOM    111  H   UNL A   1      30.750  30.643  23.315  1.00  0.00     0.062 H 
ATOM    112  H   UNL A   1      28.984  26.891  22.705  1.00  0.00     0.065 H 
ATOM    113  H   UNL A   1      29.323  29.180  22.006  1.00  0.00     0.062 H 
BRANCH 106 114
ATOM    114  N   UNL A   1      30.048  25.632  24.613  1.00  0.00    -0.255 NA
ATOM    115  C   UNL A   1      31.017  24.778  24.550  1.00  0.00     0.042 C 
ATOM    116  H   UNL A   1      31.964  25.033  24.229  1.00  0.00     0.085 H 
BRANCH 115 117
ATOM    117  C   UNL A   1      30.658  23.404  24.976  1.00  0.00     0.076 A 
ATOM    118  C   UNL A   1      31.140  22.503  24.100  1.00  0.00     0.104 A 
ATOM    119  C   UNL A   1      30.868  23.039  26.401  1.00  0.00     0.201 A 
ATOM    120  O   UNL A   1      31.906  21.403  24.477  1.00  0.00    -0.463 OA
ATOM    121  H   UNL A   1      30.931  22.632  23.097  1.00  0.00     0.105 H 
ATOM    122  C   UNL A   1      32.180  22.426  26.638  1.00  0.00     0.065 A 
ATOM    123  O   UNL A   1      30.084  23.317  27.294  1.00  0.00    -0.288 OA
ATOM    124  C   UNL A   1      32.678  21.636  25.600  1.00  0.00     0.137 A 
ATOM    125  C   UNL A   1      32.968  22.786  27.729  1.00  0.00    -0.047 A 
ATOM    126  C   UNL A   1      33.988  21.179  25.650  1.00  0.00    -0.019 A 
ATOM    127  C   UNL A   1      34.294  22.360  27.758  1.00  0.00    -0.061 A 
ATOM    128  H   UNL A   1      32.577  23.354  28.497  1.00  0.00     0.063 H 
ATOM    129  C   UNL A   1      34.801  21.561  26.724  1.00  0.00    -0.059 A 
ATOM    130  H   UNL A   1      34.358  20.566  24.905  1.00  0.00     0.066 H 
ATOM    131  H   UNL A   1      34.905  22.634  28.544  1.00  0.00     0.062 H 
ATOM    132  H   UNL A   1      35.785  21.251  26.756  1.00  0.00     0.062 H 
ENDBRANCH 115 117
ENDBRANCH 106 114
ENDBRANCH 101 104
ENDBRANCH  97 100
ENDBRANCH  94  97
ENDBRANCH  91  94
ENDBRANCH   1  91
TORSDOF 15
ENDMDL
