MODEL 1
REMARK VINA RESULT:     -12.9      0.000      0.000
REMARK SMILES C=C[C@@H]1[C@@H](O)C[C@H]2[C@]3(CC[C@]4(C)[C@@H]([C@H](C)CCC=C(C)C)CC[C@]24C)C[C@]13CCC(=O)NCCCCCCNC(=O)c1ccc(-c2c3nc(c(-c4c(F)c(F)c(F)c(F)c4F)c4ccc([nH]4)c(-c4c(F)c(F)c(F)c(F)c4F)c4nc(c(-c5c(F)c(F)c(F)c(F)c5F)c5ccc2[nH]5)C=C4)C=C3)cc1
REMARK SMILES IDX 33 1 32 4 30 5 31 6 29 8 28 11 27 14 3 15 4 16 6 18 8 20
REMARK SMILES IDX 26 21 7 22 9 25 24 28 10 30 11 33 23 34 13 37 22 38 2 44
REMARK SMILES IDX 1 45 5 49 25 51 12 55 14 59 16 61 17 64 18 67 19 68 20 70
REMARK SMILES IDX 21 74 15 78 34 82 35 85 36 88 37 91 38 94 39 97 40 98 41 100
REMARK SMILES IDX 42 101 43 102 104 103 44 104 103 106 45 108 46 111 47 112
REMARK SMILES IDX 97 113 48 114 102 115 96 116 98 117 49 118 101 119 95 121
REMARK SMILES IDX 94 123 50 125 82 128 62 129 81 130 63 131 66 132 80 133
REMARK SMILES IDX 99 134 64 135 65 137 79 139 100 140 67 143 51 145 52 146
REMARK SMILES IDX 60 147 53 148 54 149 58 150 61 151 55 152 56 153 59 154
REMARK SMILES IDX 57 155 83 156 84 157 92 158 85 159 86 160 90 161 93 162
REMARK SMILES IDX 87 163 88 164 91 165 89 166 68 167 69 168 77 169 70 170
REMARK SMILES IDX 71 171 75 172 78 173 72 174 73 175 76 176 74 177
REMARK H PARENT 33 2 33 3 32 7 29 9 29 10 28 12 28 13 3 17 4 19 6 23 6 24
REMARK H PARENT 26 26 26 27 7 29 9 31 9 32 10 35 10 36 23 39 23 40 13 41 22 42
REMARK H PARENT 22 43 1 46 1 47 2 48 5 50 25 52 25 53 25 54 12 56 12 57 12 58
REMARK H PARENT 14 60 16 62 16 63 17 65 17 66 18 69 20 71 20 72 20 73 21 75
REMARK H PARENT 21 76 21 77 15 79 15 80 15 81 34 83 34 84 35 86 35 87 36 89
REMARK H PARENT 36 90 37 92 37 93 38 95 38 96 39 99 43 105 104 107 44 109
REMARK H PARENT 103 110 102 120 96 122 98 124 101 126 95 127 63 136 66 138
REMARK H PARENT 99 141 64 142 100 144
REMARK Flexibility Score: inf
ROOT
ATOM      1  C   UNL A   1      34.399  30.402  27.369  1.00  0.00     0.017 C 
ATOM      2  H   UNL A   1      34.081  30.658  26.380  1.00  0.00     0.049 H 
ATOM      3  H   UNL A   1      35.125  29.698  27.718  1.00  0.00     0.049 H 
ENDROOT
BRANCH   1   4
ATOM      4  N   UNL A   1      33.205  29.653  27.924  1.00  0.00    -0.356 N 
ATOM      5  C   UNL A   1      32.213  29.012  27.245  1.00  0.00     0.220 C 
ATOM      6  O   UNL A   1      31.485  28.208  27.821  1.00  0.00    -0.275 OA
ATOM      7  H   UNL A   1      33.137  29.627  28.906  1.00  0.00     0.163 HD
BRANCH   5   8
ATOM      8  C   UNL A   1      32.074  29.337  25.784  1.00  0.00     0.027 C 
ATOM      9  H   UNL A   1      31.043  29.248  25.510  1.00  0.00     0.037 H 
ATOM     10  H   UNL A   1      32.437  30.332  25.635  1.00  0.00     0.037 H 
BRANCH   8  11
ATOM     11  C   UNL A   1      32.898  28.404  24.898  1.00  0.00    -0.038 C 
ATOM     12  H   UNL A   1      33.209  28.953  24.033  1.00  0.00     0.028 H 
ATOM     13  H   UNL A   1      33.720  28.063  25.491  1.00  0.00     0.028 H 
BRANCH  11  14
ATOM     14  C   UNL A   1      32.139  27.151  24.428  1.00  0.00    -0.014 C 
ATOM     15  C   UNL A   1      31.638  27.392  22.553  1.00  0.00     0.009 C 
ATOM     16  C   UNL A   1      32.158  25.946  21.284  1.00  0.00     0.061 C 
ATOM     17  H   UNL A   1      32.304  28.153  22.204  1.00  0.00     0.038 H 
ATOM     18  C   UNL A   1      32.721  24.194  22.031  1.00  0.00    -0.022 C 
ATOM     19  H   UNL A   1      31.214  25.759  20.817  1.00  0.00     0.061 H 
ATOM     20  C   UNL A   1      32.659  25.473  25.137  1.00  0.00    -0.019 C 
ATOM     21  C   UNL A   1      31.416  26.293  25.536  1.00  0.00    -0.040 C 
ATOM     22  C   UNL A   1      33.028  24.037  23.950  1.00  0.00    -0.027 C 
ATOM     23  H   UNL A   1      33.635  23.926  21.544  1.00  0.00     0.030 H 
ATOM     24  H   UNL A   1      31.880  23.557  21.852  1.00  0.00     0.030 H 
ATOM     25  C   UNL A   1      33.679  25.313  26.278  1.00  0.00    -0.046 C 
ATOM     26  H   UNL A   1      31.390  26.694  26.528  1.00  0.00     0.028 H 
ATOM     27  H   UNL A   1      30.395  25.975  25.564  1.00  0.00     0.028 H 
ATOM     28  C   UNL A   1      32.943  22.674  24.745  1.00  0.00    -0.023 C 
ATOM     29  H   UNL A   1      34.035  24.100  23.593  1.00  0.00     0.032 H 
ATOM     30  C   UNL A   1      33.635  23.910  26.896  1.00  0.00    -0.046 C 
ATOM     31  H   UNL A   1      33.461  26.032  27.039  1.00  0.00     0.027 H 
ATOM     32  H   UNL A   1      34.658  25.465  25.871  1.00  0.00     0.027 H 
ATOM     33  C   UNL A   1      33.995  22.703  25.965  1.00  0.00    -0.024 C 
ATOM     34  C   UNL A   1      33.533  21.575  23.867  1.00  0.00    -0.047 C 
ATOM     35  H   UNL A   1      32.642  23.750  27.260  1.00  0.00     0.027 H 
ATOM     36  H   UNL A   1      34.400  23.915  27.644  1.00  0.00     0.027 H 
ATOM     37  C   UNL A   1      35.358  22.716  25.164  1.00  0.00    -0.033 C 
ATOM     38  C   UNL A   1      35.053  21.827  23.907  1.00  0.00    -0.049 C 
ATOM     39  H   UNL A   1      33.298  20.609  24.260  1.00  0.00     0.027 H 
ATOM     40  H   UNL A   1      33.142  21.596  22.871  1.00  0.00     0.027 H 
ATOM     41  H   UNL A   1      35.570  23.758  25.043  1.00  0.00     0.031 H 
ATOM     42  H   UNL A   1      35.574  20.896  23.984  1.00  0.00     0.027 H 
ATOM     43  H   UNL A   1      35.375  22.321  23.013  1.00  0.00     0.027 H 
BRANCH  15  44
ATOM     44  C   UNL A   1      30.235  28.011  22.372  1.00  0.00    -0.085 C 
ATOM     45  C   UNL A   1      29.146  27.835  23.138  1.00  0.00    -0.103 C 
ATOM     46  H   UNL A   1      28.265  28.315  22.900  1.00  0.00     0.053 H 
ATOM     47  H   UNL A   1      29.193  27.219  23.966  1.00  0.00     0.053 H 
ATOM     48  H   UNL A   1      30.119  28.640  21.562  1.00  0.00     0.057 H 
ENDBRANCH  15  44
BRANCH  16  49
ATOM     49  O   UNL A   1      33.160  26.380  20.326  1.00  0.00    -0.392 OA
ATOM     50  H   UNL A   1      33.361  25.654  19.716  1.00  0.00     0.210 HD
ENDBRANCH  16  49
BRANCH  28  51
ATOM     51  C   UNL A   1      31.518  22.363  25.225  1.00  0.00    -0.059 C 
ATOM     52  H   UNL A   1      31.129  23.205  25.756  1.00  0.00     0.024 H 
ATOM     53  H   UNL A   1      31.538  21.511  25.873  1.00  0.00     0.024 H 
ATOM     54  H   UNL A   1      30.895  22.154  24.381  1.00  0.00     0.024 H 
ENDBRANCH  28  51
BRANCH  33  55
ATOM     55  C   UNL A   1      33.977  21.433  26.851  1.00  0.00    -0.059 C 
ATOM     56  H   UNL A   1      33.649  20.597  26.269  1.00  0.00     0.024 H 
ATOM     57  H   UNL A   1      33.308  21.581  27.673  1.00  0.00     0.024 H 
ATOM     58  H   UNL A   1      34.963  21.243  27.223  1.00  0.00     0.024 H 
ENDBRANCH  33  55
BRANCH  37  59
ATOM     59  C   UNL A   1      36.799  22.621  25.739  1.00  0.00    -0.041 C 
ATOM     60  H   UNL A   1      36.595  22.142  26.674  1.00  0.00     0.030 H 
BRANCH  59  61
ATOM     61  C   UNL A   1      37.739  21.712  24.919  1.00  0.00    -0.047 C 
ATOM     62  H   UNL A   1      38.331  22.335  24.283  1.00  0.00     0.027 H 
ATOM     63  H   UNL A   1      37.108  21.035  24.381  1.00  0.00     0.027 H 
BRANCH  61  64
ATOM     64  C   UNL A   1      38.686  20.845  25.754  1.00  0.00    -0.035 C 
ATOM     65  H   UNL A   1      38.956  19.980  25.183  1.00  0.00     0.031 H 
ATOM     66  H   UNL A   1      38.177  20.572  26.654  1.00  0.00     0.031 H 
BRANCH  64  67
ATOM     67  C   UNL A   1      39.947  21.586  26.139  1.00  0.00    -0.086 C 
ATOM     68  C   UNL A   1      41.177  21.050  26.285  1.00  0.00    -0.080 C 
ATOM     69  H   UNL A   1      39.857  22.599  26.309  1.00  0.00     0.058 H 
BRANCH  68  70
ATOM     70  C   UNL A   1      42.372  21.899  26.628  1.00  0.00    -0.044 C 
ATOM     71  H   UNL A   1      43.118  21.292  27.097  1.00  0.00     0.028 H 
ATOM     72  H   UNL A   1      42.074  22.679  27.298  1.00  0.00     0.028 H 
ATOM     73  H   UNL A   1      42.773  22.330  25.735  1.00  0.00     0.028 H 
ENDBRANCH  68  70
BRANCH  68  74
ATOM     74  C   UNL A   1      41.467  19.583  26.129  1.00  0.00    -0.044 C 
ATOM     75  H   UNL A   1      41.705  19.374  25.107  1.00  0.00     0.028 H 
ATOM     76  H   UNL A   1      40.606  19.016  26.416  1.00  0.00     0.028 H 
ATOM     77  H   UNL A   1      42.295  19.314  26.751  1.00  0.00     0.028 H 
ENDBRANCH  68  74
ENDBRANCH  64  67
ENDBRANCH  61  64
ENDBRANCH  59  61
BRANCH  59  78
ATOM     78  C   UNL A   1      37.495  23.918  26.162  1.00  0.00    -0.062 C 
ATOM     79  H   UNL A   1      38.219  24.192  25.424  1.00  0.00     0.023 H 
ATOM     80  H   UNL A   1      37.982  23.770  27.103  1.00  0.00     0.023 H 
ATOM     81  H   UNL A   1      36.768  24.698  26.256  1.00  0.00     0.023 H 
ENDBRANCH  59  78
ENDBRANCH  37  59
ENDBRANCH  11  14
ENDBRANCH   8  11
ENDBRANCH   5   8
ENDBRANCH   1   4
BRANCH   1  82
ATOM     82  C   UNL A   1      35.482  32.102  27.969  1.00  0.00    -0.036 C 
ATOM     83  H   UNL A   1      35.991  32.364  27.065  1.00  0.00     0.028 H 
ATOM     84  H   UNL A   1      35.747  31.669  28.909  1.00  0.00     0.028 H 
BRANCH  82  85
ATOM     85  C   UNL A   1      35.192  33.669  28.671  1.00  0.00    -0.052 C 
ATOM     86  H   UNL A   1      36.106  33.919  29.168  1.00  0.00     0.027 H 
ATOM     87  H   UNL A   1      34.272  33.458  29.175  1.00  0.00     0.027 H 
BRANCH  85  88
ATOM     88  C   UNL A   1      34.775  34.966  27.939  1.00  0.00    -0.052 C 
ATOM     89  H   UNL A   1      34.301  34.696  27.019  1.00  0.00     0.027 H 
ATOM     90  H   UNL A   1      35.666  35.539  27.789  1.00  0.00     0.027 H 
BRANCH  88  91
ATOM     91  C   UNL A   1      33.814  35.841  28.736  1.00  0.00    -0.036 C 
ATOM     92  H   UNL A   1      33.105  36.277  28.066  1.00  0.00     0.028 H 
ATOM     93  H   UNL A   1      34.384  36.598  29.233  1.00  0.00     0.028 H 
BRANCH  91  94
ATOM     94  C   UNL A   1      33.073  35.036  29.784  1.00  0.00     0.018 C 
ATOM     95  H   UNL A   1      33.757  34.377  30.276  1.00  0.00     0.049 H 
ATOM     96  H   UNL A   1      32.301  34.467  29.310  1.00  0.00     0.049 H 
BRANCH  94  97
ATOM     97  N   UNL A   1      32.476  35.935  30.764  1.00  0.00    -0.352 N 
ATOM     98  C   UNL A   1      32.666  35.905  32.119  1.00  0.00     0.251 C 
ATOM     99  H   UNL A   1      31.877  36.633  30.416  1.00  0.00     0.163 HD
ATOM    100  O   UNL A   1      31.925  36.479  32.896  1.00  0.00    -0.269 OA
BRANCH  98 101
ATOM    101  C   UNL A   1      33.828  35.139  32.584  1.00  0.00     0.039 A 
ATOM    102  C   UNL A   1      33.655  33.836  33.044  1.00  0.00    -0.049 A 
ATOM    103  C   UNL A   1      35.098  35.702  32.414  1.00  0.00    -0.049 A 
ATOM    104  C   UNL A   1      34.783  33.080  33.335  1.00  0.00    -0.053 A 
ATOM    105  H   UNL A   1      32.709  33.443  33.165  1.00  0.00     0.063 H 
ATOM    106  C   UNL A   1      36.214  34.916  32.617  1.00  0.00    -0.053 A 
ATOM    107  H   UNL A   1      35.198  36.692  32.140  1.00  0.00     0.063 H 
ATOM    108  C   UNL A   1      36.065  33.612  33.111  1.00  0.00    -0.014 A 
ATOM    109  H   UNL A   1      34.680  32.125  33.715  1.00  0.00     0.063 H 
ATOM    110  H   UNL A   1      37.155  35.286  32.407  1.00  0.00     0.063 H 
BRANCH 108 111
ATOM    111  C   UNL A   1      37.279  32.847  33.454  1.00  0.00     0.031 A 
ATOM    112  C   UNL A   1      37.997  33.167  34.734  1.00  0.00     0.074 A 
ATOM    113  C   UNL A   1      37.753  31.928  32.594  1.00  0.00     0.049 A 
ATOM    114  N   UNL A   1      39.117  32.680  35.197  1.00  0.00    -0.248 NA
ATOM    115  C   UNL A   1      37.395  34.203  35.592  1.00  0.00    -0.034 C 
ATOM    116  C   UNL A   1      37.156  31.590  31.301  1.00  0.00    -0.036 A 
ATOM    117  N   UNL A   1      38.855  31.119  32.676  1.00  0.00    -0.354 N 
ATOM    118  C   UNL A   1      39.359  33.363  36.381  1.00  0.00     0.074 A 
ATOM    119  C   UNL A   1      38.311  34.344  36.535  1.00  0.00    -0.034 C 
ATOM    120  H   UNL A   1      36.492  34.694  35.483  1.00  0.00     0.065 H 
ATOM    121  C   UNL A   1      37.888  30.626  30.719  1.00  0.00    -0.036 A 
ATOM    122  H   UNL A   1      36.310  32.024  30.900  1.00  0.00     0.065 H 
ATOM    123  C   UNL A   1      39.023  30.309  31.580  1.00  0.00     0.049 A 
ATOM    124  H   UNL A   1      39.468  31.118  33.446  1.00  0.00     0.167 HD
ATOM    125  C   UNL A   1      40.355  33.164  37.273  1.00  0.00     0.037 A 
ATOM    126  H   UNL A   1      38.281  35.057  37.281  1.00  0.00     0.065 H 
ATOM    127  H   UNL A   1      37.681  30.182  29.811  1.00  0.00     0.065 H 
ATOM    128  C   UNL A   1      39.995  29.420  31.306  1.00  0.00     0.037 A 
ATOM    129  C   UNL A   1      41.367  32.155  37.121  1.00  0.00     0.049 A 
ATOM    130  C   UNL A   1      41.087  29.213  32.324  1.00  0.00     0.074 A 
ATOM    131  C   UNL A   1      42.379  31.809  37.997  1.00  0.00    -0.036 A 
ATOM    132  N   UNL A   1      41.491  31.330  36.012  1.00  0.00    -0.354 N 
ATOM    133  N   UNL A   1      41.262  29.803  33.483  1.00  0.00    -0.248 NA
ATOM    134  C   UNL A   1      42.110  28.212  32.001  1.00  0.00    -0.034 C 
ATOM    135  C   UNL A   1      43.152  30.814  37.392  1.00  0.00    -0.036 A 
ATOM    136  H   UNL A   1      42.535  32.214  38.932  1.00  0.00     0.065 H 
ATOM    137  C   UNL A   1      42.585  30.495  36.168  1.00  0.00     0.049 A 
ATOM    138  H   UNL A   1      40.892  31.337  35.231  1.00  0.00     0.167 HD
ATOM    139  C   UNL A   1      42.397  29.228  34.037  1.00  0.00     0.074 A 
ATOM    140  C   UNL A   1      42.855  28.226  33.097  1.00  0.00    -0.034 C 
ATOM    141  H   UNL A   1      42.221  27.645  31.145  1.00  0.00     0.065 H 
ATOM    142  H   UNL A   1      44.003  30.389  37.791  1.00  0.00     0.065 H 
ATOM    143  C   UNL A   1      43.011  29.504  35.214  1.00  0.00     0.037 A 
ATOM    144  H   UNL A   1      43.661  27.602  33.260  1.00  0.00     0.065 H 
BRANCH 125 145
ATOM    145  C   UNL A   1      40.395  34.045  38.488  1.00  0.00     0.064 A 
ATOM    146  C   UNL A   1      39.718  33.707  39.669  1.00  0.00     0.173 A 
ATOM    147  C   UNL A   1      41.154  35.224  38.481  1.00  0.00     0.173 A 
ATOM    148  F   UNL A   1      38.962  32.600  39.724  1.00  0.00    -0.203 F 
ATOM    149  C   UNL A   1      39.783  34.529  40.792  1.00  0.00     0.198 A 
ATOM    150  C   UNL A   1      41.243  36.026  39.616  1.00  0.00     0.198 A 
ATOM    151  F   UNL A   1      41.818  35.596  37.376  1.00  0.00    -0.203 F 
ATOM    152  F   UNL A   1      39.090  34.210  41.894  1.00  0.00    -0.200 F 
ATOM    153  C   UNL A   1      40.553  35.681  40.767  1.00  0.00     0.200 A 
ATOM    154  F   UNL A   1      41.998  37.134  39.593  1.00  0.00    -0.200 F 
ATOM    155  F   UNL A   1      40.627  36.463  41.854  1.00  0.00    -0.200 F 
ENDBRANCH 125 145
BRANCH 128 156
ATOM    156  C   UNL A   1      39.978  28.658  30.030  1.00  0.00     0.064 A 
ATOM    157  C   UNL A   1      39.390  27.388  29.952  1.00  0.00     0.173 A 
ATOM    158  C   UNL A   1      40.564  29.176  28.865  1.00  0.00     0.173 A 
ATOM    159  F   UNL A   1      38.828  26.842  31.041  1.00  0.00    -0.203 F 
ATOM    160  C   UNL A   1      39.418  26.651  28.770  1.00  0.00     0.198 A 
ATOM    161  C   UNL A   1      40.561  28.452  27.674  1.00  0.00     0.198 A 
ATOM    162  F   UNL A   1      41.131  30.391  28.879  1.00  0.00    -0.203 F 
ATOM    163  F   UNL A   1      38.900  25.415  28.740  1.00  0.00    -0.200 F 
ATOM    164  C   UNL A   1      40.000  27.185  27.630  1.00  0.00     0.200 A 
ATOM    165  F   UNL A   1      41.108  28.981  26.570  1.00  0.00    -0.200 F 
ATOM    166  F   UNL A   1      40.028  26.477  26.494  1.00  0.00    -0.200 F 
ENDBRANCH 128 156
BRANCH 143 167
ATOM    167  C   UNL A   1      44.224  28.690  35.561  1.00  0.00     0.064 A 
ATOM    168  C   UNL A   1      44.122  27.489  36.277  1.00  0.00     0.173 A 
ATOM    169  C   UNL A   1      45.496  29.095  35.129  1.00  0.00     0.173 A 
ATOM    170  F   UNL A   1      42.929  27.066  36.722  1.00  0.00    -0.203 F 
ATOM    171  C   UNL A   1      45.256  26.738  36.575  1.00  0.00     0.198 A 
ATOM    172  C   UNL A   1      46.622  28.323  35.397  1.00  0.00     0.198 A 
ATOM    173  F   UNL A   1      45.644  30.231  34.431  1.00  0.00    -0.203 F 
ATOM    174  F   UNL A   1      45.142  25.621  37.308  1.00  0.00    -0.200 F 
ATOM    175  C   UNL A   1      46.503  27.151  36.128  1.00  0.00     0.200 A 
ATOM    176  F   UNL A   1      47.823  28.713  34.948  1.00  0.00    -0.200 F 
ATOM    177  F   UNL A   1      47.590  26.421  36.407  1.00  0.00    -0.200 F 
ENDBRANCH 143 167
ENDBRANCH 108 111
ENDBRANCH  98 101
ENDBRANCH  94  97
ENDBRANCH  91  94
ENDBRANCH  88  91
ENDBRANCH  85  88
ENDBRANCH  82  85
ENDBRANCH   1  82
TORSDOF 26
ENDMDL
MODEL 2
REMARK VINA RESULT:     -12.6      1.124      2.257
REMARK SMILES C=C[C@@H]1[C@@H](O)C[C@H]2[C@]3(CC[C@]4(C)[C@@H]([C@H](C)CCC=C(C)C)CC[C@]24C)C[C@]13CCC(=O)NCCCCCCNC(=O)c1ccc(-c2c3nc(c(-c4c(F)c(F)c(F)c(F)c4F)c4ccc([nH]4)c(-c4c(F)c(F)c(F)c(F)c4F)c4nc(c(-c5c(F)c(F)c(F)c(F)c5F)c5ccc2[nH]5)C=C4)C=C3)cc1
REMARK SMILES IDX 33 1 32 4 30 5 31 6 29 8 28 11 27 14 3 15 4 16 6 18 8 20
REMARK SMILES IDX 26 21 7 22 9 25 24 28 10 30 11 33 23 34 13 37 22 38 2 44
REMARK SMILES IDX 1 45 5 49 25 51 12 55 14 59 16 61 17 64 18 67 19 68 20 70
REMARK SMILES IDX 21 74 15 78 34 82 35 85 36 88 37 91 38 94 39 97 40 98 41 100
REMARK SMILES IDX 42 101 43 102 104 103 44 104 103 106 45 108 46 111 47 112
REMARK SMILES IDX 97 113 48 114 102 115 96 116 98 117 49 118 101 119 95 121
REMARK SMILES IDX 94 123 50 125 82 128 62 129 81 130 63 131 66 132 80 133
REMARK SMILES IDX 99 134 64 135 65 137 79 139 100 140 67 143 51 145 52 146
REMARK SMILES IDX 60 147 53 148 54 149 58 150 61 151 55 152 56 153 59 154
REMARK SMILES IDX 57 155 83 156 84 157 92 158 85 159 86 160 90 161 93 162
REMARK SMILES IDX 87 163 88 164 91 165 89 166 68 167 69 168 77 169 70 170
REMARK SMILES IDX 71 171 75 172 78 173 72 174 73 175 76 176 74 177
REMARK H PARENT 33 2 33 3 32 7 29 9 29 10 28 12 28 13 3 17 4 19 6 23 6 24
REMARK H PARENT 26 26 26 27 7 29 9 31 9 32 10 35 10 36 23 39 23 40 13 41 22 42
REMARK H PARENT 22 43 1 46 1 47 2 48 5 50 25 52 25 53 25 54 12 56 12 57 12 58
REMARK H PARENT 14 60 16 62 16 63 17 65 17 66 18 69 20 71 20 72 20 73 21 75
REMARK H PARENT 21 76 21 77 15 79 15 80 15 81 34 83 34 84 35 86 35 87 36 89
REMARK H PARENT 36 90 37 92 37 93 38 95 38 96 39 99 43 105 104 107 44 109
REMARK H PARENT 103 110 102 120 96 122 98 124 101 126 95 127 63 136 66 138
REMARK H PARENT 99 141 64 142 100 144
REMARK Flexibility Score: inf
ROOT
ATOM      1  C   UNL A   1      34.659  30.851  27.615  1.00  0.00     0.017 C 
ATOM      2  H   UNL A   1      34.864  30.776  26.568  1.00  0.00     0.049 H 
ATOM      3  H   UNL A   1      34.990  30.258  28.443  1.00  0.00     0.049 H 
ENDROOT
BRANCH   1   4
ATOM      4  N   UNL A   1      33.210  30.420  27.709  1.00  0.00    -0.356 N 
ATOM      5  C   UNL A   1      32.515  29.592  26.879  1.00  0.00     0.220 C 
ATOM      6  O   UNL A   1      31.447  29.104  27.241  1.00  0.00    -0.275 OA
ATOM      7  H   UNL A   1      32.704  30.787  28.469  1.00  0.00     0.163 HD
BRANCH   5   8
ATOM      8  C   UNL A   1      33.124  29.314  25.533  1.00  0.00     0.027 C 
ATOM      9  H   UNL A   1      32.382  29.480  24.780  1.00  0.00     0.037 H 
ATOM     10  H   UNL A   1      33.961  29.969  25.413  1.00  0.00     0.037 H 
BRANCH   8  11
ATOM     11  C   UNL A   1      33.635  27.880  25.409  1.00  0.00    -0.038 C 
ATOM     12  H   UNL A   1      34.433  27.870  24.697  1.00  0.00     0.028 H 
ATOM     13  H   UNL A   1      33.947  27.578  26.387  1.00  0.00     0.028 H 
BRANCH  11  14
ATOM     14  C   UNL A   1      32.567  26.870  24.953  1.00  0.00    -0.014 C 
ATOM     15  C   UNL A   1      31.955  27.375  23.165  1.00  0.00     0.009 C 
ATOM     16  C   UNL A   1      32.005  25.964  21.760  1.00  0.00     0.061 C 
ATOM     17  H   UNL A   1      32.740  27.997  22.790  1.00  0.00     0.038 H 
ATOM     18  C   UNL A   1      32.222  24.073  22.328  1.00  0.00    -0.022 C 
ATOM     19  H   UNL A   1      31.001  26.030  21.393  1.00  0.00     0.061 H 
ATOM     20  C   UNL A   1      32.757  25.065  25.493  1.00  0.00    -0.019 C 
ATOM     21  C   UNL A   1      31.779  26.102  26.081  1.00  0.00    -0.040 C 
ATOM     22  C   UNL A   1      32.670  23.689  24.187  1.00  0.00    -0.027 C 
ATOM     23  H   UNL A   1      32.999  23.653  21.724  1.00  0.00     0.030 H 
ATOM     24  H   UNL A   1      31.244  23.656  22.208  1.00  0.00     0.030 H 
ATOM     25  C   UNL A   1      33.819  24.586  26.499  1.00  0.00    -0.046 C 
ATOM     26  H   UNL A   1      31.942  26.412  27.092  1.00  0.00     0.028 H 
ATOM     27  H   UNL A   1      30.720  26.016  26.206  1.00  0.00     0.028 H 
ATOM     28  C   UNL A   1      32.353  22.316  24.901  1.00  0.00    -0.023 C 
ATOM     29  H   UNL A   1      33.625  23.558  23.722  1.00  0.00     0.032 H 
ATOM     30  C   UNL A   1      33.516  23.180  27.031  1.00  0.00    -0.046 C 
ATOM     31  H   UNL A   1      33.846  25.268  27.323  1.00  0.00     0.027 H 
ATOM     32  H   UNL A   1      34.762  24.553  25.993  1.00  0.00     0.027 H 
ATOM     33  C   UNL A   1      33.497  22.008  25.992  1.00  0.00    -0.024 C 
ATOM     34  C   UNL A   1      32.588  21.193  23.896  1.00  0.00    -0.047 C 
ATOM     35  H   UNL A   1      32.553  23.213  27.495  1.00  0.00     0.027 H 
ATOM     36  H   UNL A   1      34.330  22.953  27.686  1.00  0.00     0.027 H 
ATOM     37  C   UNL A   1      34.743  21.787  25.044  1.00  0.00    -0.033 C 
ATOM     38  C   UNL A   1      34.122  21.099  23.777  1.00  0.00    -0.049 C 
ATOM     39  H   UNL A   1      32.178  20.272  24.253  1.00  0.00     0.027 H 
ATOM     40  H   UNL A   1      32.117  21.384  22.954  1.00  0.00     0.027 H 
ATOM     41  H   UNL A   1      35.174  22.763  24.963  1.00  0.00     0.031 H 
ATOM     42  H   UNL A   1      34.421  20.072  23.737  1.00  0.00     0.027 H 
ATOM     43  H   UNL A   1      34.459  21.583  22.885  1.00  0.00     0.027 H 
BRANCH  15  44
ATOM     44  C   UNL A   1      30.720  28.302  23.184  1.00  0.00    -0.085 C 
ATOM     45  C   UNL A   1      30.466  29.361  22.400  1.00  0.00    -0.103 C 
ATOM     46  H   UNL A   1      29.592  29.896  22.522  1.00  0.00     0.053 H 
ATOM     47  H   UNL A   1      31.146  29.639  21.674  1.00  0.00     0.053 H 
ATOM     48  H   UNL A   1      29.998  28.079  23.888  1.00  0.00     0.057 H 
ENDBRANCH  15  44
BRANCH  16  49
ATOM     49  O   UNL A   1      32.981  26.246  20.722  1.00  0.00    -0.392 OA
ATOM     50  H   UNL A   1      32.536  26.644  19.958  1.00  0.00     0.210 HD
ENDBRANCH  16  49
BRANCH  28  51
ATOM     51  C   UNL A   1      30.949  22.287  25.521  1.00  0.00    -0.059 C 
ATOM     52  H   UNL A   1      30.313  21.659  24.934  1.00  0.00     0.024 H 
ATOM     53  H   UNL A   1      30.549  23.279  25.543  1.00  0.00     0.024 H 
ATOM     54  H   UNL A   1      31.007  21.903  26.518  1.00  0.00     0.024 H 
ENDBRANCH  28  51
BRANCH  33  55
ATOM     55  C   UNL A   1      33.276  20.702  26.796  1.00  0.00    -0.059 C 
ATOM     56  H   UNL A   1      32.589  20.888  27.595  1.00  0.00     0.024 H 
ATOM     57  H   UNL A   1      34.210  20.368  27.197  1.00  0.00     0.024 H 
ATOM     58  H   UNL A   1      32.875  19.948  26.149  1.00  0.00     0.024 H 
ENDBRANCH  33  55
BRANCH  37  59
ATOM     59  C   UNL A   1      36.173  21.328  25.443  1.00  0.00    -0.041 C 
ATOM     60  H   UNL A   1      35.970  20.905  26.405  1.00  0.00     0.030 H 
BRANCH  59  61
ATOM     61  C   UNL A   1      36.750  20.222  24.534  1.00  0.00    -0.047 C 
ATOM     62  H   UNL A   1      37.811  20.352  24.486  1.00  0.00     0.027 H 
ATOM     63  H   UNL A   1      36.267  20.331  23.585  1.00  0.00     0.027 H 
BRANCH  61  64
ATOM     64  C   UNL A   1      36.465  18.791  25.000  1.00  0.00    -0.035 C 
ATOM     65  H   UNL A   1      36.284  18.802  26.055  1.00  0.00     0.031 H 
ATOM     66  H   UNL A   1      37.317  18.190  24.759  1.00  0.00     0.031 H 
BRANCH  64  67
ATOM     67  C   UNL A   1      35.262  18.193  24.306  1.00  0.00    -0.086 C 
ATOM     68  C   UNL A   1      34.777  16.946  24.478  1.00  0.00    -0.080 C 
ATOM     69  H   UNL A   1      34.765  18.798  23.633  1.00  0.00     0.058 H 
BRANCH  68  70
ATOM     70  C   UNL A   1      33.539  16.475  23.763  1.00  0.00    -0.044 C 
ATOM     71  H   UNL A   1      32.968  15.846  24.414  1.00  0.00     0.028 H 
ATOM     72  H   UNL A   1      33.820  15.923  22.890  1.00  0.00     0.028 H 
ATOM     73  H   UNL A   1      32.949  17.320  23.476  1.00  0.00     0.028 H 
ENDBRANCH  68  70
BRANCH  68  74
ATOM     74  C   UNL A   1      35.416  15.924  25.377  1.00  0.00    -0.044 C 
ATOM     75  H   UNL A   1      36.420  15.744  25.055  1.00  0.00     0.028 H 
ATOM     76  H   UNL A   1      34.860  15.011  25.331  1.00  0.00     0.028 H 
ATOM     77  H   UNL A   1      35.423  16.288  26.383  1.00  0.00     0.028 H 
ENDBRANCH  68  74
ENDBRANCH  64  67
ENDBRANCH  61  64
ENDBRANCH  59  61
BRANCH  59  78
ATOM     78  C   UNL A   1      37.216  22.404  25.756  1.00  0.00    -0.062 C 
ATOM     79  H   UNL A   1      36.763  23.186  26.328  1.00  0.00     0.023 H 
ATOM     80  H   UNL A   1      37.598  22.807  24.841  1.00  0.00     0.023 H 
ATOM     81  H   UNL A   1      38.019  21.971  26.316  1.00  0.00     0.023 H 
ENDBRANCH  59  78
ENDBRANCH  37  59
ENDBRANCH  11  14
ENDBRANCH   8  11
ENDBRANCH   5   8
ENDBRANCH   1   4
BRANCH   1  82
ATOM     82  C   UNL A   1      35.725  32.574  28.180  1.00  0.00    -0.036 C 
ATOM     83  H   UNL A   1      36.296  32.773  27.298  1.00  0.00     0.028 H 
ATOM     84  H   UNL A   1      35.921  32.197  29.161  1.00  0.00     0.028 H 
BRANCH  82  85
ATOM     85  C   UNL A   1      35.412  34.184  28.765  1.00  0.00    -0.052 C 
ATOM     86  H   UNL A   1      36.366  34.550  29.081  1.00  0.00     0.027 H 
ATOM     87  H   UNL A   1      34.601  33.966  29.428  1.00  0.00     0.027 H 
BRANCH  85  88
ATOM     88  C   UNL A   1      34.777  35.360  27.986  1.00  0.00    -0.052 C 
ATOM     89  H   UNL A   1      34.498  35.010  27.014  1.00  0.00     0.027 H 
ATOM     90  H   UNL A   1      35.510  36.139  27.948  1.00  0.00     0.027 H 
BRANCH  88  91
ATOM     91  C   UNL A   1      33.541  35.947  28.659  1.00  0.00    -0.036 C 
ATOM     92  H   UNL A   1      32.741  35.974  27.950  1.00  0.00     0.028 H 
ATOM     93  H   UNL A   1      33.780  36.931  29.001  1.00  0.00     0.028 H 
BRANCH  91  94
ATOM     94  C   UNL A   1      33.114  35.118  29.853  1.00  0.00     0.018 C 
ATOM     95  H   UNL A   1      33.971  34.638  30.277  1.00  0.00     0.049 H 
ATOM     96  H   UNL A   1      32.408  34.379  29.534  1.00  0.00     0.049 H 
BRANCH  94  97
ATOM     97  N   UNL A   1      32.494  35.977  30.853  1.00  0.00    -0.352 N 
ATOM     98  C   UNL A   1      32.669  35.907  32.208  1.00  0.00     0.251 C 
ATOM     99  H   UNL A   1      31.890  36.678  30.520  1.00  0.00     0.163 HD
ATOM    100  O   UNL A   1      31.912  36.446  32.994  1.00  0.00    -0.269 OA
BRANCH  98 101
ATOM    101  C   UNL A   1      33.836  35.141  32.662  1.00  0.00     0.039 A 
ATOM    102  C   UNL A   1      33.667  33.838  33.125  1.00  0.00    -0.049 A 
ATOM    103  C   UNL A   1      35.104  35.705  32.480  1.00  0.00    -0.049 A 
ATOM    104  C   UNL A   1      34.799  33.082  33.405  1.00  0.00    -0.053 A 
ATOM    105  H   UNL A   1      32.723  33.444  33.255  1.00  0.00     0.063 H 
ATOM    106  C   UNL A   1      36.222  34.919  32.674  1.00  0.00    -0.053 A 
ATOM    107  H   UNL A   1      35.201  36.694  32.206  1.00  0.00     0.063 H 
ATOM    108  C   UNL A   1      36.078  33.615  33.169  1.00  0.00    -0.014 A 
ATOM    109  H   UNL A   1      34.700  32.128  33.787  1.00  0.00     0.063 H 
ATOM    110  H   UNL A   1      37.161  35.289  32.454  1.00  0.00     0.063 H 
BRANCH 108 111
ATOM    111  C   UNL A   1      37.295  32.850  33.501  1.00  0.00     0.031 A 
ATOM    112  C   UNL A   1      38.021  33.166  34.778  1.00  0.00     0.074 A 
ATOM    113  C   UNL A   1      37.767  31.937  32.634  1.00  0.00     0.049 A 
ATOM    114  N   UNL A   1      39.145  32.679  35.232  1.00  0.00    -0.248 NA
ATOM    115  C   UNL A   1      37.422  34.197  35.644  1.00  0.00    -0.034 C 
ATOM    116  C   UNL A   1      37.162  31.605  31.342  1.00  0.00    -0.036 A 
ATOM    117  N   UNL A   1      38.870  31.130  32.704  1.00  0.00    -0.354 N 
ATOM    118  C   UNL A   1      39.393  33.356  36.418  1.00  0.00     0.074 A 
ATOM    119  C   UNL A   1      38.344  34.334  36.583  1.00  0.00    -0.034 C 
ATOM    120  H   UNL A   1      36.518  34.686  35.544  1.00  0.00     0.065 H 
ATOM    121  C   UNL A   1      37.892  30.645  30.751  1.00  0.00    -0.036 A 
ATOM    122  H   UNL A   1      36.312  32.038  30.949  1.00  0.00     0.065 H 
ATOM    123  C   UNL A   1      39.033  30.326  31.603  1.00  0.00     0.049 A 
ATOM    124  H   UNL A   1      39.488  31.126  33.470  1.00  0.00     0.167 HD
ATOM    125  C   UNL A   1      40.394  33.155  37.302  1.00  0.00     0.037 A 
ATOM    126  H   UNL A   1      38.317  35.044  37.332  1.00  0.00     0.065 H 
ATOM    127  H   UNL A   1      37.680  30.204  29.842  1.00  0.00     0.065 H 
ATOM    128  C   UNL A   1      40.005  29.440  31.319  1.00  0.00     0.037 A 
ATOM    129  C   UNL A   1      41.407  32.149  37.139  1.00  0.00     0.049 A 
ATOM    130  C   UNL A   1      41.103  29.230  32.329  1.00  0.00     0.074 A 
ATOM    131  C   UNL A   1      42.425  31.800  38.007  1.00  0.00    -0.036 A 
ATOM    132  N   UNL A   1      41.527  31.329  36.025  1.00  0.00    -0.354 N 
ATOM    133  N   UNL A   1      41.285  29.815  33.490  1.00  0.00    -0.248 NA
ATOM    134  C   UNL A   1      42.127  28.232  31.995  1.00  0.00    -0.034 C 
ATOM    135  C   UNL A   1      43.196  30.810  37.393  1.00  0.00    -0.036 A 
ATOM    136  H   UNL A   1      42.586  32.201  38.944  1.00  0.00     0.065 H 
ATOM    137  C   UNL A   1      42.623  30.495  36.170  1.00  0.00     0.049 A 
ATOM    138  H   UNL A   1      40.922  31.339  35.248  1.00  0.00     0.167 HD
ATOM    139  C   UNL A   1      42.424  29.239  34.034  1.00  0.00     0.074 A 
ATOM    140  C   UNL A   1      42.879  28.243  33.086  1.00  0.00    -0.034 C 
ATOM    141  H   UNL A   1      42.233  27.670  31.136  1.00  0.00     0.065 H 
ATOM    142  H   UNL A   1      44.051  30.384  37.784  1.00  0.00     0.065 H 
ATOM    143  C   UNL A   1      43.045  29.510  35.209  1.00  0.00     0.037 A 
ATOM    144  H   UNL A   1      43.686  27.619  33.241  1.00  0.00     0.065 H 
BRANCH 125 145
ATOM    145  C   UNL A   1      40.440  34.030  38.521  1.00  0.00     0.064 A 
ATOM    146  C   UNL A   1      41.145  35.243  38.534  1.00  0.00     0.173 A 
ATOM    147  C   UNL A   1      39.735  33.668  39.678  1.00  0.00     0.173 A 
ATOM    148  F   UNL A   1      41.851  35.627  37.460  1.00  0.00    -0.203 F 
ATOM    149  C   UNL A   1      41.160  36.051  39.669  1.00  0.00     0.198 A 
ATOM    150  C   UNL A   1      39.724  34.494  40.799  1.00  0.00     0.198 A 
ATOM    151  F   UNL A   1      39.047  32.517  39.720  1.00  0.00    -0.203 F 
ATOM    152  F   UNL A   1      41.878  37.182  39.675  1.00  0.00    -0.200 F 
ATOM    153  C   UNL A   1      40.441  35.681  40.796  1.00  0.00     0.200 A 
ATOM    154  F   UNL A   1      39.020  34.140  41.883  1.00  0.00    -0.200 F 
ATOM    155  F   UNL A   1      40.444  36.467  41.881  1.00  0.00    -0.200 F 
ENDBRANCH 125 145
BRANCH 128 156
ATOM    156  C   UNL A   1      39.982  28.684  30.040  1.00  0.00     0.064 A 
ATOM    157  C   UNL A   1      39.406  27.409  29.962  1.00  0.00     0.173 A 
ATOM    158  C   UNL A   1      40.549  29.214  28.870  1.00  0.00     0.173 A 
ATOM    159  F   UNL A   1      38.863  26.851  31.054  1.00  0.00    -0.203 F 
ATOM    160  C   UNL A   1      39.428  26.678  28.775  1.00  0.00     0.198 A 
ATOM    161  C   UNL A   1      40.540  28.496  27.675  1.00  0.00     0.198 A 
ATOM    162  F   UNL A   1      41.103  30.435  28.885  1.00  0.00    -0.203 F 
ATOM    163  F   UNL A   1      38.924  25.437  28.745  1.00  0.00    -0.200 F 
ATOM    164  C   UNL A   1      39.992  27.223  27.632  1.00  0.00     0.200 A 
ATOM    165  F   UNL A   1      41.069  29.037  26.569  1.00  0.00    -0.200 F 
ATOM    166  F   UNL A   1      40.015  26.521  26.491  1.00  0.00    -0.200 F 
ENDBRANCH 128 156
BRANCH 143 167
ATOM    167  C   UNL A   1      44.261  28.697  35.544  1.00  0.00     0.064 A 
ATOM    168  C   UNL A   1      45.546  29.102  35.155  1.00  0.00     0.173 A 
ATOM    169  C   UNL A   1      44.142  27.524  36.304  1.00  0.00     0.173 A 
ATOM    170  F   UNL A   1      45.711  30.209  34.416  1.00  0.00    -0.203 F 
ATOM    171  C   UNL A   1      46.665  28.344  35.489  1.00  0.00     0.198 A 
ATOM    172  C   UNL A   1      45.265  26.788  36.667  1.00  0.00     0.198 A 
ATOM    173  F   UNL A   1      42.935  27.100  36.710  1.00  0.00    -0.203 F 
ATOM    174  F   UNL A   1      47.878  28.721  35.060  1.00  0.00    -0.200 F 
ATOM    175  C   UNL A   1      46.525  27.194  36.252  1.00  0.00     0.200 A 
ATOM    176  F   UNL A   1      45.130  25.689  37.421  1.00  0.00    -0.200 F 
ATOM    177  F   UNL A   1      47.604  26.473  36.581  1.00  0.00    -0.200 F 
ENDBRANCH 143 167
ENDBRANCH 108 111
ENDBRANCH  98 101
ENDBRANCH  94  97
ENDBRANCH  91  94
ENDBRANCH  88  91
ENDBRANCH  85  88
ENDBRANCH  82  85
ENDBRANCH   1  82
TORSDOF 26
ENDMDL
MODEL 3
REMARK VINA RESULT:     -12.0      7.541     11.857
REMARK SMILES C=C[C@@H]1[C@@H](O)C[C@H]2[C@]3(CC[C@]4(C)[C@@H]([C@H](C)CCC=C(C)C)CC[C@]24C)C[C@]13CCC(=O)NCCCCCCNC(=O)c1ccc(-c2c3nc(c(-c4c(F)c(F)c(F)c(F)c4F)c4ccc([nH]4)c(-c4c(F)c(F)c(F)c(F)c4F)c4nc(c(-c5c(F)c(F)c(F)c(F)c5F)c5ccc2[nH]5)C=C4)C=C3)cc1
REMARK SMILES IDX 33 1 32 4 30 5 31 6 29 8 28 11 27 14 3 15 4 16 6 18 8 20
REMARK SMILES IDX 26 21 7 22 9 25 24 28 10 30 11 33 23 34 13 37 22 38 2 44
REMARK SMILES IDX 1 45 5 49 25 51 12 55 14 59 16 61 17 64 18 67 19 68 20 70
REMARK SMILES IDX 21 74 15 78 34 82 35 85 36 88 37 91 38 94 39 97 40 98 41 100
REMARK SMILES IDX 42 101 43 102 104 103 44 104 103 106 45 108 46 111 47 112
REMARK SMILES IDX 97 113 48 114 102 115 96 116 98 117 49 118 101 119 95 121
REMARK SMILES IDX 94 123 50 125 82 128 62 129 81 130 63 131 66 132 80 133
REMARK SMILES IDX 99 134 64 135 65 137 79 139 100 140 67 143 51 145 52 146
REMARK SMILES IDX 60 147 53 148 54 149 58 150 61 151 55 152 56 153 59 154
REMARK SMILES IDX 57 155 83 156 84 157 92 158 85 159 86 160 90 161 93 162
REMARK SMILES IDX 87 163 88 164 91 165 89 166 68 167 69 168 77 169 70 170
REMARK SMILES IDX 71 171 75 172 78 173 72 174 73 175 76 176 74 177
REMARK H PARENT 33 2 33 3 32 7 29 9 29 10 28 12 28 13 3 17 4 19 6 23 6 24
REMARK H PARENT 26 26 26 27 7 29 9 31 9 32 10 35 10 36 23 39 23 40 13 41 22 42
REMARK H PARENT 22 43 1 46 1 47 2 48 5 50 25 52 25 53 25 54 12 56 12 57 12 58
REMARK H PARENT 14 60 16 62 16 63 17 65 17 66 18 69 20 71 20 72 20 73 21 75
REMARK H PARENT 21 76 21 77 15 79 15 80 15 81 34 83 34 84 35 86 35 87 36 89
REMARK H PARENT 36 90 37 92 37 93 38 95 38 96 39 99 43 105 104 107 44 109
REMARK H PARENT 103 110 102 120 96 122 98 124 101 126 95 127 63 136 66 138
REMARK H PARENT 99 141 64 142 100 144
REMARK Flexibility Score: inf
ROOT
ATOM      1  C   UNL A   1      36.285  29.444  27.783  1.00  0.00     0.017 C 
ATOM      2  H   UNL A   1      36.077  28.537  27.256  1.00  0.00     0.049 H 
ATOM      3  H   UNL A   1      36.234  29.682  28.826  1.00  0.00     0.049 H 
ENDROOT
BRANCH   1   4
ATOM      4  N   UNL A   1      35.132  30.340  27.382  1.00  0.00    -0.356 N 
ATOM      5  C   UNL A   1      33.808  30.031  27.288  1.00  0.00     0.220 C 
ATOM      6  O   UNL A   1      32.964  30.922  27.240  1.00  0.00    -0.275 OA
ATOM      7  H   UNL A   1      35.370  31.269  27.160  1.00  0.00     0.163 HD
BRANCH   5   8
ATOM      8  C   UNL A   1      33.455  28.571  27.253  1.00  0.00     0.027 C 
ATOM      9  H   UNL A   1      33.930  28.122  26.406  1.00  0.00     0.037 H 
ATOM     10  H   UNL A   1      33.789  28.133  28.170  1.00  0.00     0.037 H 
BRANCH   8  11
ATOM     11  C   UNL A   1      31.949  28.337  27.149  1.00  0.00    -0.038 C 
ATOM     12  H   UNL A   1      31.668  27.624  27.896  1.00  0.00     0.028 H 
ATOM     13  H   UNL A   1      31.479  29.289  27.286  1.00  0.00     0.028 H 
BRANCH  11  14
ATOM     14  C   UNL A   1      31.488  27.808  25.780  1.00  0.00    -0.014 C 
ATOM     15  C   UNL A   1      31.804  29.194  24.437  1.00  0.00     0.009 C 
ATOM     16  C   UNL A   1      32.843  28.669  22.820  1.00  0.00     0.061 C 
ATOM     17  H   UNL A   1      32.533  29.832  24.892  1.00  0.00     0.038 H 
ATOM     18  C   UNL A   1      33.094  26.734  22.448  1.00  0.00    -0.022 C 
ATOM     19  H   UNL A   1      32.183  29.016  22.053  1.00  0.00     0.061 H 
ATOM     20  C   UNL A   1      31.714  25.963  25.413  1.00  0.00    -0.019 C 
ATOM     21  C   UNL A   1      30.395  26.672  25.781  1.00  0.00    -0.040 C 
ATOM     22  C   UNL A   1      32.581  25.434  23.808  1.00  0.00    -0.027 C 
ATOM     23  H   UNL A   1      34.134  26.587  22.249  1.00  0.00     0.030 H 
ATOM     24  H   UNL A   1      32.420  26.539  21.640  1.00  0.00     0.030 H 
ATOM     25  C   UNL A   1      32.172  24.938  26.465  1.00  0.00    -0.046 C 
ATOM     26  H   UNL A   1      29.949  26.421  26.721  1.00  0.00     0.028 H 
ATOM     27  H   UNL A   1      29.463  26.650  25.255  1.00  0.00     0.028 H 
ATOM     28  C   UNL A   1      32.211  23.931  23.492  1.00  0.00    -0.023 C 
ATOM     29  H   UNL A   1      33.643  25.448  23.939  1.00  0.00     0.032 H 
ATOM     30  C   UNL A   1      31.915  23.495  26.012  1.00  0.00    -0.046 C 
ATOM     31  H   UNL A   1      31.638  25.115  27.375  1.00  0.00     0.027 H 
ATOM     32  H   UNL A   1      33.227  25.058  26.606  1.00  0.00     0.027 H 
ATOM     33  C   UNL A   1      32.661  23.001  24.728  1.00  0.00    -0.024 C 
ATOM     34  C   UNL A   1      33.142  23.436  22.390  1.00  0.00    -0.047 C 
ATOM     35  H   UNL A   1      30.865  23.398  25.831  1.00  0.00     0.027 H 
ATOM     36  H   UNL A   1      32.299  22.887  26.804  1.00  0.00     0.027 H 
ATOM     37  C   UNL A   1      34.233  23.146  24.635  1.00  0.00    -0.033 C 
ATOM     38  C   UNL A   1      34.502  23.247  23.092  1.00  0.00    -0.049 C 
ATOM     39  H   UNL A   1      32.793  22.509  21.986  1.00  0.00     0.027 H 
ATOM     40  H   UNL A   1      33.200  24.118  21.567  1.00  0.00     0.027 H 
ATOM     41  H   UNL A   1      34.447  23.981  25.270  1.00  0.00     0.031 H 
ATOM     42  H   UNL A   1      34.969  22.350  22.745  1.00  0.00     0.027 H 
ATOM     43  H   UNL A   1      35.151  24.070  22.879  1.00  0.00     0.027 H 
BRANCH  15  44
ATOM     44  C   UNL A   1      30.585  30.117  24.217  1.00  0.00    -0.085 C 
ATOM     45  C   UNL A   1      29.476  29.870  23.503  1.00  0.00    -0.103 C 
ATOM     46  H   UNL A   1      28.733  30.583  23.440  1.00  0.00     0.053 H 
ATOM     47  H   UNL A   1      29.367  28.966  23.016  1.00  0.00     0.053 H 
ATOM     48  H   UNL A   1      30.628  31.040  24.678  1.00  0.00     0.057 H 
ENDBRANCH  15  44
BRANCH  16  49
ATOM     49  O   UNL A   1      34.139  29.321  22.756  1.00  0.00    -0.392 OA
ATOM     50  H   UNL A   1      34.840  28.661  22.878  1.00  0.00     0.210 HD
ENDBRANCH  16  49
BRANCH  28  51
ATOM     51  C   UNL A   1      30.725  23.751  23.151  1.00  0.00    -0.059 C 
ATOM     52  H   UNL A   1      30.547  22.740  22.851  1.00  0.00     0.024 H 
ATOM     53  H   UNL A   1      30.459  24.412  22.353  1.00  0.00     0.024 H 
ATOM     54  H   UNL A   1      30.132  23.977  24.013  1.00  0.00     0.024 H 
ENDBRANCH  28  51
BRANCH  33  55
ATOM     55  C   UNL A   1      32.312  21.501  24.557  1.00  0.00    -0.059 C 
ATOM     56  H   UNL A   1      31.249  21.380  24.562  1.00  0.00     0.024 H 
ATOM     57  H   UNL A   1      32.740  20.942  25.362  1.00  0.00     0.024 H 
ATOM     58  H   UNL A   1      32.707  21.147  23.626  1.00  0.00     0.024 H 
ENDBRANCH  33  55
BRANCH  37  59
ATOM     59  C   UNL A   1      35.308  22.398  25.472  1.00  0.00    -0.041 C 
ATOM     60  H   UNL A   1      34.766  22.254  26.384  1.00  0.00     0.030 H 
BRANCH  59  61
ATOM     61  C   UNL A   1      35.687  21.013  24.905  1.00  0.00    -0.047 C 
ATOM     62  H   UNL A   1      36.698  20.805  25.186  1.00  0.00     0.027 H 
ATOM     63  H   UNL A   1      35.546  21.073  23.846  1.00  0.00     0.027 H 
BRANCH  61  64
ATOM     64  C   UNL A   1      34.810  19.855  25.392  1.00  0.00    -0.035 C 
ATOM     65  H   UNL A   1      33.800  20.198  25.473  1.00  0.00     0.031 H 
ATOM     66  H   UNL A   1      35.187  19.532  26.340  1.00  0.00     0.031 H 
BRANCH  64  67
ATOM     67  C   UNL A   1      34.849  18.674  24.448  1.00  0.00    -0.086 C 
ATOM     68  C   UNL A   1      33.914  17.708  24.336  1.00  0.00    -0.080 C 
ATOM     69  H   UNL A   1      35.673  18.598  23.832  1.00  0.00     0.058 H 
BRANCH  68  70
ATOM     70  C   UNL A   1      34.039  16.602  23.324  1.00  0.00    -0.044 C 
ATOM     71  H   UNL A   1      33.344  16.767  22.527  1.00  0.00     0.028 H 
ATOM     72  H   UNL A   1      33.826  15.664  23.793  1.00  0.00     0.028 H 
ATOM     73  H   UNL A   1      35.034  16.587  22.932  1.00  0.00     0.028 H 
ENDBRANCH  68  70
BRANCH  68  74
ATOM     74  C   UNL A   1      32.683  17.641  25.199  1.00  0.00    -0.044 C 
ATOM     75  H   UNL A   1      32.775  16.827  25.887  1.00  0.00     0.028 H 
ATOM     76  H   UNL A   1      31.823  17.488  24.582  1.00  0.00     0.028 H 
ATOM     77  H   UNL A   1      32.576  18.557  25.741  1.00  0.00     0.028 H 
ENDBRANCH  68  74
ENDBRANCH  64  67
ENDBRANCH  61  64
ENDBRANCH  59  61
BRANCH  59  78
ATOM     78  C   UNL A   1      36.543  23.180  25.927  1.00  0.00    -0.062 C 
ATOM     79  H   UNL A   1      36.346  24.229  25.860  1.00  0.00     0.023 H 
ATOM     80  H   UNL A   1      37.373  22.932  25.298  1.00  0.00     0.023 H 
ATOM     81  H   UNL A   1      36.774  22.924  26.940  1.00  0.00     0.023 H 
ENDBRANCH  59  78
ENDBRANCH  37  59
ENDBRANCH  11  14
ENDBRANCH   8  11
ENDBRANCH   5   8
ENDBRANCH   1   4
BRANCH   1  82
ATOM     82  C   UNL A   1      38.379  29.590  27.658  1.00  0.00    -0.036 C 
ATOM     83  H   UNL A   1      38.568  30.475  28.228  1.00  0.00     0.028 H 
ATOM     84  H   UNL A   1      38.391  29.317  26.624  1.00  0.00     0.028 H 
BRANCH  82  85
ATOM     85  C   UNL A   1      39.790  28.635  28.017  1.00  0.00    -0.052 C 
ATOM     86  H   UNL A   1      39.510  28.041  28.861  1.00  0.00     0.027 H 
ATOM     87  H   UNL A   1      40.518  29.419  28.048  1.00  0.00     0.027 H 
BRANCH  85  88
ATOM     88  C   UNL A   1      40.529  27.657  27.074  1.00  0.00    -0.052 C 
ATOM     89  H   UNL A   1      41.568  27.659  27.331  1.00  0.00     0.027 H 
ATOM     90  H   UNL A   1      40.353  27.996  26.074  1.00  0.00     0.027 H 
BRANCH  88  91
ATOM     91  C   UNL A   1      40.018  26.223  27.152  1.00  0.00    -0.036 C 
ATOM     92  H   UNL A   1      40.062  25.785  26.177  1.00  0.00     0.028 H 
ATOM     93  H   UNL A   1      39.012  26.244  27.514  1.00  0.00     0.028 H 
BRANCH  91  94
ATOM     94  C   UNL A   1      40.850  25.390  28.104  1.00  0.00     0.018 C 
ATOM     95  H   UNL A   1      40.287  25.195  28.992  1.00  0.00     0.049 H 
ATOM     96  H   UNL A   1      41.743  25.926  28.354  1.00  0.00     0.049 H 
BRANCH  94  97
ATOM     97  N   UNL A   1      41.209  24.127  27.471  1.00  0.00    -0.352 N 
ATOM     98  C   UNL A   1      42.204  23.930  26.552  1.00  0.00     0.251 C 
ATOM     99  H   UNL A   1      40.682  23.338  27.729  1.00  0.00     0.163 HD
ATOM    100  O   UNL A   1      42.260  22.936  25.852  1.00  0.00    -0.269 OA
BRANCH  98 101
ATOM    101  C   UNL A   1      43.210  24.995  26.464  1.00  0.00     0.039 A 
ATOM    102  C   UNL A   1      43.284  25.779  25.315  1.00  0.00    -0.049 A 
ATOM    103  C   UNL A   1      43.973  25.276  27.603  1.00  0.00    -0.049 A 
ATOM    104  C   UNL A   1      44.138  26.875  25.314  1.00  0.00    -0.053 A 
ATOM    105  H   UNL A   1      42.715  25.552  24.485  1.00  0.00     0.063 H 
ATOM    106  C   UNL A   1      44.750  26.416  27.627  1.00  0.00    -0.053 A 
ATOM    107  H   UNL A   1      43.954  24.639  28.414  1.00  0.00     0.063 H 
ATOM    108  C   UNL A   1      44.864  27.203  26.472  1.00  0.00    -0.014 A 
ATOM    109  H   UNL A   1      44.240  27.448  24.461  1.00  0.00     0.063 H 
ATOM    110  H   UNL A   1      45.246  26.689  28.491  1.00  0.00     0.063 H 
BRANCH 108 111
ATOM    111  C   UNL A   1      45.813  28.333  26.482  1.00  0.00     0.031 A 
ATOM    112  C   UNL A   1      47.273  28.053  26.270  1.00  0.00     0.074 A 
ATOM    113  C   UNL A   1      45.367  29.576  26.742  1.00  0.00     0.049 A 
ATOM    114  N   UNL A   1      48.287  28.875  26.315  1.00  0.00    -0.248 NA
ATOM    115  C   UNL A   1      47.649  26.652  26.010  1.00  0.00    -0.034 C 
ATOM    116  C   UNL A   1      43.975  29.936  27.018  1.00  0.00    -0.036 A 
ATOM    117  N   UNL A   1      46.043  30.763  26.827  1.00  0.00    -0.354 N 
ATOM    118  C   UNL A   1      49.413  28.089  26.111  1.00  0.00     0.074 A 
ATOM    119  C   UNL A   1      48.970  26.719  26.009  1.00  0.00    -0.034 C 
ATOM    120  H   UNL A   1      47.039  25.831  25.868  1.00  0.00     0.065 H 
ATOM    121  C   UNL A   1      43.898  31.261  27.220  1.00  0.00    -0.036 A 
ATOM    122  H   UNL A   1      43.181  29.277  27.052  1.00  0.00     0.065 H 
ATOM    123  C   UNL A   1      45.237  31.833  27.127  1.00  0.00     0.049 A 
ATOM    124  H   UNL A   1      47.014  30.843  26.687  1.00  0.00     0.167 HD
ATOM    125  C   UNL A   1      50.700  28.486  25.991  1.00  0.00     0.037 A 
ATOM    126  H   UNL A   1      49.599  25.903  25.944  1.00  0.00     0.065 H 
ATOM    127  H   UNL A   1      43.031  31.789  27.410  1.00  0.00     0.065 H 
ATOM    128  C   UNL A   1      45.556  33.127  27.313  1.00  0.00     0.037 A 
ATOM    129  C   UNL A   1      51.116  29.860  26.056  1.00  0.00     0.049 A 
ATOM    130  C   UNL A   1      46.997  33.541  27.163  1.00  0.00     0.074 A 
ATOM    131  C   UNL A   1      52.380  30.388  25.870  1.00  0.00    -0.036 A 
ATOM    132  N   UNL A   1      50.269  30.924  26.331  1.00  0.00    -0.354 N 
ATOM    133  N   UNL A   1      48.046  32.803  26.885  1.00  0.00    -0.248 NA
ATOM    134  C   UNL A   1      47.297  34.966  27.344  1.00  0.00    -0.034 C 
ATOM    135  C   UNL A   1      52.309  31.766  26.091  1.00  0.00    -0.036 A 
ATOM    136  H   UNL A   1      53.226  29.857  25.612  1.00  0.00     0.065 H 
ATOM    137  C   UNL A   1      50.990  32.106  26.352  1.00  0.00     0.049 A 
ATOM    138  H   UNL A   1      49.299  30.850  26.489  1.00  0.00     0.167 HD
ATOM    139  C   UNL A   1      49.123  33.676  26.831  1.00  0.00     0.074 A 
ATOM    140  C   UNL A   1      48.596  35.002  27.084  1.00  0.00    -0.034 C 
ATOM    141  H   UNL A   1      46.663  35.738  27.604  1.00  0.00     0.065 H 
ATOM    142  H   UNL A   1      53.105  32.421  26.065  1.00  0.00     0.065 H 
ATOM    143  C   UNL A   1      50.433  33.410  26.601  1.00  0.00     0.037 A 
ATOM    144  H   UNL A   1      49.161  35.865  27.064  1.00  0.00     0.065 H 
BRANCH 125 145
ATOM    145  C   UNL A   1      51.742  27.428  25.772  1.00  0.00     0.064 A 
ATOM    146  C   UNL A   1      52.076  26.973  24.487  1.00  0.00     0.173 A 
ATOM    147  C   UNL A   1      52.444  26.892  26.861  1.00  0.00     0.173 A 
ATOM    148  F   UNL A   1      51.422  27.440  23.413  1.00  0.00    -0.203 F 
ATOM    149  C   UNL A   1      53.059  26.005  24.303  1.00  0.00     0.198 A 
ATOM    150  C   UNL A   1      53.450  25.948  26.670  1.00  0.00     0.198 A 
ATOM    151  F   UNL A   1      52.162  27.289  28.111  1.00  0.00    -0.203 F 
ATOM    152  F   UNL A   1      53.329  25.551  23.071  1.00  0.00    -0.200 F 
ATOM    153  C   UNL A   1      53.752  25.501  25.393  1.00  0.00     0.200 A 
ATOM    154  F   UNL A   1      54.126  25.470  27.724  1.00  0.00    -0.200 F 
ATOM    155  F   UNL A   1      54.709  24.579  25.213  1.00  0.00    -0.200 F 
ENDBRANCH 125 145
BRANCH 128 156
ATOM    156  C   UNL A   1      44.501  34.119  27.651  1.00  0.00     0.064 A 
ATOM    157  C   UNL A   1      43.871  34.874  26.653  1.00  0.00     0.173 A 
ATOM    158  C   UNL A   1      44.112  34.345  28.980  1.00  0.00     0.173 A 
ATOM    159  F   UNL A   1      44.216  34.707  25.367  1.00  0.00    -0.203 F 
ATOM    160  C   UNL A   1      42.919  35.841  26.972  1.00  0.00     0.198 A 
ATOM    161  C   UNL A   1      43.135  35.287  29.295  1.00  0.00     0.198 A 
ATOM    162  F   UNL A   1      44.674  33.642  29.974  1.00  0.00    -0.203 F 
ATOM    163  F   UNL A   1      42.376  36.590  26.002  1.00  0.00    -0.200 F 
ATOM    164  C   UNL A   1      42.548  36.044  28.292  1.00  0.00     0.200 A 
ATOM    165  F   UNL A   1      42.767  35.465  30.571  1.00  0.00    -0.200 F 
ATOM    166  F   UNL A   1      41.634  36.973  28.600  1.00  0.00    -0.200 F 
ENDBRANCH 128 156
BRANCH 143 167
ATOM    167  C   UNL A   1      51.375  34.578  26.581  1.00  0.00     0.064 A 
ATOM    168  C   UNL A   1      52.096  34.960  27.721  1.00  0.00     0.173 A 
ATOM    169  C   UNL A   1      51.594  35.291  25.393  1.00  0.00     0.173 A 
ATOM    170  F   UNL A   1      51.913  34.317  28.884  1.00  0.00    -0.203 F 
ATOM    171  C   UNL A   1      52.980  36.035  27.680  1.00  0.00     0.198 A 
ATOM    172  C   UNL A   1      52.505  36.342  25.345  1.00  0.00     0.198 A 
ATOM    173  F   UNL A   1      50.937  34.957  24.272  1.00  0.00    -0.203 F 
ATOM    174  F   UNL A   1      53.617  36.418  28.795  1.00  0.00    -0.200 F 
ATOM    175  C   UNL A   1      53.190  36.719  26.491  1.00  0.00     0.200 A 
ATOM    176  F   UNL A   1      52.722  36.988  24.192  1.00  0.00    -0.200 F 
ATOM    177  F   UNL A   1      54.048  37.746  26.451  1.00  0.00    -0.200 F 
ENDBRANCH 143 167
ENDBRANCH 108 111
ENDBRANCH  98 101
ENDBRANCH  94  97
ENDBRANCH  91  94
ENDBRANCH  88  91
ENDBRANCH  85  88
ENDBRANCH  82  85
ENDBRANCH   1  82
TORSDOF 26
ENDMDL
MODEL 4
REMARK VINA RESULT:     -12.0      5.650      8.627
REMARK SMILES C=C[C@@H]1[C@@H](O)C[C@H]2[C@]3(CC[C@]4(C)[C@@H]([C@H](C)CCC=C(C)C)CC[C@]24C)C[C@]13CCC(=O)NCCCCCCNC(=O)c1ccc(-c2c3nc(c(-c4c(F)c(F)c(F)c(F)c4F)c4ccc([nH]4)c(-c4c(F)c(F)c(F)c(F)c4F)c4nc(c(-c5c(F)c(F)c(F)c(F)c5F)c5ccc2[nH]5)C=C4)C=C3)cc1
REMARK SMILES IDX 33 1 32 4 30 5 31 6 29 8 28 11 27 14 3 15 4 16 6 18 8 20
REMARK SMILES IDX 26 21 7 22 9 25 24 28 10 30 11 33 23 34 13 37 22 38 2 44
REMARK SMILES IDX 1 45 5 49 25 51 12 55 14 59 16 61 17 64 18 67 19 68 20 70
REMARK SMILES IDX 21 74 15 78 34 82 35 85 36 88 37 91 38 94 39 97 40 98 41 100
REMARK SMILES IDX 42 101 43 102 104 103 44 104 103 106 45 108 46 111 47 112
REMARK SMILES IDX 97 113 48 114 102 115 96 116 98 117 49 118 101 119 95 121
REMARK SMILES IDX 94 123 50 125 82 128 62 129 81 130 63 131 66 132 80 133
REMARK SMILES IDX 99 134 64 135 65 137 79 139 100 140 67 143 51 145 52 146
REMARK SMILES IDX 60 147 53 148 54 149 58 150 61 151 55 152 56 153 59 154
REMARK SMILES IDX 57 155 83 156 84 157 92 158 85 159 86 160 90 161 93 162
REMARK SMILES IDX 87 163 88 164 91 165 89 166 68 167 69 168 77 169 70 170
REMARK SMILES IDX 71 171 75 172 78 173 72 174 73 175 76 176 74 177
REMARK H PARENT 33 2 33 3 32 7 29 9 29 10 28 12 28 13 3 17 4 19 6 23 6 24
REMARK H PARENT 26 26 26 27 7 29 9 31 9 32 10 35 10 36 23 39 23 40 13 41 22 42
REMARK H PARENT 22 43 1 46 1 47 2 48 5 50 25 52 25 53 25 54 12 56 12 57 12 58
REMARK H PARENT 14 60 16 62 16 63 17 65 17 66 18 69 20 71 20 72 20 73 21 75
REMARK H PARENT 21 76 21 77 15 79 15 80 15 81 34 83 34 84 35 86 35 87 36 89
REMARK H PARENT 36 90 37 92 37 93 38 95 38 96 39 99 43 105 104 107 44 109
REMARK H PARENT 103 110 102 120 96 122 98 124 101 126 95 127 63 136 66 138
REMARK H PARENT 99 141 64 142 100 144
REMARK Flexibility Score: inf
ROOT
ATOM      1  C   UNL A   1      36.149  29.328  28.004  1.00  0.00     0.017 C 
ATOM      2  H   UNL A   1      35.847  28.351  27.693  1.00  0.00     0.049 H 
ATOM      3  H   UNL A   1      36.167  29.788  28.971  1.00  0.00     0.049 H 
ENDROOT
BRANCH   1   4
ATOM      4  N   UNL A   1      35.052  30.214  27.452  1.00  0.00    -0.356 N 
ATOM      5  C   UNL A   1      33.739  29.912  27.247  1.00  0.00     0.220 C 
ATOM      6  O   UNL A   1      32.916  30.807  27.076  1.00  0.00    -0.275 OA
ATOM      7  H   UNL A   1      35.323  31.128  27.208  1.00  0.00     0.163 HD
BRANCH   5   8
ATOM      8  C   UNL A   1      33.370  28.455  27.252  1.00  0.00     0.027 C 
ATOM      9  H   UNL A   1      33.862  27.974  26.432  1.00  0.00     0.037 H 
ATOM     10  H   UNL A   1      33.677  28.044  28.191  1.00  0.00     0.037 H 
BRANCH   8  11
ATOM     11  C   UNL A   1      31.865  28.234  27.118  1.00  0.00    -0.038 C 
ATOM     12  H   UNL A   1      31.561  27.533  27.867  1.00  0.00     0.028 H 
ATOM     13  H   UNL A   1      31.401  29.191  27.233  1.00  0.00     0.028 H 
BRANCH  11  14
ATOM     14  C   UNL A   1      31.429  27.692  25.745  1.00  0.00    -0.014 C 
ATOM     15  C   UNL A   1      31.743  29.077  24.400  1.00  0.00     0.009 C 
ATOM     16  C   UNL A   1      32.810  28.559  22.800  1.00  0.00     0.061 C 
ATOM     17  H   UNL A   1      32.458  29.726  24.862  1.00  0.00     0.038 H 
ATOM     18  C   UNL A   1      33.092  26.626  22.439  1.00  0.00    -0.022 C 
ATOM     19  H   UNL A   1      32.155  28.894  22.022  1.00  0.00     0.061 H 
ATOM     20  C   UNL A   1      31.685  25.849  25.389  1.00  0.00    -0.019 C 
ATOM     21  C   UNL A   1      30.352  26.541  25.738  1.00  0.00    -0.040 C 
ATOM     22  C   UNL A   1      32.580  25.325  23.799  1.00  0.00    -0.027 C 
ATOM     23  H   UNL A   1      34.137  26.492  22.254  1.00  0.00     0.030 H 
ATOM     24  H   UNL A   1      32.432  26.419  21.624  1.00  0.00     0.030 H 
ATOM     25  C   UNL A   1      32.144  24.835  26.452  1.00  0.00    -0.046 C 
ATOM     26  H   UNL A   1      29.897  26.288  26.673  1.00  0.00     0.028 H 
ATOM     27  H   UNL A   1      29.427  26.505  25.200  1.00  0.00     0.028 H 
ATOM     28  C   UNL A   1      32.235  23.815  23.484  1.00  0.00    -0.023 C 
ATOM     29  H   UNL A   1      33.640  25.354  23.943  1.00  0.00     0.032 H 
ATOM     30  C   UNL A   1      31.912  23.387  26.003  1.00  0.00    -0.046 C 
ATOM     31  H   UNL A   1      31.595  25.009  27.354  1.00  0.00     0.027 H 
ATOM     32  H   UNL A   1      33.195  24.970  26.606  1.00  0.00     0.027 H 
ATOM     33  C   UNL A   1      32.682  22.897  24.730  1.00  0.00    -0.024 C 
ATOM     34  C   UNL A   1      33.187  23.328  22.397  1.00  0.00    -0.047 C 
ATOM     35  H   UNL A   1      30.866  23.274  25.809  1.00  0.00     0.027 H 
ATOM     36  H   UNL A   1      32.295  22.787  26.802  1.00  0.00     0.027 H 
ATOM     37  C   UNL A   1      34.252  23.063  24.657  1.00  0.00    -0.033 C 
ATOM     38  C   UNL A   1      34.540  23.161  23.117  1.00  0.00    -0.049 C 
ATOM     39  H   UNL A   1      32.855  22.395  21.993  1.00  0.00     0.027 H 
ATOM     40  H   UNL A   1      33.246  24.007  21.572  1.00  0.00     0.027 H 
ATOM     41  H   UNL A   1      34.447  23.904  25.291  1.00  0.00     0.031 H 
ATOM     42  H   UNL A   1      35.024  22.269  22.780  1.00  0.00     0.027 H 
ATOM     43  H   UNL A   1      35.180  23.992  22.908  1.00  0.00     0.027 H 
BRANCH  15  44
ATOM     44  C   UNL A   1      30.515  29.982  24.161  1.00  0.00    -0.085 C 
ATOM     45  C   UNL A   1      29.476  29.769  23.337  1.00  0.00    -0.103 C 
ATOM     46  H   UNL A   1      28.716  30.465  23.275  1.00  0.00     0.053 H 
ATOM     47  H   UNL A   1      29.439  28.910  22.767  1.00  0.00     0.053 H 
ATOM     48  H   UNL A   1      30.488  30.861  24.702  1.00  0.00     0.057 H 
ENDBRANCH  15  44
BRANCH  16  49
ATOM     49  O   UNL A   1      34.098  29.228  22.749  1.00  0.00    -0.392 OA
ATOM     50  H   UNL A   1      34.807  28.572  22.830  1.00  0.00     0.210 HD
ENDBRANCH  16  49
BRANCH  28  51
ATOM     51  C   UNL A   1      30.756  23.613  23.126  1.00  0.00    -0.059 C 
ATOM     52  H   UNL A   1      30.248  23.156  23.948  1.00  0.00     0.024 H 
ATOM     53  H   UNL A   1      30.680  22.983  22.265  1.00  0.00     0.024 H 
ATOM     54  H   UNL A   1      30.308  24.562  22.914  1.00  0.00     0.024 H 
ENDBRANCH  28  51
BRANCH  33  55
ATOM     55  C   UNL A   1      32.356  21.392  24.562  1.00  0.00    -0.059 C 
ATOM     56  H   UNL A   1      31.530  21.280  23.889  1.00  0.00     0.024 H 
ATOM     57  H   UNL A   1      32.101  20.974  25.512  1.00  0.00     0.024 H 
ATOM     58  H   UNL A   1      33.211  20.884  24.165  1.00  0.00     0.024 H 
ENDBRANCH  33  55
BRANCH  37  59
ATOM     59  C   UNL A   1      35.327  22.334  25.511  1.00  0.00    -0.041 C 
ATOM     60  H   UNL A   1      35.300  21.366  25.055  1.00  0.00     0.030 H 
BRANCH  59  61
ATOM     61  C   UNL A   1      36.749  22.911  25.350  1.00  0.00    -0.047 C 
ATOM     62  H   UNL A   1      36.924  23.591  26.157  1.00  0.00     0.027 H 
ATOM     63  H   UNL A   1      36.775  23.380  24.388  1.00  0.00     0.027 H 
BRANCH  61  64
ATOM     64  C   UNL A   1      37.871  21.869  25.353  1.00  0.00    -0.035 C 
ATOM     65  H   UNL A   1      38.282  21.802  24.367  1.00  0.00     0.031 H 
ATOM     66  H   UNL A   1      37.453  20.935  25.664  1.00  0.00     0.031 H 
BRANCH  64  67
ATOM     67  C   UNL A   1      38.980  22.227  26.318  1.00  0.00    -0.086 C 
ATOM     68  C   UNL A   1      40.033  21.452  26.649  1.00  0.00    -0.080 C 
ATOM     69  H   UNL A   1      38.923  23.154  26.768  1.00  0.00     0.058 H 
BRANCH  68  70
ATOM     70  C   UNL A   1      41.104  21.936  27.590  1.00  0.00    -0.044 C 
ATOM     71  H   UNL A   1      41.479  21.109  28.158  1.00  0.00     0.028 H 
ATOM     72  H   UNL A   1      40.690  22.666  28.255  1.00  0.00     0.028 H 
ATOM     73  H   UNL A   1      41.901  22.375  27.030  1.00  0.00     0.028 H 
ENDBRANCH  68  70
BRANCH  68  74
ATOM     74  C   UNL A   1      40.234  20.056  26.126  1.00  0.00    -0.044 C 
ATOM     75  H   UNL A   1      39.290  19.649  25.828  1.00  0.00     0.028 H 
ATOM     76  H   UNL A   1      40.658  19.445  26.895  1.00  0.00     0.028 H 
ATOM     77  H   UNL A   1      40.894  20.081  25.285  1.00  0.00     0.028 H 
ENDBRANCH  68  74
ENDBRANCH  64  67
ENDBRANCH  61  64
ENDBRANCH  59  61
BRANCH  59  78
ATOM     78  C   UNL A   1      35.002  22.031  26.977  1.00  0.00    -0.062 C 
ATOM     79  H   UNL A   1      34.680  22.928  27.464  1.00  0.00     0.023 H 
ATOM     80  H   UNL A   1      35.876  21.654  27.465  1.00  0.00     0.023 H 
ATOM     81  H   UNL A   1      34.223  21.299  27.026  1.00  0.00     0.023 H 
ENDBRANCH  59  78
ENDBRANCH  37  59
ENDBRANCH  11  14
ENDBRANCH   8  11
ENDBRANCH   5   8
ENDBRANCH   1   4
BRANCH   1  82
ATOM     82  C   UNL A   1      38.241  29.263  27.789  1.00  0.00    -0.036 C 
ATOM     83  H   UNL A   1      38.563  29.810  28.650  1.00  0.00     0.028 H 
ATOM     84  H   UNL A   1      38.192  29.437  26.735  1.00  0.00     0.028 H 
BRANCH  82  85
ATOM     85  C   UNL A   1      39.513  28.085  27.626  1.00  0.00    -0.052 C 
ATOM     86  H   UNL A   1      40.417  28.655  27.651  1.00  0.00     0.027 H 
ATOM     87  H   UNL A   1      39.151  27.568  26.762  1.00  0.00     0.027 H 
BRANCH  85  88
ATOM     88  C   UNL A   1      39.788  26.867  28.538  1.00  0.00    -0.052 C 
ATOM     89  H   UNL A   1      38.950  26.736  29.189  1.00  0.00     0.027 H 
ATOM     90  H   UNL A   1      40.693  27.076  29.071  1.00  0.00     0.027 H 
BRANCH  88  91
ATOM     91  C   UNL A   1      40.014  25.566  27.776  1.00  0.00    -0.036 C 
ATOM     92  H   UNL A   1      39.176  24.920  27.937  1.00  0.00     0.028 H 
ATOM     93  H   UNL A   1      40.915  25.117  28.137  1.00  0.00     0.028 H 
BRANCH  91  94
ATOM     94  C   UNL A   1      40.166  25.815  26.290  1.00  0.00     0.018 C 
ATOM     95  H   UNL A   1      40.364  26.852  26.121  1.00  0.00     0.049 H 
ATOM     96  H   UNL A   1      39.262  25.534  25.791  1.00  0.00     0.049 H 
BRANCH  94  97
ATOM     97  N   UNL A   1      41.270  25.020  25.768  1.00  0.00    -0.352 N 
ATOM     98  C   UNL A   1      42.529  25.468  25.473  1.00  0.00     0.251 C 
ATOM     99  H   UNL A   1      41.093  24.065  25.613  1.00  0.00     0.163 HD
ATOM    100  O   UNL A   1      43.302  24.836  24.776  1.00  0.00    -0.269 OA
BRANCH  98 101
ATOM    101  C   UNL A   1      42.898  26.764  26.055  1.00  0.00     0.039 A 
ATOM    102  C   UNL A   1      42.428  27.939  25.472  1.00  0.00    -0.049 A 
ATOM    103  C   UNL A   1      43.598  26.766  27.266  1.00  0.00    -0.049 A 
ATOM    104  C   UNL A   1      42.663  29.143  26.125  1.00  0.00    -0.053 A 
ATOM    105  H   UNL A   1      41.917  27.914  24.576  1.00  0.00     0.063 H 
ATOM    106  C   UNL A   1      43.748  27.953  27.954  1.00  0.00    -0.053 A 
ATOM    107  H   UNL A   1      43.997  25.891  27.640  1.00  0.00     0.063 H 
ATOM    108  C   UNL A   1      43.312  29.152  27.373  1.00  0.00    -0.014 A 
ATOM    109  H   UNL A   1      42.360  30.030  25.694  1.00  0.00     0.063 H 
ATOM    110  H   UNL A   1      44.179  27.959  28.892  1.00  0.00     0.063 H 
BRANCH 108 111
ATOM    111  C   UNL A   1      43.613  30.420  28.065  1.00  0.00     0.031 A 
ATOM    112  C   UNL A   1      42.664  30.910  29.120  1.00  0.00     0.074 A 
ATOM    113  C   UNL A   1      44.688  31.141  27.699  1.00  0.00     0.049 A 
ATOM    114  N   UNL A   1      42.687  32.026  29.799  1.00  0.00    -0.248 NA
ATOM    115  C   UNL A   1      41.510  30.046  29.428  1.00  0.00    -0.034 C 
ATOM    116  C   UNL A   1      45.635  30.773  26.644  1.00  0.00    -0.036 A 
ATOM    117  N   UNL A   1      45.157  32.338  28.167  1.00  0.00    -0.354 N 
ATOM    118  C   UNL A   1      41.547  32.005  30.591  1.00  0.00     0.074 A 
ATOM    119  C   UNL A   1      40.818  30.802  30.265  1.00  0.00    -0.034 C 
ATOM    120  H   UNL A   1      41.296  29.098  29.079  1.00  0.00     0.065 H 
ATOM    121  C   UNL A   1      46.586  31.718  26.562  1.00  0.00    -0.036 A 
ATOM    122  H   UNL A   1      45.580  29.926  26.058  1.00  0.00     0.065 H 
ATOM    123  C   UNL A   1      46.293  32.771  27.528  1.00  0.00     0.049 A 
ATOM    124  H   UNL A   1      44.723  32.842  28.893  1.00  0.00     0.167 HD
ATOM    125  C   UNL A   1      41.163  32.898  31.529  1.00  0.00     0.037 A 
ATOM    126  H   UNL A   1      39.884  30.564  30.635  1.00  0.00     0.065 H 
ATOM    127  H   UNL A   1      47.394  31.701  25.919  1.00  0.00     0.065 H 
ATOM    128  C   UNL A   1      47.004  33.900  27.704  1.00  0.00     0.037 A 
ATOM    129  C   UNL A   1      41.924  34.070  31.867  1.00  0.00     0.049 A 
ATOM    130  C   UNL A   1      46.557  34.873  28.763  1.00  0.00     0.074 A 
ATOM    131  C   UNL A   1      41.674  35.006  32.854  1.00  0.00    -0.036 A 
ATOM    132  N   UNL A   1      43.086  34.464  31.220  1.00  0.00    -0.354 N 
ATOM    133  N   UNL A   1      45.524  34.804  29.570  1.00  0.00    -0.248 NA
ATOM    134  C   UNL A   1      47.378  36.076  28.944  1.00  0.00    -0.034 C 
ATOM    135  C   UNL A   1      42.654  35.998  32.765  1.00  0.00    -0.036 A 
ATOM    136  H   UNL A   1      40.901  34.975  33.535  1.00  0.00     0.065 H 
ATOM    137  C   UNL A   1      43.550  35.649  31.767  1.00  0.00     0.049 A 
ATOM    138  H   UNL A   1      43.518  33.975  30.482  1.00  0.00     0.167 HD
ATOM    139  C   UNL A   1      45.586  35.937  30.368  1.00  0.00     0.074 A 
ATOM    140  C   UNL A   1      46.771  36.665  29.964  1.00  0.00    -0.034 C 
ATOM    141  H   UNL A   1      48.210  36.383  28.416  1.00  0.00     0.065 H 
ATOM    142  H   UNL A   1      42.702  36.849  33.346  1.00  0.00     0.065 H 
ATOM    143  C   UNL A   1      44.738  36.346  31.344  1.00  0.00     0.037 A 
ATOM    144  H   UNL A   1      47.101  37.533  30.414  1.00  0.00     0.065 H 
BRANCH 125 145
ATOM    145  C   UNL A   1      39.875  32.643  32.256  1.00  0.00     0.064 A 
ATOM    146  C   UNL A   1      39.829  31.888  33.438  1.00  0.00     0.173 A 
ATOM    147  C   UNL A   1      38.676  33.196  31.783  1.00  0.00     0.173 A 
ATOM    148  F   UNL A   1      40.945  31.322  33.923  1.00  0.00    -0.203 F 
ATOM    149  C   UNL A   1      38.626  31.679  34.108  1.00  0.00     0.198 A 
ATOM    150  C   UNL A   1      37.481  33.011  32.474  1.00  0.00     0.198 A 
ATOM    151  F   UNL A   1      38.662  33.923  30.656  1.00  0.00    -0.203 F 
ATOM    152  F   UNL A   1      38.599  30.915  35.209  1.00  0.00    -0.200 F 
ATOM    153  C   UNL A   1      37.456  32.248  33.631  1.00  0.00     0.200 A 
ATOM    154  F   UNL A   1      36.352  33.573  32.017  1.00  0.00    -0.200 F 
ATOM    155  F   UNL A   1      36.302  32.058  34.286  1.00  0.00    -0.200 F 
ENDBRANCH 125 145
BRANCH 128 156
ATOM    156  C   UNL A   1      48.206  34.166  26.872  1.00  0.00     0.064 A 
ATOM    157  C   UNL A   1      49.432  33.547  27.152  1.00  0.00     0.173 A 
ATOM    158  C   UNL A   1      48.161  35.058  25.789  1.00  0.00     0.173 A 
ATOM    159  F   UNL A   1      49.533  32.697  28.184  1.00  0.00    -0.203 F 
ATOM    160  C   UNL A   1      50.573  33.834  26.404  1.00  0.00     0.198 A 
ATOM    161  C   UNL A   1      49.294  35.319  25.021  1.00  0.00     0.198 A 
ATOM    162  F   UNL A   1      47.011  35.669  25.470  1.00  0.00    -0.203 F 
ATOM    163  F   UNL A   1      51.745  33.274  26.732  1.00  0.00    -0.200 F 
ATOM    164  C   UNL A   1      50.503  34.717  25.337  1.00  0.00     0.200 A 
ATOM    165  F   UNL A   1      49.215  36.157  23.979  1.00  0.00    -0.200 F 
ATOM    166  F   UNL A   1      51.599  34.994  24.619  1.00  0.00    -0.200 F 
ENDBRANCH 128 156
BRANCH 143 167
ATOM    167  C   UNL A   1      45.081  37.619  32.060  1.00  0.00     0.064 A 
ATOM    168  C   UNL A   1      45.941  37.631  33.168  1.00  0.00     0.173 A 
ATOM    169  C   UNL A   1      44.580  38.847  31.602  1.00  0.00     0.173 A 
ATOM    170  F   UNL A   1      46.436  36.481  33.652  1.00  0.00    -0.203 F 
ATOM    171  C   UNL A   1      46.262  38.823  33.810  1.00  0.00     0.198 A 
ATOM    172  C   UNL A   1      44.933  40.041  32.223  1.00  0.00     0.198 A 
ATOM    173  F   UNL A   1      43.763  38.890  30.539  1.00  0.00    -0.203 F 
ATOM    174  F   UNL A   1      47.042  38.805  34.900  1.00  0.00    -0.200 F 
ATOM    175  C   UNL A   1      45.765  40.028  33.332  1.00  0.00     0.200 A 
ATOM    176  F   UNL A   1      44.468  41.205  31.748  1.00  0.00    -0.200 F 
ATOM    177  F   UNL A   1      46.085  41.175  33.944  1.00  0.00    -0.200 F 
ENDBRANCH 143 167
ENDBRANCH 108 111
ENDBRANCH  98 101
ENDBRANCH  94  97
ENDBRANCH  91  94
ENDBRANCH  88  91
ENDBRANCH  85  88
ENDBRANCH  82  85
ENDBRANCH   1  82
TORSDOF 26
ENDMDL
MODEL 5
REMARK VINA RESULT:     -11.9      7.349     10.715
REMARK SMILES C=C[C@@H]1[C@@H](O)C[C@H]2[C@]3(CC[C@]4(C)[C@@H]([C@H](C)CCC=C(C)C)CC[C@]24C)C[C@]13CCC(=O)NCCCCCCNC(=O)c1ccc(-c2c3nc(c(-c4c(F)c(F)c(F)c(F)c4F)c4ccc([nH]4)c(-c4c(F)c(F)c(F)c(F)c4F)c4nc(c(-c5c(F)c(F)c(F)c(F)c5F)c5ccc2[nH]5)C=C4)C=C3)cc1
REMARK SMILES IDX 33 1 32 4 30 5 31 6 29 8 28 11 27 14 3 15 4 16 6 18 8 20
REMARK SMILES IDX 26 21 7 22 9 25 24 28 10 30 11 33 23 34 13 37 22 38 2 44
REMARK SMILES IDX 1 45 5 49 25 51 12 55 14 59 16 61 17 64 18 67 19 68 20 70
REMARK SMILES IDX 21 74 15 78 34 82 35 85 36 88 37 91 38 94 39 97 40 98 41 100
REMARK SMILES IDX 42 101 43 102 104 103 44 104 103 106 45 108 46 111 47 112
REMARK SMILES IDX 97 113 48 114 102 115 96 116 98 117 49 118 101 119 95 121
REMARK SMILES IDX 94 123 50 125 82 128 62 129 81 130 63 131 66 132 80 133
REMARK SMILES IDX 99 134 64 135 65 137 79 139 100 140 67 143 51 145 52 146
REMARK SMILES IDX 60 147 53 148 54 149 58 150 61 151 55 152 56 153 59 154
REMARK SMILES IDX 57 155 83 156 84 157 92 158 85 159 86 160 90 161 93 162
REMARK SMILES IDX 87 163 88 164 91 165 89 166 68 167 69 168 77 169 70 170
REMARK SMILES IDX 71 171 75 172 78 173 72 174 73 175 76 176 74 177
REMARK H PARENT 33 2 33 3 32 7 29 9 29 10 28 12 28 13 3 17 4 19 6 23 6 24
REMARK H PARENT 26 26 26 27 7 29 9 31 9 32 10 35 10 36 23 39 23 40 13 41 22 42
REMARK H PARENT 22 43 1 46 1 47 2 48 5 50 25 52 25 53 25 54 12 56 12 57 12 58
REMARK H PARENT 14 60 16 62 16 63 17 65 17 66 18 69 20 71 20 72 20 73 21 75
REMARK H PARENT 21 76 21 77 15 79 15 80 15 81 34 83 34 84 35 86 35 87 36 89
REMARK H PARENT 36 90 37 92 37 93 38 95 38 96 39 99 43 105 104 107 44 109
REMARK H PARENT 103 110 102 120 96 122 98 124 101 126 95 127 63 136 66 138
REMARK H PARENT 99 141 64 142 100 144
REMARK Flexibility Score: inf
ROOT
ATOM      1  C   UNL A   1      36.205  29.459  27.817  1.00  0.00     0.017 C 
ATOM      2  H   UNL A   1      36.026  28.554  27.277  1.00  0.00     0.049 H 
ATOM      3  H   UNL A   1      36.122  29.687  28.860  1.00  0.00     0.049 H 
ENDROOT
BRANCH   1   4
ATOM      4  N   UNL A   1      35.049  30.341  27.393  1.00  0.00    -0.356 N 
ATOM      5  C   UNL A   1      33.733  30.013  27.266  1.00  0.00     0.220 C 
ATOM      6  O   UNL A   1      32.877  30.892  27.202  1.00  0.00    -0.275 OA
ATOM      7  H   UNL A   1      35.280  31.273  27.180  1.00  0.00     0.163 HD
BRANCH   5   8
ATOM      8  C   UNL A   1      33.401  28.548  27.217  1.00  0.00     0.027 C 
ATOM      9  H   UNL A   1      33.886  28.114  26.368  1.00  0.00     0.037 H 
ATOM     10  H   UNL A   1      33.739  28.107  28.131  1.00  0.00     0.037 H 
BRANCH   8  11
ATOM     11  C   UNL A   1      31.899  28.293  27.106  1.00  0.00    -0.038 C 
ATOM     12  H   UNL A   1      31.626  27.573  27.849  1.00  0.00     0.028 H 
ATOM     13  H   UNL A   1      31.415  29.237  27.246  1.00  0.00     0.028 H 
BRANCH  11  14
ATOM     14  C   UNL A   1      31.451  27.764  25.733  1.00  0.00    -0.014 C 
ATOM     15  C   UNL A   1      31.765  29.156  24.396  1.00  0.00     0.009 C 
ATOM     16  C   UNL A   1      32.818  28.642  22.784  1.00  0.00     0.061 C 
ATOM     17  H   UNL A   1      32.487  29.797  24.857  1.00  0.00     0.038 H 
ATOM     18  C   UNL A   1      33.086  26.710  22.409  1.00  0.00    -0.022 C 
ATOM     19  H   UNL A   1      32.161  28.987  22.013  1.00  0.00     0.061 H 
ATOM     20  C   UNL A   1      31.693  25.922  25.363  1.00  0.00    -0.019 C 
ATOM     21  C   UNL A   1      30.366  26.620  25.724  1.00  0.00    -0.040 C 
ATOM     22  C   UNL A   1      32.574  25.403  23.763  1.00  0.00    -0.027 C 
ATOM     23  H   UNL A   1      34.129  26.571  22.216  1.00  0.00     0.030 H 
ATOM     24  H   UNL A   1      32.419  26.513  21.596  1.00  0.00     0.030 H 
ATOM     25  C   UNL A   1      32.152  24.897  26.415  1.00  0.00    -0.046 C 
ATOM     26  H   UNL A   1      29.916  26.363  26.661  1.00  0.00     0.028 H 
ATOM     27  H   UNL A   1      29.438  26.593  25.193  1.00  0.00     0.028 H 
ATOM     28  C   UNL A   1      32.218  23.898  23.440  1.00  0.00    -0.023 C 
ATOM     29  H   UNL A   1      33.635  25.425  23.900  1.00  0.00     0.032 H 
ATOM     30  C   UNL A   1      31.908  23.454  25.958  1.00  0.00    -0.046 C 
ATOM     31  H   UNL A   1      31.611  25.068  27.322  1.00  0.00     0.027 H 
ATOM     32  H   UNL A   1      33.205  25.025  26.563  1.00  0.00     0.027 H 
ATOM     33  C   UNL A   1      32.666  22.968  24.677  1.00  0.00    -0.024 C 
ATOM     34  C   UNL A   1      33.159  23.412  22.343  1.00  0.00    -0.047 C 
ATOM     35  H   UNL A   1      30.860  23.349  25.770  1.00  0.00     0.027 H 
ATOM     36  H   UNL A   1      32.292  22.846  26.750  1.00  0.00     0.027 H 
ATOM     37  C   UNL A   1      34.237  23.125  24.595  1.00  0.00    -0.033 C 
ATOM     38  C   UNL A   1      34.516  23.232  23.054  1.00  0.00    -0.049 C 
ATOM     39  H   UNL A   1      32.819  22.484  21.935  1.00  0.00     0.027 H 
ATOM     40  H   UNL A   1      33.217  24.097  21.522  1.00  0.00     0.027 H 
ATOM     41  H   UNL A   1      34.441  23.960  25.233  1.00  0.00     0.031 H 
ATOM     42  H   UNL A   1      34.992  22.339  22.707  1.00  0.00     0.027 H 
ATOM     43  H   UNL A   1      35.160  24.060  22.846  1.00  0.00     0.027 H 
BRANCH  15  44
ATOM     44  C   UNL A   1      30.542  30.070  24.170  1.00  0.00    -0.085 C 
ATOM     45  C   UNL A   1      29.405  29.788  23.513  1.00  0.00    -0.103 C 
ATOM     46  H   UNL A   1      28.662  30.500  23.438  1.00  0.00     0.053 H 
ATOM     47  H   UNL A   1      29.277  28.859  23.082  1.00  0.00     0.053 H 
ATOM     48  H   UNL A   1      30.604  31.017  24.577  1.00  0.00     0.057 H 
ENDBRANCH  15  44
BRANCH  16  49
ATOM     49  O   UNL A   1      34.110  29.304  22.730  1.00  0.00    -0.392 OA
ATOM     50  H   UNL A   1      34.815  28.649  22.855  1.00  0.00     0.210 HD
ENDBRANCH  16  49
BRANCH  28  51
ATOM     51  C   UNL A   1      30.735  23.708  23.090  1.00  0.00    -0.059 C 
ATOM     52  H   UNL A   1      30.196  23.417  23.966  1.00  0.00     0.024 H 
ATOM     53  H   UNL A   1      30.639  22.948  22.343  1.00  0.00     0.024 H 
ATOM     54  H   UNL A   1      30.336  24.628  22.715  1.00  0.00     0.024 H 
ENDBRANCH  28  51
BRANCH  33  55
ATOM     55  C   UNL A   1      32.330  21.467  24.500  1.00  0.00    -0.059 C 
ATOM     56  H   UNL A   1      31.267  21.338  24.498  1.00  0.00     0.024 H 
ATOM     57  H   UNL A   1      32.756  20.908  25.306  1.00  0.00     0.024 H 
ATOM     58  H   UNL A   1      32.733  21.117  23.571  1.00  0.00     0.024 H 
ENDBRANCH  33  55
BRANCH  37  59
ATOM     59  C   UNL A   1      35.313  22.383  25.437  1.00  0.00    -0.041 C 
ATOM     60  H   UNL A   1      34.772  22.248  26.351  1.00  0.00     0.030 H 
BRANCH  59  61
ATOM     61  C   UNL A   1      35.688  20.992  24.882  1.00  0.00    -0.047 C 
ATOM     62  H   UNL A   1      36.701  20.787  25.161  1.00  0.00     0.027 H 
ATOM     63  H   UNL A   1      35.543  21.042  23.823  1.00  0.00     0.027 H 
BRANCH  61  64
ATOM     64  C   UNL A   1      34.813  19.840  25.384  1.00  0.00    -0.035 C 
ATOM     65  H   UNL A   1      33.807  20.190  25.484  1.00  0.00     0.031 H 
ATOM     66  H   UNL A   1      35.205  19.514  26.325  1.00  0.00     0.031 H 
BRANCH  64  67
ATOM     67  C   UNL A   1      34.827  18.659  24.439  1.00  0.00    -0.086 C 
ATOM     68  C   UNL A   1      33.908  17.673  24.378  1.00  0.00    -0.080 C 
ATOM     69  H   UNL A   1      35.617  18.602  23.778  1.00  0.00     0.058 H 
BRANCH  68  70
ATOM     70  C   UNL A   1      34.002  16.569  23.359  1.00  0.00    -0.044 C 
ATOM     71  H   UNL A   1      33.261  16.718  22.601  1.00  0.00     0.028 H 
ATOM     72  H   UNL A   1      33.836  15.627  23.839  1.00  0.00     0.028 H 
ATOM     73  H   UNL A   1      34.974  16.576  22.913  1.00  0.00     0.028 H 
ENDBRANCH  68  70
BRANCH  68  74
ATOM     74  C   UNL A   1      32.729  17.578  25.306  1.00  0.00    -0.044 C 
ATOM     75  H   UNL A   1      32.876  16.767  25.988  1.00  0.00     0.028 H 
ATOM     76  H   UNL A   1      31.839  17.406  24.737  1.00  0.00     0.028 H 
ATOM     77  H   UNL A   1      32.631  18.492  25.854  1.00  0.00     0.028 H 
ENDBRANCH  68  74
ENDBRANCH  64  67
ENDBRANCH  61  64
ENDBRANCH  59  61
BRANCH  59  78
ATOM     78  C   UNL A   1      36.550  23.167  25.882  1.00  0.00    -0.062 C 
ATOM     79  H   UNL A   1      36.616  24.077  25.324  1.00  0.00     0.023 H 
ATOM     80  H   UNL A   1      37.426  22.578  25.710  1.00  0.00     0.023 H 
ATOM     81  H   UNL A   1      36.472  23.393  26.926  1.00  0.00     0.023 H 
ENDBRANCH  59  78
ENDBRANCH  37  59
ENDBRANCH  11  14
ENDBRANCH   8  11
ENDBRANCH   5   8
ENDBRANCH   1   4
BRANCH   1  82
ATOM     82  C   UNL A   1      38.299  29.639  27.751  1.00  0.00    -0.036 C 
ATOM     83  H   UNL A   1      38.458  30.526  28.328  1.00  0.00     0.028 H 
ATOM     84  H   UNL A   1      38.345  29.369  26.717  1.00  0.00     0.028 H 
BRANCH  82  85
ATOM     85  C   UNL A   1      39.716  28.707  28.148  1.00  0.00    -0.052 C 
ATOM     86  H   UNL A   1      39.428  28.121  28.995  1.00  0.00     0.027 H 
ATOM     87  H   UNL A   1      40.433  29.500  28.181  1.00  0.00     0.027 H 
BRANCH  85  88
ATOM     88  C   UNL A   1      40.482  27.725  27.232  1.00  0.00    -0.052 C 
ATOM     89  H   UNL A   1      41.490  27.651  27.584  1.00  0.00     0.027 H 
ATOM     90  H   UNL A   1      40.423  28.117  26.238  1.00  0.00     0.027 H 
BRANCH  88  91
ATOM     91  C   UNL A   1      39.883  26.324  27.193  1.00  0.00    -0.036 C 
ATOM     92  H   UNL A   1      39.995  25.926  26.207  1.00  0.00     0.028 H 
ATOM     93  H   UNL A   1      38.849  26.393  27.459  1.00  0.00     0.028 H 
BRANCH  91  94
ATOM     94  C   UNL A   1      40.568  25.401  28.179  1.00  0.00     0.018 C 
ATOM     95  H   UNL A   1      39.931  25.247  29.024  1.00  0.00     0.049 H 
ATOM     96  H   UNL A   1      41.489  25.846  28.496  1.00  0.00     0.049 H 
BRANCH  94  97
ATOM     97  N   UNL A   1      40.846  24.120  27.543  1.00  0.00    -0.352 N 
ATOM     98  C   UNL A   1      41.853  23.852  26.655  1.00  0.00     0.251 C 
ATOM     99  H   UNL A   1      40.250  23.372  27.775  1.00  0.00     0.163 HD
ATOM    100  O   UNL A   1      41.854  22.862  25.946  1.00  0.00    -0.269 OA
BRANCH  98 101
ATOM    101  C   UNL A   1      42.943  24.833  26.612  1.00  0.00     0.039 A 
ATOM    102  C   UNL A   1      43.113  25.624  25.479  1.00  0.00    -0.049 A 
ATOM    103  C   UNL A   1      43.691  25.037  27.777  1.00  0.00    -0.049 A 
ATOM    104  C   UNL A   1      44.052  26.647  25.518  1.00  0.00    -0.053 A 
ATOM    105  H   UNL A   1      42.553  25.454  24.629  1.00  0.00     0.063 H 
ATOM    106  C   UNL A   1      44.556  26.111  27.841  1.00  0.00    -0.053 A 
ATOM    107  H   UNL A   1      43.597  24.393  28.578  1.00  0.00     0.063 H 
ATOM    108  C   UNL A   1      44.767  26.902  26.702  1.00  0.00    -0.014 A 
ATOM    109  H   UNL A   1      44.225  27.222  24.678  1.00  0.00     0.063 H 
ATOM    110  H   UNL A   1      45.046  26.332  28.723  1.00  0.00     0.063 H 
BRANCH 108 111
ATOM    111  C   UNL A   1      45.802  27.952  26.757  1.00  0.00     0.031 A 
ATOM    112  C   UNL A   1      45.380  29.368  27.028  1.00  0.00     0.074 A 
ATOM    113  C   UNL A   1      47.084  27.639  26.503  1.00  0.00     0.049 A 
ATOM    114  N   UNL A   1      46.102  30.457  27.044  1.00  0.00    -0.248 NA
ATOM    115  C   UNL A   1      43.945  29.598  27.275  1.00  0.00    -0.034 C 
ATOM    116  C   UNL A   1      47.580  26.301  26.173  1.00  0.00    -0.036 A 
ATOM    117  N   UNL A   1      48.203  28.427  26.472  1.00  0.00    -0.354 N 
ATOM    118  C   UNL A   1      45.209  31.493  27.282  1.00  0.00     0.074 A 
ATOM    119  C   UNL A   1      43.886  30.918  27.336  1.00  0.00    -0.034 C 
ATOM    120  H   UNL A   1      43.184  28.907  27.374  1.00  0.00     0.065 H 
ATOM    121  C   UNL A   1      48.910  26.359  25.995  1.00  0.00    -0.036 A 
ATOM    122  H   UNL A   1      47.001  25.451  26.090  1.00  0.00     0.065 H 
ATOM    123  C   UNL A   1      49.350  27.741  26.158  1.00  0.00     0.049 A 
ATOM    124  H   UNL A   1      48.188  29.394  26.657  1.00  0.00     0.167 HD
ATOM    125  C   UNL A   1      45.479  32.804  27.467  1.00  0.00     0.037 A 
ATOM    126  H   UNL A   1      43.012  31.462  27.413  1.00  0.00     0.065 H 
ATOM    127  H   UNL A   1      49.521  25.556  25.777  1.00  0.00     0.065 H 
ATOM    128  C   UNL A   1      50.611  28.189  26.013  1.00  0.00     0.037 A 
ATOM    129  C   UNL A   1      46.808  33.351  27.448  1.00  0.00     0.049 A 
ATOM    130  C   UNL A   1      50.882  29.654  26.235  1.00  0.00     0.074 A 
ATOM    131  C   UNL A   1      47.209  34.649  27.701  1.00  0.00    -0.036 A 
ATOM    132  N   UNL A   1      47.952  32.622  27.158  1.00  0.00    -0.354 N 
ATOM    133  N   UNL A   1      50.044  30.615  26.545  1.00  0.00    -0.248 NA
ATOM    134  C   UNL A   1      52.275  30.096  26.097  1.00  0.00    -0.034 C 
ATOM    135  C   UNL A   1      48.591  34.719  27.505  1.00  0.00    -0.036 A 
ATOM    136  H   UNL A   1      46.596  35.429  27.985  1.00  0.00     0.065 H 
ATOM    137  C   UNL A   1      49.060  33.452  27.193  1.00  0.00     0.049 A 
ATOM    138  H   UNL A   1      47.973  31.658  26.955  1.00  0.00     0.167 HD
ATOM    139  C   UNL A   1      50.809  31.766  26.663  1.00  0.00     0.074 A 
ATOM    140  C   UNL A   1      52.182  31.379  26.415  1.00  0.00    -0.034 C 
ATOM    141  H   UNL A   1      53.108  29.551  25.824  1.00  0.00     0.065 H 
ATOM    142  H   UNL A   1      49.167  35.572  27.580  1.00  0.00     0.065 H 
ATOM    143  C   UNL A   1      50.415  33.033  26.946  1.00  0.00     0.037 A 
ATOM    144  H   UNL A   1      52.987  32.022  26.477  1.00  0.00     0.065 H 
BRANCH 125 145
ATOM    145  C   UNL A   1      44.323  33.730  27.711  1.00  0.00     0.064 A 
ATOM    146  C   UNL A   1      43.721  33.846  28.973  1.00  0.00     0.173 A 
ATOM    147  C   UNL A   1      43.838  34.542  26.676  1.00  0.00     0.173 A 
ATOM    148  F   UNL A   1      44.135  33.079  29.993  1.00  0.00    -0.203 F 
ATOM    149  C   UNL A   1      42.662  34.726  29.183  1.00  0.00     0.198 A 
ATOM    150  C   UNL A   1      42.801  35.444  26.898  1.00  0.00     0.198 A 
ATOM    151  F   UNL A   1      44.375  34.469  25.448  1.00  0.00    -0.203 F 
ATOM    152  F   UNL A   1      42.072  34.786  30.385  1.00  0.00    -0.200 F 
ATOM    153  C   UNL A   1      42.210  35.531  28.149  1.00  0.00     0.200 A 
ATOM    154  F   UNL A   1      42.373  36.230  25.900  1.00  0.00    -0.200 F 
ATOM    155  F   UNL A   1      41.200  36.388  28.358  1.00  0.00    -0.200 F 
ENDBRANCH 125 145
BRANCH 128 156
ATOM    156  C   UNL A   1      51.703  27.250  25.649  1.00  0.00     0.064 A 
ATOM    157  C   UNL A   1      52.433  26.571  26.634  1.00  0.00     0.173 A 
ATOM    158  C   UNL A   1      52.053  27.022  24.309  1.00  0.00     0.173 A 
ATOM    159  F   UNL A   1      52.148  26.763  27.931  1.00  0.00    -0.203 F 
ATOM    160  C   UNL A   1      53.492  25.729  26.297  1.00  0.00     0.198 A 
ATOM    161  C   UNL A   1      53.090  26.154  23.971  1.00  0.00     0.198 A 
ATOM    162  F   UNL A   1      51.381  27.637  23.325  1.00  0.00    -0.203 F 
ATOM    163  F   UNL A   1      54.211  25.140  27.263  1.00  0.00    -0.200 F 
ATOM    164  C   UNL A   1      53.817  25.518  24.966  1.00  0.00     0.200 A 
ATOM    165  F   UNL A   1      53.387  25.939  22.683  1.00  0.00    -0.200 F 
ATOM    166  F   UNL A   1      54.835  24.710  24.641  1.00  0.00    -0.200 F 
ENDBRANCH 128 156
BRANCH 143 167
ATOM    167  C   UNL A   1      51.487  34.080  27.032  1.00  0.00     0.064 A 
ATOM    168  C   UNL A   1      51.837  34.866  25.925  1.00  0.00     0.173 A 
ATOM    169  C   UNL A   1      52.137  34.330  28.250  1.00  0.00     0.173 A 
ATOM    170  F   UNL A   1      51.252  34.657  24.735  1.00  0.00    -0.203 F 
ATOM    171  C   UNL A   1      52.822  35.845  26.026  1.00  0.00     0.198 A 
ATOM    172  C   UNL A   1      53.095  35.334  28.357  1.00  0.00     0.198 A 
ATOM    173  F   UNL A   1      51.830  33.613  29.341  1.00  0.00    -0.203 F 
ATOM    174  F   UNL A   1      53.178  36.547  24.942  1.00  0.00    -0.200 F 
ATOM    175  C   UNL A   1      53.443  36.083  27.244  1.00  0.00     0.200 A 
ATOM    176  F   UNL A   1      53.680  35.576  29.538  1.00  0.00    -0.200 F 
ATOM    177  F   UNL A   1      54.382  37.033  27.342  1.00  0.00    -0.200 F 
ENDBRANCH 143 167
ENDBRANCH 108 111
ENDBRANCH  98 101
ENDBRANCH  94  97
ENDBRANCH  91  94
ENDBRANCH  88  91
ENDBRANCH  85  88
ENDBRANCH  82  85
ENDBRANCH   1  82
TORSDOF 26
ENDMDL
MODEL 6
REMARK VINA RESULT:     -11.6      2.889      7.486
REMARK SMILES C=C[C@@H]1[C@@H](O)C[C@H]2[C@]3(CC[C@]4(C)[C@@H]([C@H](C)CCC=C(C)C)CC[C@]24C)C[C@]13CCC(=O)NCCCCCCNC(=O)c1ccc(-c2c3nc(c(-c4c(F)c(F)c(F)c(F)c4F)c4ccc([nH]4)c(-c4c(F)c(F)c(F)c(F)c4F)c4nc(c(-c5c(F)c(F)c(F)c(F)c5F)c5ccc2[nH]5)C=C4)C=C3)cc1
REMARK SMILES IDX 33 1 32 4 30 5 31 6 29 8 28 11 27 14 3 15 4 16 6 18 8 20
REMARK SMILES IDX 26 21 7 22 9 25 24 28 10 30 11 33 23 34 13 37 22 38 2 44
REMARK SMILES IDX 1 45 5 49 25 51 12 55 14 59 16 61 17 64 18 67 19 68 20 70
REMARK SMILES IDX 21 74 15 78 34 82 35 85 36 88 37 91 38 94 39 97 40 98 41 100
REMARK SMILES IDX 42 101 43 102 104 103 44 104 103 106 45 108 46 111 47 112
REMARK SMILES IDX 97 113 48 114 102 115 96 116 98 117 49 118 101 119 95 121
REMARK SMILES IDX 94 123 50 125 82 128 62 129 81 130 63 131 66 132 80 133
REMARK SMILES IDX 99 134 64 135 65 137 79 139 100 140 67 143 51 145 52 146
REMARK SMILES IDX 60 147 53 148 54 149 58 150 61 151 55 152 56 153 59 154
REMARK SMILES IDX 57 155 83 156 84 157 92 158 85 159 86 160 90 161 93 162
REMARK SMILES IDX 87 163 88 164 91 165 89 166 68 167 69 168 77 169 70 170
REMARK SMILES IDX 71 171 75 172 78 173 72 174 73 175 76 176 74 177
REMARK H PARENT 33 2 33 3 32 7 29 9 29 10 28 12 28 13 3 17 4 19 6 23 6 24
REMARK H PARENT 26 26 26 27 7 29 9 31 9 32 10 35 10 36 23 39 23 40 13 41 22 42
REMARK H PARENT 22 43 1 46 1 47 2 48 5 50 25 52 25 53 25 54 12 56 12 57 12 58
REMARK H PARENT 14 60 16 62 16 63 17 65 17 66 18 69 20 71 20 72 20 73 21 75
REMARK H PARENT 21 76 21 77 15 79 15 80 15 81 34 83 34 84 35 86 35 87 36 89
REMARK H PARENT 36 90 37 92 37 93 38 95 38 96 39 99 43 105 104 107 44 109
REMARK H PARENT 103 110 102 120 96 122 98 124 101 126 95 127 63 136 66 138
REMARK H PARENT 99 141 64 142 100 144
REMARK Flexibility Score: inf
ROOT
ATOM      1  C   UNL A   1      36.638  29.406  27.584  1.00  0.00     0.017 C 
ATOM      2  H   UNL A   1      36.459  28.606  26.898  1.00  0.00     0.049 H 
ATOM      3  H   UNL A   1      36.575  29.448  28.652  1.00  0.00     0.049 H 
ENDROOT
BRANCH   1   4
ATOM      4  N   UNL A   1      35.462  30.330  27.343  1.00  0.00    -0.356 N 
ATOM      5  C   UNL A   1      34.133  30.030  27.339  1.00  0.00     0.220 C 
ATOM      6  O   UNL A   1      33.294  30.923  27.422  1.00  0.00    -0.275 OA
ATOM      7  H   UNL A   1      35.688  31.270  27.164  1.00  0.00     0.163 HD
BRANCH   5   8
ATOM      8  C   UNL A   1      33.767  28.575  27.237  1.00  0.00     0.027 C 
ATOM      9  H   UNL A   1      34.142  28.191  26.311  1.00  0.00     0.037 H 
ATOM     10  H   UNL A   1      34.199  28.071  28.076  1.00  0.00     0.037 H 
BRANCH   8  11
ATOM     11  C   UNL A   1      32.257  28.349  27.286  1.00  0.00    -0.038 C 
ATOM     12  H   UNL A   1      32.051  27.625  28.047  1.00  0.00     0.028 H 
ATOM     13  H   UNL A   1      31.809  29.300  27.485  1.00  0.00     0.028 H 
BRANCH  11  14
ATOM     14  C   UNL A   1      31.655  27.843  25.963  1.00  0.00    -0.014 C 
ATOM     15  C   UNL A   1      31.820  29.256  24.622  1.00  0.00     0.009 C 
ATOM     16  C   UNL A   1      32.682  28.767  22.894  1.00  0.00     0.061 C 
ATOM     17  H   UNL A   1      32.591  29.889  25.008  1.00  0.00     0.038 H 
ATOM     18  C   UNL A   1      32.899  26.841  22.459  1.00  0.00    -0.022 C 
ATOM     19  H   UNL A   1      31.942  29.125  22.208  1.00  0.00     0.061 H 
ATOM     20  C   UNL A   1      31.847  26.007  25.539  1.00  0.00    -0.019 C 
ATOM     21  C   UNL A   1      30.573  26.700  26.059  1.00  0.00    -0.040 C 
ATOM     22  C   UNL A   1      32.540  25.513  23.841  1.00  0.00    -0.027 C 
ATOM     23  H   UNL A   1      33.913  26.704  22.147  1.00  0.00     0.030 H 
ATOM     24  H   UNL A   1      32.144  26.658  21.724  1.00  0.00     0.030 H 
ATOM     25  C   UNL A   1      32.420  24.964  26.516  1.00  0.00    -0.046 C 
ATOM     26  H   UNL A   1      30.231  26.429  27.037  1.00  0.00     0.028 H 
ATOM     27  H   UNL A   1      29.590  26.683  25.636  1.00  0.00     0.028 H 
ATOM     28  C   UNL A   1      32.145  24.014  23.537  1.00  0.00    -0.023 C 
ATOM     29  H   UNL A   1      33.610  25.531  23.857  1.00  0.00     0.032 H 
ATOM     30  C   UNL A   1      32.121  23.529  26.066  1.00  0.00    -0.046 C 
ATOM     31  H   UNL A   1      31.985  25.121  27.481  1.00  0.00     0.027 H 
ATOM     32  H   UNL A   1      33.483  25.088  26.545  1.00  0.00     0.027 H 
ATOM     33  C   UNL A   1      32.728  23.064  24.699  1.00  0.00    -0.024 C 
ATOM     34  C   UNL A   1      32.954  23.545  22.332  1.00  0.00    -0.047 C 
ATOM     35  H   UNL A   1      31.058  23.429  25.996  1.00  0.00     0.027 H 
ATOM     36  H   UNL A   1      32.590  22.908  26.800  1.00  0.00     0.027 H 
ATOM     37  C   UNL A   1      34.280  23.219  24.442  1.00  0.00    -0.033 C 
ATOM     38  C   UNL A   1      34.382  23.351  22.881  1.00  0.00    -0.049 C 
ATOM     39  H   UNL A   1      32.567  22.624  21.950  1.00  0.00     0.027 H 
ATOM     40  H   UNL A   1      32.921  24.243  21.521  1.00  0.00     0.027 H 
ATOM     41  H   UNL A   1      34.557  24.043  25.066  1.00  0.00     0.031 H 
ATOM     42  H   UNL A   1      34.813  22.463  22.469  1.00  0.00     0.027 H 
ATOM     43  H   UNL A   1      35.001  24.182  22.616  1.00  0.00     0.027 H 
BRANCH  15  44
ATOM     44  C   UNL A   1      30.581  30.176  24.552  1.00  0.00    -0.085 C 
ATOM     45  C   UNL A   1      29.636  30.222  23.599  1.00  0.00    -0.103 C 
ATOM     46  H   UNL A   1      28.855  30.892  23.679  1.00  0.00     0.053 H 
ATOM     47  H   UNL A   1      29.691  29.587  22.787  1.00  0.00     0.053 H 
ATOM     48  H   UNL A   1      30.465  30.838  25.335  1.00  0.00     0.057 H 
ENDBRANCH  15  44
BRANCH  16  49
ATOM     49  O   UNL A   1      33.961  29.428  22.704  1.00  0.00    -0.392 OA
ATOM     50  H   UNL A   1      34.424  29.489  23.554  1.00  0.00     0.210 HD
ENDBRANCH  16  49
BRANCH  28  51
ATOM     51  C   UNL A   1      30.631  23.831  23.354  1.00  0.00    -0.059 C 
ATOM     52  H   UNL A   1      30.159  23.783  24.312  1.00  0.00     0.024 H 
ATOM     53  H   UNL A   1      30.443  22.925  22.817  1.00  0.00     0.024 H 
ATOM     54  H   UNL A   1      30.236  24.660  22.803  1.00  0.00     0.024 H 
ENDBRANCH  28  51
BRANCH  33  55
ATOM     55  C   UNL A   1      32.369  21.565  24.537  1.00  0.00    -0.059 C 
ATOM     56  H   UNL A   1      33.105  21.087  23.924  1.00  0.00     0.024 H 
ATOM     57  H   UNL A   1      31.407  21.477  24.076  1.00  0.00     0.024 H 
ATOM     58  H   UNL A   1      32.348  21.097  25.500  1.00  0.00     0.024 H 
ENDBRANCH  33  55
BRANCH  37  59
ATOM     59  C   UNL A   1      35.441  22.462  25.145  1.00  0.00    -0.041 C 
ATOM     60  H   UNL A   1      36.015  22.169  24.290  1.00  0.00     0.030 H 
BRANCH  59  61
ATOM     61  C   UNL A   1      36.321  23.361  26.039  1.00  0.00    -0.047 C 
ATOM     62  H   UNL A   1      36.449  22.868  26.980  1.00  0.00     0.027 H 
ATOM     63  H   UNL A   1      35.810  24.298  26.118  1.00  0.00     0.027 H 
BRANCH  61  64
ATOM     64  C   UNL A   1      37.709  23.674  25.472  1.00  0.00    -0.035 C 
ATOM     65  H   UNL A   1      37.642  24.550  24.861  1.00  0.00     0.031 H 
ATOM     66  H   UNL A   1      38.030  22.827  24.902  1.00  0.00     0.031 H 
BRANCH  64  67
ATOM     67  C   UNL A   1      38.729  23.916  26.562  1.00  0.00    -0.086 C 
ATOM     68  C   UNL A   1      39.744  23.095  26.903  1.00  0.00    -0.080 C 
ATOM     69  H   UNL A   1      38.639  24.793  27.097  1.00  0.00     0.058 H 
BRANCH  68  70
ATOM     70  C   UNL A   1      40.730  23.465  27.979  1.00  0.00    -0.044 C 
ATOM     71  H   UNL A   1      41.502  22.725  28.025  1.00  0.00     0.028 H 
ATOM     72  H   UNL A   1      40.227  23.513  28.922  1.00  0.00     0.028 H 
ATOM     73  H   UNL A   1      41.162  24.417  27.756  1.00  0.00     0.028 H 
ENDBRANCH  68  70
BRANCH  68  74
ATOM     74  C   UNL A   1      39.981  21.756  26.261  1.00  0.00    -0.044 C 
ATOM     75  H   UNL A   1      39.044  21.331  25.966  1.00  0.00     0.028 H 
ATOM     76  H   UNL A   1      40.462  21.104  26.961  1.00  0.00     0.028 H 
ATOM     77  H   UNL A   1      40.604  21.878  25.400  1.00  0.00     0.028 H 
ENDBRANCH  68  74
ENDBRANCH  64  67
ENDBRANCH  61  64
ENDBRANCH  59  61
BRANCH  59  78
ATOM     78  C   UNL A   1      35.127  21.125  25.822  1.00  0.00    -0.062 C 
ATOM     79  H   UNL A   1      36.030  20.564  25.941  1.00  0.00     0.023 H 
ATOM     80  H   UNL A   1      34.440  20.572  25.215  1.00  0.00     0.023 H 
ATOM     81  H   UNL A   1      34.689  21.305  26.782  1.00  0.00     0.023 H 
ENDBRANCH  59  78
ENDBRANCH  37  59
ENDBRANCH  11  14
ENDBRANCH   8  11
ENDBRANCH   5   8
ENDBRANCH   1   4
BRANCH   1  82
ATOM     82  C   UNL A   1      38.728  29.629  27.509  1.00  0.00    -0.036 C 
ATOM     83  H   UNL A   1      38.952  29.902  28.519  1.00  0.00     0.028 H 
ATOM     84  H   UNL A   1      38.696  30.124  26.563  1.00  0.00     0.028 H 
BRANCH  82  85
ATOM     85  C   UNL A   1      40.137  28.702  27.077  1.00  0.00    -0.052 C 
ATOM     86  H   UNL A   1      40.923  29.101  27.683  1.00  0.00     0.027 H 
ATOM     87  H   UNL A   1      40.085  28.807  26.013  1.00  0.00     0.027 H 
BRANCH  85  88
ATOM     88  C   UNL A   1      40.316  27.168  27.160  1.00  0.00    -0.052 C 
ATOM     89  H   UNL A   1      39.347  26.714  27.146  1.00  0.00     0.027 H 
ATOM     90  H   UNL A   1      40.851  26.966  28.065  1.00  0.00     0.027 H 
BRANCH  88  91
ATOM     91  C   UNL A   1      41.138  26.582  26.018  1.00  0.00    -0.036 C 
ATOM     92  H   UNL A   1      40.596  26.699  25.104  1.00  0.00     0.028 H 
ATOM     93  H   UNL A   1      41.313  25.548  26.227  1.00  0.00     0.028 H 
BRANCH  91  94
ATOM     94  C   UNL A   1      42.479  27.275  25.889  1.00  0.00     0.018 C 
ATOM     95  H   UNL A   1      42.489  28.148  26.507  1.00  0.00     0.049 H 
ATOM     96  H   UNL A   1      42.634  27.555  24.867  1.00  0.00     0.049 H 
BRANCH  94  97
ATOM     97  N   UNL A   1      43.543  26.372  26.307  1.00  0.00    -0.352 N 
ATOM     98  C   UNL A   1      44.287  26.464  27.452  1.00  0.00     0.251 C 
ATOM     99  H   UNL A   1      43.747  25.620  25.706  1.00  0.00     0.163 HD
ATOM    100  O   UNL A   1      45.337  25.867  27.599  1.00  0.00    -0.269 OA
BRANCH  98 101
ATOM    101  C   UNL A   1      43.737  27.328  28.503  1.00  0.00     0.039 A 
ATOM    102  C   UNL A   1      43.007  26.764  29.546  1.00  0.00    -0.049 A 
ATOM    103  C   UNL A   1      44.088  28.683  28.491  1.00  0.00    -0.049 A 
ATOM    104  C   UNL A   1      42.627  27.578  30.606  1.00  0.00    -0.053 A 
ATOM    105  H   UNL A   1      42.756  25.763  29.532  1.00  0.00     0.063 H 
ATOM    106  C   UNL A   1      43.786  29.464  29.588  1.00  0.00    -0.053 A 
ATOM    107  H   UNL A   1      44.566  29.092  27.673  1.00  0.00     0.063 H 
ATOM    108  C   UNL A   1      43.025  28.926  30.636  1.00  0.00    -0.014 A 
ATOM    109  H   UNL A   1      42.052  27.193  31.372  1.00  0.00     0.063 H 
ATOM    110  H   UNL A   1      44.119  30.441  29.638  1.00  0.00     0.063 H 
BRANCH 108 111
ATOM    111  C   UNL A   1      42.597  29.823  31.726  1.00  0.00     0.031 A 
ATOM    112  C   UNL A   1      43.450  29.922  32.958  1.00  0.00     0.074 A 
ATOM    113  C   UNL A   1      41.429  30.483  31.627  1.00  0.00     0.049 A 
ATOM    114  N   UNL A   1      43.232  30.581  34.065  1.00  0.00    -0.248 NA
ATOM    115  C   UNL A   1      44.701  29.141  32.964  1.00  0.00    -0.034 C 
ATOM    116  C   UNL A   1      40.505  30.404  30.494  1.00  0.00    -0.036 A 
ATOM    117  N   UNL A   1      40.815  31.340  32.501  1.00  0.00    -0.354 N 
ATOM    118  C   UNL A   1      44.301  30.279  34.897  1.00  0.00     0.074 A 
ATOM    119  C   UNL A   1      45.133  29.327  34.200  1.00  0.00    -0.034 C 
ATOM    120  H   UNL A   1      45.127  28.592  32.201  1.00  0.00     0.065 H 
ATOM    121  C   UNL A   1      39.451  31.201  30.733  1.00  0.00    -0.036 A 
ATOM    122  H   UNL A   1      40.642  29.829  29.649  1.00  0.00     0.065 H 
ATOM    123  C   UNL A   1      39.607  31.812  32.049  1.00  0.00     0.049 A 
ATOM    124  H   UNL A   1      41.202  31.595  33.369  1.00  0.00     0.167 HD
ATOM    125  C   UNL A   1      44.575  30.778  36.122  1.00  0.00     0.037 A 
ATOM    126  H   UNL A   1      45.955  28.855  34.611  1.00  0.00     0.065 H 
ATOM    127  H   UNL A   1      38.659  31.356  30.090  1.00  0.00     0.065 H 
ATOM    128  C   UNL A   1      38.728  32.639  32.644  1.00  0.00     0.037 A 
ATOM    129  C   UNL A   1      43.754  31.756  36.782  1.00  0.00     0.049 A 
ATOM    130  C   UNL A   1      39.065  33.187  34.006  1.00  0.00     0.074 A 
ATOM    131  C   UNL A   1      43.973  32.392  37.990  1.00  0.00    -0.036 A 
ATOM    132  N   UNL A   1      42.551  32.236  36.284  1.00  0.00    -0.354 N 
ATOM    133  N   UNL A   1      40.122  32.963  34.751  1.00  0.00    -0.248 NA
ATOM    134  C   UNL A   1      38.093  34.109  34.606  1.00  0.00    -0.034 C 
ATOM    135  C   UNL A   1      42.873  33.214  38.250  1.00  0.00    -0.036 A 
ATOM    136  H   UNL A   1      44.803  32.280  38.592  1.00  0.00     0.065 H 
ATOM    137  C   UNL A   1      41.999  33.139  37.176  1.00  0.00     0.049 A 
ATOM    138  H   UNL A   1      42.150  31.973  35.423  1.00  0.00     0.167 HD
ATOM    139  C   UNL A   1      39.954  33.734  35.893  1.00  0.00     0.074 A 
ATOM    140  C   UNL A   1      38.705  34.449  35.731  1.00  0.00    -0.034 C 
ATOM    141  H   UNL A   1      37.175  34.413  34.246  1.00  0.00     0.065 H 
ATOM    142  H   UNL A   1      42.734  33.782  39.100  1.00  0.00     0.065 H 
ATOM    143  C   UNL A   1      40.755  33.839  36.982  1.00  0.00     0.037 A 
ATOM    144  H   UNL A   1      38.338  35.137  36.407  1.00  0.00     0.065 H 
BRANCH 125 145
ATOM    145  C   UNL A   1      45.808  30.284  36.821  1.00  0.00     0.064 A 
ATOM    146  C   UNL A   1      47.041  30.943  36.701  1.00  0.00     0.173 A 
ATOM    147  C   UNL A   1      45.744  29.158  37.655  1.00  0.00     0.173 A 
ATOM    148  F   UNL A   1      47.161  32.013  35.902  1.00  0.00    -0.203 F 
ATOM    149  C   UNL A   1      48.169  30.479  37.373  1.00  0.00     0.198 A 
ATOM    150  C   UNL A   1      46.866  28.718  38.352  1.00  0.00     0.198 A 
ATOM    151  F   UNL A   1      44.590  28.489  37.803  1.00  0.00    -0.203 F 
ATOM    152  F   UNL A   1      49.347  31.096  37.207  1.00  0.00    -0.200 F 
ATOM    153  C   UNL A   1      48.078  29.374  38.205  1.00  0.00     0.200 A 
ATOM    154  F   UNL A   1      46.773  27.655  39.164  1.00  0.00    -0.200 F 
ATOM    155  F   UNL A   1      49.162  28.938  38.864  1.00  0.00    -0.200 F 
ENDBRANCH 125 145
BRANCH 128 156
ATOM    156  C   UNL A   1      37.459  33.002  31.960  1.00  0.00     0.064 A 
ATOM    157  C   UNL A   1      36.219  32.597  32.470  1.00  0.00     0.173 A 
ATOM    158  C   UNL A   1      37.460  33.749  30.771  1.00  0.00     0.173 A 
ATOM    159  F   UNL A   1      36.163  31.870  33.596  1.00  0.00    -0.203 F 
ATOM    160  C   UNL A   1      35.031  32.894  31.803  1.00  0.00     0.198 A 
ATOM    161  C   UNL A   1      36.270  34.075  30.123  1.00  0.00     0.198 A 
ATOM    162  F   UNL A   1      38.618  34.172  30.244  1.00  0.00    -0.203 F 
ATOM    163  F   UNL A   1      33.865  32.442  32.283  1.00  0.00    -0.200 F 
ATOM    164  C   UNL A   1      35.058  33.635  30.632  1.00  0.00     0.200 A 
ATOM    165  F   UNL A   1      36.300  34.808  29.002  1.00  0.00    -0.200 F 
ATOM    166  F   UNL A   1      33.917  33.920  29.990  1.00  0.00    -0.200 F 
ENDBRANCH 128 156
BRANCH 143 167
ATOM    167  C   UNL A   1      40.319  34.783  38.064  1.00  0.00     0.064 A 
ATOM    168  C   UNL A   1      40.766  36.112  38.103  1.00  0.00     0.173 A 
ATOM    169  C   UNL A   1      39.407  34.364  39.044  1.00  0.00     0.173 A 
ATOM    170  F   UNL A   1      41.648  36.556  37.196  1.00  0.00    -0.203 F 
ATOM    171  C   UNL A   1      40.338  36.979  39.105  1.00  0.00     0.198 A 
ATOM    172  C   UNL A   1      38.953  35.244  40.022  1.00  0.00     0.198 A 
ATOM    173  F   UNL A   1      38.942  33.106  39.043  1.00  0.00    -0.203 F 
ATOM    174  F   UNL A   1      40.819  38.229  39.156  1.00  0.00    -0.200 F 
ATOM    175  C   UNL A   1      39.426  36.547  40.057  1.00  0.00     0.200 A 
ATOM    176  F   UNL A   1      38.058  34.831  40.929  1.00  0.00    -0.200 F 
ATOM    177  F   UNL A   1      39.007  37.386  41.013  1.00  0.00    -0.200 F 
ENDBRANCH 143 167
ENDBRANCH 108 111
ENDBRANCH  98 101
ENDBRANCH  94  97
ENDBRANCH  91  94
ENDBRANCH  88  91
ENDBRANCH  85  88
ENDBRANCH  82  85
ENDBRANCH   1  82
TORSDOF 26
ENDMDL
MODEL 7
REMARK VINA RESULT:     -11.4      6.205      8.280
REMARK SMILES C=C[C@@H]1[C@@H](O)C[C@H]2[C@]3(CC[C@]4(C)[C@@H]([C@H](C)CCC=C(C)C)CC[C@]24C)C[C@]13CCC(=O)NCCCCCCNC(=O)c1ccc(-c2c3nc(c(-c4c(F)c(F)c(F)c(F)c4F)c4ccc([nH]4)c(-c4c(F)c(F)c(F)c(F)c4F)c4nc(c(-c5c(F)c(F)c(F)c(F)c5F)c5ccc2[nH]5)C=C4)C=C3)cc1
REMARK SMILES IDX 33 1 32 4 30 5 31 6 29 8 28 11 27 14 3 15 4 16 6 18 8 20
REMARK SMILES IDX 26 21 7 22 9 25 24 28 10 30 11 33 23 34 13 37 22 38 2 44
REMARK SMILES IDX 1 45 5 49 25 51 12 55 14 59 16 61 17 64 18 67 19 68 20 70
REMARK SMILES IDX 21 74 15 78 34 82 35 85 36 88 37 91 38 94 39 97 40 98 41 100
REMARK SMILES IDX 42 101 43 102 104 103 44 104 103 106 45 108 46 111 47 112
REMARK SMILES IDX 97 113 48 114 102 115 96 116 98 117 49 118 101 119 95 121
REMARK SMILES IDX 94 123 50 125 82 128 62 129 81 130 63 131 66 132 80 133
REMARK SMILES IDX 99 134 64 135 65 137 79 139 100 140 67 143 51 145 52 146
REMARK SMILES IDX 60 147 53 148 54 149 58 150 61 151 55 152 56 153 59 154
REMARK SMILES IDX 57 155 83 156 84 157 92 158 85 159 86 160 90 161 93 162
REMARK SMILES IDX 87 163 88 164 91 165 89 166 68 167 69 168 77 169 70 170
REMARK SMILES IDX 71 171 75 172 78 173 72 174 73 175 76 176 74 177
REMARK H PARENT 33 2 33 3 32 7 29 9 29 10 28 12 28 13 3 17 4 19 6 23 6 24
REMARK H PARENT 26 26 26 27 7 29 9 31 9 32 10 35 10 36 23 39 23 40 13 41 22 42
REMARK H PARENT 22 43 1 46 1 47 2 48 5 50 25 52 25 53 25 54 12 56 12 57 12 58
REMARK H PARENT 14 60 16 62 16 63 17 65 17 66 18 69 20 71 20 72 20 73 21 75
REMARK H PARENT 21 76 21 77 15 79 15 80 15 81 34 83 34 84 35 86 35 87 36 89
REMARK H PARENT 36 90 37 92 37 93 38 95 38 96 39 99 43 105 104 107 44 109
REMARK H PARENT 103 110 102 120 96 122 98 124 101 126 95 127 63 136 66 138
REMARK H PARENT 99 141 64 142 100 144
REMARK Flexibility Score: inf
ROOT
ATOM      1  C   UNL A   1      34.996  30.919  27.607  1.00  0.00     0.017 C 
ATOM      2  H   UNL A   1      35.174  30.742  26.568  1.00  0.00     0.049 H 
ATOM      3  H   UNL A   1      35.287  30.368  28.478  1.00  0.00     0.049 H 
ENDROOT
BRANCH   1   4
ATOM      4  N   UNL A   1      33.517  30.631  27.752  1.00  0.00    -0.356 N 
ATOM      5  C   UNL A   1      32.693  29.964  26.895  1.00  0.00     0.220 C 
ATOM      6  O   UNL A   1      31.600  29.555  27.277  1.00  0.00    -0.275 OA
ATOM      7  H   UNL A   1      33.094  30.972  28.572  1.00  0.00     0.163 HD
BRANCH   5   8
ATOM      8  C   UNL A   1      33.197  29.759  25.494  1.00  0.00     0.027 C 
ATOM      9  H   UNL A   1      32.416  30.014  24.808  1.00  0.00     0.037 H 
ATOM     10  H   UNL A   1      34.056  30.383  25.361  1.00  0.00     0.037 H 
BRANCH   8  11
ATOM     11  C   UNL A   1      33.626  28.317  25.233  1.00  0.00    -0.038 C 
ATOM     12  H   UNL A   1      34.156  28.288  24.304  1.00  0.00     0.028 H 
ATOM     13  H   UNL A   1      34.230  28.020  26.065  1.00  0.00     0.028 H 
BRANCH  11  14
ATOM     14  C   UNL A   1      32.458  27.318  25.154  1.00  0.00    -0.014 C 
ATOM     15  C   UNL A   1      31.281  27.850  23.685  1.00  0.00     0.009 C 
ATOM     16  C   UNL A   1      30.838  26.458  22.331  1.00  0.00     0.061 C 
ATOM     17  H   UNL A   1      31.899  28.473  23.073  1.00  0.00     0.038 H 
ATOM     18  C   UNL A   1      31.218  24.559  22.772  1.00  0.00    -0.022 C 
ATOM     19  H   UNL A   1      29.771  26.534  22.326  1.00  0.00     0.061 H 
ATOM     20  C   UNL A   1      32.802  25.505  25.579  1.00  0.00    -0.019 C 
ATOM     21  C   UNL A   1      32.091  26.539  26.475  1.00  0.00    -0.040 C 
ATOM     22  C   UNL A   1      32.265  24.147  24.364  1.00  0.00    -0.027 C 
ATOM     23  H   UNL A   1      31.740  24.142  21.936  1.00  0.00     0.030 H 
ATOM     24  H   UNL A   1      30.253  24.148  22.985  1.00  0.00     0.030 H 
ATOM     25  C   UNL A   1      34.137  25.008  26.160  1.00  0.00    -0.046 C 
ATOM     26  H   UNL A   1      32.590  26.835  27.374  1.00  0.00     0.028 H 
ATOM     27  H   UNL A   1      31.136  26.457  26.950  1.00  0.00     0.028 H 
ATOM     28  C   UNL A   1      32.196  22.766  25.129  1.00  0.00    -0.023 C 
ATOM     29  H   UNL A   1      33.005  24.018  23.602  1.00  0.00     0.032 H 
ATOM     30  C   UNL A   1      34.019  23.596  26.748  1.00  0.00    -0.046 C 
ATOM     31  H   UNL A   1      34.448  25.679  26.934  1.00  0.00     0.027 H 
ATOM     32  H   UNL A   1      34.853  24.976  25.365  1.00  0.00     0.027 H 
ATOM     33  C   UNL A   1      33.639  22.438  25.765  1.00  0.00    -0.024 C 
ATOM     34  C   UNL A   1      32.066  21.656  24.092  1.00  0.00    -0.047 C 
ATOM     35  H   UNL A   1      33.270  23.627  27.511  1.00  0.00     0.027 H 
ATOM     36  H   UNL A   1      35.005  23.356  27.086  1.00  0.00     0.027 H 
ATOM     37  C   UNL A   1      34.488  22.224  24.448  1.00  0.00    -0.033 C 
ATOM     38  C   UNL A   1      33.469  21.555  23.459  1.00  0.00    -0.049 C 
ATOM     39  H   UNL A   1      31.793  20.733  24.557  1.00  0.00     0.027 H 
ATOM     40  H   UNL A   1      31.306  21.862  23.367  1.00  0.00     0.027 H 
ATOM     41  H   UNL A   1      34.876  23.199  24.236  1.00  0.00     0.031 H 
ATOM     42  H   UNL A   1      33.727  20.528  23.309  1.00  0.00     0.027 H 
ATOM     43  H   UNL A   1      33.488  22.050  22.511  1.00  0.00     0.027 H 
BRANCH  15  44
ATOM     44  C   UNL A   1      30.134  28.783  24.132  1.00  0.00    -0.085 C 
ATOM     45  C   UNL A   1      29.719  29.922  23.555  1.00  0.00    -0.103 C 
ATOM     46  H   UNL A   1      28.933  30.450  23.963  1.00  0.00     0.053 H 
ATOM     47  H   UNL A   1      30.188  30.268  22.702  1.00  0.00     0.053 H 
ATOM     48  H   UNL A   1      29.621  28.494  24.980  1.00  0.00     0.057 H 
ENDBRANCH  15  44
BRANCH  16  49
ATOM     49  O   UNL A   1      31.408  26.749  21.027  1.00  0.00    -0.392 OA
ATOM     50  H   UNL A   1      32.040  27.481  21.106  1.00  0.00     0.210 HD
ENDBRANCH  16  49
BRANCH  28  51
ATOM     51  C   UNL A   1      31.084  22.736  26.188  1.00  0.00    -0.059 C 
ATOM     52  H   UNL A   1      31.501  22.470  27.135  1.00  0.00     0.024 H 
ATOM     53  H   UNL A   1      30.345  22.015  25.907  1.00  0.00     0.024 H 
ATOM     54  H   UNL A   1      30.631  23.703  26.256  1.00  0.00     0.024 H 
ENDBRANCH  28  51
BRANCH  33  55
ATOM     55  C   UNL A   1      33.691  21.123  26.582  1.00  0.00    -0.059 C 
ATOM     56  H   UNL A   1      32.694  20.784  26.775  1.00  0.00     0.024 H 
ATOM     57  H   UNL A   1      34.195  21.298  27.508  1.00  0.00     0.024 H 
ATOM     58  H   UNL A   1      34.219  20.376  26.024  1.00  0.00     0.024 H 
ENDBRANCH  33  55
BRANCH  37  59
ATOM     59  C   UNL A   1      35.965  21.752  24.335  1.00  0.00    -0.041 C 
ATOM     60  H   UNL A   1      35.987  21.458  23.305  1.00  0.00     0.030 H 
BRANCH  59  61
ATOM     61  C   UNL A   1      36.997  22.880  24.544  1.00  0.00    -0.047 C 
ATOM     62  H   UNL A   1      36.467  23.807  24.609  1.00  0.00     0.027 H 
ATOM     63  H   UNL A   1      37.667  22.833  23.710  1.00  0.00     0.027 H 
BRANCH  61  64
ATOM     64  C   UNL A   1      37.863  22.737  25.799  1.00  0.00    -0.035 C 
ATOM     65  H   UNL A   1      38.791  22.279  25.528  1.00  0.00     0.031 H 
ATOM     66  H   UNL A   1      37.326  22.136  26.503  1.00  0.00     0.031 H 
BRANCH  64  67
ATOM     67  C   UNL A   1      38.150  24.072  26.450  1.00  0.00    -0.086 C 
ATOM     68  C   UNL A   1      39.227  24.380  27.201  1.00  0.00    -0.080 C 
ATOM     69  H   UNL A   1      37.452  24.818  26.307  1.00  0.00     0.058 H 
BRANCH  68  70
ATOM     70  C   UNL A   1      39.429  25.763  27.761  1.00  0.00    -0.044 C 
ATOM     71  H   UNL A   1      38.535  26.336  27.627  1.00  0.00     0.028 H 
ATOM     72  H   UNL A   1      40.238  26.240  27.248  1.00  0.00     0.028 H 
ATOM     73  H   UNL A   1      39.657  25.697  28.803  1.00  0.00     0.028 H 
ENDBRANCH  68  70
BRANCH  68  74
ATOM     74  C   UNL A   1      40.305  23.392  27.552  1.00  0.00    -0.044 C 
ATOM     75  H   UNL A   1      39.857  22.479  27.885  1.00  0.00     0.028 H 
ATOM     76  H   UNL A   1      40.917  23.793  28.332  1.00  0.00     0.028 H 
ATOM     77  H   UNL A   1      40.907  23.200  26.689  1.00  0.00     0.028 H 
ENDBRANCH  68  74
ENDBRANCH  64  67
ENDBRANCH  61  64
ENDBRANCH  59  61
BRANCH  59  78
ATOM     78  C   UNL A   1      36.372  20.470  25.066  1.00  0.00    -0.062 C 
ATOM     79  H   UNL A   1      35.593  19.743  24.972  1.00  0.00     0.023 H 
ATOM     80  H   UNL A   1      36.536  20.686  26.101  1.00  0.00     0.023 H 
ATOM     81  H   UNL A   1      37.273  20.084  24.635  1.00  0.00     0.023 H 
ENDBRANCH  59  78
ENDBRANCH  37  59
ENDBRANCH  11  14
ENDBRANCH   8  11
ENDBRANCH   5   8
ENDBRANCH   1   4
BRANCH   1  82
ATOM     82  C   UNL A   1      36.223  32.578  28.017  1.00  0.00    -0.036 C 
ATOM     83  H   UNL A   1      35.500  33.321  28.283  1.00  0.00     0.028 H 
ATOM     84  H   UNL A   1      36.861  32.382  27.182  1.00  0.00     0.028 H 
BRANCH  82  85
ATOM     85  C   UNL A   1      37.558  33.007  29.049  1.00  0.00    -0.052 C 
ATOM     86  H   UNL A   1      38.161  33.663  28.458  1.00  0.00     0.027 H 
ATOM     87  H   UNL A   1      37.857  32.025  29.351  1.00  0.00     0.027 H 
BRANCH  85  88
ATOM     88  C   UNL A   1      37.494  33.678  30.441  1.00  0.00    -0.052 C 
ATOM     89  H   UNL A   1      36.784  34.478  30.397  1.00  0.00     0.027 H 
ATOM     90  H   UNL A   1      38.482  34.019  30.668  1.00  0.00     0.027 H 
BRANCH  88  91
ATOM     91  C   UNL A   1      37.082  32.731  31.563  1.00  0.00    -0.036 C 
ATOM     92  H   UNL A   1      36.305  33.189  32.136  1.00  0.00     0.028 H 
ATOM     93  H   UNL A   1      37.941  32.538  32.171  1.00  0.00     0.028 H 
BRANCH  91  94
ATOM     94  C   UNL A   1      36.580  31.411  31.015  1.00  0.00     0.018 C 
ATOM     95  H   UNL A   1      37.193  31.110  30.192  1.00  0.00     0.049 H 
ATOM     96  H   UNL A   1      35.567  31.528  30.687  1.00  0.00     0.049 H 
BRANCH  94  97
ATOM     97  N   UNL A   1      36.634  30.393  32.057  1.00  0.00    -0.352 N 
ATOM     98  C   UNL A   1      37.681  29.553  32.321  1.00  0.00     0.251 C 
ATOM     99  H   UNL A   1      35.837  30.301  32.627  1.00  0.00     0.163 HD
ATOM    100  O   UNL A   1      37.558  28.546  32.995  1.00  0.00    -0.269 OA
BRANCH  98 101
ATOM    101  C   UNL A   1      38.973  29.943  31.745  1.00  0.00     0.039 A 
ATOM    102  C   UNL A   1      39.174  29.841  30.371  1.00  0.00    -0.049 A 
ATOM    103  C   UNL A   1      39.916  30.541  32.589  1.00  0.00    -0.049 A 
ATOM    104  C   UNL A   1      40.346  30.356  29.832  1.00  0.00    -0.053 A 
ATOM    105  H   UNL A   1      38.466  29.393  29.768  1.00  0.00     0.063 H 
ATOM    106  C   UNL A   1      41.034  31.132  32.036  1.00  0.00    -0.053 A 
ATOM    107  H   UNL A   1      39.776  30.541  33.612  1.00  0.00     0.063 H 
ATOM    108  C   UNL A   1      41.273  31.013  30.659  1.00  0.00    -0.014 A 
ATOM    109  H   UNL A   1      40.536  30.257  28.822  1.00  0.00     0.063 H 
ATOM    110  H   UNL A   1      41.692  31.658  32.633  1.00  0.00     0.063 H 
BRANCH 108 111
ATOM    111  C   UNL A   1      42.545  31.529  30.119  1.00  0.00     0.031 A 
ATOM    112  C   UNL A   1      42.633  32.980  29.738  1.00  0.00     0.074 A 
ATOM    113  C   UNL A   1      43.575  30.688  29.920  1.00  0.00     0.049 A 
ATOM    114  N   UNL A   1      43.618  33.628  29.176  1.00  0.00    -0.248 NA
ATOM    115  C   UNL A   1      41.437  33.804  29.985  1.00  0.00    -0.034 C 
ATOM    116  C   UNL A   1      43.563  29.252  30.206  1.00  0.00    -0.036 A 
ATOM    117  N   UNL A   1      44.828  30.919  29.419  1.00  0.00    -0.354 N 
ATOM    118  C   UNL A   1      43.152  34.922  28.987  1.00  0.00     0.074 A 
ATOM    119  C   UNL A   1      41.778  34.955  29.429  1.00  0.00    -0.034 C 
ATOM    120  H   UNL A   1      40.559  33.550  30.466  1.00  0.00     0.065 H 
ATOM    121  C   UNL A   1      44.763  28.734  29.896  1.00  0.00    -0.036 A 
ATOM    122  H   UNL A   1      42.762  28.723  30.585  1.00  0.00     0.065 H 
ATOM    123  C   UNL A   1      45.610  29.792  29.354  1.00  0.00     0.049 A 
ATOM    124  H   UNL A   1      45.140  31.808  29.132  1.00  0.00     0.167 HD
ATOM    125  C   UNL A   1      43.827  35.993  28.513  1.00  0.00     0.037 A 
ATOM    126  H   UNL A   1      41.148  35.766  29.325  1.00  0.00     0.065 H 
ATOM    127  H   UNL A   1      45.040  27.748  30.020  1.00  0.00     0.065 H 
ATOM    128  C   UNL A   1      46.866  29.639  28.897  1.00  0.00     0.037 A 
ATOM    129  C   UNL A   1      45.207  35.949  28.115  1.00  0.00     0.049 A 
ATOM    130  C   UNL A   1      47.596  30.853  28.383  1.00  0.00     0.074 A 
ATOM    131  C   UNL A   1      46.017  36.987  27.693  1.00  0.00    -0.036 A 
ATOM    132  N   UNL A   1      45.980  34.796  28.090  1.00  0.00    -0.354 N 
ATOM    133  N   UNL A   1      47.177  32.093  28.287  1.00  0.00    -0.248 NA
ATOM    134  C   UNL A   1      48.975  30.649  27.923  1.00  0.00    -0.034 C 
ATOM    135  C   UNL A   1      47.263  36.453  27.357  1.00  0.00    -0.036 A 
ATOM    136  H   UNL A   1      45.748  37.981  27.638  1.00  0.00     0.065 H 
ATOM    137  C   UNL A   1      47.251  35.093  27.629  1.00  0.00     0.049 A 
ATOM    138  H   UNL A   1      45.670  33.901  28.359  1.00  0.00     0.167 HD
ATOM    139  C   UNL A   1      48.246  32.820  27.782  1.00  0.00     0.074 A 
ATOM    140  C   UNL A   1      49.340  31.885  27.613  1.00  0.00    -0.034 C 
ATOM    141  H   UNL A   1      49.518  29.774  27.858  1.00  0.00     0.065 H 
ATOM    142  H   UNL A   1      48.060  36.981  26.970  1.00  0.00     0.065 H 
ATOM    143  C   UNL A   1      48.320  34.139  27.477  1.00  0.00     0.037 A 
ATOM    144  H   UNL A   1      50.284  32.148  27.292  1.00  0.00     0.065 H 
BRANCH 125 145
ATOM    145  C   UNL A   1      43.088  37.295  28.405  1.00  0.00     0.064 A 
ATOM    146  C   UNL A   1      43.142  38.262  29.421  1.00  0.00     0.173 A 
ATOM    147  C   UNL A   1      42.350  37.596  27.252  1.00  0.00     0.173 A 
ATOM    148  F   UNL A   1      43.819  38.018  30.553  1.00  0.00    -0.203 F 
ATOM    149  C   UNL A   1      42.465  39.473  29.294  1.00  0.00     0.198 A 
ATOM    150  C   UNL A   1      41.702  38.821  27.114  1.00  0.00     0.198 A 
ATOM    151  F   UNL A   1      42.263  36.706  26.251  1.00  0.00    -0.203 F 
ATOM    152  F   UNL A   1      42.492  40.362  30.296  1.00  0.00    -0.200 F 
ATOM    153  C   UNL A   1      41.755  39.755  28.137  1.00  0.00     0.200 A 
ATOM    154  F   UNL A   1      41.026  39.096  25.990  1.00  0.00    -0.200 F 
ATOM    155  F   UNL A   1      41.117  40.927  28.010  1.00  0.00    -0.200 F 
ENDBRANCH 125 145
BRANCH 128 156
ATOM    156  C   UNL A   1      47.512  28.301  28.911  1.00  0.00     0.064 A 
ATOM    157  C   UNL A   1      48.293  27.885  29.997  1.00  0.00     0.173 A 
ATOM    158  C   UNL A   1      47.377  27.415  27.830  1.00  0.00     0.173 A 
ATOM    159  F   UNL A   1      48.465  28.699  31.049  1.00  0.00    -0.203 F 
ATOM    160  C   UNL A   1      48.941  26.651  29.990  1.00  0.00     0.198 A 
ATOM    161  C   UNL A   1      47.998  26.168  27.839  1.00  0.00     0.198 A 
ATOM    162  F   UNL A   1      46.632  27.758  26.769  1.00  0.00    -0.203 F 
ATOM    163  F   UNL A   1      49.729  26.304  31.017  1.00  0.00    -0.200 F 
ATOM    164  C   UNL A   1      48.790  25.791  28.912  1.00  0.00     0.200 A 
ATOM    165  F   UNL A   1      47.833  25.333  26.803  1.00  0.00    -0.200 F 
ATOM    166  F   UNL A   1      49.414  24.606  28.904  1.00  0.00    -0.200 F 
ENDBRANCH 128 156
BRANCH 143 167
ATOM    167  C   UNL A   1      49.633  34.651  26.963  1.00  0.00     0.064 A 
ATOM    168  C   UNL A   1      49.812  34.991  25.614  1.00  0.00     0.173 A 
ATOM    169  C   UNL A   1      50.710  34.846  27.840  1.00  0.00     0.173 A 
ATOM    170  F   UNL A   1      48.816  34.810  24.734  1.00  0.00    -0.203 F 
ATOM    171  C   UNL A   1      51.032  35.481  25.157  1.00  0.00     0.198 A 
ATOM    172  C   UNL A   1      51.917  35.370  27.387  1.00  0.00     0.198 A 
ATOM    173  F   UNL A   1      50.586  34.547  29.142  1.00  0.00    -0.203 F 
ATOM    174  F   UNL A   1      51.197  35.748  23.854  1.00  0.00    -0.200 F 
ATOM    175  C   UNL A   1      52.080  35.678  26.045  1.00  0.00     0.200 A 
ATOM    176  F   UNL A   1      52.921  35.579  28.249  1.00  0.00    -0.200 F 
ATOM    177  F   UNL A   1      53.249  36.159  25.605  1.00  0.00    -0.200 F 
ENDBRANCH 143 167
ENDBRANCH 108 111
ENDBRANCH  98 101
ENDBRANCH  94  97
ENDBRANCH  91  94
ENDBRANCH  88  91
ENDBRANCH  85  88
ENDBRANCH  82  85
ENDBRANCH   1  82
TORSDOF 26
ENDMDL
MODEL 8
REMARK VINA RESULT:     -11.4      5.259      7.565
REMARK SMILES C=C[C@@H]1[C@@H](O)C[C@H]2[C@]3(CC[C@]4(C)[C@@H]([C@H](C)CCC=C(C)C)CC[C@]24C)C[C@]13CCC(=O)NCCCCCCNC(=O)c1ccc(-c2c3nc(c(-c4c(F)c(F)c(F)c(F)c4F)c4ccc([nH]4)c(-c4c(F)c(F)c(F)c(F)c4F)c4nc(c(-c5c(F)c(F)c(F)c(F)c5F)c5ccc2[nH]5)C=C4)C=C3)cc1
REMARK SMILES IDX 33 1 32 4 30 5 31 6 29 8 28 11 27 14 3 15 4 16 6 18 8 20
REMARK SMILES IDX 26 21 7 22 9 25 24 28 10 30 11 33 23 34 13 37 22 38 2 44
REMARK SMILES IDX 1 45 5 49 25 51 12 55 14 59 16 61 17 64 18 67 19 68 20 70
REMARK SMILES IDX 21 74 15 78 34 82 35 85 36 88 37 91 38 94 39 97 40 98 41 100
REMARK SMILES IDX 42 101 43 102 104 103 44 104 103 106 45 108 46 111 47 112
REMARK SMILES IDX 97 113 48 114 102 115 96 116 98 117 49 118 101 119 95 121
REMARK SMILES IDX 94 123 50 125 82 128 62 129 81 130 63 131 66 132 80 133
REMARK SMILES IDX 99 134 64 135 65 137 79 139 100 140 67 143 51 145 52 146
REMARK SMILES IDX 60 147 53 148 54 149 58 150 61 151 55 152 56 153 59 154
REMARK SMILES IDX 57 155 83 156 84 157 92 158 85 159 86 160 90 161 93 162
REMARK SMILES IDX 87 163 88 164 91 165 89 166 68 167 69 168 77 169 70 170
REMARK SMILES IDX 71 171 75 172 78 173 72 174 73 175 76 176 74 177
REMARK H PARENT 33 2 33 3 32 7 29 9 29 10 28 12 28 13 3 17 4 19 6 23 6 24
REMARK H PARENT 26 26 26 27 7 29 9 31 9 32 10 35 10 36 23 39 23 40 13 41 22 42
REMARK H PARENT 22 43 1 46 1 47 2 48 5 50 25 52 25 53 25 54 12 56 12 57 12 58
REMARK H PARENT 14 60 16 62 16 63 17 65 17 66 18 69 20 71 20 72 20 73 21 75
REMARK H PARENT 21 76 21 77 15 79 15 80 15 81 34 83 34 84 35 86 35 87 36 89
REMARK H PARENT 36 90 37 92 37 93 38 95 38 96 39 99 43 105 104 107 44 109
REMARK H PARENT 103 110 102 120 96 122 98 124 101 126 95 127 63 136 66 138
REMARK H PARENT 99 141 64 142 100 144
REMARK Flexibility Score: inf
ROOT
ATOM      1  C   UNL A   1      35.063  29.365  27.674  1.00  0.00     0.017 C 
ATOM      2  H   UNL A   1      35.198  29.087  26.650  1.00  0.00     0.049 H 
ATOM      3  H   UNL A   1      35.131  28.792  28.576  1.00  0.00     0.049 H 
ENDROOT
BRANCH   1   4
ATOM      4  N   UNL A   1      33.568  29.592  27.769  1.00  0.00    -0.356 N 
ATOM      5  C   UNL A   1      32.636  29.535  26.777  1.00  0.00     0.220 C 
ATOM      6  O   UNL A   1      31.441  29.450  27.052  1.00  0.00    -0.275 OA
ATOM      7  H   UNL A   1      33.226  29.811  28.665  1.00  0.00     0.163 HD
BRANCH   5   8
ATOM      8  C   UNL A   1      33.146  29.575  25.364  1.00  0.00     0.027 C 
ATOM      9  H   UNL A   1      32.344  29.863  24.717  1.00  0.00     0.037 H 
ATOM     10  H   UNL A   1      33.952  30.277  25.328  1.00  0.00     0.037 H 
BRANCH   8  11
ATOM     11  C   UNL A   1      33.686  28.223  24.901  1.00  0.00    -0.038 C 
ATOM     12  H   UNL A   1      34.301  28.386  24.039  1.00  0.00     0.028 H 
ATOM     13  H   UNL A   1      34.229  27.809  25.725  1.00  0.00     0.028 H 
BRANCH  11  14
ATOM     14  C   UNL A   1      32.595  27.204  24.531  1.00  0.00    -0.014 C 
ATOM     15  C   UNL A   1      31.948  27.609  22.730  1.00  0.00     0.009 C 
ATOM     16  C   UNL A   1      31.945  26.115  21.412  1.00  0.00     0.061 C 
ATOM     17  H   UNL A   1      32.733  28.196  22.301  1.00  0.00     0.038 H 
ATOM     18  C   UNL A   1      32.151  24.259  22.089  1.00  0.00    -0.022 C 
ATOM     19  H   UNL A   1      30.935  26.174  21.064  1.00  0.00     0.061 H 
ATOM     20  C   UNL A   1      32.772  25.431  25.175  1.00  0.00    -0.019 C 
ATOM     21  C   UNL A   1      31.823  26.517  25.721  1.00  0.00    -0.040 C 
ATOM     22  C   UNL A   1      32.637  23.981  23.957  1.00  0.00    -0.027 C 
ATOM     23  H   UNL A   1      32.907  23.791  21.494  1.00  0.00     0.030 H 
ATOM     24  H   UNL A   1      31.164  23.850  22.016  1.00  0.00     0.030 H 
ATOM     25  C   UNL A   1      33.851  24.999  26.184  1.00  0.00    -0.046 C 
ATOM     26  H   UNL A   1      32.014  26.885  26.708  1.00  0.00     0.028 H 
ATOM     27  H   UNL A   1      30.766  26.454  25.875  1.00  0.00     0.028 H 
ATOM     28  C   UNL A   1      32.318  22.658  24.760  1.00  0.00    -0.023 C 
ATOM     29  H   UNL A   1      33.579  23.808  23.479  1.00  0.00     0.032 H 
ATOM     30  C   UNL A   1      33.542  23.631  26.806  1.00  0.00    -0.046 C 
ATOM     31  H   UNL A   1      33.907  25.729  26.964  1.00  0.00     0.027 H 
ATOM     32  H   UNL A   1      34.782  24.921  25.660  1.00  0.00     0.027 H 
ATOM     33  C   UNL A   1      33.483  22.400  25.842  1.00  0.00    -0.024 C 
ATOM     34  C   UNL A   1      32.514  21.474  23.819  1.00  0.00    -0.047 C 
ATOM     35  H   UNL A   1      32.590  23.707  27.289  1.00  0.00     0.027 H 
ATOM     36  H   UNL A   1      34.368  23.432  27.456  1.00  0.00     0.027 H 
ATOM     37  C   UNL A   1      34.703  22.103  24.881  1.00  0.00    -0.033 C 
ATOM     38  C   UNL A   1      34.043  21.349  23.672  1.00  0.00    -0.049 C 
ATOM     39  H   UNL A   1      32.100  20.582  24.241  1.00  0.00     0.027 H 
ATOM     40  H   UNL A   1      32.024  21.615  22.878  1.00  0.00     0.027 H 
ATOM     41  H   UNL A   1      35.145  23.066  24.731  1.00  0.00     0.031 H 
ATOM     42  H   UNL A   1      34.327  20.318  23.688  1.00  0.00     0.027 H 
ATOM     43  H   UNL A   1      34.366  21.774  22.745  1.00  0.00     0.027 H 
BRANCH  15  44
ATOM     44  C   UNL A   1      30.726  28.554  22.721  1.00  0.00    -0.085 C 
ATOM     45  C   UNL A   1      29.452  28.265  23.032  1.00  0.00    -0.103 C 
ATOM     46  H   UNL A   1      28.730  29.000  22.983  1.00  0.00     0.053 H 
ATOM     47  H   UNL A   1      29.197  27.307  23.322  1.00  0.00     0.053 H 
ATOM     48  H   UNL A   1      30.912  29.530  22.441  1.00  0.00     0.057 H 
ENDBRANCH  15  44
BRANCH  16  49
ATOM     49  O   UNL A   1      32.901  26.320  20.337  1.00  0.00    -0.392 OA
ATOM     50  H   UNL A   1      33.246  27.225  20.379  1.00  0.00     0.210 HD
ENDBRANCH  16  49
BRANCH  28  51
ATOM     51  C   UNL A   1      30.928  22.688  25.412  1.00  0.00    -0.059 C 
ATOM     52  H   UNL A   1      30.304  23.381  24.889  1.00  0.00     0.024 H 
ATOM     53  H   UNL A   1      31.020  22.991  26.434  1.00  0.00     0.024 H 
ATOM     54  H   UNL A   1      30.492  21.711  25.367  1.00  0.00     0.024 H 
ENDBRANCH  28  51
BRANCH  33  55
ATOM     55  C   UNL A   1      33.263  21.148  26.728  1.00  0.00    -0.059 C 
ATOM     56  H   UNL A   1      32.300  21.206  27.193  1.00  0.00     0.024 H 
ATOM     57  H   UNL A   1      34.022  21.106  27.480  1.00  0.00     0.024 H 
ATOM     58  H   UNL A   1      33.313  20.267  26.120  1.00  0.00     0.024 H 
ENDBRANCH  33  55
BRANCH  37  59
ATOM     59  C   UNL A   1      36.135  21.648  25.275  1.00  0.00    -0.041 C 
ATOM     60  H   UNL A   1      35.996  21.486  26.324  1.00  0.00     0.030 H 
BRANCH  59  61
ATOM     61  C   UNL A   1      36.566  20.315  24.627  1.00  0.00    -0.047 C 
ATOM     62  H   UNL A   1      37.634  20.257  24.667  1.00  0.00     0.027 H 
ATOM     63  H   UNL A   1      36.181  20.328  23.629  1.00  0.00     0.027 H 
BRANCH  61  64
ATOM     64  C   UNL A   1      35.996  19.060  25.293  1.00  0.00    -0.035 C 
ATOM     65  H   UNL A   1      35.207  19.350  25.956  1.00  0.00     0.031 H 
ATOM     66  H   UNL A   1      36.790  18.578  25.823  1.00  0.00     0.031 H 
BRANCH  64  67
ATOM     67  C   UNL A   1      35.446  18.077  24.283  1.00  0.00    -0.086 C 
ATOM     68  C   UNL A   1      34.177  17.625  24.216  1.00  0.00    -0.080 C 
ATOM     69  H   UNL A   1      36.107  17.717  23.578  1.00  0.00     0.058 H 
BRANCH  68  70
ATOM     70  C   UNL A   1      33.732  16.679  23.133  1.00  0.00    -0.044 C 
ATOM     71  H   UNL A   1      33.395  15.765  23.575  1.00  0.00     0.028 H 
ATOM     72  H   UNL A   1      34.553  16.477  22.478  1.00  0.00     0.028 H 
ATOM     73  H   UNL A   1      32.933  17.123  22.577  1.00  0.00     0.028 H 
ENDBRANCH  68  70
BRANCH  68  74
ATOM     74  C   UNL A   1      33.106  18.008  25.201  1.00  0.00    -0.044 C 
ATOM     75  H   UNL A   1      32.148  17.949  24.727  1.00  0.00     0.028 H 
ATOM     76  H   UNL A   1      33.273  19.010  25.539  1.00  0.00     0.028 H 
ATOM     77  H   UNL A   1      33.133  17.340  26.036  1.00  0.00     0.028 H 
ENDBRANCH  68  74
ENDBRANCH  64  67
ENDBRANCH  61  64
ENDBRANCH  59  61
BRANCH  59  78
ATOM     78  C   UNL A   1      37.260  22.686  25.235  1.00  0.00    -0.062 C 
ATOM     79  H   UNL A   1      38.184  22.203  24.994  1.00  0.00     0.023 H 
ATOM     80  H   UNL A   1      37.343  23.158  26.192  1.00  0.00     0.023 H 
ATOM     81  H   UNL A   1      37.039  23.424  24.492  1.00  0.00     0.023 H 
ENDBRANCH  59  78
ENDBRANCH  37  59
ENDBRANCH  11  14
ENDBRANCH   8  11
ENDBRANCH   5   8
ENDBRANCH   1   4
BRANCH   1  82
ATOM     82  C   UNL A   1      36.761  30.541  28.069  1.00  0.00    -0.036 C 
ATOM     83  H   UNL A   1      37.207  30.609  27.099  1.00  0.00     0.028 H 
ATOM     84  H   UNL A   1      36.971  30.027  28.983  1.00  0.00     0.028 H 
BRANCH  82  85
ATOM     85  C   UNL A   1      37.159  32.095  28.747  1.00  0.00    -0.052 C 
ATOM     86  H   UNL A   1      38.142  32.308  28.381  1.00  0.00     0.027 H 
ATOM     87  H   UNL A   1      36.931  31.892  29.772  1.00  0.00     0.027 H 
BRANCH  85  88
ATOM     88  C   UNL A   1      36.380  33.420  28.582  1.00  0.00    -0.052 C 
ATOM     89  H   UNL A   1      35.759  33.341  27.714  1.00  0.00     0.027 H 
ATOM     90  H   UNL A   1      37.108  34.200  28.496  1.00  0.00     0.027 H 
BRANCH  88  91
ATOM     91  C   UNL A   1      35.497  33.768  29.775  1.00  0.00    -0.036 C 
ATOM     92  H   UNL A   1      34.502  33.427  29.582  1.00  0.00     0.028 H 
ATOM     93  H   UNL A   1      35.518  34.828  29.910  1.00  0.00     0.028 H 
BRANCH  91  94
ATOM     94  C   UNL A   1      36.003  33.115  31.046  1.00  0.00     0.018 C 
ATOM     95  H   UNL A   1      36.808  32.452  30.809  1.00  0.00     0.049 H 
ATOM     96  H   UNL A   1      35.205  32.567  31.502  1.00  0.00     0.049 H 
BRANCH  94  97
ATOM     97  N   UNL A   1      36.474  34.138  31.970  1.00  0.00    -0.352 N 
ATOM     98  C   UNL A   1      37.747  34.273  32.456  1.00  0.00     0.251 C 
ATOM     99  H   UNL A   1      35.812  34.798  32.275  1.00  0.00     0.163 HD
ATOM    100  O   UNL A   1      38.005  34.951  33.434  1.00  0.00    -0.269 OA
BRANCH  98 101
ATOM    101  C   UNL A   1      38.791  33.551  31.720  1.00  0.00     0.039 A 
ATOM    102  C   UNL A   1      39.343  34.118  30.575  1.00  0.00    -0.049 A 
ATOM    103  C   UNL A   1      39.296  32.373  32.282  1.00  0.00    -0.049 A 
ATOM    104  C   UNL A   1      40.432  33.490  29.982  1.00  0.00    -0.053 A 
ATOM    105  H   UNL A   1      38.952  34.986  30.176  1.00  0.00     0.063 H 
ATOM    106  C   UNL A   1      40.433  31.805  31.742  1.00  0.00    -0.053 A 
ATOM    107  H   UNL A   1      38.825  31.935  33.088  1.00  0.00     0.063 H 
ATOM    108  C   UNL A   1      40.987  32.340  30.570  1.00  0.00    -0.014 A 
ATOM    109  H   UNL A   1      40.834  33.868  29.110  1.00  0.00     0.063 H 
ATOM    110  H   UNL A   1      40.873  30.990  32.199  1.00  0.00     0.063 H 
BRANCH 108 111
ATOM    111  C   UNL A   1      42.114  31.628  29.937  1.00  0.00     0.031 A 
ATOM    112  C   UNL A   1      43.399  32.371  29.707  1.00  0.00     0.074 A 
ATOM    113  C   UNL A   1      41.953  30.359  29.523  1.00  0.00     0.049 A 
ATOM    114  N   UNL A   1      44.486  31.973  29.102  1.00  0.00    -0.248 NA
ATOM    115  C   UNL A   1      43.456  33.763  30.187  1.00  0.00    -0.034 C 
ATOM    116  C   UNL A   1      40.722  29.576  29.651  1.00  0.00    -0.036 A 
ATOM    117  N   UNL A   1      42.827  29.509  28.899  1.00  0.00    -0.354 N 
ATOM    118  C   UNL A   1      45.341  33.067  29.113  1.00  0.00     0.074 A 
ATOM    119  C   UNL A   1      44.628  34.165  29.721  1.00  0.00    -0.034 C 
ATOM    120  H   UNL A   1      42.762  34.288  30.742  1.00  0.00     0.065 H 
ATOM    121  C   UNL A   1      40.929  28.350  29.142  1.00  0.00    -0.036 A 
ATOM    122  H   UNL A   1      39.839  29.911  30.066  1.00  0.00     0.065 H 
ATOM    123  C   UNL A   1      42.288  28.278  28.618  1.00  0.00     0.049 A 
ATOM    124  H   UNL A   1      43.753  29.756  28.675  1.00  0.00     0.167 HD
ATOM    125  C   UNL A   1      46.619  33.134  28.678  1.00  0.00     0.037 A 
ATOM    126  H   UNL A   1      44.983  35.132  29.784  1.00  0.00     0.065 H 
ATOM    127  H   UNL A   1      40.237  27.584  29.124  1.00  0.00     0.065 H 
ATOM    128  C   UNL A   1      42.838  27.219  27.996  1.00  0.00     0.037 A 
ATOM    129  C   UNL A   1      47.324  32.018  28.111  1.00  0.00     0.049 A 
ATOM    130  C   UNL A   1      44.268  27.321  27.531  1.00  0.00     0.074 A 
ATOM    131  C   UNL A   1      48.644  31.947  27.709  1.00  0.00    -0.036 A 
ATOM    132  N   UNL A   1      46.759  30.775  27.867  1.00  0.00    -0.354 N 
ATOM    133  N   UNL A   1      45.099  28.332  27.622  1.00  0.00    -0.248 NA
ATOM    134  C   UNL A   1      44.839  26.133  26.886  1.00  0.00    -0.034 C 
ATOM    135  C   UNL A   1      48.863  30.678  27.166  1.00  0.00    -0.036 A 
ATOM    136  H   UNL A   1      49.345  32.699  27.795  1.00  0.00     0.065 H 
ATOM    137  C   UNL A   1      47.697  29.937  27.288  1.00  0.00     0.049 A 
ATOM    138  H   UNL A   1      45.828  30.525  28.074  1.00  0.00     0.167 HD
ATOM    139  C   UNL A   1      46.295  27.895  27.071  1.00  0.00     0.074 A 
ATOM    140  C   UNL A   1      46.088  26.519  26.669  1.00  0.00    -0.034 C 
ATOM    141  H   UNL A   1      44.387  25.232  26.660  1.00  0.00     0.065 H 
ATOM    142  H   UNL A   1      49.744  30.347  26.744  1.00  0.00     0.065 H 
ATOM    143  C   UNL A   1      47.460  28.569  26.904  1.00  0.00     0.037 A 
ATOM    144  H   UNL A   1      46.821  25.916  26.264  1.00  0.00     0.065 H 
BRANCH 125 145
ATOM    145  C   UNL A   1      47.333  34.448  28.804  1.00  0.00     0.064 A 
ATOM    146  C   UNL A   1      48.068  34.784  29.951  1.00  0.00     0.173 A 
ATOM    147  C   UNL A   1      47.315  35.367  27.744  1.00  0.00     0.173 A 
ATOM    148  F   UNL A   1      48.103  33.949  31.001  1.00  0.00    -0.203 F 
ATOM    149  C   UNL A   1      48.740  36.001  30.040  1.00  0.00     0.198 A 
ATOM    150  C   UNL A   1      48.015  36.568  27.824  1.00  0.00     0.198 A 
ATOM    151  F   UNL A   1      46.625  35.097  26.626  1.00  0.00    -0.203 F 
ATOM    152  F   UNL A   1      49.397  36.320  31.164  1.00  0.00    -0.200 F 
ATOM    153  C   UNL A   1      48.721  36.886  28.974  1.00  0.00     0.200 A 
ATOM    154  F   UNL A   1      48.005  37.417  26.787  1.00  0.00    -0.200 F 
ATOM    155  F   UNL A   1      49.382  38.050  29.056  1.00  0.00    -0.200 F 
ENDBRANCH 125 145
BRANCH 128 156
ATOM    156  C   UNL A   1      42.047  25.978  27.785  1.00  0.00     0.064 A 
ATOM    157  C   UNL A   1      41.038  25.919  26.814  1.00  0.00     0.173 A 
ATOM    158  C   UNL A   1      42.270  24.831  28.562  1.00  0.00     0.173 A 
ATOM    159  F   UNL A   1      40.775  26.992  26.055  1.00  0.00    -0.203 F 
ATOM    160  C   UNL A   1      40.261  24.773  26.650  1.00  0.00     0.198 A 
ATOM    161  C   UNL A   1      41.515  23.675  28.374  1.00  0.00     0.198 A 
ATOM    162  F   UNL A   1      43.230  24.829  29.498  1.00  0.00    -0.203 F 
ATOM    163  F   UNL A   1      39.264  24.765  25.754  1.00  0.00    -0.200 F 
ATOM    164  C   UNL A   1      40.502  23.651  27.427  1.00  0.00     0.200 A 
ATOM    165  F   UNL A   1      41.766  22.586  29.114  1.00  0.00    -0.200 F 
ATOM    166  F   UNL A   1      39.755  22.550  27.271  1.00  0.00    -0.200 F 
ENDBRANCH 128 156
BRANCH 143 167
ATOM    167  C   UNL A   1      48.604  27.817  26.291  1.00  0.00     0.064 A 
ATOM    168  C   UNL A   1      48.705  27.635  24.904  1.00  0.00     0.173 A 
ATOM    169  C   UNL A   1      49.635  27.314  27.098  1.00  0.00     0.173 A 
ATOM    170  F   UNL A   1      47.738  28.087  24.091  1.00  0.00    -0.203 F 
ATOM    171  C   UNL A   1      49.782  26.949  24.350  1.00  0.00     0.198 A 
ATOM    172  C   UNL A   1      50.729  26.661  26.538  1.00  0.00     0.198 A 
ATOM    173  F   UNL A   1      49.591  27.472  28.429  1.00  0.00    -0.203 F 
ATOM    174  F   UNL A   1      49.830  26.740  23.027  1.00  0.00    -0.200 F 
ATOM    175  C   UNL A   1      50.797  26.471  25.167  1.00  0.00     0.200 A 
ATOM    176  F   UNL A   1      51.718  26.217  27.326  1.00  0.00    -0.200 F 
ATOM    177  F   UNL A   1      51.838  25.821  24.630  1.00  0.00    -0.200 F 
ENDBRANCH 143 167
ENDBRANCH 108 111
ENDBRANCH  98 101
ENDBRANCH  94  97
ENDBRANCH  91  94
ENDBRANCH  88  91
ENDBRANCH  85  88
ENDBRANCH  82  85
ENDBRANCH   1  82
TORSDOF 26
ENDMDL
MODEL 9
REMARK VINA RESULT:     -11.3      3.366      8.629
REMARK SMILES C=C[C@@H]1[C@@H](O)C[C@H]2[C@]3(CC[C@]4(C)[C@@H]([C@H](C)CCC=C(C)C)CC[C@]24C)C[C@]13CCC(=O)NCCCCCCNC(=O)c1ccc(-c2c3nc(c(-c4c(F)c(F)c(F)c(F)c4F)c4ccc([nH]4)c(-c4c(F)c(F)c(F)c(F)c4F)c4nc(c(-c5c(F)c(F)c(F)c(F)c5F)c5ccc2[nH]5)C=C4)C=C3)cc1
REMARK SMILES IDX 33 1 32 4 30 5 31 6 29 8 28 11 27 14 3 15 4 16 6 18 8 20
REMARK SMILES IDX 26 21 7 22 9 25 24 28 10 30 11 33 23 34 13 37 22 38 2 44
REMARK SMILES IDX 1 45 5 49 25 51 12 55 14 59 16 61 17 64 18 67 19 68 20 70
REMARK SMILES IDX 21 74 15 78 34 82 35 85 36 88 37 91 38 94 39 97 40 98 41 100
REMARK SMILES IDX 42 101 43 102 104 103 44 104 103 106 45 108 46 111 47 112
REMARK SMILES IDX 97 113 48 114 102 115 96 116 98 117 49 118 101 119 95 121
REMARK SMILES IDX 94 123 50 125 82 128 62 129 81 130 63 131 66 132 80 133
REMARK SMILES IDX 99 134 64 135 65 137 79 139 100 140 67 143 51 145 52 146
REMARK SMILES IDX 60 147 53 148 54 149 58 150 61 151 55 152 56 153 59 154
REMARK SMILES IDX 57 155 83 156 84 157 92 158 85 159 86 160 90 161 93 162
REMARK SMILES IDX 87 163 88 164 91 165 89 166 68 167 69 168 77 169 70 170
REMARK SMILES IDX 71 171 75 172 78 173 72 174 73 175 76 176 74 177
REMARK H PARENT 33 2 33 3 32 7 29 9 29 10 28 12 28 13 3 17 4 19 6 23 6 24
REMARK H PARENT 26 26 26 27 7 29 9 31 9 32 10 35 10 36 23 39 23 40 13 41 22 42
REMARK H PARENT 22 43 1 46 1 47 2 48 5 50 25 52 25 53 25 54 12 56 12 57 12 58
REMARK H PARENT 14 60 16 62 16 63 17 65 17 66 18 69 20 71 20 72 20 73 21 75
REMARK H PARENT 21 76 21 77 15 79 15 80 15 81 34 83 34 84 35 86 35 87 36 89
REMARK H PARENT 36 90 37 92 37 93 38 95 38 96 39 99 43 105 104 107 44 109
REMARK H PARENT 103 110 102 120 96 122 98 124 101 126 95 127 63 136 66 138
REMARK H PARENT 99 141 64 142 100 144
REMARK Flexibility Score: inf
ROOT
ATOM      1  C   UNL A   1      39.223  25.173  28.174  1.00  0.00     0.017 C 
ATOM      2  H   UNL A   1      39.259  25.068  29.237  1.00  0.00     0.049 H 
ATOM      3  H   UNL A   1      38.395  25.238  27.498  1.00  0.00     0.049 H 
ENDROOT
BRANCH   1   4
ATOM      4  N   UNL A   1      39.693  23.819  27.683  1.00  0.00    -0.356 N 
ATOM      5  C   UNL A   1      39.388  23.186  26.516  1.00  0.00     0.220 C 
ATOM      6  O   UNL A   1      40.068  22.239  26.127  1.00  0.00    -0.275 OA
ATOM      7  H   UNL A   1      40.297  23.332  28.288  1.00  0.00     0.163 HD
BRANCH   5   8
ATOM      8  C   UNL A   1      38.205  23.709  25.750  1.00  0.00     0.027 C 
ATOM      9  H   UNL A   1      38.126  24.762  25.918  1.00  0.00     0.037 H 
ATOM     10  H   UNL A   1      38.362  23.486  24.716  1.00  0.00     0.037 H 
BRANCH   8  11
ATOM     11  C   UNL A   1      36.896  23.046  26.175  1.00  0.00    -0.038 C 
ATOM     12  H   UNL A   1      37.130  22.234  26.832  1.00  0.00     0.028 H 
ATOM     13  H   UNL A   1      36.306  23.804  26.646  1.00  0.00     0.028 H 
BRANCH  11  14
ATOM     14  C   UNL A   1      36.062  22.496  25.005  1.00  0.00    -0.014 C 
ATOM     15  C   UNL A   1      35.681  20.608  25.344  1.00  0.00     0.009 C 
ATOM     16  C   UNL A   1      33.774  20.039  25.250  1.00  0.00     0.061 C 
ATOM     17  H   UNL A   1      35.825  20.502  26.399  1.00  0.00     0.038 H 
ATOM     18  C   UNL A   1      32.465  21.264  24.396  1.00  0.00    -0.022 C 
ATOM     19  H   UNL A   1      33.859  19.210  24.578  1.00  0.00     0.061 H 
ATOM     20  C   UNL A   1      34.815  23.655  24.175  1.00  0.00    -0.019 C 
ATOM     21  C   UNL A   1      36.192  23.239  23.620  1.00  0.00    -0.040 C 
ATOM     22  C   UNL A   1      33.018  23.080  23.949  1.00  0.00    -0.027 C 
ATOM     23  H   UNL A   1      31.631  21.345  25.062  1.00  0.00     0.030 H 
ATOM     24  H   UNL A   1      32.274  20.812  23.445  1.00  0.00     0.030 H 
ATOM     25  C   UNL A   1      34.710  25.157  24.491  1.00  0.00    -0.046 C 
ATOM     26  H   UNL A   1      36.939  24.001  23.540  1.00  0.00     0.028 H 
ATOM     27  H   UNL A   1      36.421  22.819  22.663  1.00  0.00     0.028 H 
ATOM     28  C   UNL A   1      32.330  23.959  22.832  1.00  0.00    -0.023 C 
ATOM     29  H   UNL A   1      32.457  23.258  24.843  1.00  0.00     0.032 H 
ATOM     30  C   UNL A   1      33.896  25.913  23.433  1.00  0.00    -0.046 C 
ATOM     31  H   UNL A   1      35.696  25.571  24.528  1.00  0.00     0.027 H 
ATOM     32  H   UNL A   1      34.210  25.263  25.432  1.00  0.00     0.027 H 
ATOM     33  C   UNL A   1      32.393  25.510  23.261  1.00  0.00    -0.024 C 
ATOM     34  C   UNL A   1      30.829  23.695  22.879  1.00  0.00    -0.047 C 
ATOM     35  H   UNL A   1      34.378  25.764  22.490  1.00  0.00     0.027 H 
ATOM     36  H   UNL A   1      33.870  26.925  23.778  1.00  0.00     0.027 H 
ATOM     37  C   UNL A   1      31.441  25.494  24.523  1.00  0.00    -0.033 C 
ATOM     38  C   UNL A   1      30.350  24.430  24.147  1.00  0.00    -0.049 C 
ATOM     39  H   UNL A   1      30.347  24.087  22.009  1.00  0.00     0.027 H 
ATOM     40  H   UNL A   1      30.598  22.650  22.903  1.00  0.00     0.027 H 
ATOM     41  H   UNL A   1      32.107  25.308  25.340  1.00  0.00     0.031 H 
ATOM     42  H   UNL A   1      29.417  24.917  23.954  1.00  0.00     0.027 H 
ATOM     43  H   UNL A   1      30.209  23.738  24.951  1.00  0.00     0.027 H 
BRANCH  15  44
ATOM     44  C   UNL A   1      36.728  19.655  24.726  1.00  0.00    -0.085 C 
ATOM     45  C   UNL A   1      38.040  19.574  25.001  1.00  0.00    -0.103 C 
ATOM     46  H   UNL A   1      38.628  18.885  24.508  1.00  0.00     0.053 H 
ATOM     47  H   UNL A   1      38.458  20.203  25.705  1.00  0.00     0.053 H 
ATOM     48  H   UNL A   1      36.375  18.998  24.013  1.00  0.00     0.057 H 
ENDBRANCH  15  44
BRANCH  16  49
ATOM     49  O   UNL A   1      33.250  19.636  26.543  1.00  0.00    -0.392 OA
ATOM     50  H   UNL A   1      32.739  18.817  26.445  1.00  0.00     0.210 HD
ENDBRANCH  16  49
BRANCH  28  51
ATOM     51  C   UNL A   1      32.940  23.724  21.442  1.00  0.00    -0.059 C 
ATOM     52  H   UNL A   1      33.143  22.683  21.313  1.00  0.00     0.024 H 
ATOM     53  H   UNL A   1      33.851  24.279  21.355  1.00  0.00     0.024 H 
ATOM     54  H   UNL A   1      32.251  24.050  20.691  1.00  0.00     0.024 H 
ENDBRANCH  28  51
BRANCH  33  55
ATOM     55  C   UNL A   1      31.784  26.484  22.221  1.00  0.00    -0.059 C 
ATOM     56  H   UNL A   1      32.373  27.377  22.183  1.00  0.00     0.024 H 
ATOM     57  H   UNL A   1      30.782  26.728  22.505  1.00  0.00     0.024 H 
ATOM     58  H   UNL A   1      31.780  26.018  21.257  1.00  0.00     0.024 H 
ENDBRANCH  33  55
BRANCH  37  59
ATOM     59  C   UNL A   1      30.954  26.708  25.364  1.00  0.00    -0.041 C 
ATOM     60  H   UNL A   1      30.141  26.254  25.891  1.00  0.00     0.030 H 
BRANCH  59  61
ATOM     61  C   UNL A   1      31.989  27.207  26.394  1.00  0.00    -0.047 C 
ATOM     62  H   UNL A   1      32.701  26.425  26.555  1.00  0.00     0.027 H 
ATOM     63  H   UNL A   1      31.436  27.463  27.274  1.00  0.00     0.027 H 
BRANCH  61  64
ATOM     64  C   UNL A   1      32.752  28.469  25.982  1.00  0.00    -0.035 C 
ATOM     65  H   UNL A   1      32.164  29.326  26.234  1.00  0.00     0.031 H 
ATOM     66  H   UNL A   1      32.930  28.417  24.928  1.00  0.00     0.031 H 
BRANCH  64  67
ATOM     67  C   UNL A   1      34.093  28.577  26.675  1.00  0.00    -0.086 C 
ATOM     68  C   UNL A   1      34.546  29.636  27.378  1.00  0.00    -0.080 C 
ATOM     69  H   UNL A   1      34.721  27.763  26.601  1.00  0.00     0.058 H 
BRANCH  68  70
ATOM     70  C   UNL A   1      35.885  29.611  28.066  1.00  0.00    -0.044 C 
ATOM     71  H   UNL A   1      36.636  29.291  27.374  1.00  0.00     0.028 H 
ATOM     72  H   UNL A   1      35.848  28.930  28.891  1.00  0.00     0.028 H 
ATOM     73  H   UNL A   1      36.122  30.591  28.422  1.00  0.00     0.028 H 
ENDBRANCH  68  70
BRANCH  68  74
ATOM     74  C   UNL A   1      33.778  30.920  27.534  1.00  0.00    -0.044 C 
ATOM     75  H   UNL A   1      34.125  31.631  26.814  1.00  0.00     0.028 H 
ATOM     76  H   UNL A   1      33.929  31.309  28.519  1.00  0.00     0.028 H 
ATOM     77  H   UNL A   1      32.736  30.733  27.379  1.00  0.00     0.028 H 
ENDBRANCH  68  74
ENDBRANCH  64  67
ENDBRANCH  61  64
ENDBRANCH  59  61
BRANCH  59  78
ATOM     78  C   UNL A   1      30.280  27.871  24.630  1.00  0.00    -0.062 C 
ATOM     79  H   UNL A   1      29.701  28.442  25.324  1.00  0.00     0.023 H 
ATOM     80  H   UNL A   1      29.641  27.485  23.863  1.00  0.00     0.023 H 
ATOM     81  H   UNL A   1      31.028  28.496  24.189  1.00  0.00     0.023 H 
ENDBRANCH  59  78
ENDBRANCH  37  59
ENDBRANCH  11  14
ENDBRANCH   8  11
ENDBRANCH   5   8
ENDBRANCH   1   4
BRANCH   1  82
ATOM     82  C   UNL A   1      39.865  27.153  27.876  1.00  0.00    -0.036 C 
ATOM     83  H   UNL A   1      39.840  27.540  28.873  1.00  0.00     0.028 H 
ATOM     84  H   UNL A   1      39.282  27.267  26.987  1.00  0.00     0.028 H 
BRANCH  82  85
ATOM     85  C   UNL A   1      41.222  28.011  27.201  1.00  0.00    -0.052 C 
ATOM     86  H   UNL A   1      42.055  27.725  27.808  1.00  0.00     0.027 H 
ATOM     87  H   UNL A   1      40.803  28.996  27.181  1.00  0.00     0.027 H 
BRANCH  85  88
ATOM     88  C   UNL A   1      41.750  27.944  25.750  1.00  0.00    -0.052 C 
ATOM     89  H   UNL A   1      42.226  28.874  25.519  1.00  0.00     0.027 H 
ATOM     90  H   UNL A   1      40.906  27.748  25.121  1.00  0.00     0.027 H 
BRANCH  88  91
ATOM     91  C   UNL A   1      42.752  26.819  25.511  1.00  0.00    -0.036 C 
ATOM     92  H   UNL A   1      43.735  27.235  25.463  1.00  0.00     0.028 H 
ATOM     93  H   UNL A   1      42.499  26.334  24.592  1.00  0.00     0.028 H 
BRANCH  91  94
ATOM     94  C   UNL A   1      42.704  25.791  26.623  1.00  0.00     0.018 C 
ATOM     95  H   UNL A   1      41.986  25.036  26.379  1.00  0.00     0.049 H 
ATOM     96  H   UNL A   1      42.424  26.273  27.537  1.00  0.00     0.049 H 
BRANCH  94  97
ATOM     97  N   UNL A   1      44.016  25.178  26.783  1.00  0.00    -0.352 N 
ATOM     98  C   UNL A   1      45.006  25.583  27.637  1.00  0.00     0.251 C 
ATOM     99  H   UNL A   1      44.210  24.395  26.221  1.00  0.00     0.163 HD
ATOM    100  O   UNL A   1      46.162  25.223  27.516  1.00  0.00    -0.269 OA
BRANCH  98 101
ATOM    101  C   UNL A   1      44.586  26.481  28.720  1.00  0.00     0.039 A 
ATOM    102  C   UNL A   1      44.895  27.837  28.649  1.00  0.00    -0.049 A 
ATOM    103  C   UNL A   1      43.762  25.960  29.724  1.00  0.00    -0.049 A 
ATOM    104  C   UNL A   1      44.359  28.690  29.605  1.00  0.00    -0.053 A 
ATOM    105  H   UNL A   1      45.508  28.198  27.902  1.00  0.00     0.063 H 
ATOM    106  C   UNL A   1      43.160  26.825  30.616  1.00  0.00    -0.053 A 
ATOM    107  H   UNL A   1      43.607  24.943  29.797  1.00  0.00     0.063 H 
ATOM    108  C   UNL A   1      43.481  28.190  30.583  1.00  0.00    -0.014 A 
ATOM    109  H   UNL A   1      44.605  29.693  29.598  1.00  0.00     0.063 H 
ATOM    110  H   UNL A   1      42.477  26.470  31.303  1.00  0.00     0.063 H 
BRANCH 108 111
ATOM    111  C   UNL A   1      42.934  29.066  31.637  1.00  0.00     0.031 A 
ATOM    112  C   UNL A   1      43.609  29.090  32.978  1.00  0.00     0.074 A 
ATOM    113  C   UNL A   1      41.815  29.774  31.401  1.00  0.00     0.049 A 
ATOM    114  N   UNL A   1      43.260  29.720  34.068  1.00  0.00    -0.248 NA
ATOM    115  C   UNL A   1      44.819  28.262  33.128  1.00  0.00    -0.034 C 
ATOM    116  C   UNL A   1      41.058  29.769  30.148  1.00  0.00    -0.036 A 
ATOM    117  N   UNL A   1      41.114  30.625  32.213  1.00  0.00    -0.354 N 
ATOM    118  C   UNL A   1      44.191  29.349  35.028  1.00  0.00     0.074 A 
ATOM    119  C   UNL A   1      45.080  28.389  34.418  1.00  0.00    -0.034 C 
ATOM    120  H   UNL A   1      45.330  27.722  32.411  1.00  0.00     0.065 H 
ATOM    121  C   UNL A   1      40.008  30.598  30.268  1.00  0.00    -0.036 A 
ATOM    122  H   UNL A   1      41.292  29.217  29.309  1.00  0.00     0.065 H 
ATOM    123  C   UNL A   1      39.999  31.158  31.615  1.00  0.00     0.049 A 
ATOM    124  H   UNL A   1      41.384  30.835  33.136  1.00  0.00     0.167 HD
ATOM    125  C   UNL A   1      44.307  29.796  36.298  1.00  0.00     0.037 A 
ATOM    126  H   UNL A   1      45.819  27.872  34.921  1.00  0.00     0.065 H 
ATOM    127  H   UNL A   1      39.320  30.805  29.527  1.00  0.00     0.065 H 
ATOM    128  C   UNL A   1      39.073  31.998  32.114  1.00  0.00     0.037 A 
ATOM    129  C   UNL A   1      43.435  30.783  36.875  1.00  0.00     0.049 A 
ATOM    130  C   UNL A   1      39.234  32.487  33.529  1.00  0.00     0.074 A 
ATOM    131  C   UNL A   1      43.503  31.369  38.124  1.00  0.00    -0.036 A 
ATOM    132  N   UNL A   1      42.331  31.326  36.232  1.00  0.00    -0.354 N 
ATOM    133  N   UNL A   1      40.167  32.197  34.405  1.00  0.00    -0.248 NA
ATOM    134  C   UNL A   1      38.219  33.426  34.023  1.00  0.00    -0.034 C 
ATOM    135  C   UNL A   1      42.406  32.224  38.260  1.00  0.00    -0.036 A 
ATOM    136  H   UNL A   1      44.236  31.205  38.831  1.00  0.00     0.065 H 
ATOM    137  C   UNL A   1      41.690  32.220  37.073  1.00  0.00     0.049 A 
ATOM    138  H   UNL A   1      42.045  31.108  35.315  1.00  0.00     0.167 HD
ATOM    139  C   UNL A   1      39.867  32.936  35.542  1.00  0.00     0.074 A 
ATOM    140  C   UNL A   1      38.678  33.704  35.235  1.00  0.00    -0.034 C 
ATOM    141  H   UNL A   1      37.371  33.778  33.551  1.00  0.00     0.065 H 
ATOM    142  H   UNL A   1      42.169  32.769  39.104  1.00  0.00     0.065 H 
ATOM    143  C   UNL A   1      40.510  32.973  36.735  1.00  0.00     0.037 A 
ATOM    144  H   UNL A   1      38.243  34.383  35.879  1.00  0.00     0.065 H 
BRANCH 125 145
ATOM    145  C   UNL A   1      45.411  29.231  37.143  1.00  0.00     0.064 A 
ATOM    146  C   UNL A   1      46.639  29.893  37.295  1.00  0.00     0.173 A 
ATOM    147  C   UNL A   1      45.223  28.030  37.842  1.00  0.00     0.173 A 
ATOM    148  F   UNL A   1      46.878  31.036  36.633  1.00  0.00    -0.203 F 
ATOM    149  C   UNL A   1      47.645  29.362  38.098  1.00  0.00     0.198 A 
ATOM    150  C   UNL A   1      46.218  27.519  38.670  1.00  0.00     0.198 A 
ATOM    151  F   UNL A   1      44.069  27.355  37.730  1.00  0.00    -0.203 F 
ATOM    152  F   UNL A   1      48.827  29.988  38.191  1.00  0.00    -0.200 F 
ATOM    153  C   UNL A   1      47.430  28.182  38.793  1.00  0.00     0.200 A 
ATOM    154  F   UNL A   1      46.004  26.384  39.350  1.00  0.00    -0.200 F 
ATOM    155  F   UNL A   1      48.394  27.680  39.578  1.00  0.00    -0.200 F 
ENDBRANCH 125 145
BRANCH 128 156
ATOM    156  C   UNL A   1      37.926  32.434  31.274  1.00  0.00     0.064 A 
ATOM    157  C   UNL A   1      38.063  33.472  30.344  1.00  0.00     0.173 A 
ATOM    158  C   UNL A   1      36.664  31.832  31.396  1.00  0.00     0.173 A 
ATOM    159  F   UNL A   1      39.245  34.090  30.198  1.00  0.00    -0.203 F 
ATOM    160  C   UNL A   1      36.976  33.917  29.592  1.00  0.00     0.198 A 
ATOM    161  C   UNL A   1      35.586  32.254  30.619  1.00  0.00     0.198 A 
ATOM    162  F   UNL A   1      36.479  30.826  32.263  1.00  0.00    -0.203 F 
ATOM    163  F   UNL A   1      37.122  34.951  28.753  1.00  0.00    -0.200 F 
ATOM    164  C   UNL A   1      35.739  33.305  29.728  1.00  0.00     0.200 A 
ATOM    165  F   UNL A   1      34.398  31.646  30.741  1.00  0.00    -0.200 F 
ATOM    166  F   UNL A   1      34.695  33.731  29.007  1.00  0.00    -0.200 F 
ENDBRANCH 128 156
BRANCH 143 167
ATOM    167  C   UNL A   1      39.959  33.897  37.781  1.00  0.00     0.064 A 
ATOM    168  C   UNL A   1      39.041  33.453  38.744  1.00  0.00     0.173 A 
ATOM    169  C   UNL A   1      40.391  35.230  37.848  1.00  0.00     0.173 A 
ATOM    170  F   UNL A   1      38.588  32.191  38.714  1.00  0.00    -0.203 F 
ATOM    171  C   UNL A   1      38.553  34.319  39.718  1.00  0.00     0.198 A 
ATOM    172  C   UNL A   1      39.929  36.084  38.845  1.00  0.00     0.198 A 
ATOM    173  F   UNL A   1      41.277  35.701  36.957  1.00  0.00    -0.203 F 
ATOM    174  F   UNL A   1      37.635  33.888  40.594  1.00  0.00    -0.200 F 
ATOM    175  C   UNL A   1      39.004  35.631  39.773  1.00  0.00     0.200 A 
ATOM    176  F   UNL A   1      40.380  37.344  38.909  1.00  0.00    -0.200 F 
ATOM    177  F   UNL A   1      38.540  36.459  40.717  1.00  0.00    -0.200 F 
ENDBRANCH 143 167
ENDBRANCH 108 111
ENDBRANCH  98 101
ENDBRANCH  94  97
ENDBRANCH  91  94
ENDBRANCH  88  91
ENDBRANCH  85  88
ENDBRANCH  82  85
ENDBRANCH   1  82
TORSDOF 26
ENDMDL
MODEL 10
REMARK VINA RESULT:     -11.3      6.317      9.725
REMARK SMILES C=C[C@@H]1[C@@H](O)C[C@H]2[C@]3(CC[C@]4(C)[C@@H]([C@H](C)CCC=C(C)C)CC[C@]24C)C[C@]13CCC(=O)NCCCCCCNC(=O)c1ccc(-c2c3nc(c(-c4c(F)c(F)c(F)c(F)c4F)c4ccc([nH]4)c(-c4c(F)c(F)c(F)c(F)c4F)c4nc(c(-c5c(F)c(F)c(F)c(F)c5F)c5ccc2[nH]5)C=C4)C=C3)cc1
REMARK SMILES IDX 33 1 32 4 30 5 31 6 29 8 28 11 27 14 3 15 4 16 6 18 8 20
REMARK SMILES IDX 26 21 7 22 9 25 24 28 10 30 11 33 23 34 13 37 22 38 2 44
REMARK SMILES IDX 1 45 5 49 25 51 12 55 14 59 16 61 17 64 18 67 19 68 20 70
REMARK SMILES IDX 21 74 15 78 34 82 35 85 36 88 37 91 38 94 39 97 40 98 41 100
REMARK SMILES IDX 42 101 43 102 104 103 44 104 103 106 45 108 46 111 47 112
REMARK SMILES IDX 97 113 48 114 102 115 96 116 98 117 49 118 101 119 95 121
REMARK SMILES IDX 94 123 50 125 82 128 62 129 81 130 63 131 66 132 80 133
REMARK SMILES IDX 99 134 64 135 65 137 79 139 100 140 67 143 51 145 52 146
REMARK SMILES IDX 60 147 53 148 54 149 58 150 61 151 55 152 56 153 59 154
REMARK SMILES IDX 57 155 83 156 84 157 92 158 85 159 86 160 90 161 93 162
REMARK SMILES IDX 87 163 88 164 91 165 89 166 68 167 69 168 77 169 70 170
REMARK SMILES IDX 71 171 75 172 78 173 72 174 73 175 76 176 74 177
REMARK H PARENT 33 2 33 3 32 7 29 9 29 10 28 12 28 13 3 17 4 19 6 23 6 24
REMARK H PARENT 26 26 26 27 7 29 9 31 9 32 10 35 10 36 23 39 23 40 13 41 22 42
REMARK H PARENT 22 43 1 46 1 47 2 48 5 50 25 52 25 53 25 54 12 56 12 57 12 58
REMARK H PARENT 14 60 16 62 16 63 17 65 17 66 18 69 20 71 20 72 20 73 21 75
REMARK H PARENT 21 76 21 77 15 79 15 80 15 81 34 83 34 84 35 86 35 87 36 89
REMARK H PARENT 36 90 37 92 37 93 38 95 38 96 39 99 43 105 104 107 44 109
REMARK H PARENT 103 110 102 120 96 122 98 124 101 126 95 127 63 136 66 138
REMARK H PARENT 99 141 64 142 100 144
REMARK Flexibility Score: inf
ROOT
ATOM      1  C   UNL A   1      36.175  29.550  28.402  1.00  0.00     0.017 C 
ATOM      2  H   UNL A   1      35.724  28.581  28.441  1.00  0.00     0.049 H 
ATOM      3  H   UNL A   1      36.439  30.238  29.179  1.00  0.00     0.049 H 
ENDROOT
BRANCH   1   4
ATOM      4  N   UNL A   1      35.075  30.414  27.822  1.00  0.00    -0.356 N 
ATOM      5  C   UNL A   1      33.826  30.043  27.421  1.00  0.00     0.220 C 
ATOM      6  O   UNL A   1      32.952  30.889  27.252  1.00  0.00    -0.275 OA
ATOM      7  H   UNL A   1      35.290  31.368  27.720  1.00  0.00     0.163 HD
BRANCH   5   8
ATOM      8  C   UNL A   1      33.590  28.574  27.213  1.00  0.00     0.027 C 
ATOM      9  H   UNL A   1      34.032  28.283  26.283  1.00  0.00     0.037 H 
ATOM     10  H   UNL A   1      34.030  28.053  28.037  1.00  0.00     0.037 H 
BRANCH   8  11
ATOM     11  C   UNL A   1      32.104  28.221  27.180  1.00  0.00    -0.038 C 
ATOM     12  H   UNL A   1      31.925  27.456  27.908  1.00  0.00     0.028 H 
ATOM     13  H   UNL A   1      31.568  29.123  27.387  1.00  0.00     0.028 H 
BRANCH  11  14
ATOM     14  C   UNL A   1      31.609  27.713  25.815  1.00  0.00    -0.014 C 
ATOM     15  C   UNL A   1      31.863  29.132  24.493  1.00  0.00     0.009 C 
ATOM     16  C   UNL A   1      32.858  28.656  22.834  1.00  0.00     0.061 C 
ATOM     17  H   UNL A   1      32.596  29.771  24.938  1.00  0.00     0.038 H 
ATOM     18  C   UNL A   1      33.125  26.734  22.413  1.00  0.00    -0.022 C 
ATOM     19  H   UNL A   1      32.170  29.010  22.095  1.00  0.00     0.061 H 
ATOM     20  C   UNL A   1      31.849  25.880  25.401  1.00  0.00    -0.019 C 
ATOM     21  C   UNL A   1      30.532  26.561  25.825  1.00  0.00    -0.040 C 
ATOM     22  C   UNL A   1      32.674  25.397  23.760  1.00  0.00    -0.027 C 
ATOM     23  H   UNL A   1      34.161  26.606  22.179  1.00  0.00     0.030 H 
ATOM     24  H   UNL A   1      32.430  26.546  21.622  1.00  0.00     0.030 H 
ATOM     25  C   UNL A   1      32.355  24.840  26.417  1.00  0.00    -0.046 C 
ATOM     26  H   UNL A   1      30.119  26.284  26.773  1.00  0.00     0.028 H 
ATOM     27  H   UNL A   1      29.585  26.537  25.328  1.00  0.00     0.028 H 
ATOM     28  C   UNL A   1      32.316  23.896  23.423  1.00  0.00    -0.023 C 
ATOM     29  H   UNL A   1      33.739  25.425  23.858  1.00  0.00     0.032 H 
ATOM     30  C   UNL A   1      32.104  23.403  25.942  1.00  0.00    -0.046 C 
ATOM     31  H   UNL A   1      31.847  24.990  27.347  1.00  0.00     0.027 H 
ATOM     32  H   UNL A   1      33.412  24.973  26.528  1.00  0.00     0.027 H 
ATOM     33  C   UNL A   1      32.817  22.948  24.625  1.00  0.00    -0.024 C 
ATOM     34  C   UNL A   1      33.220  23.438  22.283  1.00  0.00    -0.047 C 
ATOM     35  H   UNL A   1      31.051  23.294  25.791  1.00  0.00     0.027 H 
ATOM     36  H   UNL A   1      32.522  22.784  26.708  1.00  0.00     0.027 H 
ATOM     37  C   UNL A   1      34.383  23.118  24.487  1.00  0.00    -0.033 C 
ATOM     38  C   UNL A   1      34.603  23.255  22.939  1.00  0.00    -0.049 C 
ATOM     39  H   UNL A   1      32.871  22.515  21.870  1.00  0.00     0.027 H 
ATOM     40  H   UNL A   1      33.242  24.138  21.474  1.00  0.00     0.027 H 
ATOM     41  H   UNL A   1      34.605  23.942  25.132  1.00  0.00     0.031 H 
ATOM     42  H   UNL A   1      35.072  22.372  22.558  1.00  0.00     0.027 H 
ATOM     43  H   UNL A   1      35.233  24.092  22.723  1.00  0.00     0.027 H 
BRANCH  15  44
ATOM     44  C   UNL A   1      30.625  30.041  24.330  1.00  0.00    -0.085 C 
ATOM     45  C   UNL A   1      29.581  29.881  23.501  1.00  0.00    -0.103 C 
ATOM     46  H   UNL A   1      28.815  30.571  23.496  1.00  0.00     0.053 H 
ATOM     47  H   UNL A   1      29.546  29.065  22.868  1.00  0.00     0.053 H 
ATOM     48  H   UNL A   1      30.595  30.877  24.936  1.00  0.00     0.057 H 
ENDBRANCH  15  44
BRANCH  16  49
ATOM     49  O   UNL A   1      34.143  29.328  22.744  1.00  0.00    -0.392 OA
ATOM     50  H   UNL A   1      34.847  28.719  23.014  1.00  0.00     0.210 HD
ENDBRANCH  16  49
BRANCH  28  51
ATOM     51  C   UNL A   1      30.822  23.701  23.125  1.00  0.00    -0.059 C 
ATOM     52  H   UNL A   1      30.462  22.846  23.655  1.00  0.00     0.024 H 
ATOM     53  H   UNL A   1      30.685  23.554  22.074  1.00  0.00     0.024 H 
ATOM     54  H   UNL A   1      30.280  24.569  23.437  1.00  0.00     0.024 H 
ENDBRANCH  28  51
BRANCH  33  55
ATOM     55  C   UNL A   1      32.485  21.447  24.432  1.00  0.00    -0.059 C 
ATOM     56  H   UNL A   1      33.273  20.976  23.881  1.00  0.00     0.024 H 
ATOM     57  H   UNL A   1      31.565  21.351  23.895  1.00  0.00     0.024 H 
ATOM     58  H   UNL A   1      32.390  20.977  25.390  1.00  0.00     0.024 H 
ENDBRANCH  33  55
BRANCH  37  59
ATOM     59  C   UNL A   1      35.494  22.369  25.274  1.00  0.00    -0.041 C 
ATOM     60  H   UNL A   1      35.574  21.480  24.682  1.00  0.00     0.030 H 
BRANCH  59  61
ATOM     61  C   UNL A   1      36.859  23.088  25.263  1.00  0.00    -0.047 C 
ATOM     62  H   UNL A   1      36.821  23.862  24.525  1.00  0.00     0.027 H 
ATOM     63  H   UNL A   1      37.593  22.338  25.052  1.00  0.00     0.027 H 
BRANCH  61  64
ATOM     64  C   UNL A   1      37.264  23.722  26.597  1.00  0.00    -0.035 C 
ATOM     65  H   UNL A   1      37.356  22.950  27.333  1.00  0.00     0.031 H 
ATOM     66  H   UNL A   1      36.509  24.429  26.869  1.00  0.00     0.031 H 
BRANCH  64  67
ATOM     67  C   UNL A   1      38.581  24.462  26.501  1.00  0.00    -0.086 C 
ATOM     68  C   UNL A   1      39.803  23.956  26.762  1.00  0.00    -0.080 C 
ATOM     69  H   UNL A   1      38.538  25.451  26.209  1.00  0.00     0.058 H 
BRANCH  68  70
ATOM     70  C   UNL A   1      41.052  24.778  26.586  1.00  0.00    -0.044 C 
ATOM     71  H   UNL A   1      41.301  25.251  27.513  1.00  0.00     0.028 H 
ATOM     72  H   UNL A   1      40.884  25.525  25.839  1.00  0.00     0.028 H 
ATOM     73  H   UNL A   1      41.857  24.143  26.281  1.00  0.00     0.028 H 
ENDBRANCH  68  70
BRANCH  68  74
ATOM     74  C   UNL A   1      40.034  22.552  27.251  1.00  0.00    -0.044 C 
ATOM     75  H   UNL A   1      40.029  22.542  28.321  1.00  0.00     0.028 H 
ATOM     76  H   UNL A   1      40.980  22.201  26.897  1.00  0.00     0.028 H 
ATOM     77  H   UNL A   1      39.256  21.914  26.885  1.00  0.00     0.028 H 
ENDBRANCH  68  74
ENDBRANCH  64  67
ENDBRANCH  61  64
ENDBRANCH  59  61
BRANCH  59  78
ATOM     78  C   UNL A   1      35.153  21.824  26.664  1.00  0.00    -0.062 C 
ATOM     79  H   UNL A   1      34.293  22.333  27.046  1.00  0.00     0.023 H 
ATOM     80  H   UNL A   1      35.983  21.981  27.322  1.00  0.00     0.023 H 
ATOM     81  H   UNL A   1      34.946  20.776  26.596  1.00  0.00     0.023 H 
ENDBRANCH  59  78
ENDBRANCH  37  59
ENDBRANCH  11  14
ENDBRANCH   8  11
ENDBRANCH   5   8
ENDBRANCH   1   4
BRANCH   1  82
ATOM     82  C   UNL A   1      38.159  29.120  27.850  1.00  0.00    -0.036 C 
ATOM     83  H   UNL A   1      38.570  30.102  27.742  1.00  0.00     0.028 H 
ATOM     84  H   UNL A   1      37.863  28.329  27.195  1.00  0.00     0.028 H 
BRANCH  82  85
ATOM     85  C   UNL A   1      39.531  28.231  28.450  1.00  0.00    -0.052 C 
ATOM     86  H   UNL A   1      40.378  28.835  28.202  1.00  0.00     0.027 H 
ATOM     87  H   UNL A   1      39.320  27.281  28.007  1.00  0.00     0.027 H 
BRANCH  85  88
ATOM     88  C   UNL A   1      39.789  27.769  29.903  1.00  0.00    -0.052 C 
ATOM     89  H   UNL A   1      40.240  28.577  30.440  1.00  0.00     0.027 H 
ATOM     90  H   UNL A   1      40.424  26.909  29.848  1.00  0.00     0.027 H 
BRANCH  88  91
ATOM     91  C   UNL A   1      38.528  27.342  30.646  1.00  0.00    -0.036 C 
ATOM     92  H   UNL A   1      38.468  26.275  30.642  1.00  0.00     0.028 H 
ATOM     93  H   UNL A   1      37.684  27.773  30.151  1.00  0.00     0.028 H 
BRANCH  91  94
ATOM     94  C   UNL A   1      38.539  27.830  32.080  1.00  0.00     0.018 C 
ATOM     95  H   UNL A   1      39.453  28.353  32.271  1.00  0.00     0.049 H 
ATOM     96  H   UNL A   1      38.461  26.990  32.739  1.00  0.00     0.049 H 
BRANCH  94  97
ATOM     97  N   UNL A   1      37.412  28.725  32.305  1.00  0.00    -0.352 N 
ATOM     98  C   UNL A   1      37.461  30.090  32.400  1.00  0.00     0.251 C 
ATOM     99  H   UNL A   1      36.527  28.307  32.397  1.00  0.00     0.163 HD
ATOM    100  O   UNL A   1      36.552  30.745  32.874  1.00  0.00    -0.269 OA
BRANCH  98 101
ATOM    101  C   UNL A   1      38.683  30.721  31.888  1.00  0.00     0.039 A 
ATOM    102  C   UNL A   1      39.850  30.678  32.646  1.00  0.00    -0.049 A 
ATOM    103  C   UNL A   1      38.665  31.225  30.582  1.00  0.00    -0.049 A 
ATOM    104  C   UNL A   1      41.028  31.147  32.078  1.00  0.00    -0.053 A 
ATOM    105  H   UNL A   1      39.839  30.306  33.608  1.00  0.00     0.063 H 
ATOM    106  C   UNL A   1      39.854  31.605  29.992  1.00  0.00    -0.053 A 
ATOM    107  H   UNL A   1      37.775  31.312  30.068  1.00  0.00     0.063 H 
ATOM    108  C   UNL A   1      41.036  31.600  30.747  1.00  0.00    -0.014 A 
ATOM    109  H   UNL A   1      41.898  31.163  32.633  1.00  0.00     0.063 H 
ATOM    110  H   UNL A   1      39.873  31.890  29.000  1.00  0.00     0.063 H 
BRANCH 108 111
ATOM    111  C   UNL A   1      42.263  32.145  30.135  1.00  0.00     0.031 A 
ATOM    112  C   UNL A   1      43.301  31.188  29.622  1.00  0.00     0.074 A 
ATOM    113  C   UNL A   1      42.459  33.475  30.103  1.00  0.00     0.049 A 
ATOM    114  N   UNL A   1      44.481  31.440  29.120  1.00  0.00    -0.248 NA
ATOM    115  C   UNL A   1      42.987  29.752  29.722  1.00  0.00    -0.034 C 
ATOM    116  C   UNL A   1      41.533  34.480  30.630  1.00  0.00    -0.036 A 
ATOM    117  N   UNL A   1      43.507  34.209  29.618  1.00  0.00    -0.354 N 
ATOM    118  C   UNL A   1      45.051  30.200  28.867  1.00  0.00     0.074 A 
ATOM    119  C   UNL A   1      44.122  29.196  29.330  1.00  0.00    -0.034 C 
ATOM    120  H   UNL A   1      42.110  29.297  30.022  1.00  0.00     0.065 H 
ATOM    121  C   UNL A   1      42.046  35.703  30.417  1.00  0.00    -0.036 A 
ATOM    122  H   UNL A   1      40.631  34.281  31.091  1.00  0.00     0.065 H 
ATOM    123  C   UNL A   1      43.351  35.564  29.778  1.00  0.00     0.049 A 
ATOM    124  H   UNL A   1      44.298  33.805  29.193  1.00  0.00     0.167 HD
ATOM    125  C   UNL A   1      46.233  29.928  28.273  1.00  0.00     0.037 A 
ATOM    126  H   UNL A   1      44.316  28.182  29.352  1.00  0.00     0.065 H 
ATOM    127  H   UNL A   1      41.592  36.595  30.666  1.00  0.00     0.065 H 
ATOM    128  C   UNL A   1      44.179  36.572  29.450  1.00  0.00     0.037 A 
ATOM    129  C   UNL A   1      47.127  30.941  27.783  1.00  0.00     0.049 A 
ATOM    130  C   UNL A   1      45.487  36.238  28.780  1.00  0.00     0.074 A 
ATOM    131  C   UNL A   1      48.315  30.784  27.094  1.00  0.00    -0.036 A 
ATOM    132  N   UNL A   1      46.924  32.306  27.935  1.00  0.00    -0.354 N 
ATOM    133  N   UNL A   1      45.982  35.064  28.467  1.00  0.00    -0.248 NA
ATOM    134  C   UNL A   1      46.347  37.369  28.412  1.00  0.00    -0.034 C 
ATOM    135  C   UNL A   1      48.861  32.052  26.881  1.00  0.00    -0.036 A 
ATOM    136  H   UNL A   1      48.725  29.888  26.791  1.00  0.00     0.065 H 
ATOM    137  C   UNL A   1      47.983  33.003  27.379  1.00  0.00     0.049 A 
ATOM    138  H   UNL A   1      46.143  32.717  28.373  1.00  0.00     0.167 HD
ATOM    139  C   UNL A   1      47.195  35.315  27.842  1.00  0.00     0.074 A 
ATOM    140  C   UNL A   1      47.351  36.755  27.801  1.00  0.00    -0.034 C 
ATOM    141  H   UNL A   1      46.208  38.377  28.582  1.00  0.00     0.065 H 
ATOM    142  H   UNL A   1      49.767  32.249  26.428  1.00  0.00     0.065 H 
ATOM    143  C   UNL A   1      48.105  34.438  27.350  1.00  0.00     0.037 A 
ATOM    144  H   UNL A   1      48.143  37.241  27.353  1.00  0.00     0.065 H 
BRANCH 125 145
ATOM    145  C   UNL A   1      46.625  28.487  28.116  1.00  0.00     0.064 A 
ATOM    146  C   UNL A   1      47.348  27.805  29.106  1.00  0.00     0.173 A 
ATOM    147  C   UNL A   1      46.234  27.769  26.977  1.00  0.00     0.173 A 
ATOM    148  F   UNL A   1      47.762  28.450  30.207  1.00  0.00    -0.203 F 
ATOM    149  C   UNL A   1      47.685  26.463  28.950  1.00  0.00     0.198 A 
ATOM    150  C   UNL A   1      46.544  26.419  26.839  1.00  0.00     0.198 A 
ATOM    151  F   UNL A   1      45.543  28.374  25.998  1.00  0.00    -0.203 F 
ATOM    152  F   UNL A   1      48.418  25.844  29.886  1.00  0.00    -0.200 F 
ATOM    153  C   UNL A   1      47.274  25.769  27.822  1.00  0.00     0.200 A 
ATOM    154  F   UNL A   1      46.136  25.746  25.753  1.00  0.00    -0.200 F 
ATOM    155  F   UNL A   1      47.587  24.473  27.681  1.00  0.00    -0.200 F 
ENDBRANCH 125 145
BRANCH 128 156
ATOM    156  C   UNL A   1      43.799  37.979  29.739  1.00  0.00     0.064 A 
ATOM    157  C   UNL A   1      44.136  38.585  30.957  1.00  0.00     0.173 A 
ATOM    158  C   UNL A   1      43.076  38.744  28.811  1.00  0.00     0.173 A 
ATOM    159  F   UNL A   1      44.815  37.894  31.884  1.00  0.00    -0.203 F 
ATOM    160  C   UNL A   1      43.737  39.888  31.251  1.00  0.00     0.198 A 
ATOM    161  C   UNL A   1      42.706  40.058  29.091  1.00  0.00     0.198 A 
ATOM    162  F   UNL A   1      42.737  38.218  27.625  1.00  0.00    -0.203 F 
ATOM    163  F   UNL A   1      44.021  40.421  32.446  1.00  0.00    -0.200 F 
ATOM    164  C   UNL A   1      43.025  40.625  30.316  1.00  0.00     0.200 A 
ATOM    165  F   UNL A   1      42.036  40.773  28.177  1.00  0.00    -0.200 F 
ATOM    166  F   UNL A   1      42.640  41.877  30.597  1.00  0.00    -0.200 F 
ENDBRANCH 128 156
BRANCH 143 167
ATOM    167  C   UNL A   1      49.329  35.013  26.700  1.00  0.00     0.064 A 
ATOM    168  C   UNL A   1      49.314  35.460  25.371  1.00  0.00     0.173 A 
ATOM    169  C   UNL A   1      50.516  35.162  27.432  1.00  0.00     0.173 A 
ATOM    170  F   UNL A   1      48.206  35.328  24.626  1.00  0.00    -0.203 F 
ATOM    171  C   UNL A   1      50.454  36.007  24.789  1.00  0.00     0.198 A 
ATOM    172  C   UNL A   1      51.643  35.742  26.859  1.00  0.00     0.198 A 
ATOM    173  F   UNL A   1      50.578  34.760  28.711  1.00  0.00    -0.203 F 
ATOM    174  F   UNL A   1      50.434  36.377  23.501  1.00  0.00    -0.200 F 
ATOM    175  C   UNL A   1      51.614  36.155  25.536  1.00  0.00     0.200 A 
ATOM    176  F   UNL A   1      52.757  35.904  27.587  1.00  0.00    -0.200 F 
ATOM    177  F   UNL A   1      52.707  36.692  24.976  1.00  0.00    -0.200 F 
ENDBRANCH 143 167
ENDBRANCH 108 111
ENDBRANCH  98 101
ENDBRANCH  94  97
ENDBRANCH  91  94
ENDBRANCH  88  91
ENDBRANCH  85  88
ENDBRANCH  82  85
ENDBRANCH   1  82
TORSDOF 26
ENDMDL
