MODEL 1
REMARK VINA RESULT:     -11.9      0.000      0.000
REMARK SMILES C[C@H](C(=O)NCCCCCCNC(=O)c1ccc(-c2c3nc(c(-c4c(F)c(F)c(F)c(F)c4F)c4ccc([nH]4)c(-c4c(F)c(F)c(F)c(F)c4F)c4nc(c(-c5c(F)c(F)c(F)c(F)c5F)c5ccc2[nH]5)C=C4)C=C3)cc1)c1ccc2c(c1)OCCO2
REMARK SMILES IDX 9 1 8 4 7 7 6 10 5 13 3 14 4 15 2 17 1 19 78 23 79 24 83 25
REMARK SMILES IDX 80 26 82 28 81 30 84 32 87 33 85 34 86 35 10 40 11 43 12 46
REMARK SMILES IDX 13 47 14 49 15 50 16 51 77 52 17 53 76 55 18 57 19 60 20 61
REMARK SMILES IDX 70 62 21 63 75 64 69 65 71 66 22 67 74 68 68 70 67 72 23 74
REMARK SMILES IDX 55 77 35 78 54 79 36 80 39 81 53 82 72 83 37 84 38 86 52 88
REMARK SMILES IDX 73 89 40 92 24 94 25 95 33 96 26 97 27 98 31 99 34 100
REMARK SMILES IDX 28 101 29 102 32 103 30 104 56 105 57 106 65 107 58 108
REMARK SMILES IDX 59 109 63 110 66 111 60 112 61 113 64 114 62 115 41 116
REMARK SMILES IDX 42 117 50 118 43 119 44 120 48 121 51 122 45 123 46 124
REMARK SMILES IDX 49 125 47 126
REMARK H PARENT 9 2 9 3 8 5 8 6 7 8 7 9 6 11 6 12 5 16 2 18 1 20 1 21 1 22
REMARK H PARENT 79 27 83 29 80 31 85 36 85 37 86 38 86 39 10 41 10 42 11 44
REMARK H PARENT 11 45 12 48 16 54 77 56 17 58 76 59 75 69 69 71 71 73 74 75
REMARK H PARENT 68 76 36 85 39 87 72 90 37 91 73 93
REMARK Flexibility Score: inf
ROOT
ATOM      1  C   UNL A   1      31.304  30.833  25.820  1.00  0.00    -0.052 C 
ATOM      2  H   UNL A   1      30.337  30.376  25.829  1.00  0.00     0.027 H 
ATOM      3  H   UNL A   1      31.695  31.031  24.844  1.00  0.00     0.027 H 
ENDROOT
BRANCH   1   4
ATOM      4  C   UNL A   1      32.289  29.846  26.454  1.00  0.00    -0.052 C 
ATOM      5  H   UNL A   1      33.148  29.792  25.819  1.00  0.00     0.027 H 
ATOM      6  H   UNL A   1      32.479  30.232  27.435  1.00  0.00     0.027 H 
BRANCH   4   7
ATOM      7  C   UNL A   1      31.789  28.416  26.677  1.00  0.00    -0.036 C 
ATOM      8  H   UNL A   1      31.396  28.360  27.671  1.00  0.00     0.028 H 
ATOM      9  H   UNL A   1      31.068  28.246  25.905  1.00  0.00     0.028 H 
BRANCH   7  10
ATOM     10  C   UNL A   1      32.818  27.298  26.521  1.00  0.00     0.017 C 
ATOM     11  H   UNL A   1      33.767  27.748  26.318  1.00  0.00     0.049 H 
ATOM     12  H   UNL A   1      32.798  26.743  27.435  1.00  0.00     0.049 H 
BRANCH  10  13
ATOM     13  N   UNL A   1      32.535  26.345  25.460  1.00  0.00    -0.356 N 
ATOM     14  C   UNL A   1      32.472  26.515  24.102  1.00  0.00     0.227 C 
ATOM     15  O   UNL A   1      32.489  25.483  23.420  1.00  0.00    -0.274 OA
ATOM     16  H   UNL A   1      32.361  25.426  25.769  1.00  0.00     0.163 HD
BRANCH  14  17
ATOM     17  C   UNL A   1      32.264  27.883  23.413  1.00  0.00     0.060 C 
ATOM     18  H   UNL A   1      32.409  28.669  24.125  1.00  0.00     0.045 H 
BRANCH  17  19
ATOM     19  C   UNL A   1      33.314  27.958  22.294  1.00  0.00    -0.049 C 
ATOM     20  H   UNL A   1      33.024  27.315  21.489  1.00  0.00     0.024 H 
ATOM     21  H   UNL A   1      34.264  27.645  22.676  1.00  0.00     0.024 H 
ATOM     22  H   UNL A   1      33.386  28.965  21.939  1.00  0.00     0.024 H 
ENDBRANCH  17  19
BRANCH  17  23
ATOM     23  C   UNL A   1      30.838  28.188  22.966  1.00  0.00    -0.032 A 
ATOM     24  C   UNL A   1      29.735  27.451  23.437  1.00  0.00    -0.054 A 
ATOM     25  C   UNL A   1      30.595  29.323  22.179  1.00  0.00    -0.012 A 
ATOM     26  C   UNL A   1      28.446  27.979  23.364  1.00  0.00    -0.016 A 
ATOM     27  H   UNL A   1      29.882  26.512  23.841  1.00  0.00     0.063 H 
ATOM     28  C   UNL A   1      29.340  29.916  22.228  1.00  0.00     0.161 A 
ATOM     29  H   UNL A   1      31.336  29.712  21.575  1.00  0.00     0.067 H 
ATOM     30  C   UNL A   1      28.284  29.261  22.863  1.00  0.00     0.161 A 
ATOM     31  H   UNL A   1      27.631  27.427  23.674  1.00  0.00     0.066 H 
ATOM     32  O   UNL A   1      29.275  31.220  21.813  1.00  0.00    -0.486 OA
ATOM     33  O   UNL A   1      27.120  29.923  23.162  1.00  0.00    -0.486 OA
ATOM     34  C   UNL A   1      28.192  31.955  22.400  1.00  0.00     0.122 C 
ATOM     35  C   UNL A   1      27.506  31.245  23.561  1.00  0.00     0.122 C 
ATOM     36  H   UNL A   1      27.461  32.138  21.640  1.00  0.00     0.074 H 
ATOM     37  H   UNL A   1      28.612  32.855  22.797  1.00  0.00     0.074 H 
ATOM     38  H   UNL A   1      26.637  31.796  23.852  1.00  0.00     0.074 H 
ATOM     39  H   UNL A   1      28.184  31.180  24.387  1.00  0.00     0.074 H 
ENDBRANCH  17  23
ENDBRANCH  14  17
ENDBRANCH  10  13
ENDBRANCH   7  10
ENDBRANCH   4   7
ENDBRANCH   1   4
BRANCH   1  40
ATOM     40  C   UNL A   1      31.177  32.205  26.489  1.00  0.00    -0.036 C 
ATOM     41  H   UNL A   1      30.465  32.114  27.282  1.00  0.00     0.028 H 
ATOM     42  H   UNL A   1      30.892  32.874  25.705  1.00  0.00     0.028 H 
BRANCH  40  43
ATOM     43  C   UNL A   1      32.455  32.801  27.080  1.00  0.00     0.018 C 
ATOM     44  H   UNL A   1      33.200  32.833  26.312  1.00  0.00     0.049 H 
ATOM     45  H   UNL A   1      32.742  32.176  27.900  1.00  0.00     0.049 H 
BRANCH  43  46
ATOM     46  N   UNL A   1      32.282  34.143  27.608  1.00  0.00    -0.352 N 
ATOM     47  C   UNL A   1      32.990  34.830  28.562  1.00  0.00     0.251 C 
ATOM     48  H   UNL A   1      31.530  34.644  27.217  1.00  0.00     0.163 HD
ATOM     49  O   UNL A   1      32.591  35.944  28.916  1.00  0.00    -0.269 OA
BRANCH  47  50
ATOM     50  C   UNL A   1      34.200  34.264  29.205  1.00  0.00     0.039 A 
ATOM     51  C   UNL A   1      34.027  33.415  30.304  1.00  0.00    -0.049 A 
ATOM     52  C   UNL A   1      35.495  34.582  28.785  1.00  0.00    -0.049 A 
ATOM     53  C   UNL A   1      35.136  32.843  30.936  1.00  0.00    -0.053 A 
ATOM     54  H   UNL A   1      33.077  33.211  30.651  1.00  0.00     0.063 H 
ATOM     55  C   UNL A   1      36.599  33.957  29.372  1.00  0.00    -0.053 A 
ATOM     56  H   UNL A   1      35.636  35.282  28.040  1.00  0.00     0.063 H 
ATOM     57  C   UNL A   1      36.434  33.077  30.452  1.00  0.00    -0.014 A 
ATOM     58  H   UNL A   1      35.000  32.244  31.766  1.00  0.00     0.063 H 
ATOM     59  H   UNL A   1      37.546  34.142  29.005  1.00  0.00     0.063 H 
BRANCH  57  60
ATOM     60  C   UNL A   1      37.603  32.386  31.062  1.00  0.00     0.031 A 
ATOM     61  C   UNL A   1      38.105  32.768  32.428  1.00  0.00     0.074 A 
ATOM     62  C   UNL A   1      38.233  31.417  30.368  1.00  0.00     0.049 A 
ATOM     63  N   UNL A   1      39.107  32.270  33.112  1.00  0.00    -0.248 NA
ATOM     64  C   UNL A   1      37.406  33.868  33.110  1.00  0.00    -0.034 C 
ATOM     65  C   UNL A   1      37.884  30.989  29.012  1.00  0.00    -0.036 A 
ATOM     66  N   UNL A   1      39.300  30.620  30.702  1.00  0.00    -0.354 N 
ATOM     67  C   UNL A   1      39.152  32.986  34.301  1.00  0.00     0.074 A 
ATOM     68  C   UNL A   1      38.119  33.998  34.221  1.00  0.00    -0.034 C 
ATOM     69  H   UNL A   1      36.576  34.400  32.805  1.00  0.00     0.065 H 
ATOM     70  C   UNL A   1      38.704  29.993  28.641  1.00  0.00    -0.036 A 
ATOM     71  H   UNL A   1      37.128  31.389  28.435  1.00  0.00     0.065 H 
ATOM     72  C   UNL A   1      39.656  29.733  29.716  1.00  0.00     0.049 A 
ATOM     73  H   UNL A   1      39.766  30.679  31.568  1.00  0.00     0.167 HD
ATOM     74  C   UNL A   1      39.958  32.801  35.374  1.00  0.00     0.037 A 
ATOM     75  H   UNL A   1      37.959  34.726  34.935  1.00  0.00     0.065 H 
ATOM     76  H   UNL A   1      38.665  29.491  27.739  1.00  0.00     0.065 H 
ATOM     77  C   UNL A   1      40.639  28.813  29.677  1.00  0.00     0.037 A 
ATOM     78  C   UNL A   1      40.984  31.791  35.460  1.00  0.00     0.049 A 
ATOM     79  C   UNL A   1      41.525  28.631  30.880  1.00  0.00     0.074 A 
ATOM     80  C   UNL A   1      41.833  31.509  36.517  1.00  0.00    -0.036 A 
ATOM     81  N   UNL A   1      41.302  30.900  34.446  1.00  0.00    -0.354 N 
ATOM     82  N   UNL A   1      41.511  29.273  32.023  1.00  0.00    -0.248 NA
ATOM     83  C   UNL A   1      42.554  27.586  30.793  1.00  0.00    -0.034 C 
ATOM     84  C   UNL A   1      42.692  30.475  36.127  1.00  0.00    -0.036 A 
ATOM     85  H   UNL A   1      41.833  31.980  37.435  1.00  0.00     0.065 H 
ATOM     86  C   UNL A   1      42.344  30.076  34.847  1.00  0.00     0.049 A 
ATOM     87  H   UNL A   1      40.854  30.857  33.570  1.00  0.00     0.167 HD
ATOM     88  C   UNL A   1      42.509  28.697  32.797  1.00  0.00     0.074 A 
ATOM     89  C   UNL A   1      43.090  27.633  32.004  1.00  0.00    -0.034 C 
ATOM     90  H   UNL A   1      42.795  26.974  29.997  1.00  0.00     0.065 H 
ATOM     91  H   UNL A   1      43.455  30.077  36.696  1.00  0.00     0.065 H 
ATOM     92  C   UNL A   1      42.914  29.022  34.049  1.00  0.00     0.037 A 
ATOM     93  H   UNL A   1      43.827  26.994  32.340  1.00  0.00     0.065 H 
BRANCH  74  94
ATOM     94  C   UNL A   1      39.754  33.698  36.562  1.00  0.00     0.064 A 
ATOM     95  C   UNL A   1      40.369  34.957  36.640  1.00  0.00     0.173 A 
ATOM     96  C   UNL A   1      38.892  33.325  37.605  1.00  0.00     0.173 A 
ATOM     97  F   UNL A   1      41.209  35.358  35.675  1.00  0.00    -0.203 F 
ATOM     98  C   UNL A   1      40.149  35.798  37.729  1.00  0.00     0.198 A 
ATOM     99  C   UNL A   1      38.650  34.182  38.676  1.00  0.00     0.198 A 
ATOM    100  F   UNL A   1      38.272  32.135  37.578  1.00  0.00    -0.203 F 
ATOM    101  F   UNL A   1      40.782  36.977  37.801  1.00  0.00    -0.200 F 
ATOM    102  C   UNL A   1      39.283  35.414  38.741  1.00  0.00     0.200 A 
ATOM    103  F   UNL A   1      37.802  33.814  39.647  1.00  0.00    -0.200 F 
ATOM    104  F   UNL A   1      39.063  36.229  39.781  1.00  0.00    -0.200 F 
ENDBRANCH  74  94
BRANCH  77 105
ATOM    105  C   UNL A   1      40.835  27.981  28.460  1.00  0.00     0.064 A 
ATOM    106  C   UNL A   1      41.636  28.426  27.397  1.00  0.00     0.173 A 
ATOM    107  C   UNL A   1      40.207  26.735  28.322  1.00  0.00     0.173 A 
ATOM    108  F   UNL A   1      42.243  29.621  27.471  1.00  0.00    -0.203 F 
ATOM    109  C   UNL A   1      41.774  27.671  26.234  1.00  0.00     0.198 A 
ATOM    110  C   UNL A   1      40.374  25.966  27.173  1.00  0.00     0.198 A 
ATOM    111  F   UNL A   1      39.436  26.259  29.311  1.00  0.00    -0.203 F 
ATOM    112  F   UNL A   1      42.498  28.148  25.211  1.00  0.00    -0.200 F 
ATOM    113  C   UNL A   1      41.147  26.440  26.125  1.00  0.00     0.200 A 
ATOM    114  F   UNL A   1      39.779  24.769  27.079  1.00  0.00    -0.200 F 
ATOM    115  F   UNL A   1      41.281  25.714  25.006  1.00  0.00    -0.200 F 
ENDBRANCH  77 105
BRANCH  92 116
ATOM    116  C   UNL A   1      44.020  28.199  34.647  1.00  0.00     0.064 A 
ATOM    117  C   UNL A   1      43.758  27.016  35.354  1.00  0.00     0.173 A 
ATOM    118  C   UNL A   1      45.360  28.593  34.502  1.00  0.00     0.173 A 
ATOM    119  F   UNL A   1      42.495  26.603  35.534  1.00  0.00    -0.203 F 
ATOM    120  C   UNL A   1      44.791  26.280  35.928  1.00  0.00     0.198 A 
ATOM    121  C   UNL A   1      46.393  27.836  35.047  1.00  0.00     0.198 A 
ATOM    122  F   UNL A   1      45.667  29.711  33.829  1.00  0.00    -0.203 F 
ATOM    123  F   UNL A   1      44.512  25.188  36.652  1.00  0.00    -0.200 F 
ATOM    124  C   UNL A   1      46.108  26.687  35.770  1.00  0.00     0.200 A 
ATOM    125  F   UNL A   1      47.664  28.223  34.882  1.00  0.00    -0.200 F 
ATOM    126  F   UNL A   1      47.101  25.978  36.323  1.00  0.00    -0.200 F 
ENDBRANCH  92 116
ENDBRANCH  57  60
ENDBRANCH  47  50
ENDBRANCH  43  46
ENDBRANCH  40  43
ENDBRANCH   1  40
TORSDOF 15
ENDMDL
MODEL 2
REMARK VINA RESULT:     -11.8      0.539      7.493
REMARK SMILES C[C@H](C(=O)NCCCCCCNC(=O)c1ccc(-c2c3nc(c(-c4c(F)c(F)c(F)c(F)c4F)c4ccc([nH]4)c(-c4c(F)c(F)c(F)c(F)c4F)c4nc(c(-c5c(F)c(F)c(F)c(F)c5F)c5ccc2[nH]5)C=C4)C=C3)cc1)c1ccc2c(c1)OCCO2
REMARK SMILES IDX 9 1 8 4 7 7 6 10 5 13 3 14 4 15 2 17 1 19 78 23 79 24 83 25
REMARK SMILES IDX 80 26 82 28 81 30 84 32 87 33 85 34 86 35 10 40 11 43 12 46
REMARK SMILES IDX 13 47 14 49 15 50 16 51 77 52 17 53 76 55 18 57 19 60 20 61
REMARK SMILES IDX 70 62 21 63 75 64 69 65 71 66 22 67 74 68 68 70 67 72 23 74
REMARK SMILES IDX 55 77 35 78 54 79 36 80 39 81 53 82 72 83 37 84 38 86 52 88
REMARK SMILES IDX 73 89 40 92 24 94 25 95 33 96 26 97 27 98 31 99 34 100
REMARK SMILES IDX 28 101 29 102 32 103 30 104 56 105 57 106 65 107 58 108
REMARK SMILES IDX 59 109 63 110 66 111 60 112 61 113 64 114 62 115 41 116
REMARK SMILES IDX 42 117 50 118 43 119 44 120 48 121 51 122 45 123 46 124
REMARK SMILES IDX 49 125 47 126
REMARK H PARENT 9 2 9 3 8 5 8 6 7 8 7 9 6 11 6 12 5 16 2 18 1 20 1 21 1 22
REMARK H PARENT 79 27 83 29 80 31 85 36 85 37 86 38 86 39 10 41 10 42 11 44
REMARK H PARENT 11 45 12 48 16 54 77 56 17 58 76 59 75 69 69 71 71 73 74 75
REMARK H PARENT 68 76 36 85 39 87 72 90 37 91 73 93
REMARK Flexibility Score: inf
ROOT
ATOM      1  C   UNL A   1      31.328  30.827  25.961  1.00  0.00    -0.052 C 
ATOM      2  H   UNL A   1      30.370  30.370  26.099  1.00  0.00     0.027 H 
ATOM      3  H   UNL A   1      31.646  30.900  24.942  1.00  0.00     0.027 H 
ENDROOT
BRANCH   1   4
ATOM      4  C   UNL A   1      32.369  29.935  26.644  1.00  0.00    -0.052 C 
ATOM      5  H   UNL A   1      33.268  29.984  26.066  1.00  0.00     0.027 H 
ATOM      6  H   UNL A   1      32.455  30.318  27.640  1.00  0.00     0.027 H 
BRANCH   4   7
ATOM      7  C   UNL A   1      32.009  28.456  26.814  1.00  0.00    -0.036 C 
ATOM      8  H   UNL A   1      31.699  28.310  27.827  1.00  0.00     0.028 H 
ATOM      9  H   UNL A   1      31.249  28.265  26.085  1.00  0.00     0.028 H 
BRANCH   7  10
ATOM     10  C   UNL A   1      33.115  27.444  26.516  1.00  0.00     0.017 C 
ATOM     11  H   UNL A   1      34.004  27.987  26.274  1.00  0.00     0.049 H 
ATOM     12  H   UNL A   1      33.211  26.840  27.394  1.00  0.00     0.049 H 
BRANCH  10  13
ATOM     13  N   UNL A   1      32.834  26.530  25.422  1.00  0.00    -0.356 N 
ATOM     14  C   UNL A   1      32.711  26.760  24.077  1.00  0.00     0.227 C 
ATOM     15  O   UNL A   1      32.748  25.763  23.346  1.00  0.00    -0.274 OA
ATOM     16  H   UNL A   1      32.712  25.591  25.691  1.00  0.00     0.163 HD
BRANCH  14  17
ATOM     17  C   UNL A   1      32.417  28.148  23.462  1.00  0.00     0.060 C 
ATOM     18  H   UNL A   1      32.486  28.898  24.223  1.00  0.00     0.045 H 
BRANCH  17  19
ATOM     19  C   UNL A   1      33.485  28.366  22.380  1.00  0.00    -0.049 C 
ATOM     20  H   UNL A   1      33.010  28.468  21.426  1.00  0.00     0.024 H 
ATOM     21  H   UNL A   1      34.149  27.528  22.360  1.00  0.00     0.024 H 
ATOM     22  H   UNL A   1      34.038  29.256  22.599  1.00  0.00     0.024 H 
ENDBRANCH  17  19
BRANCH  17  23
ATOM     23  C   UNL A   1      30.983  28.373  22.993  1.00  0.00    -0.032 A 
ATOM     24  C   UNL A   1      29.920  27.555  23.424  1.00  0.00    -0.054 A 
ATOM     25  C   UNL A   1      30.682  29.510  22.230  1.00  0.00    -0.012 A 
ATOM     26  C   UNL A   1      28.602  28.002  23.338  1.00  0.00    -0.016 A 
ATOM     27  H   UNL A   1      30.120  26.618  23.808  1.00  0.00     0.063 H 
ATOM     28  C   UNL A   1      29.391  30.020  22.268  1.00  0.00     0.161 A 
ATOM     29  H   UNL A   1      31.408  29.960  21.651  1.00  0.00     0.067 H 
ATOM     30  C   UNL A   1      28.368  29.284  22.865  1.00  0.00     0.161 A 
ATOM     31  H   UNL A   1      27.819  27.392  23.618  1.00  0.00     0.066 H 
ATOM     32  O   UNL A   1      29.251  31.327  21.883  1.00  0.00    -0.486 OA
ATOM     33  O   UNL A   1      27.158  29.863  23.157  1.00  0.00    -0.486 OA
ATOM     34  C   UNL A   1      28.113  31.977  22.466  1.00  0.00     0.122 C 
ATOM     35  C   UNL A   1      27.451  31.196  23.595  1.00  0.00     0.122 C 
ATOM     36  H   UNL A   1      27.386  32.133  21.695  1.00  0.00     0.074 H 
ATOM     37  H   UNL A   1      28.467  32.892  22.893  1.00  0.00     0.074 H 
ATOM     38  H   UNL A   1      26.543  31.683  23.881  1.00  0.00     0.074 H 
ATOM     39  H   UNL A   1      28.117  31.153  24.432  1.00  0.00     0.074 H 
ENDBRANCH  17  23
ENDBRANCH  14  17
ENDBRANCH  10  13
ENDBRANCH   7  10
ENDBRANCH   4   7
ENDBRANCH   1   4
BRANCH   1  40
ATOM     40  C   UNL A   1      31.228  32.273  26.457  1.00  0.00    -0.036 C 
ATOM     41  H   UNL A   1      30.427  32.318  27.165  1.00  0.00     0.028 H 
ATOM     42  H   UNL A   1      31.082  32.862  25.577  1.00  0.00     0.028 H 
BRANCH  40  43
ATOM     43  C   UNL A   1      32.472  32.855  27.128  1.00  0.00     0.018 C 
ATOM     44  H   UNL A   1      33.271  32.855  26.416  1.00  0.00     0.049 H 
ATOM     45  H   UNL A   1      32.685  32.242  27.979  1.00  0.00     0.049 H 
BRANCH  43  46
ATOM     46  N   UNL A   1      32.291  34.212  27.615  1.00  0.00    -0.352 N 
ATOM     47  C   UNL A   1      32.972  34.920  28.572  1.00  0.00     0.251 C 
ATOM     48  H   UNL A   1      31.555  34.706  27.187  1.00  0.00     0.163 HD
ATOM     49  O   UNL A   1      32.569  36.045  28.885  1.00  0.00    -0.269 OA
BRANCH  47  50
ATOM     50  C   UNL A   1      34.157  34.365  29.270  1.00  0.00     0.039 A 
ATOM     51  C   UNL A   1      33.951  33.652  30.456  1.00  0.00    -0.049 A 
ATOM     52  C   UNL A   1      35.462  34.565  28.811  1.00  0.00    -0.049 A 
ATOM     53  C   UNL A   1      35.035  33.095  31.142  1.00  0.00    -0.053 A 
ATOM     54  H   UNL A   1      32.995  33.538  30.827  1.00  0.00     0.063 H 
ATOM     55  C   UNL A   1      36.539  33.950  29.458  1.00  0.00    -0.053 A 
ATOM     56  H   UNL A   1      35.633  35.171  27.993  1.00  0.00     0.063 H 
ATOM     57  C   UNL A   1      36.338  33.205  30.630  1.00  0.00    -0.014 A 
ATOM     58  H   UNL A   1      34.876  32.598  32.033  1.00  0.00     0.063 H 
ATOM     59  H   UNL A   1      37.490  34.044  29.070  1.00  0.00     0.063 H 
BRANCH  57  60
ATOM     60  C   UNL A   1      37.475  32.523  31.308  1.00  0.00     0.031 A 
ATOM     61  C   UNL A   1      38.202  31.383  30.647  1.00  0.00     0.074 A 
ATOM     62  C   UNL A   1      37.843  32.921  32.542  1.00  0.00     0.049 A 
ATOM     63  N   UNL A   1      39.215  30.678  31.091  1.00  0.00    -0.248 NA
ATOM     64  C   UNL A   1      37.717  30.963  29.324  1.00  0.00    -0.034 C 
ATOM     65  C   UNL A   1      37.187  33.975  33.318  1.00  0.00    -0.036 A 
ATOM     66  N   UNL A   1      38.854  32.487  33.364  1.00  0.00    -0.354 N 
ATOM     67  C   UNL A   1      39.491  29.742  30.102  1.00  0.00     0.074 A 
ATOM     68  C   UNL A   1      38.500  29.925  29.063  1.00  0.00    -0.034 C 
ATOM     69  H   UNL A   1      36.965  31.371  28.747  1.00  0.00     0.065 H 
ATOM     70  C   UNL A   1      37.826  34.122  34.489  1.00  0.00    -0.036 A 
ATOM     71  H   UNL A   1      36.365  34.519  33.012  1.00  0.00     0.065 H 
ATOM     72  C   UNL A   1      38.915  33.153  34.563  1.00  0.00     0.049 A 
ATOM     73  H   UNL A   1      39.477  31.765  33.116  1.00  0.00     0.167 HD
ATOM     74  C   UNL A   1      40.496  28.834  30.049  1.00  0.00     0.037 A 
ATOM     75  H   UNL A   1      38.413  29.324  28.228  1.00  0.00     0.065 H 
ATOM     76  H   UNL A   1      37.585  34.811  35.220  1.00  0.00     0.065 H 
ATOM     77  C   UNL A   1      39.752  33.002  35.608  1.00  0.00     0.037 A 
ATOM     78  C   UNL A   1      41.488  28.654  31.080  1.00  0.00     0.049 A 
ATOM     79  C   UNL A   1      40.856  31.982  35.526  1.00  0.00     0.074 A 
ATOM     80  C   UNL A   1      42.560  27.778  31.103  1.00  0.00    -0.036 A 
ATOM     81  N   UNL A   1      41.526  29.361  32.272  1.00  0.00    -0.354 N 
ATOM     82  N   UNL A   1      41.143  31.151  34.555  1.00  0.00    -0.248 NA
ATOM     83  C   UNL A   1      41.760  31.892  36.680  1.00  0.00    -0.034 C 
ATOM     84  C   UNL A   1      43.223  27.926  32.327  1.00  0.00    -0.036 A 
ATOM     85  H   UNL A   1      42.826  27.128  30.347  1.00  0.00     0.065 H 
ATOM     86  C   UNL A   1      42.596  28.931  33.045  1.00  0.00     0.049 A 
ATOM     87  H   UNL A   1      40.889  30.064  32.533  1.00  0.00     0.167 HD
ATOM     88  C   UNL A   1      42.272  30.455  34.970  1.00  0.00     0.074 A 
ATOM     89  C   UNL A   1      42.633  30.984  36.269  1.00  0.00    -0.034 C 
ATOM     90  H   UNL A   1      41.725  32.401  37.577  1.00  0.00     0.065 H 
ATOM     91  H   UNL A   1      44.039  27.380  32.642  1.00  0.00     0.065 H 
ATOM     92  C   UNL A   1      42.945  29.464  34.336  1.00  0.00     0.037 A 
ATOM     93  H   UNL A   1      43.465  30.692  36.804  1.00  0.00     0.065 H 
BRANCH  74  94
ATOM     94  C   UNL A   1      40.591  27.972  28.823  1.00  0.00     0.064 A 
ATOM     95  C   UNL A   1      39.888  26.762  28.725  1.00  0.00     0.173 A 
ATOM     96  C   UNL A   1      41.343  28.382  27.711  1.00  0.00     0.173 A 
ATOM     97  F   UNL A   1      39.161  26.318  29.762  1.00  0.00    -0.203 F 
ATOM     98  C   UNL A   1      39.953  25.983  27.572  1.00  0.00     0.198 A 
ATOM     99  C   UNL A   1      41.382  27.616  26.549  1.00  0.00     0.198 A 
ATOM    100  F   UNL A   1      42.030  29.534  27.748  1.00  0.00    -0.203 F 
ATOM    101  F   UNL A   1      39.307  24.810  27.520  1.00  0.00    -0.200 F 
ATOM    102  C   UNL A   1      40.693  26.415  26.482  1.00  0.00     0.200 A 
ATOM    103  F   UNL A   1      42.086  28.043  25.491  1.00  0.00    -0.200 F 
ATOM    104  F   UNL A   1      40.746  25.671  25.369  1.00  0.00    -0.200 F 
ENDBRANCH  74  94
BRANCH  77 105
ATOM    105  C   UNL A   1      39.588  33.846  36.822  1.00  0.00     0.064 A 
ATOM    106  C   UNL A   1      38.831  33.403  37.918  1.00  0.00     0.173 A 
ATOM    107  C   UNL A   1      40.164  35.122  36.904  1.00  0.00     0.173 A 
ATOM    108  F   UNL A   1      38.243  32.197  37.881  1.00  0.00    -0.203 F 
ATOM    109  C   UNL A   1      38.633  34.216  39.032  1.00  0.00     0.198 A 
ATOM    110  C   UNL A   1      39.993  35.920  38.032  1.00  0.00     0.198 A 
ATOM    111  F   UNL A   1      40.903  35.591  35.887  1.00  0.00    -0.203 F 
ATOM    112  F   UNL A   1      37.856  33.790  40.038  1.00  0.00    -0.200 F 
ATOM    113  C   UNL A   1      39.217  35.472  39.090  1.00  0.00     0.200 A 
ATOM    114  F   UNL A   1      40.573  37.126  38.091  1.00  0.00    -0.200 F 
ATOM    115  F   UNL A   1      39.026  36.253  40.162  1.00  0.00    -0.200 F 
ENDBRANCH  77 105
BRANCH  92 116
ATOM    116  C   UNL A   1      44.156  28.907  35.029  1.00  0.00     0.064 A 
ATOM    117  C   UNL A   1      44.068  27.806  35.896  1.00  0.00     0.173 A 
ATOM    118  C   UNL A   1      45.423  29.473  34.817  1.00  0.00     0.173 A 
ATOM    119  F   UNL A   1      42.879  27.237  36.145  1.00  0.00    -0.203 F 
ATOM    120  C   UNL A   1      45.194  27.319  36.553  1.00  0.00     0.198 A 
ATOM    121  C   UNL A   1      46.552  28.963  35.449  1.00  0.00     0.198 A 
ATOM    122  F   UNL A   1      45.564  30.521  33.993  1.00  0.00    -0.203 F 
ATOM    123  F   UNL A   1      45.075  26.308  37.424  1.00  0.00    -0.200 F 
ATOM    124  C   UNL A   1      46.436  27.894  36.326  1.00  0.00     0.200 A 
ATOM    125  F   UNL A   1      47.753  29.510  35.218  1.00  0.00    -0.200 F 
ATOM    126  F   UNL A   1      47.519  27.425  36.961  1.00  0.00    -0.200 F 
ENDBRANCH  92 116
ENDBRANCH  57  60
ENDBRANCH  47  50
ENDBRANCH  43  46
ENDBRANCH  40  43
ENDBRANCH   1  40
TORSDOF 15
ENDMDL
MODEL 3
REMARK VINA RESULT:     -11.8      0.669      1.780
REMARK SMILES C[C@H](C(=O)NCCCCCCNC(=O)c1ccc(-c2c3nc(c(-c4c(F)c(F)c(F)c(F)c4F)c4ccc([nH]4)c(-c4c(F)c(F)c(F)c(F)c4F)c4nc(c(-c5c(F)c(F)c(F)c(F)c5F)c5ccc2[nH]5)C=C4)C=C3)cc1)c1ccc2c(c1)OCCO2
REMARK SMILES IDX 9 1 8 4 7 7 6 10 5 13 3 14 4 15 2 17 1 19 78 23 79 24 83 25
REMARK SMILES IDX 80 26 82 28 81 30 84 32 87 33 85 34 86 35 10 40 11 43 12 46
REMARK SMILES IDX 13 47 14 49 15 50 16 51 77 52 17 53 76 55 18 57 19 60 20 61
REMARK SMILES IDX 70 62 21 63 75 64 69 65 71 66 22 67 74 68 68 70 67 72 23 74
REMARK SMILES IDX 55 77 35 78 54 79 36 80 39 81 53 82 72 83 37 84 38 86 52 88
REMARK SMILES IDX 73 89 40 92 24 94 25 95 33 96 26 97 27 98 31 99 34 100
REMARK SMILES IDX 28 101 29 102 32 103 30 104 56 105 57 106 65 107 58 108
REMARK SMILES IDX 59 109 63 110 66 111 60 112 61 113 64 114 62 115 41 116
REMARK SMILES IDX 42 117 50 118 43 119 44 120 48 121 51 122 45 123 46 124
REMARK SMILES IDX 49 125 47 126
REMARK H PARENT 9 2 9 3 8 5 8 6 7 8 7 9 6 11 6 12 5 16 2 18 1 20 1 21 1 22
REMARK H PARENT 79 27 83 29 80 31 85 36 85 37 86 38 86 39 10 41 10 42 11 44
REMARK H PARENT 11 45 12 48 16 54 77 56 17 58 76 59 75 69 69 71 71 73 74 75
REMARK H PARENT 68 76 36 85 39 87 72 90 37 91 73 93
REMARK Flexibility Score: inf
ROOT
ATOM      1  C   UNL A   1      31.409  30.814  25.890  1.00  0.00    -0.052 C 
ATOM      2  H   UNL A   1      30.622  30.201  26.279  1.00  0.00     0.027 H 
ATOM      3  H   UNL A   1      31.376  30.965  24.832  1.00  0.00     0.027 H 
ENDROOT
BRANCH   1   4
ATOM      4  C   UNL A   1      32.732  30.088  26.152  1.00  0.00    -0.052 C 
ATOM      5  H   UNL A   1      33.027  29.613  25.240  1.00  0.00     0.027 H 
ATOM      6  H   UNL A   1      33.403  30.847  26.500  1.00  0.00     0.027 H 
BRANCH   4   7
ATOM      7  C   UNL A   1      32.732  29.021  27.250  1.00  0.00    -0.036 C 
ATOM      8  H   UNL A   1      33.521  28.331  27.034  1.00  0.00     0.028 H 
ATOM      9  H   UNL A   1      32.850  29.559  28.167  1.00  0.00     0.028 H 
BRANCH   7  10
ATOM     10  C   UNL A   1      31.445  28.215  27.420  1.00  0.00     0.017 C 
ATOM     11  H   UNL A   1      31.126  28.311  28.437  1.00  0.00     0.049 H 
ATOM     12  H   UNL A   1      30.747  28.614  26.715  1.00  0.00     0.049 H 
BRANCH  10  13
ATOM     13  N   UNL A   1      31.562  26.798  27.118  1.00  0.00    -0.356 N 
ATOM     14  C   UNL A   1      32.045  26.160  26.005  1.00  0.00     0.227 C 
ATOM     15  O   UNL A   1      32.286  24.953  26.127  1.00  0.00    -0.274 OA
ATOM     16  H   UNL A   1      31.243  26.197  27.830  1.00  0.00     0.163 HD
BRANCH  14  17
ATOM     17  C   UNL A   1      32.181  26.830  24.618  1.00  0.00     0.060 C 
ATOM     18  H   UNL A   1      32.482  27.850  24.741  1.00  0.00     0.045 H 
BRANCH  17  19
ATOM     19  C   UNL A   1      33.254  26.030  23.865  1.00  0.00    -0.049 C 
ATOM     20  H   UNL A   1      33.942  26.705  23.402  1.00  0.00     0.024 H 
ATOM     21  H   UNL A   1      32.787  25.426  23.115  1.00  0.00     0.024 H 
ATOM     22  H   UNL A   1      33.779  25.401  24.554  1.00  0.00     0.024 H 
ENDBRANCH  17  19
BRANCH  17  23
ATOM     23  C   UNL A   1      30.879  27.027  23.848  1.00  0.00    -0.032 A 
ATOM     24  C   UNL A   1      29.661  26.471  24.287  1.00  0.00    -0.054 A 
ATOM     25  C   UNL A   1      30.856  27.904  22.755  1.00  0.00    -0.012 A 
ATOM     26  C   UNL A   1      28.445  26.983  23.836  1.00  0.00    -0.016 A 
ATOM     27  H   UNL A   1      29.670  25.679  24.948  1.00  0.00     0.063 H 
ATOM     28  C   UNL A   1      29.656  28.511  22.407  1.00  0.00     0.161 A 
ATOM     29  H   UNL A   1      31.716  28.095  22.217  1.00  0.00     0.067 H 
ATOM     30  C   UNL A   1      28.463  28.079  22.987  1.00  0.00     0.161 A 
ATOM     31  H   UNL A   1      27.552  26.555  24.126  1.00  0.00     0.066 H 
ATOM     32  O   UNL A   1      29.756  29.649  21.653  1.00  0.00    -0.486 OA
ATOM     33  O   UNL A   1      27.314  28.821  22.875  1.00  0.00    -0.486 OA
ATOM     34  C   UNL A   1      28.642  30.540  21.808  1.00  0.00     0.122 C 
ATOM     35  C   UNL A   1      27.716  30.193  22.968  1.00  0.00     0.122 C 
ATOM     36  H   UNL A   1      28.069  30.519  20.904  1.00  0.00     0.074 H 
ATOM     37  H   UNL A   1      29.049  31.506  22.019  1.00  0.00     0.074 H 
ATOM     38  H   UNL A   1      26.851  30.820  22.933  1.00  0.00     0.074 H 
ATOM     39  H   UNL A   1      28.235  30.347  23.892  1.00  0.00     0.074 H 
ENDBRANCH  17  23
ENDBRANCH  14  17
ENDBRANCH  10  13
ENDBRANCH   7  10
ENDBRANCH   4   7
ENDBRANCH   1   4
BRANCH   1  40
ATOM     40  C   UNL A   1      31.256  32.210  26.501  1.00  0.00    -0.036 C 
ATOM     41  H   UNL A   1      30.574  32.132  27.322  1.00  0.00     0.028 H 
ATOM     42  H   UNL A   1      30.922  32.833  25.699  1.00  0.00     0.028 H 
BRANCH  40  43
ATOM     43  C   UNL A   1      32.531  32.874  27.021  1.00  0.00     0.018 C 
ATOM     44  H   UNL A   1      33.218  32.972  26.205  1.00  0.00     0.049 H 
ATOM     45  H   UNL A   1      32.913  32.252  27.803  1.00  0.00     0.049 H 
BRANCH  43  46
ATOM     46  N   UNL A   1      32.310  34.191  27.595  1.00  0.00    -0.352 N 
ATOM     47  C   UNL A   1      32.979  34.861  28.587  1.00  0.00     0.251 C 
ATOM     48  H   UNL A   1      31.553  34.685  27.206  1.00  0.00     0.163 HD
ATOM     49  O   UNL A   1      32.543  35.949  28.974  1.00  0.00    -0.269 OA
BRANCH  47  50
ATOM     50  C   UNL A   1      34.191  34.304  29.235  1.00  0.00     0.039 A 
ATOM     51  C   UNL A   1      34.022  33.471  30.347  1.00  0.00    -0.049 A 
ATOM     52  C   UNL A   1      35.485  34.616  28.807  1.00  0.00    -0.049 A 
ATOM     53  C   UNL A   1      35.133  32.907  30.983  1.00  0.00    -0.053 A 
ATOM     54  H   UNL A   1      33.073  33.271  30.699  1.00  0.00     0.063 H 
ATOM     55  C   UNL A   1      36.591  33.999  29.398  1.00  0.00    -0.053 A 
ATOM     56  H   UNL A   1      35.624  35.305  28.051  1.00  0.00     0.063 H 
ATOM     57  C   UNL A   1      36.429  33.135  30.492  1.00  0.00    -0.014 A 
ATOM     58  H   UNL A   1      34.999  32.320  31.821  1.00  0.00     0.063 H 
ATOM     59  H   UNL A   1      37.537  34.179  29.026  1.00  0.00     0.063 H 
BRANCH  57  60
ATOM     60  C   UNL A   1      37.600  32.452  31.108  1.00  0.00     0.031 A 
ATOM     61  C   UNL A   1      38.106  32.853  32.467  1.00  0.00     0.074 A 
ATOM     62  C   UNL A   1      38.229  31.474  30.425  1.00  0.00     0.049 A 
ATOM     63  N   UNL A   1      39.110  32.364  33.155  1.00  0.00    -0.248 NA
ATOM     64  C   UNL A   1      37.409  33.962  33.136  1.00  0.00    -0.034 C 
ATOM     65  C   UNL A   1      37.876  31.027  29.076  1.00  0.00    -0.036 A 
ATOM     66  N   UNL A   1      39.297  30.681  30.767  1.00  0.00    -0.354 N 
ATOM     67  C   UNL A   1      39.158  33.097  34.334  1.00  0.00     0.074 A 
ATOM     68  C   UNL A   1      38.125  34.107  34.242  1.00  0.00    -0.034 C 
ATOM     69  H   UNL A   1      36.578  34.489  32.826  1.00  0.00     0.065 H 
ATOM     70  C   UNL A   1      38.695  30.026  28.717  1.00  0.00    -0.036 A 
ATOM     71  H   UNL A   1      37.118  31.419  28.496  1.00  0.00     0.065 H 
ATOM     72  C   UNL A   1      39.651  29.781  29.792  1.00  0.00     0.049 A 
ATOM     73  H   UNL A   1      39.766  30.752  31.631  1.00  0.00     0.167 HD
ATOM     74  C   UNL A   1      39.968  32.927  35.407  1.00  0.00     0.037 A 
ATOM     75  H   UNL A   1      37.967  34.845  34.947  1.00  0.00     0.065 H 
ATOM     76  H   UNL A   1      38.653  29.512  27.822  1.00  0.00     0.065 H 
ATOM     77  C   UNL A   1      40.634  28.861  29.763  1.00  0.00     0.037 A 
ATOM     78  C   UNL A   1      40.995  31.919  35.503  1.00  0.00     0.049 A 
ATOM     79  C   UNL A   1      41.523  28.696  30.967  1.00  0.00     0.074 A 
ATOM     80  C   UNL A   1      41.846  31.651  36.562  1.00  0.00    -0.036 A 
ATOM     81  N   UNL A   1      41.310  31.014  34.501  1.00  0.00    -0.354 N 
ATOM     82  N   UNL A   1      41.512  29.354  32.100  1.00  0.00    -0.248 NA
ATOM     83  C   UNL A   1      42.552  27.650  30.891  1.00  0.00    -0.034 C 
ATOM     84  C   UNL A   1      42.705  30.612  36.184  1.00  0.00    -0.036 A 
ATOM     85  H   UNL A   1      41.848  32.135  37.473  1.00  0.00     0.065 H 
ATOM     86  C   UNL A   1      42.353  30.196  34.911  1.00  0.00     0.049 A 
ATOM     87  H   UNL A   1      40.859  30.959  33.627  1.00  0.00     0.167 HD
ATOM     88  C   UNL A   1      42.513  28.788  32.879  1.00  0.00     0.074 A 
ATOM     89  C   UNL A   1      43.091  27.714  32.099  1.00  0.00    -0.034 C 
ATOM     90  H   UNL A   1      42.791  27.028  30.103  1.00  0.00     0.065 H 
ATOM     91  H   UNL A   1      43.469  30.222  36.756  1.00  0.00     0.065 H 
ATOM     92  C   UNL A   1      42.921  29.131  34.125  1.00  0.00     0.037 A 
ATOM     93  H   UNL A   1      43.829  27.079  32.442  1.00  0.00     0.065 H 
BRANCH  74  94
ATOM     94  C   UNL A   1      39.767  33.840  36.583  1.00  0.00     0.064 A 
ATOM     95  C   UNL A   1      38.920  33.488  37.645  1.00  0.00     0.173 A 
ATOM     96  C   UNL A   1      40.469  35.051  36.681  1.00  0.00     0.173 A 
ATOM     97  F   UNL A   1      38.219  32.345  37.598  1.00  0.00    -0.203 F 
ATOM     98  C   UNL A   1      38.764  34.324  38.748  1.00  0.00     0.198 A 
ATOM     99  C   UNL A   1      40.334  35.871  37.799  1.00  0.00     0.198 A 
ATOM    100  F   UNL A   1      41.297  35.435  35.697  1.00  0.00    -0.203 F 
ATOM    101  F   UNL A   1      37.916  33.985  39.728  1.00  0.00    -0.200 F 
ATOM    102  C   UNL A   1      39.477  35.510  38.828  1.00  0.00     0.200 A 
ATOM    103  F   UNL A   1      41.035  37.010  37.882  1.00  0.00    -0.200 F 
ATOM    104  F   UNL A   1      39.335  36.308  39.895  1.00  0.00    -0.200 F 
ENDBRANCH  74  94
BRANCH  77 105
ATOM    105  C   UNL A   1      40.826  28.013  28.557  1.00  0.00     0.064 A 
ATOM    106  C   UNL A   1      41.629  28.440  27.489  1.00  0.00     0.173 A 
ATOM    107  C   UNL A   1      40.193  26.767  28.436  1.00  0.00     0.173 A 
ATOM    108  F   UNL A   1      42.241  29.633  27.547  1.00  0.00    -0.203 F 
ATOM    109  C   UNL A   1      41.764  27.669  26.336  1.00  0.00     0.198 A 
ATOM    110  C   UNL A   1      40.356  25.982  27.296  1.00  0.00     0.198 A 
ATOM    111  F   UNL A   1      39.420  26.307  29.431  1.00  0.00    -0.203 F 
ATOM    112  F   UNL A   1      42.490  28.130  25.307  1.00  0.00    -0.200 F 
ATOM    113  C   UNL A   1      41.132  26.439  26.243  1.00  0.00     0.200 A 
ATOM    114  F   UNL A   1      39.757  24.787  27.218  1.00  0.00    -0.200 F 
ATOM    115  F   UNL A   1      41.263  25.699  25.134  1.00  0.00    -0.200 F 
ENDBRANCH  77 105
BRANCH  92 116
ATOM    116  C   UNL A   1      44.029  28.317  34.731  1.00  0.00     0.064 A 
ATOM    117  C   UNL A   1      45.376  28.690  34.596  1.00  0.00     0.173 A 
ATOM    118  C   UNL A   1      43.742  27.155  35.465  1.00  0.00     0.173 A 
ATOM    119  F   UNL A   1      45.706  29.783  33.893  1.00  0.00    -0.203 F 
ATOM    120  C   UNL A   1      46.394  27.910  35.138  1.00  0.00     0.198 A 
ATOM    121  C   UNL A   1      44.760  26.396  36.034  1.00  0.00     0.198 A 
ATOM    122  F   UNL A   1      42.472  26.758  35.631  1.00  0.00    -0.203 F 
ATOM    123  F   UNL A   1      47.674  28.252  34.942  1.00  0.00    -0.200 F 
ATOM    124  C   UNL A   1      46.085  26.767  35.861  1.00  0.00     0.200 A 
ATOM    125  F   UNL A   1      44.460  25.300  36.743  1.00  0.00    -0.200 F 
ATOM    126  F   UNL A   1      47.066  26.016  36.381  1.00  0.00    -0.200 F 
ENDBRANCH  92 116
ENDBRANCH  57  60
ENDBRANCH  47  50
ENDBRANCH  43  46
ENDBRANCH  40  43
ENDBRANCH   1  40
TORSDOF 15
ENDMDL
MODEL 4
REMARK VINA RESULT:     -11.8      6.078     11.568
REMARK SMILES C[C@H](C(=O)NCCCCCCNC(=O)c1ccc(-c2c3nc(c(-c4c(F)c(F)c(F)c(F)c4F)c4ccc([nH]4)c(-c4c(F)c(F)c(F)c(F)c4F)c4nc(c(-c5c(F)c(F)c(F)c(F)c5F)c5ccc2[nH]5)C=C4)C=C3)cc1)c1ccc2c(c1)OCCO2
REMARK SMILES IDX 9 1 8 4 7 7 6 10 5 13 3 14 4 15 2 17 1 19 78 23 79 24 83 25
REMARK SMILES IDX 80 26 82 28 81 30 84 32 87 33 85 34 86 35 10 40 11 43 12 46
REMARK SMILES IDX 13 47 14 49 15 50 16 51 77 52 17 53 76 55 18 57 19 60 20 61
REMARK SMILES IDX 70 62 21 63 75 64 69 65 71 66 22 67 74 68 68 70 67 72 23 74
REMARK SMILES IDX 55 77 35 78 54 79 36 80 39 81 53 82 72 83 37 84 38 86 52 88
REMARK SMILES IDX 73 89 40 92 24 94 25 95 33 96 26 97 27 98 31 99 34 100
REMARK SMILES IDX 28 101 29 102 32 103 30 104 56 105 57 106 65 107 58 108
REMARK SMILES IDX 59 109 63 110 66 111 60 112 61 113 64 114 62 115 41 116
REMARK SMILES IDX 42 117 50 118 43 119 44 120 48 121 51 122 45 123 46 124
REMARK SMILES IDX 49 125 47 126
REMARK H PARENT 9 2 9 3 8 5 8 6 7 8 7 9 6 11 6 12 5 16 2 18 1 20 1 21 1 22
REMARK H PARENT 79 27 83 29 80 31 85 36 85 37 86 38 86 39 10 41 10 42 11 44
REMARK H PARENT 11 45 12 48 16 54 77 56 17 58 76 59 75 69 69 71 71 73 74 75
REMARK H PARENT 68 76 36 85 39 87 72 90 37 91 73 93
REMARK Flexibility Score: inf
ROOT
ATOM      1  C   UNL A   1      36.765  20.960  24.797  1.00  0.00    -0.052 C 
ATOM      2  H   UNL A   1      35.896  20.465  24.415  1.00  0.00     0.027 H 
ATOM      3  H   UNL A   1      36.665  21.332  25.796  1.00  0.00     0.027 H 
ENDROOT
BRANCH   1   4
ATOM      4  C   UNL A   1      37.012  22.198  23.930  1.00  0.00    -0.052 C 
ATOM      5  H   UNL A   1      37.650  22.858  24.481  1.00  0.00     0.027 H 
ATOM      6  H   UNL A   1      37.432  21.823  23.020  1.00  0.00     0.027 H 
BRANCH   4   7
ATOM      7  C   UNL A   1      35.779  23.001  23.502  1.00  0.00    -0.036 C 
ATOM      8  H   UNL A   1      36.002  23.462  22.563  1.00  0.00     0.028 H 
ATOM      9  H   UNL A   1      34.979  22.291  23.470  1.00  0.00     0.028 H 
BRANCH   7  10
ATOM     10  C   UNL A   1      35.309  24.095  24.458  1.00  0.00     0.017 C 
ATOM     11  H   UNL A   1      35.856  23.995  25.371  1.00  0.00     0.049 H 
ATOM     12  H   UNL A   1      35.484  25.025  23.957  1.00  0.00     0.049 H 
BRANCH  10  13
ATOM     13  N   UNL A   1      33.891  24.066  24.776  1.00  0.00    -0.356 N 
ATOM     14  C   UNL A   1      33.171  23.203  25.560  1.00  0.00     0.227 C 
ATOM     15  O   UNL A   1      32.035  23.574  25.881  1.00  0.00    -0.274 OA
ATOM     16  H   UNL A   1      33.361  24.785  24.361  1.00  0.00     0.163 HD
BRANCH  14  17
ATOM     17  C   UNL A   1      33.649  21.785  25.946  1.00  0.00     0.060 C 
ATOM     18  H   UNL A   1      34.670  21.659  25.652  1.00  0.00     0.045 H 
BRANCH  17  19
ATOM     19  C   UNL A   1      33.503  21.689  27.472  1.00  0.00    -0.049 C 
ATOM     20  H   UNL A   1      33.925  20.767  27.813  1.00  0.00     0.024 H 
ATOM     21  H   UNL A   1      32.466  21.725  27.734  1.00  0.00     0.024 H 
ATOM     22  H   UNL A   1      34.016  22.508  27.931  1.00  0.00     0.024 H 
ENDBRANCH  17  19
BRANCH  17  23
ATOM     23  C   UNL A   1      33.006  20.637  25.174  1.00  0.00    -0.032 A 
ATOM     24  C   UNL A   1      32.644  20.761  23.818  1.00  0.00    -0.054 A 
ATOM     25  C   UNL A   1      32.902  19.377  25.779  1.00  0.00    -0.012 A 
ATOM     26  C   UNL A   1      32.457  19.627  23.028  1.00  0.00    -0.016 A 
ATOM     27  H   UNL A   1      32.518  21.698  23.406  1.00  0.00     0.063 H 
ATOM     28  C   UNL A   1      32.856  18.247  24.972  1.00  0.00     0.161 A 
ATOM     29  H   UNL A   1      32.861  19.290  26.807  1.00  0.00     0.067 H 
ATOM     30  C   UNL A   1      32.682  18.382  23.594  1.00  0.00     0.161 A 
ATOM     31  H   UNL A   1      32.156  19.712  22.044  1.00  0.00     0.066 H 
ATOM     32  O   UNL A   1      33.191  17.064  25.576  1.00  0.00    -0.486 OA
ATOM     33  O   UNL A   1      32.899  17.323  22.748  1.00  0.00    -0.486 OA
ATOM     34  C   UNL A   1      33.700  16.080  24.665  1.00  0.00     0.122 C 
ATOM     35  C   UNL A   1      34.029  16.617  23.277  1.00  0.00     0.122 C 
ATOM     36  H   UNL A   1      32.964  15.309  24.560  1.00  0.00     0.074 H 
ATOM     37  H   UNL A   1      34.618  15.723  25.081  1.00  0.00     0.074 H 
ATOM     38  H   UNL A   1      34.275  15.803  22.629  1.00  0.00     0.074 H 
ATOM     39  H   UNL A   1      34.863  17.287  23.346  1.00  0.00     0.074 H 
ENDBRANCH  17  23
ENDBRANCH  14  17
ENDBRANCH  10  13
ENDBRANCH   7  10
ENDBRANCH   4   7
ENDBRANCH   1   4
BRANCH   1  40
ATOM     40  C   UNL A   1      37.896  19.929  24.862  1.00  0.00    -0.036 C 
ATOM     41  H   UNL A   1      38.435  19.980  23.940  1.00  0.00     0.028 H 
ATOM     42  H   UNL A   1      37.412  18.993  25.046  1.00  0.00     0.028 H 
BRANCH  40  43
ATOM     43  C   UNL A   1      38.906  20.089  25.999  1.00  0.00     0.018 C 
ATOM     44  H   UNL A   1      38.409  19.883  26.924  1.00  0.00     0.049 H 
ATOM     45  H   UNL A   1      39.276  21.092  25.950  1.00  0.00     0.049 H 
BRANCH  43  46
ATOM     46  N   UNL A   1      40.054  19.206  25.887  1.00  0.00    -0.352 N 
ATOM     47  C   UNL A   1      41.396  19.459  26.014  1.00  0.00     0.251 C 
ATOM     48  H   UNL A   1      39.831  18.268  25.686  1.00  0.00     0.163 HD
ATOM     49  O   UNL A   1      42.201  18.552  25.781  1.00  0.00    -0.269 OA
BRANCH  47  50
ATOM     50  C   UNL A   1      41.914  20.797  26.390  1.00  0.00     0.039 A 
ATOM     51  C   UNL A   1      42.092  21.745  25.377  1.00  0.00    -0.049 A 
ATOM     52  C   UNL A   1      42.270  21.125  27.702  1.00  0.00    -0.049 A 
ATOM     53  C   UNL A   1      42.562  23.026  25.682  1.00  0.00    -0.053 A 
ATOM     54  H   UNL A   1      41.876  21.498  24.398  1.00  0.00     0.063 H 
ATOM     55  C   UNL A   1      42.673  22.426  28.018  1.00  0.00    -0.053 A 
ATOM     56  H   UNL A   1      42.235  20.404  28.440  1.00  0.00     0.063 H 
ATOM     57  C   UNL A   1      42.822  23.393  27.013  1.00  0.00    -0.014 A 
ATOM     58  H   UNL A   1      42.720  23.707  24.923  1.00  0.00     0.063 H 
ATOM     59  H   UNL A   1      42.863  22.678  29.001  1.00  0.00     0.063 H 
BRANCH  57  60
ATOM     60  C   UNL A   1      43.223  24.788  27.346  1.00  0.00     0.031 A 
ATOM     61  C   UNL A   1      44.628  25.270  27.104  1.00  0.00     0.074 A 
ATOM     62  C   UNL A   1      42.317  25.622  27.895  1.00  0.00     0.049 A 
ATOM     63  N   UNL A   1      45.149  26.452  27.332  1.00  0.00    -0.248 NA
ATOM     64  C   UNL A   1      45.580  24.295  26.554  1.00  0.00    -0.034 C 
ATOM     65  C   UNL A   1      40.939  25.265  28.234  1.00  0.00    -0.036 A 
ATOM     66  N   UNL A   1      42.418  26.941  28.267  1.00  0.00    -0.354 N 
ATOM     67  C   UNL A   1      46.480  26.363  26.946  1.00  0.00     0.074 A 
ATOM     68  C   UNL A   1      46.706  24.995  26.531  1.00  0.00    -0.034 C 
ATOM     69  H   UNL A   1      45.416  23.319  26.260  1.00  0.00     0.065 H 
ATOM     70  C   UNL A   1      40.317  26.342  28.740  1.00  0.00    -0.036 A 
ATOM     71  H   UNL A   1      40.513  24.334  28.103  1.00  0.00     0.065 H 
ATOM     72  C   UNL A   1      41.258  27.456  28.793  1.00  0.00     0.049 A 
ATOM     73  H   UNL A   1      43.245  27.467  28.167  1.00  0.00     0.167 HD
ATOM     74  C   UNL A   1      47.421  27.338  26.913  1.00  0.00     0.037 A 
ATOM     75  H   UNL A   1      47.625  24.614  26.253  1.00  0.00     0.065 H 
ATOM     76  H   UNL A   1      39.330  26.375  29.042  1.00  0.00     0.065 H 
ATOM     77  C   UNL A   1      40.981  28.686  29.266  1.00  0.00     0.037 A 
ATOM     78  C   UNL A   1      47.198  28.703  27.321  1.00  0.00     0.049 A 
ATOM     79  C   UNL A   1      42.046  29.749  29.222  1.00  0.00     0.074 A 
ATOM     80  C   UNL A   1      48.082  29.768  27.297  1.00  0.00    -0.036 A 
ATOM     81  N   UNL A   1      46.004  29.190  27.831  1.00  0.00    -0.354 N 
ATOM     82  N   UNL A   1      43.282  29.665  28.793  1.00  0.00    -0.248 NA
ATOM     83  C   UNL A   1      41.672  31.081  29.716  1.00  0.00    -0.034 C 
ATOM     84  C   UNL A   1      47.437  30.889  27.831  1.00  0.00    -0.036 A 
ATOM     85  H   UNL A   1      49.052  29.740  26.945  1.00  0.00     0.065 H 
ATOM     86  C   UNL A   1      46.133  30.536  28.139  1.00  0.00     0.049 A 
ATOM     87  H   UNL A   1      45.184  28.658  27.956  1.00  0.00     0.167 HD
ATOM     88  C   UNL A   1      43.824  30.935  28.942  1.00  0.00     0.074 A 
ATOM     89  C   UNL A   1      42.774  31.777  29.475  1.00  0.00    -0.034 C 
ATOM     90  H   UNL A   1      40.784  31.393  30.139  1.00  0.00     0.065 H 
ATOM     91  H   UNL A   1      47.859  31.819  27.971  1.00  0.00     0.065 H 
ATOM     92  C   UNL A   1      45.080  31.364  28.670  1.00  0.00     0.037 A 
ATOM     93  H   UNL A   1      42.871  32.790  29.646  1.00  0.00     0.065 H 
BRANCH  74  94
ATOM     94  C   UNL A   1      48.784  26.973  26.396  1.00  0.00     0.064 A 
ATOM     95  C   UNL A   1      49.768  26.444  27.244  1.00  0.00     0.173 A 
ATOM     96  C   UNL A   1      49.093  27.096  25.032  1.00  0.00     0.173 A 
ATOM     97  F   UNL A   1      49.528  26.313  28.558  1.00  0.00    -0.203 F 
ATOM     98  C   UNL A   1      51.019  26.076  26.752  1.00  0.00     0.198 A 
ATOM     99  C   UNL A   1      50.333  26.698  24.539  1.00  0.00     0.198 A 
ATOM    100  F   UNL A   1      48.186  27.590  24.175  1.00  0.00    -0.203 F 
ATOM    101  F   UNL A   1      51.957  25.613  27.590  1.00  0.00    -0.200 F 
ATOM    102  C   UNL A   1      51.297  26.195  25.399  1.00  0.00     0.200 A 
ATOM    103  F   UNL A   1      50.595  26.801  23.228  1.00  0.00    -0.200 F 
ATOM    104  F   UNL A   1      52.495  25.829  24.926  1.00  0.00    -0.200 F 
ENDBRANCH  74  94
BRANCH  77 105
ATOM    105  C   UNL A   1      39.632  28.987  29.814  1.00  0.00     0.064 A 
ATOM    106  C   UNL A   1      38.617  29.510  29.000  1.00  0.00     0.173 A 
ATOM    107  C   UNL A   1      39.336  28.781  31.170  1.00  0.00     0.173 A 
ATOM    108  F   UNL A   1      38.856  29.745  27.700  1.00  0.00    -0.203 F 
ATOM    109  C   UNL A   1      37.370  29.844  29.526  1.00  0.00     0.198 A 
ATOM    110  C   UNL A   1      38.079  29.083  31.688  1.00  0.00     0.198 A 
ATOM    111  F   UNL A   1      40.268  28.276  31.991  1.00  0.00    -0.203 F 
ATOM    112  F   UNL A   1      36.439  30.398  28.737  1.00  0.00    -0.200 F 
ATOM    113  C   UNL A   1      37.101  29.626  30.868  1.00  0.00     0.200 A 
ATOM    114  F   UNL A   1      37.817  28.854  32.981  1.00  0.00    -0.200 F 
ATOM    115  F   UNL A   1      35.903  29.947  31.374  1.00  0.00    -0.200 F 
ENDBRANCH  77 105
BRANCH  92 116
ATOM    116  C   UNL A   1      45.378  32.816  28.918  1.00  0.00     0.064 A 
ATOM    117  C   UNL A   1      45.152  33.793  27.936  1.00  0.00     0.173 A 
ATOM    118  C   UNL A   1      45.884  33.238  30.157  1.00  0.00     0.173 A 
ATOM    119  F   UNL A   1      44.683  33.441  26.730  1.00  0.00    -0.203 F 
ATOM    120  C   UNL A   1      45.460  35.130  28.171  1.00  0.00     0.198 A 
ATOM    121  C   UNL A   1      46.159  34.580  30.401  1.00  0.00     0.198 A 
ATOM    122  F   UNL A   1      46.111  32.347  31.134  1.00  0.00    -0.203 F 
ATOM    123  F   UNL A   1      45.296  36.034  27.196  1.00  0.00    -0.200 F 
ATOM    124  C   UNL A   1      45.958  35.524  29.404  1.00  0.00     0.200 A 
ATOM    125  F   UNL A   1      46.627  34.961  31.597  1.00  0.00    -0.200 F 
ATOM    126  F   UNL A   1      46.255  36.811  29.628  1.00  0.00    -0.200 F 
ENDBRANCH  92 116
ENDBRANCH  57  60
ENDBRANCH  47  50
ENDBRANCH  43  46
ENDBRANCH  40  43
ENDBRANCH   1  40
TORSDOF 15
ENDMDL
MODEL 5
REMARK VINA RESULT:     -11.8      5.502     10.929
REMARK SMILES C[C@H](C(=O)NCCCCCCNC(=O)c1ccc(-c2c3nc(c(-c4c(F)c(F)c(F)c(F)c4F)c4ccc([nH]4)c(-c4c(F)c(F)c(F)c(F)c4F)c4nc(c(-c5c(F)c(F)c(F)c(F)c5F)c5ccc2[nH]5)C=C4)C=C3)cc1)c1ccc2c(c1)OCCO2
REMARK SMILES IDX 9 1 8 4 7 7 6 10 5 13 3 14 4 15 2 17 1 19 78 23 79 24 83 25
REMARK SMILES IDX 80 26 82 28 81 30 84 32 87 33 85 34 86 35 10 40 11 43 12 46
REMARK SMILES IDX 13 47 14 49 15 50 16 51 77 52 17 53 76 55 18 57 19 60 20 61
REMARK SMILES IDX 70 62 21 63 75 64 69 65 71 66 22 67 74 68 68 70 67 72 23 74
REMARK SMILES IDX 55 77 35 78 54 79 36 80 39 81 53 82 72 83 37 84 38 86 52 88
REMARK SMILES IDX 73 89 40 92 24 94 25 95 33 96 26 97 27 98 31 99 34 100
REMARK SMILES IDX 28 101 29 102 32 103 30 104 56 105 57 106 65 107 58 108
REMARK SMILES IDX 59 109 63 110 66 111 60 112 61 113 64 114 62 115 41 116
REMARK SMILES IDX 42 117 50 118 43 119 44 120 48 121 51 122 45 123 46 124
REMARK SMILES IDX 49 125 47 126
REMARK H PARENT 9 2 9 3 8 5 8 6 7 8 7 9 6 11 6 12 5 16 2 18 1 20 1 21 1 22
REMARK H PARENT 79 27 83 29 80 31 85 36 85 37 86 38 86 39 10 41 10 42 11 44
REMARK H PARENT 11 45 12 48 16 54 77 56 17 58 76 59 75 69 69 71 71 73 74 75
REMARK H PARENT 68 76 36 85 39 87 72 90 37 91 73 93
REMARK Flexibility Score: inf
ROOT
ATOM      1  C   UNL A   1      35.913  23.426  23.743  1.00  0.00    -0.052 C 
ATOM      2  H   UNL A   1      36.594  23.975  23.127  1.00  0.00     0.027 H 
ATOM      3  H   UNL A   1      34.976  23.195  23.280  1.00  0.00     0.027 H 
ENDROOT
BRANCH   1   4
ATOM      4  C   UNL A   1      35.560  24.308  24.945  1.00  0.00    -0.052 C 
ATOM      5  H   UNL A   1      35.541  23.682  25.812  1.00  0.00     0.027 H 
ATOM      6  H   UNL A   1      36.311  25.072  24.960  1.00  0.00     0.027 H 
BRANCH   4   7
ATOM      7  C   UNL A   1      34.226  25.058  24.886  1.00  0.00    -0.036 C 
ATOM      8  H   UNL A   1      34.441  26.092  24.713  1.00  0.00     0.028 H 
ATOM      9  H   UNL A   1      33.670  24.582  24.105  1.00  0.00     0.028 H 
BRANCH   7  10
ATOM     10  C   UNL A   1      33.336  24.970  26.124  1.00  0.00     0.017 C 
ATOM     11  H   UNL A   1      33.900  24.504  26.905  1.00  0.00     0.049 H 
ATOM     12  H   UNL A   1      33.042  25.973  26.352  1.00  0.00     0.049 H 
BRANCH  10  13
ATOM     13  N   UNL A   1      32.107  24.215  25.945  1.00  0.00    -0.356 N 
ATOM     14  C   UNL A   1      31.878  22.865  25.965  1.00  0.00     0.227 C 
ATOM     15  O   UNL A   1      30.697  22.511  26.063  1.00  0.00    -0.274 OA
ATOM     16  H   UNL A   1      31.306  24.766  25.785  1.00  0.00     0.163 HD
BRANCH  14  17
ATOM     17  C   UNL A   1      32.979  21.800  25.753  1.00  0.00     0.060 C 
ATOM     18  H   UNL A   1      33.732  22.190  25.099  1.00  0.00     0.045 H 
BRANCH  17  19
ATOM     19  C   UNL A   1      33.559  21.508  27.144  1.00  0.00    -0.049 C 
ATOM     20  H   UNL A   1      33.082  20.643  27.555  1.00  0.00     0.024 H 
ATOM     21  H   UNL A   1      33.389  22.348  27.785  1.00  0.00     0.024 H 
ATOM     22  H   UNL A   1      34.611  21.330  27.062  1.00  0.00     0.024 H 
ENDBRANCH  17  19
BRANCH  17  23
ATOM     23  C   UNL A   1      32.559  20.562  24.967  1.00  0.00    -0.032 A 
ATOM     24  C   UNL A   1      32.305  20.608  23.582  1.00  0.00    -0.054 A 
ATOM     25  C   UNL A   1      32.565  19.313  25.603  1.00  0.00    -0.012 A 
ATOM     26  C   UNL A   1      32.336  19.442  22.818  1.00  0.00    -0.016 A 
ATOM     27  H   UNL A   1      32.097  21.512  23.130  1.00  0.00     0.063 H 
ATOM     28  C   UNL A   1      32.735  18.169  24.833  1.00  0.00     0.161 A 
ATOM     29  H   UNL A   1      32.445  19.244  26.626  1.00  0.00     0.067 H 
ATOM     30  C   UNL A   1      32.668  18.250  23.442  1.00  0.00     0.161 A 
ATOM     31  H   UNL A   1      32.115  19.466  21.810  1.00  0.00     0.066 H 
ATOM     32  O   UNL A   1      33.164  17.054  25.502  1.00  0.00    -0.486 OA
ATOM     33  O   UNL A   1      33.093  17.210  22.653  1.00  0.00    -0.486 OA
ATOM     34  C   UNL A   1      33.873  16.125  24.671  1.00  0.00     0.122 C 
ATOM     35  C   UNL A   1      34.252  16.670  23.299  1.00  0.00     0.122 C 
ATOM     36  H   UNL A   1      33.254  15.262  24.529  1.00  0.00     0.074 H 
ATOM     37  H   UNL A   1      34.789  15.899  25.175  1.00  0.00     0.074 H 
ATOM     38  H   UNL A   1      34.656  15.880  22.701  1.00  0.00     0.074 H 
ATOM     39  H   UNL A   1      34.984  17.443  23.416  1.00  0.00     0.074 H 
ENDBRANCH  17  23
ENDBRANCH  14  17
ENDBRANCH  10  13
ENDBRANCH   7  10
ENDBRANCH   4   7
ENDBRANCH   1   4
BRANCH   1  40
ATOM     40  C   UNL A   1      36.555  22.069  24.050  1.00  0.00    -0.036 C 
ATOM     41  H   UNL A   1      37.481  22.021  23.516  1.00  0.00     0.028 H 
ATOM     42  H   UNL A   1      35.829  21.342  23.754  1.00  0.00     0.028 H 
BRANCH  40  43
ATOM     43  C   UNL A   1      36.850  21.767  25.519  1.00  0.00     0.018 C 
ATOM     44  H   UNL A   1      35.963  21.370  25.968  1.00  0.00     0.049 H 
ATOM     45  H   UNL A   1      37.159  22.685  25.972  1.00  0.00     0.049 H 
BRANCH  43  46
ATOM     46  N   UNL A   1      37.929  20.812  25.712  1.00  0.00    -0.352 N 
ATOM     47  C   UNL A   1      39.225  20.995  26.121  1.00  0.00     0.251 C 
ATOM     48  H   UNL A   1      37.688  19.878  25.516  1.00  0.00     0.163 HD
ATOM     49  O   UNL A   1      39.994  20.029  26.120  1.00  0.00    -0.269 OA
BRANCH  47  50
ATOM     50  C   UNL A   1      39.743  22.322  26.531  1.00  0.00     0.039 A 
ATOM     51  C   UNL A   1      40.831  22.364  27.411  1.00  0.00    -0.049 A 
ATOM     52  C   UNL A   1      39.160  23.521  26.111  1.00  0.00    -0.049 A 
ATOM     53  C   UNL A   1      41.366  23.591  27.815  1.00  0.00    -0.053 A 
ATOM     54  H   UNL A   1      41.240  21.484  27.764  1.00  0.00     0.063 H 
ATOM     55  C   UNL A   1      39.737  24.746  26.458  1.00  0.00    -0.053 A 
ATOM     56  H   UNL A   1      38.298  23.501  25.541  1.00  0.00     0.063 H 
ATOM     57  C   UNL A   1      40.849  24.796  27.312  1.00  0.00    -0.014 A 
ATOM     58  H   UNL A   1      42.148  23.611  28.489  1.00  0.00     0.063 H 
ATOM     59  H   UNL A   1      39.342  25.623  26.082  1.00  0.00     0.063 H 
BRANCH  57  60
ATOM     60  C   UNL A   1      41.486  26.095  27.663  1.00  0.00     0.031 A 
ATOM     61  C   UNL A   1      42.895  26.409  27.236  1.00  0.00     0.074 A 
ATOM     62  C   UNL A   1      40.796  26.993  28.396  1.00  0.00     0.049 A 
ATOM     63  N   UNL A   1      43.604  27.491  27.452  1.00  0.00    -0.248 NA
ATOM     64  C   UNL A   1      43.611  25.367  26.486  1.00  0.00    -0.034 C 
ATOM     65  C   UNL A   1      39.445  26.791  28.922  1.00  0.00    -0.036 A 
ATOM     66  N   UNL A   1      41.135  28.252  28.827  1.00  0.00    -0.354 N 
ATOM     67  C   UNL A   1      44.839  27.262  26.860  1.00  0.00     0.074 A 
ATOM     68  C   UNL A   1      44.808  25.915  26.332  1.00  0.00    -0.034 C 
ATOM     69  H   UNL A   1      43.270  24.448  26.163  1.00  0.00     0.065 H 
ATOM     70  C   UNL A   1      39.061  27.894  29.583  1.00  0.00    -0.036 A 
ATOM     71  H   UNL A   1      38.879  25.936  28.803  1.00  0.00     0.065 H 
ATOM     72  C   UNL A   1      40.147  28.869  29.557  1.00  0.00     0.049 A 
ATOM     73  H   UNL A   1      42.003  28.673  28.632  1.00  0.00     0.167 HD
ATOM     74  C   UNL A   1      45.893  28.107  26.740  1.00  0.00     0.037 A 
ATOM     75  H   UNL A   1      45.614  25.442  25.893  1.00  0.00     0.065 H 
ATOM     76  H   UNL A   1      38.143  28.031  30.036  1.00  0.00     0.065 H 
ATOM     77  C   UNL A   1      40.117  30.082  30.141  1.00  0.00     0.037 A 
ATOM     78  C   UNL A   1      45.925  29.451  27.260  1.00  0.00     0.049 A 
ATOM     79  C   UNL A   1      41.303  30.998  29.997  1.00  0.00     0.074 A 
ATOM     80  C   UNL A   1      46.937  30.391  27.163  1.00  0.00    -0.036 A 
ATOM     81  N   UNL A   1      44.898  30.045  27.977  1.00  0.00    -0.354 N 
ATOM     82  N   UNL A   1      42.439  30.790  29.377  1.00  0.00    -0.248 NA
ATOM     83  C   UNL A   1      41.196  32.323  30.623  1.00  0.00    -0.034 C 
ATOM     84  C   UNL A   1      46.540  31.539  27.858  1.00  0.00    -0.036 A 
ATOM     85  H   UNL A   1      47.832  30.267  26.664  1.00  0.00     0.065 H 
ATOM     86  C   UNL A   1      45.258  31.335  28.343  1.00  0.00     0.049 A 
ATOM     87  H   UNL A   1      44.039  29.616  28.196  1.00  0.00     0.167 HD
ATOM     88  C   UNL A   1      43.170  31.962  29.517  1.00  0.00     0.074 A 
ATOM     89  C   UNL A   1      42.337  32.887  30.257  1.00  0.00    -0.034 C 
ATOM     90  H   UNL A   1      40.431  32.712  31.197  1.00  0.00     0.065 H 
ATOM     91  H   UNL A   1      47.105  32.392  27.988  1.00  0.00     0.065 H 
ATOM     92  C   UNL A   1      44.421  32.246  29.080  1.00  0.00     0.037 A 
ATOM     93  H   UNL A   1      42.599  33.862  30.471  1.00  0.00     0.065 H 
BRANCH  74  94
ATOM     94  C   UNL A   1      47.101  27.611  25.996  1.00  0.00     0.064 A 
ATOM     95  C   UNL A   1      47.198  27.726  24.601  1.00  0.00     0.173 A 
ATOM     96  C   UNL A   1      48.197  27.069  26.686  1.00  0.00     0.173 A 
ATOM     97  F   UNL A   1      46.175  28.228  23.893  1.00  0.00    -0.203 F 
ATOM     98  C   UNL A   1      48.335  27.295  23.922  1.00  0.00     0.198 A 
ATOM     99  C   UNL A   1      49.344  26.668  26.006  1.00  0.00     0.198 A 
ATOM    100  F   UNL A   1      48.161  26.942  28.021  1.00  0.00    -0.203 F 
ATOM    101  F   UNL A   1      48.385  27.376  22.585  1.00  0.00    -0.200 F 
ATOM    102  C   UNL A   1      49.410  26.774  24.625  1.00  0.00     0.200 A 
ATOM    103  F   UNL A   1      50.389  26.178  26.689  1.00  0.00    -0.200 F 
ATOM    104  F   UNL A   1      50.508  26.371  23.971  1.00  0.00    -0.200 F 
ENDBRANCH  74  94
BRANCH  77 105
ATOM    105  C   UNL A   1      38.918  30.510  30.909  1.00  0.00     0.064 A 
ATOM    106  C   UNL A   1      37.814  31.092  30.269  1.00  0.00     0.173 A 
ATOM    107  C   UNL A   1      38.860  30.368  32.304  1.00  0.00     0.173 A 
ATOM    108  F   UNL A   1      37.829  31.268  28.938  1.00  0.00    -0.203 F 
ATOM    109  C   UNL A   1      36.714  31.543  30.996  1.00  0.00     0.198 A 
ATOM    110  C   UNL A   1      37.745  30.789  33.025  1.00  0.00     0.198 A 
ATOM    111  F   UNL A   1      39.885  29.811  32.965  1.00  0.00    -0.203 F 
ATOM    112  F   UNL A   1      35.699  32.149  30.363  1.00  0.00    -0.200 F 
ATOM    113  C   UNL A   1      36.679  31.387  32.372  1.00  0.00     0.200 A 
ATOM    114  F   UNL A   1      37.708  30.620  34.354  1.00  0.00    -0.200 F 
ATOM    115  F   UNL A   1      35.621  31.821  33.071  1.00  0.00    -0.200 F 
ENDBRANCH  77 105
BRANCH  92 116
ATOM    116  C   UNL A   1      44.952  33.621  29.367  1.00  0.00     0.064 A 
ATOM    117  C   UNL A   1      44.733  34.694  28.488  1.00  0.00     0.173 A 
ATOM    118  C   UNL A   1      45.681  33.874  30.540  1.00  0.00     0.173 A 
ATOM    119  F   UNL A   1      44.055  34.503  27.347  1.00  0.00    -0.203 F 
ATOM    120  C   UNL A   1      45.256  35.957  28.754  1.00  0.00     0.198 A 
ATOM    121  C   UNL A   1      46.174  35.145  30.819  1.00  0.00     0.198 A 
ATOM    122  F   UNL A   1      45.913  32.887  31.417  1.00  0.00    -0.203 F 
ATOM    123  F   UNL A   1      45.088  36.949  27.870  1.00  0.00    -0.200 F 
ATOM    124  C   UNL A   1      45.971  36.183  29.920  1.00  0.00     0.200 A 
ATOM    125  F   UNL A   1      46.852  35.366  31.952  1.00  0.00    -0.200 F 
ATOM    126  F   UNL A   1      46.475  37.398  30.174  1.00  0.00    -0.200 F 
ENDBRANCH  92 116
ENDBRANCH  57  60
ENDBRANCH  47  50
ENDBRANCH  43  46
ENDBRANCH  40  43
ENDBRANCH   1  40
TORSDOF 15
ENDMDL
MODEL 6
REMARK VINA RESULT:     -11.7      6.242     10.523
REMARK SMILES C[C@H](C(=O)NCCCCCCNC(=O)c1ccc(-c2c3nc(c(-c4c(F)c(F)c(F)c(F)c4F)c4ccc([nH]4)c(-c4c(F)c(F)c(F)c(F)c4F)c4nc(c(-c5c(F)c(F)c(F)c(F)c5F)c5ccc2[nH]5)C=C4)C=C3)cc1)c1ccc2c(c1)OCCO2
REMARK SMILES IDX 9 1 8 4 7 7 6 10 5 13 3 14 4 15 2 17 1 19 78 23 79 24 83 25
REMARK SMILES IDX 80 26 82 28 81 30 84 32 87 33 85 34 86 35 10 40 11 43 12 46
REMARK SMILES IDX 13 47 14 49 15 50 16 51 77 52 17 53 76 55 18 57 19 60 20 61
REMARK SMILES IDX 70 62 21 63 75 64 69 65 71 66 22 67 74 68 68 70 67 72 23 74
REMARK SMILES IDX 55 77 35 78 54 79 36 80 39 81 53 82 72 83 37 84 38 86 52 88
REMARK SMILES IDX 73 89 40 92 24 94 25 95 33 96 26 97 27 98 31 99 34 100
REMARK SMILES IDX 28 101 29 102 32 103 30 104 56 105 57 106 65 107 58 108
REMARK SMILES IDX 59 109 63 110 66 111 60 112 61 113 64 114 62 115 41 116
REMARK SMILES IDX 42 117 50 118 43 119 44 120 48 121 51 122 45 123 46 124
REMARK SMILES IDX 49 125 47 126
REMARK H PARENT 9 2 9 3 8 5 8 6 7 8 7 9 6 11 6 12 5 16 2 18 1 20 1 21 1 22
REMARK H PARENT 79 27 83 29 80 31 85 36 85 37 86 38 86 39 10 41 10 42 11 44
REMARK H PARENT 11 45 12 48 16 54 77 56 17 58 76 59 75 69 69 71 71 73 74 75
REMARK H PARENT 68 76 36 85 39 87 72 90 37 91 73 93
REMARK Flexibility Score: inf
ROOT
ATOM      1  C   UNL A   1      36.706  20.465  24.768  1.00  0.00    -0.052 C 
ATOM      2  H   UNL A   1      36.047  20.023  24.051  1.00  0.00     0.027 H 
ATOM      3  H   UNL A   1      36.274  20.624  25.734  1.00  0.00     0.027 H 
ENDROOT
BRANCH   1   4
ATOM      4  C   UNL A   1      37.076  21.861  24.258  1.00  0.00    -0.052 C 
ATOM      5  H   UNL A   1      37.452  22.421  25.089  1.00  0.00     0.027 H 
ATOM      6  H   UNL A   1      37.784  21.694  23.473  1.00  0.00     0.027 H 
BRANCH   4   7
ATOM      7  C   UNL A   1      35.954  22.684  23.618  1.00  0.00    -0.036 C 
ATOM      8  H   UNL A   1      36.300  23.018  22.662  1.00  0.00     0.028 H 
ATOM      9  H   UNL A   1      35.109  22.028  23.581  1.00  0.00     0.028 H 
BRANCH   7  10
ATOM     10  C   UNL A   1      35.477  23.911  24.393  1.00  0.00     0.017 C 
ATOM     11  H   UNL A   1      35.956  23.906  25.349  1.00  0.00     0.049 H 
ATOM     12  H   UNL A   1      35.732  24.760  23.794  1.00  0.00     0.049 H 
BRANCH  10  13
ATOM     13  N   UNL A   1      34.041  23.982  24.610  1.00  0.00    -0.356 N 
ATOM     14  C   UNL A   1      33.219  23.219  25.397  1.00  0.00     0.227 C 
ATOM     15  O   UNL A   1      32.088  23.674  25.608  1.00  0.00    -0.274 OA
ATOM     16  H   UNL A   1      33.584  24.696  24.108  1.00  0.00     0.163 HD
BRANCH  14  17
ATOM     17  C   UNL A   1      33.585  21.810  25.915  1.00  0.00     0.060 C 
ATOM     18  H   UNL A   1      34.620  21.615  25.722  1.00  0.00     0.045 H 
BRANCH  17  19
ATOM     19  C   UNL A   1      33.304  21.826  27.424  1.00  0.00    -0.049 C 
ATOM     20  H   UNL A   1      34.095  21.323  27.940  1.00  0.00     0.024 H 
ATOM     21  H   UNL A   1      32.377  21.328  27.620  1.00  0.00     0.024 H 
ATOM     22  H   UNL A   1      33.244  22.839  27.765  1.00  0.00     0.024 H 
ENDBRANCH  17  19
BRANCH  17  23
ATOM     23  C   UNL A   1      32.950  20.644  25.164  1.00  0.00    -0.032 A 
ATOM     24  C   UNL A   1      32.539  20.757  23.821  1.00  0.00    -0.054 A 
ATOM     25  C   UNL A   1      32.904  19.381  25.771  1.00  0.00    -0.012 A 
ATOM     26  C   UNL A   1      32.358  19.618  23.037  1.00  0.00    -0.016 A 
ATOM     27  H   UNL A   1      32.371  21.690  23.415  1.00  0.00     0.063 H 
ATOM     28  C   UNL A   1      32.863  18.251  24.965  1.00  0.00     0.161 A 
ATOM     29  H   UNL A   1      32.901  19.293  26.799  1.00  0.00     0.067 H 
ATOM     30  C   UNL A   1      32.639  18.380  23.594  1.00  0.00     0.161 A 
ATOM     31  H   UNL A   1      32.022  19.695  22.064  1.00  0.00     0.066 H 
ATOM     32  O   UNL A   1      33.253  17.078  25.556  1.00  0.00    -0.486 OA
ATOM     33  O   UNL A   1      32.858  17.328  22.740  1.00  0.00    -0.486 OA
ATOM     34  C   UNL A   1      33.759  16.109  24.627  1.00  0.00     0.122 C 
ATOM     35  C   UNL A   1      34.025  16.656  23.230  1.00  0.00     0.122 C 
ATOM     36  H   UNL A   1      33.043  15.317  24.547  1.00  0.00     0.074 H 
ATOM     37  H   UNL A   1      34.701  15.778  25.012  1.00  0.00     0.074 H 
ATOM     38  H   UNL A   1      34.272  15.849  22.573  1.00  0.00     0.074 H 
ATOM     39  H   UNL A   1      34.841  17.349  23.271  1.00  0.00     0.074 H 
ENDBRANCH  17  23
ENDBRANCH  14  17
ENDBRANCH  10  13
ENDBRANCH   7  10
ENDBRANCH   4   7
ENDBRANCH   1   4
BRANCH   1  40
ATOM     40  C   UNL A   1      37.863  19.488  25.000  1.00  0.00    -0.036 C 
ATOM     41  H   UNL A   1      38.212  19.165  24.041  1.00  0.00     0.028 H 
ATOM     42  H   UNL A   1      37.456  18.712  25.613  1.00  0.00     0.028 H 
BRANCH  40  43
ATOM     43  C   UNL A   1      39.067  20.023  25.775  1.00  0.00     0.018 C 
ATOM     44  H   UNL A   1      38.748  20.272  26.766  1.00  0.00     0.049 H 
ATOM     45  H   UNL A   1      39.433  20.874  25.239  1.00  0.00     0.049 H 
BRANCH  43  46
ATOM     46  N   UNL A   1      40.166  19.076  25.871  1.00  0.00    -0.352 N 
ATOM     47  C   UNL A   1      41.499  19.273  26.125  1.00  0.00     0.251 C 
ATOM     48  H   UNL A   1      39.910  18.137  25.728  1.00  0.00     0.163 HD
ATOM     49  O   UNL A   1      42.268  18.309  26.064  1.00  0.00    -0.269 OA
BRANCH  47  50
ATOM     50  C   UNL A   1      42.053  20.612  26.439  1.00  0.00     0.039 A 
ATOM     51  C   UNL A   1      42.404  21.448  25.372  1.00  0.00    -0.049 A 
ATOM     52  C   UNL A   1      42.277  21.047  27.748  1.00  0.00    -0.049 A 
ATOM     53  C   UNL A   1      42.915  22.726  25.615  1.00  0.00    -0.053 A 
ATOM     54  H   UNL A   1      42.286  21.118  24.401  1.00  0.00     0.063 H 
ATOM     55  C   UNL A   1      42.723  22.349  27.992  1.00  0.00    -0.053 A 
ATOM     56  H   UNL A   1      42.114  20.403  28.539  1.00  0.00     0.063 H 
ATOM     57  C   UNL A   1      43.045  23.206  26.929  1.00  0.00    -0.014 A 
ATOM     58  H   UNL A   1      43.201  23.322  24.822  1.00  0.00     0.063 H 
ATOM     59  H   UNL A   1      42.814  22.685  28.964  1.00  0.00     0.063 H 
BRANCH  57  60
ATOM     60  C   UNL A   1      43.492  24.604  27.181  1.00  0.00     0.031 A 
ATOM     61  C   UNL A   1      42.535  25.643  27.700  1.00  0.00     0.074 A 
ATOM     62  C   UNL A   1      44.769  24.946  26.918  1.00  0.00     0.049 A 
ATOM     63  N   UNL A   1      42.755  26.906  27.978  1.00  0.00    -0.248 NA
ATOM     64  C   UNL A   1      41.144  25.219  27.915  1.00  0.00    -0.034 C 
ATOM     65  C   UNL A   1      45.783  24.051  26.359  1.00  0.00    -0.036 A 
ATOM     66  N   UNL A   1      45.432  26.138  27.081  1.00  0.00    -0.354 N 
ATOM     67  C   UNL A   1      41.537  27.420  28.407  1.00  0.00     0.074 A 
ATOM     68  C   UNL A   1      40.567  26.352  28.292  1.00  0.00    -0.034 C 
ATOM     69  H   UNL A   1      40.725  24.282  27.805  1.00  0.00     0.065 H 
ATOM     70  C   UNL A   1      46.944  24.716  26.249  1.00  0.00    -0.036 A 
ATOM     71  H   UNL A   1      45.630  23.066  26.093  1.00  0.00     0.065 H 
ATOM     72  C   UNL A   1      46.751  26.092  26.697  1.00  0.00     0.049 A 
ATOM     73  H   UNL A   1      45.004  26.949  27.439  1.00  0.00     0.167 HD
ATOM     74  C   UNL A   1      41.259  28.658  28.883  1.00  0.00     0.037 A 
ATOM     75  H   UNL A   1      39.557  26.459  28.477  1.00  0.00     0.065 H 
ATOM     76  H   UNL A   1      47.832  24.317  25.904  1.00  0.00     0.065 H 
ATOM     77  C   UNL A   1      47.699  27.048  26.704  1.00  0.00     0.037 A 
ATOM     78  C   UNL A   1      42.224  29.722  29.004  1.00  0.00     0.049 A 
ATOM     79  C   UNL A   1      47.362  28.417  27.231  1.00  0.00     0.074 A 
ATOM     80  C   UNL A   1      42.041  31.002  29.500  1.00  0.00    -0.036 A 
ATOM     81  N   UNL A   1      43.554  29.630  28.622  1.00  0.00    -0.354 N 
ATOM     82  N   UNL A   1      46.222  28.866  27.695  1.00  0.00    -0.248 NA
ATOM     83  C   UNL A   1      48.448  29.405  27.249  1.00  0.00    -0.034 C 
ATOM     84  C   UNL A   1      43.249  31.698  29.379  1.00  0.00    -0.036 A 
ATOM     85  H   UNL A   1      41.164  31.379  29.892  1.00  0.00     0.065 H 
ATOM     86  C   UNL A   1      44.200  30.836  28.857  1.00  0.00     0.049 A 
ATOM     87  H   UNL A   1      43.977  28.828  28.239  1.00  0.00     0.167 HD
ATOM     88  C   UNL A   1      46.458  30.179  28.081  1.00  0.00     0.074 A 
ATOM     89  C   UNL A   1      47.858  30.444  27.823  1.00  0.00    -0.034 C 
ATOM     90  H   UNL A   1      49.417  29.315  26.905  1.00  0.00     0.065 H 
ATOM     91  H   UNL A   1      43.407  32.684  29.635  1.00  0.00     0.065 H 
ATOM     92  C   UNL A   1      45.593  31.087  28.596  1.00  0.00     0.037 A 
ATOM     93  H   UNL A   1      48.335  31.328  28.057  1.00  0.00     0.065 H 
BRANCH  74  94
ATOM     94  C   UNL A   1      39.851  28.931  29.331  1.00  0.00     0.064 A 
ATOM     95  C   UNL A   1      38.881  29.413  28.438  1.00  0.00     0.173 A 
ATOM     96  C   UNL A   1      39.449  28.655  30.647  1.00  0.00     0.173 A 
ATOM     97  F   UNL A   1      39.214  29.702  27.171  1.00  0.00    -0.203 F 
ATOM     98  C   UNL A   1      37.569  29.632  28.852  1.00  0.00     0.198 A 
ATOM     99  C   UNL A   1      38.129  28.846  31.049  1.00  0.00     0.198 A 
ATOM    100  F   UNL A   1      40.333  28.186  31.540  1.00  0.00    -0.203 F 
ATOM    101  F   UNL A   1      36.672  30.134  27.992  1.00  0.00    -0.200 F 
ATOM    102  C   UNL A   1      37.192  29.341  30.154  1.00  0.00     0.200 A 
ATOM    103  F   UNL A   1      37.763  28.550  32.304  1.00  0.00    -0.200 F 
ATOM    104  F   UNL A   1      35.927  29.540  30.547  1.00  0.00    -0.200 F 
ENDBRANCH  74  94
BRANCH  77 105
ATOM    105  C   UNL A   1      49.067  26.745  26.203  1.00  0.00     0.064 A 
ATOM    106  C   UNL A   1      50.058  26.240  27.057  1.00  0.00     0.173 A 
ATOM    107  C   UNL A   1      49.419  26.976  24.865  1.00  0.00     0.173 A 
ATOM    108  F   UNL A   1      49.778  26.020  28.351  1.00  0.00    -0.203 F 
ATOM    109  C   UNL A   1      51.354  26.008  26.600  1.00  0.00     0.198 A 
ATOM    110  C   UNL A   1      50.705  26.712  24.401  1.00  0.00     0.198 A 
ATOM    111  F   UNL A   1      48.507  27.451  24.004  1.00  0.00    -0.203 F 
ATOM    112  F   UNL A   1      52.296  25.582  27.453  1.00  0.00    -0.200 F 
ATOM    113  C   UNL A   1      51.675  26.240  25.272  1.00  0.00     0.200 A 
ATOM    114  F   UNL A   1      51.006  26.921  23.113  1.00  0.00    -0.200 F 
ATOM    115  F   UNL A   1      52.921  26.017  24.833  1.00  0.00    -0.200 F 
ENDBRANCH  77 105
BRANCH  92 116
ATOM    116  C   UNL A   1      46.146  32.442  28.939  1.00  0.00     0.064 A 
ATOM    117  C   UNL A   1      46.136  33.497  28.013  1.00  0.00     0.173 A 
ATOM    118  C   UNL A   1      46.681  32.692  30.211  1.00  0.00     0.173 A 
ATOM    119  F   UNL A   1      45.649  33.307  26.778  1.00  0.00    -0.203 F 
ATOM    120  C   UNL A   1      46.678  34.738  28.335  1.00  0.00     0.198 A 
ATOM    121  C   UNL A   1      47.191  33.944  30.542  1.00  0.00     0.198 A 
ATOM    122  F   UNL A   1      46.708  31.721  31.136  1.00  0.00    -0.203 F 
ATOM    123  F   UNL A   1      46.715  35.710  27.414  1.00  0.00    -0.200 F 
ATOM    124  C   UNL A   1      47.200  34.963  29.600  1.00  0.00     0.200 A 
ATOM    125  F   UNL A   1      47.683  34.164  31.768  1.00  0.00    -0.200 F 
ATOM    126  F   UNL A   1      47.722  36.158  29.909  1.00  0.00    -0.200 F 
ENDBRANCH  92 116
ENDBRANCH  57  60
ENDBRANCH  47  50
ENDBRANCH  43  46
ENDBRANCH  40  43
ENDBRANCH   1  40
TORSDOF 15
ENDMDL
MODEL 7
REMARK VINA RESULT:     -11.5      5.485     10.775
REMARK SMILES C[C@H](C(=O)NCCCCCCNC(=O)c1ccc(-c2c3nc(c(-c4c(F)c(F)c(F)c(F)c4F)c4ccc([nH]4)c(-c4c(F)c(F)c(F)c(F)c4F)c4nc(c(-c5c(F)c(F)c(F)c(F)c5F)c5ccc2[nH]5)C=C4)C=C3)cc1)c1ccc2c(c1)OCCO2
REMARK SMILES IDX 9 1 8 4 7 7 6 10 5 13 3 14 4 15 2 17 1 19 78 23 79 24 83 25
REMARK SMILES IDX 80 26 82 28 81 30 84 32 87 33 85 34 86 35 10 40 11 43 12 46
REMARK SMILES IDX 13 47 14 49 15 50 16 51 77 52 17 53 76 55 18 57 19 60 20 61
REMARK SMILES IDX 70 62 21 63 75 64 69 65 71 66 22 67 74 68 68 70 67 72 23 74
REMARK SMILES IDX 55 77 35 78 54 79 36 80 39 81 53 82 72 83 37 84 38 86 52 88
REMARK SMILES IDX 73 89 40 92 24 94 25 95 33 96 26 97 27 98 31 99 34 100
REMARK SMILES IDX 28 101 29 102 32 103 30 104 56 105 57 106 65 107 58 108
REMARK SMILES IDX 59 109 63 110 66 111 60 112 61 113 64 114 62 115 41 116
REMARK SMILES IDX 42 117 50 118 43 119 44 120 48 121 51 122 45 123 46 124
REMARK SMILES IDX 49 125 47 126
REMARK H PARENT 9 2 9 3 8 5 8 6 7 8 7 9 6 11 6 12 5 16 2 18 1 20 1 21 1 22
REMARK H PARENT 79 27 83 29 80 31 85 36 85 37 86 38 86 39 10 41 10 42 11 44
REMARK H PARENT 11 45 12 48 16 54 77 56 17 58 76 59 75 69 69 71 71 73 74 75
REMARK H PARENT 68 76 36 85 39 87 72 90 37 91 73 93
REMARK Flexibility Score: inf
ROOT
ATOM      1  C   UNL A   1      35.211  22.960  23.264  1.00  0.00    -0.052 C 
ATOM      2  H   UNL A   1      35.157  22.690  22.230  1.00  0.00     0.027 H 
ATOM      3  H   UNL A   1      34.559  22.404  23.906  1.00  0.00     0.027 H 
ENDROOT
BRANCH   1   4
ATOM      4  C   UNL A   1      34.752  24.416  23.388  1.00  0.00    -0.052 C 
ATOM      5  H   UNL A   1      35.628  25.029  23.438  1.00  0.00     0.027 H 
ATOM      6  H   UNL A   1      34.133  24.587  22.532  1.00  0.00     0.027 H 
BRANCH   4   7
ATOM      7  C   UNL A   1      33.875  24.765  24.594  1.00  0.00    -0.036 C 
ATOM      8  H   UNL A   1      34.234  24.204  25.431  1.00  0.00     0.028 H 
ATOM      9  H   UNL A   1      33.956  25.827  24.703  1.00  0.00     0.028 H 
BRANCH   7  10
ATOM     10  C   UNL A   1      32.380  24.488  24.456  1.00  0.00     0.017 C 
ATOM     11  H   UNL A   1      31.890  25.414  24.237  1.00  0.00     0.049 H 
ATOM     12  H   UNL A   1      32.281  23.761  23.677  1.00  0.00     0.049 H 
BRANCH  10  13
ATOM     13  N   UNL A   1      31.749  23.912  25.632  1.00  0.00    -0.356 N 
ATOM     14  C   UNL A   1      32.160  22.898  26.457  1.00  0.00     0.227 C 
ATOM     15  O   UNL A   1      31.569  22.801  27.540  1.00  0.00    -0.274 OA
ATOM     16  H   UNL A   1      30.886  24.318  25.877  1.00  0.00     0.163 HD
BRANCH  14  17
ATOM     17  C   UNL A   1      33.205  21.832  26.059  1.00  0.00     0.060 C 
ATOM     18  H   UNL A   1      33.904  22.256  25.368  1.00  0.00     0.045 H 
BRANCH  17  19
ATOM     19  C   UNL A   1      33.907  21.419  27.361  1.00  0.00    -0.049 C 
ATOM     20  H   UNL A   1      33.595  22.066  28.155  1.00  0.00     0.024 H 
ATOM     21  H   UNL A   1      34.967  21.494  27.235  1.00  0.00     0.024 H 
ATOM     22  H   UNL A   1      33.646  20.409  27.602  1.00  0.00     0.024 H 
ENDBRANCH  17  19
BRANCH  17  23
ATOM     23  C   UNL A   1      32.679  20.668  25.225  1.00  0.00    -0.032 A 
ATOM     24  C   UNL A   1      32.323  20.821  23.871  1.00  0.00    -0.054 A 
ATOM     25  C   UNL A   1      32.685  19.376  25.771  1.00  0.00    -0.012 A 
ATOM     26  C   UNL A   1      32.250  19.713  23.027  1.00  0.00    -0.016 A 
ATOM     27  H   UNL A   1      32.117  21.762  23.500  1.00  0.00     0.063 H 
ATOM     28  C   UNL A   1      32.751  18.286  24.913  1.00  0.00     0.161 A 
ATOM     29  H   UNL A   1      32.640  19.238  26.793  1.00  0.00     0.067 H 
ATOM     30  C   UNL A   1      32.582  18.469  23.540  1.00  0.00     0.161 A 
ATOM     31  H   UNL A   1      31.955  19.817  22.044  1.00  0.00     0.066 H 
ATOM     32  O   UNL A   1      33.186  17.112  25.467  1.00  0.00    -0.486 OA
ATOM     33  O   UNL A   1      32.905  17.475  22.650  1.00  0.00    -0.486 OA
ATOM     34  C   UNL A   1      33.793  16.221  24.520  1.00  0.00     0.122 C 
ATOM     35  C   UNL A   1      34.088  16.851  23.164  1.00  0.00     0.122 C 
ATOM     36  H   UNL A   1      33.133  15.393  24.369  1.00  0.00     0.074 H 
ATOM     37  H   UNL A   1      34.736  15.930  24.934  1.00  0.00     0.074 H 
ATOM     38  H   UNL A   1      34.415  16.093  22.483  1.00  0.00     0.074 H 
ATOM     39  H   UNL A   1      34.856  17.589  23.276  1.00  0.00     0.074 H 
ENDBRANCH  17  23
ENDBRANCH  14  17
ENDBRANCH  10  13
ENDBRANCH   7  10
ENDBRANCH   4   7
ENDBRANCH   1   4
BRANCH   1  40
ATOM     40  C   UNL A   1      36.627  22.640  23.755  1.00  0.00    -0.036 C 
ATOM     41  H   UNL A   1      37.256  23.462  23.486  1.00  0.00     0.028 H 
ATOM     42  H   UNL A   1      36.882  21.711  23.290  1.00  0.00     0.028 H 
BRANCH  40  43
ATOM     43  C   UNL A   1      36.795  22.398  25.254  1.00  0.00     0.018 C 
ATOM     44  H   UNL A   1      35.850  22.097  25.657  1.00  0.00     0.049 H 
ATOM     45  H   UNL A   1      37.147  23.313  25.682  1.00  0.00     0.049 H 
BRANCH  43  46
ATOM     46  N   UNL A   1      37.776  21.374  25.573  1.00  0.00    -0.352 N 
ATOM     47  C   UNL A   1      39.031  21.473  26.117  1.00  0.00     0.251 C 
ATOM     48  H   UNL A   1      37.491  20.455  25.363  1.00  0.00     0.163 HD
ATOM     49  O   UNL A   1      39.725  20.455  26.210  1.00  0.00    -0.269 OA
BRANCH  47  50
ATOM     50  C   UNL A   1      39.597  22.768  26.565  1.00  0.00     0.039 A 
ATOM     51  C   UNL A   1      40.636  22.746  27.502  1.00  0.00    -0.049 A 
ATOM     52  C   UNL A   1      39.102  23.999  26.123  1.00  0.00    -0.049 A 
ATOM     53  C   UNL A   1      41.213  23.940  27.944  1.00  0.00    -0.053 A 
ATOM     54  H   UNL A   1      40.977  21.844  27.870  1.00  0.00     0.063 H 
ATOM     55  C   UNL A   1      39.725  25.189  26.511  1.00  0.00    -0.053 A 
ATOM     56  H   UNL A   1      38.273  24.029  25.508  1.00  0.00     0.063 H 
ATOM     57  C   UNL A   1      40.790  25.175  27.425  1.00  0.00    -0.014 A 
ATOM     58  H   UNL A   1      41.957  23.915  28.660  1.00  0.00     0.063 H 
ATOM     59  H   UNL A   1      39.399  26.088  26.121  1.00  0.00     0.063 H 
BRANCH  57  60
ATOM     60  C   UNL A   1      41.476  26.436  27.820  1.00  0.00     0.031 A 
ATOM     61  C   UNL A   1      42.909  26.691  27.440  1.00  0.00     0.074 A 
ATOM     62  C   UNL A   1      40.807  27.350  28.550  1.00  0.00     0.049 A 
ATOM     63  N   UNL A   1      43.661  27.735  27.698  1.00  0.00    -0.248 NA
ATOM     64  C   UNL A   1      43.598  25.631  26.690  1.00  0.00    -0.034 C 
ATOM     65  C   UNL A   1      39.433  27.202  29.033  1.00  0.00    -0.036 A 
ATOM     66  N   UNL A   1      41.190  28.584  29.016  1.00  0.00    -0.354 N 
ATOM     67  C   UNL A   1      44.901  27.459  27.136  1.00  0.00     0.074 A 
ATOM     68  C   UNL A   1      44.823  26.125  26.581  1.00  0.00    -0.034 C 
ATOM     69  H   UNL A   1      43.225  24.735  26.338  1.00  0.00     0.065 H 
ATOM     70  C   UNL A   1      39.081  28.310  29.705  1.00  0.00    -0.036 A 
ATOM     71  H   UNL A   1      38.831  26.378  28.880  1.00  0.00     0.065 H 
ATOM     72  C   UNL A   1      40.211  29.233  29.729  1.00  0.00     0.049 A 
ATOM     73  H   UNL A   1      42.082  28.968  28.855  1.00  0.00     0.167 HD
ATOM     74  C   UNL A   1      45.996  28.255  27.064  1.00  0.00     0.037 A 
ATOM     75  H   UNL A   1      45.619  25.623  26.155  1.00  0.00     0.065 H 
ATOM     76  H   UNL A   1      38.157  28.480  30.134  1.00  0.00     0.065 H 
ATOM     77  C   UNL A   1      40.220  30.435  30.337  1.00  0.00     0.037 A 
ATOM     78  C   UNL A   1      46.075  29.587  27.612  1.00  0.00     0.049 A 
ATOM     79  C   UNL A   1      41.451  31.297  30.246  1.00  0.00     0.074 A 
ATOM     80  C   UNL A   1      47.132  30.480  27.563  1.00  0.00    -0.036 A 
ATOM     81  N   UNL A   1      45.056  30.215  28.311  1.00  0.00    -0.354 N 
ATOM     82  N   UNL A   1      42.593  31.047  29.654  1.00  0.00    -0.248 NA
ATOM     83  C   UNL A   1      41.386  32.613  30.895  1.00  0.00    -0.034 C 
ATOM     84  C   UNL A   1      46.768  31.632  28.269  1.00  0.00    -0.036 A 
ATOM     85  H   UNL A   1      48.034  30.323  27.088  1.00  0.00     0.065 H 
ATOM     86  C   UNL A   1      45.464  31.479  28.713  1.00  0.00     0.049 A 
ATOM     87  H   UNL A   1      44.172  29.823  28.496  1.00  0.00     0.167 HD
ATOM     88  C   UNL A   1      43.374  32.181  29.839  1.00  0.00     0.074 A 
ATOM     89  C   UNL A   1      42.563  33.130  30.574  1.00  0.00    -0.034 C 
ATOM     90  H   UNL A   1      40.624  33.027  31.455  1.00  0.00     0.065 H 
ATOM     91  H   UNL A   1      47.367  32.455  28.432  1.00  0.00     0.065 H 
ATOM     92  C   UNL A   1      44.649  32.414  29.444  1.00  0.00     0.037 A 
ATOM     93  H   UNL A   1      42.863  34.087  30.815  1.00  0.00     0.065 H 
BRANCH  74  94
ATOM     94  C   UNL A   1      47.201  27.718  26.346  1.00  0.00     0.064 A 
ATOM     95  C   UNL A   1      47.342  27.849  24.956  1.00  0.00     0.173 A 
ATOM     96  C   UNL A   1      48.253  27.118  27.056  1.00  0.00     0.173 A 
ATOM     97  F   UNL A   1      46.363  28.407  24.228  1.00  0.00    -0.203 F 
ATOM     98  C   UNL A   1      48.477  27.378  24.300  1.00  0.00     0.198 A 
ATOM     99  C   UNL A   1      49.400  26.676  26.401  1.00  0.00     0.198 A 
ATOM    100  F   UNL A   1      48.174  26.972  28.387  1.00  0.00    -0.203 F 
ATOM    101  F   UNL A   1      48.568  27.477  22.967  1.00  0.00    -0.200 F 
ATOM    102  C   UNL A   1      49.509  26.800  25.024  1.00  0.00     0.200 A 
ATOM    103  F   UNL A   1      50.402  26.130  27.104  1.00  0.00    -0.200 F 
ATOM    104  F   UNL A   1      50.606  26.358  24.394  1.00  0.00    -0.200 F 
ENDBRANCH  74  94
BRANCH  77 105
ATOM    105  C   UNL A   1      39.019  30.904  31.079  1.00  0.00     0.064 A 
ATOM    106  C   UNL A   1      38.896  30.704  32.462  1.00  0.00     0.173 A 
ATOM    107  C   UNL A   1      37.959  31.541  30.417  1.00  0.00     0.173 A 
ATOM    108  F   UNL A   1      39.874  30.082  33.138  1.00  0.00    -0.203 F 
ATOM    109  C   UNL A   1      37.747  31.095  33.147  1.00  0.00     0.198 A 
ATOM    110  C   UNL A   1      36.825  31.961  31.109  1.00  0.00     0.198 A 
ATOM    111  F   UNL A   1      38.029  31.763  29.096  1.00  0.00    -0.203 F 
ATOM    112  F   UNL A   1      37.631  30.838  34.457  1.00  0.00    -0.200 F 
ATOM    113  C   UNL A   1      36.715  31.727  32.471  1.00  0.00     0.200 A 
ATOM    114  F   UNL A   1      35.838  32.587  30.454  1.00  0.00    -0.200 F 
ATOM    115  F   UNL A   1      35.610  32.102  33.130  1.00  0.00    -0.200 F 
ENDBRANCH  77 105
BRANCH  92 116
ATOM    116  C   UNL A   1      45.234  33.758  29.774  1.00  0.00     0.064 A 
ATOM    117  C   UNL A   1      45.941  33.980  30.966  1.00  0.00     0.173 A 
ATOM    118  C   UNL A   1      45.097  34.834  28.884  1.00  0.00     0.173 A 
ATOM    119  F   UNL A   1      46.089  32.989  31.858  1.00  0.00    -0.203 F 
ATOM    120  C   UNL A   1      46.453  35.238  31.272  1.00  0.00     0.198 A 
ATOM    121  C   UNL A   1      45.639  36.082  29.177  1.00  0.00     0.198 A 
ATOM    122  F   UNL A   1      44.437  34.674  27.727  1.00  0.00    -0.203 F 
ATOM    123  F   UNL A   1      47.069  35.442  32.444  1.00  0.00    -0.200 F 
ATOM    124  C   UNL A   1      46.306  36.287  30.376  1.00  0.00     0.200 A 
ATOM    125  F   UNL A   1      45.508  37.089  28.305  1.00  0.00    -0.200 F 
ATOM    126  F   UNL A   1      46.798  37.497  30.672  1.00  0.00    -0.200 F 
ENDBRANCH  92 116
ENDBRANCH  57  60
ENDBRANCH  47  50
ENDBRANCH  43  46
ENDBRANCH  40  43
ENDBRANCH   1  40
TORSDOF 15
ENDMDL
MODEL 8
REMARK VINA RESULT:     -11.5      4.384      7.777
REMARK SMILES C[C@H](C(=O)NCCCCCCNC(=O)c1ccc(-c2c3nc(c(-c4c(F)c(F)c(F)c(F)c4F)c4ccc([nH]4)c(-c4c(F)c(F)c(F)c(F)c4F)c4nc(c(-c5c(F)c(F)c(F)c(F)c5F)c5ccc2[nH]5)C=C4)C=C3)cc1)c1ccc2c(c1)OCCO2
REMARK SMILES IDX 9 1 8 4 7 7 6 10 5 13 3 14 4 15 2 17 1 19 78 23 79 24 83 25
REMARK SMILES IDX 80 26 82 28 81 30 84 32 87 33 85 34 86 35 10 40 11 43 12 46
REMARK SMILES IDX 13 47 14 49 15 50 16 51 77 52 17 53 76 55 18 57 19 60 20 61
REMARK SMILES IDX 70 62 21 63 75 64 69 65 71 66 22 67 74 68 68 70 67 72 23 74
REMARK SMILES IDX 55 77 35 78 54 79 36 80 39 81 53 82 72 83 37 84 38 86 52 88
REMARK SMILES IDX 73 89 40 92 24 94 25 95 33 96 26 97 27 98 31 99 34 100
REMARK SMILES IDX 28 101 29 102 32 103 30 104 56 105 57 106 65 107 58 108
REMARK SMILES IDX 59 109 63 110 66 111 60 112 61 113 64 114 62 115 41 116
REMARK SMILES IDX 42 117 50 118 43 119 44 120 48 121 51 122 45 123 46 124
REMARK SMILES IDX 49 125 47 126
REMARK H PARENT 9 2 9 3 8 5 8 6 7 8 7 9 6 11 6 12 5 16 2 18 1 20 1 21 1 22
REMARK H PARENT 79 27 83 29 80 31 85 36 85 37 86 38 86 39 10 41 10 42 11 44
REMARK H PARENT 11 45 12 48 16 54 77 56 17 58 76 59 75 69 69 71 71 73 74 75
REMARK H PARENT 68 76 36 85 39 87 72 90 37 91 73 93
REMARK Flexibility Score: inf
ROOT
ATOM      1  C   UNL A   1      36.387  33.906  29.157  1.00  0.00    -0.052 C 
ATOM      2  H   UNL A   1      36.243  34.477  28.263  1.00  0.00     0.027 H 
ATOM      3  H   UNL A   1      36.247  34.455  30.065  1.00  0.00     0.027 H 
ENDROOT
BRANCH   1   4
ATOM      4  C   UNL A   1      37.849  33.450  29.185  1.00  0.00    -0.052 C 
ATOM      5  H   UNL A   1      37.876  32.472  29.617  1.00  0.00     0.027 H 
ATOM      6  H   UNL A   1      38.177  33.501  28.167  1.00  0.00     0.027 H 
BRANCH   4   7
ATOM      7  C   UNL A   1      38.833  34.326  29.966  1.00  0.00    -0.036 C 
ATOM      8  H   UNL A   1      39.792  33.852  29.928  1.00  0.00     0.028 H 
ATOM      9  H   UNL A   1      38.793  35.286  29.494  1.00  0.00     0.028 H 
BRANCH   7  10
ATOM     10  C   UNL A   1      38.501  34.586  31.434  1.00  0.00     0.017 C 
ATOM     11  H   UNL A   1      38.934  35.525  31.711  1.00  0.00     0.049 H 
ATOM     12  H   UNL A   1      37.434  34.573  31.506  1.00  0.00     0.049 H 
BRANCH  10  13
ATOM     13  N   UNL A   1      38.984  33.577  32.362  1.00  0.00    -0.356 N 
ATOM     14  C   UNL A   1      38.462  32.358  32.705  1.00  0.00     0.227 C 
ATOM     15  O   UNL A   1      39.220  31.587  33.306  1.00  0.00    -0.274 OA
ATOM     16  H   UNL A   1      39.826  33.807  32.819  1.00  0.00     0.163 HD
BRANCH  14  17
ATOM     17  C   UNL A   1      36.983  31.962  32.492  1.00  0.00     0.060 C 
ATOM     18  H   UNL A   1      36.722  32.093  31.461  1.00  0.00     0.045 H 
BRANCH  17  19
ATOM     19  C   UNL A   1      36.876  30.485  32.899  1.00  0.00    -0.049 C 
ATOM     20  H   UNL A   1      37.643  30.255  33.608  1.00  0.00     0.024 H 
ATOM     21  H   UNL A   1      36.994  29.867  32.033  1.00  0.00     0.024 H 
ATOM     22  H   UNL A   1      35.917  30.305  33.339  1.00  0.00     0.024 H 
ENDBRANCH  17  19
BRANCH  17  23
ATOM     23  C   UNL A   1      35.952  32.877  33.146  1.00  0.00    -0.032 A 
ATOM     24  C   UNL A   1      36.202  33.526  34.371  1.00  0.00    -0.054 A 
ATOM     25  C   UNL A   1      34.781  33.201  32.446  1.00  0.00    -0.012 A 
ATOM     26  C   UNL A   1      35.463  34.649  34.741  1.00  0.00    -0.016 A 
ATOM     27  H   UNL A   1      36.940  33.169  34.998  1.00  0.00     0.063 H 
ATOM     28  C   UNL A   1      34.135  34.395  32.737  1.00  0.00     0.161 A 
ATOM     29  H   UNL A   1      34.406  32.562  31.727  1.00  0.00     0.067 H 
ATOM     30  C   UNL A   1      34.513  35.137  33.857  1.00  0.00     0.161 A 
ATOM     31  H   UNL A   1      35.618  35.106  35.653  1.00  0.00     0.066 H 
ATOM     32  O   UNL A   1      33.288  34.870  31.772  1.00  0.00    -0.486 OA
ATOM     33  O   UNL A   1      34.090  36.432  34.022  1.00  0.00    -0.486 OA
ATOM     34  C   UNL A   1      33.114  36.293  31.811  1.00  0.00     0.122 C 
ATOM     35  C   UNL A   1      34.100  37.022  32.716  1.00  0.00     0.122 C 
ATOM     36  H   UNL A   1      32.123  36.500  32.159  1.00  0.00     0.074 H 
ATOM     37  H   UNL A   1      33.288  36.651  30.818  1.00  0.00     0.074 H 
ATOM     38  H   UNL A   1      33.821  38.052  32.790  1.00  0.00     0.074 H 
ATOM     39  H   UNL A   1      35.084  36.945  32.302  1.00  0.00     0.074 H 
ENDBRANCH  17  23
ENDBRANCH  14  17
ENDBRANCH  10  13
ENDBRANCH   7  10
ENDBRANCH   4   7
ENDBRANCH   1   4
BRANCH   1  40
ATOM     40  C   UNL A   1      35.322  32.806  29.183  1.00  0.00    -0.036 C 
ATOM     41  H   UNL A   1      34.541  33.125  29.841  1.00  0.00     0.028 H 
ATOM     42  H   UNL A   1      35.839  31.923  29.497  1.00  0.00     0.028 H 
BRANCH  40  43
ATOM     43  C   UNL A   1      34.680  32.441  27.845  1.00  0.00     0.018 C 
ATOM     44  H   UNL A   1      35.435  32.474  27.087  1.00  0.00     0.049 H 
ATOM     45  H   UNL A   1      33.896  33.148  27.670  1.00  0.00     0.049 H 
BRANCH  43  46
ATOM     46  N   UNL A   1      34.074  31.120  27.830  1.00  0.00    -0.352 N 
ATOM     47  C   UNL A   1      34.636  29.874  27.935  1.00  0.00     0.251 C 
ATOM     48  H   UNL A   1      33.095  31.121  27.726  1.00  0.00     0.163 HD
ATOM     49  O   UNL A   1      33.916  28.879  27.800  1.00  0.00    -0.269 OA
BRANCH  47  50
ATOM     50  C   UNL A   1      36.087  29.680  28.173  1.00  0.00     0.039 A 
ATOM     51  C   UNL A   1      36.497  29.250  29.440  1.00  0.00    -0.049 A 
ATOM     52  C   UNL A   1      37.052  29.955  27.200  1.00  0.00    -0.049 A 
ATOM     53  C   UNL A   1      37.852  29.037  29.709  1.00  0.00    -0.053 A 
ATOM     54  H   UNL A   1      35.795  29.088  30.179  1.00  0.00     0.063 H 
ATOM     55  C   UNL A   1      38.400  29.677  27.446  1.00  0.00    -0.053 A 
ATOM     56  H   UNL A   1      36.768  30.366  26.296  1.00  0.00     0.063 H 
ATOM     57  C   UNL A   1      38.817  29.212  28.702  1.00  0.00    -0.014 A 
ATOM     58  H   UNL A   1      38.147  28.750  30.655  1.00  0.00     0.063 H 
ATOM     59  H   UNL A   1      39.096  29.813  26.695  1.00  0.00     0.063 H 
BRANCH  57  60
ATOM     60  C   UNL A   1      40.246  28.886  28.962  1.00  0.00     0.031 A 
ATOM     61  C   UNL A   1      41.145  29.855  29.680  1.00  0.00     0.074 A 
ATOM     62  C   UNL A   1      40.745  27.712  28.525  1.00  0.00     0.049 A 
ATOM     63  N   UNL A   1      42.413  29.733  29.993  1.00  0.00    -0.248 NA
ATOM     64  C   UNL A   1      40.552  31.139  30.083  1.00  0.00    -0.034 C 
ATOM     65  C   UNL A   1      39.998  26.708  27.766  1.00  0.00    -0.036 A 
ATOM     66  N   UNL A   1      41.999  27.165  28.652  1.00  0.00    -0.354 N 
ATOM     67  C   UNL A   1      42.763  30.915  30.633  1.00  0.00     0.074 A 
ATOM     68  C   UNL A   1      41.594  31.769  30.608  1.00  0.00    -0.034 C 
ATOM     69  H   UNL A   1      39.578  31.465  29.985  1.00  0.00     0.065 H 
ATOM     70  C   UNL A   1      40.798  25.659  27.517  1.00  0.00    -0.036 A 
ATOM     71  H   UNL A   1      39.012  26.793  27.472  1.00  0.00     0.065 H 
ATOM     72  C   UNL A   1      42.123  25.928  28.068  1.00  0.00     0.049 A 
ATOM     73  H   UNL A   1      42.740  27.617  29.117  1.00  0.00     0.167 HD
ATOM     74  C   UNL A   1      43.941  31.248  31.216  1.00  0.00     0.037 A 
ATOM     75  H   UNL A   1      41.575  32.741  30.953  1.00  0.00     0.065 H 
ATOM     76  H   UNL A   1      40.519  24.800  27.017  1.00  0.00     0.065 H 
ATOM     77  C   UNL A   1      43.182  25.101  27.983  1.00  0.00     0.037 A 
ATOM     78  C   UNL A   1      45.105  30.398  31.248  1.00  0.00     0.049 A 
ATOM     79  C   UNL A   1      44.480  25.497  28.633  1.00  0.00     0.074 A 
ATOM     80  C   UNL A   1      46.334  30.638  31.839  1.00  0.00    -0.036 A 
ATOM     81  N   UNL A   1      45.184  29.144  30.661  1.00  0.00    -0.354 N 
ATOM     82  N   UNL A   1      44.775  26.591  29.292  1.00  0.00    -0.248 NA
ATOM     83  C   UNL A   1      45.588  24.537  28.540  1.00  0.00    -0.034 C 
ATOM     84  C   UNL A   1      47.171  29.548  31.573  1.00  0.00    -0.036 A 
ATOM     85  H   UNL A   1      46.590  31.477  32.382  1.00  0.00     0.065 H 
ATOM     86  C   UNL A   1      46.447  28.605  30.863  1.00  0.00     0.049 A 
ATOM     87  H   UNL A   1      44.453  28.702  30.172  1.00  0.00     0.167 HD
ATOM     88  C   UNL A   1      46.090  26.441  29.711  1.00  0.00     0.074 A 
ATOM     89  C   UNL A   1      46.527  25.137  29.256  1.00  0.00    -0.034 C 
ATOM     90  H   UNL A   1      45.625  23.631  28.047  1.00  0.00     0.065 H 
ATOM     91  H   UNL A   1      48.158  29.461  31.858  1.00  0.00     0.065 H 
ATOM     92  C   UNL A   1      46.870  27.307  30.404  1.00  0.00     0.037 A 
ATOM     93  H   UNL A   1      47.451  24.729  29.464  1.00  0.00     0.065 H 
BRANCH  74  94
ATOM     94  C   UNL A   1      44.029  32.588  31.891  1.00  0.00     0.064 A 
ATOM     95  C   UNL A   1      43.704  32.745  33.247  1.00  0.00     0.173 A 
ATOM     96  C   UNL A   1      44.498  33.713  31.196  1.00  0.00     0.173 A 
ATOM     97  F   UNL A   1      43.244  31.704  33.956  1.00  0.00    -0.203 F 
ATOM     98  C   UNL A   1      43.821  33.983  33.875  1.00  0.00     0.198 A 
ATOM     99  C   UNL A   1      44.642  34.942  31.835  1.00  0.00     0.198 A 
ATOM    100  F   UNL A   1      44.829  33.618  29.899  1.00  0.00    -0.203 F 
ATOM    101  F   UNL A   1      43.463  34.117  35.159  1.00  0.00    -0.200 F 
ATOM    102  C   UNL A   1      44.297  35.079  33.171  1.00  0.00     0.200 A 
ATOM    103  F   UNL A   1      45.116  35.997  31.156  1.00  0.00    -0.200 F 
ATOM    104  F   UNL A   1      44.420  36.266  33.779  1.00  0.00    -0.200 F 
ENDBRANCH  74  94
BRANCH  77 105
ATOM    105  C   UNL A   1      43.061  23.806  27.261  1.00  0.00     0.064 A 
ATOM    106  C   UNL A   1      42.538  22.667  27.893  1.00  0.00     0.173 A 
ATOM    107  C   UNL A   1      43.487  23.672  25.931  1.00  0.00     0.173 A 
ATOM    108  F   UNL A   1      42.134  22.738  29.171  1.00  0.00    -0.203 F 
ATOM    109  C   UNL A   1      42.476  21.441  27.233  1.00  0.00     0.198 A 
ATOM    110  C   UNL A   1      43.393  22.454  25.262  1.00  0.00     0.198 A 
ATOM    111  F   UNL A   1      43.988  24.731  25.278  1.00  0.00    -0.203 F 
ATOM    112  F   UNL A   1      42.027  20.357  27.881  1.00  0.00    -0.200 F 
ATOM    113  C   UNL A   1      42.899  21.337  25.918  1.00  0.00     0.200 A 
ATOM    114  F   UNL A   1      43.788  22.362  23.985  1.00  0.00    -0.200 F 
ATOM    115  F   UNL A   1      42.840  20.158  25.284  1.00  0.00    -0.200 F 
ENDBRANCH  77 105
BRANCH  92 116
ATOM    116  C   UNL A   1      48.265  26.858  30.735  1.00  0.00     0.064 A 
ATOM    117  C   UNL A   1      49.359  27.197  29.924  1.00  0.00     0.173 A 
ATOM    118  C   UNL A   1      48.514  26.089  31.883  1.00  0.00     0.173 A 
ATOM    119  F   UNL A   1      49.174  27.918  28.808  1.00  0.00    -0.203 F 
ATOM    120  C   UNL A   1      50.642  26.750  30.227  1.00  0.00     0.198 A 
ATOM    121  C   UNL A   1      49.803  25.672  32.201  1.00  0.00     0.198 A 
ATOM    122  F   UNL A   1      47.506  25.744  32.696  1.00  0.00    -0.203 F 
ATOM    123  F   UNL A   1      51.661  27.032  29.404  1.00  0.00    -0.200 F 
ATOM    124  C   UNL A   1      50.864  25.992  31.368  1.00  0.00     0.200 A 
ATOM    125  F   UNL A   1      50.018  24.953  33.311  1.00  0.00    -0.200 F 
ATOM    126  F   UNL A   1      52.099  25.562  31.658  1.00  0.00    -0.200 F 
ENDBRANCH  92 116
ENDBRANCH  57  60
ENDBRANCH  47  50
ENDBRANCH  43  46
ENDBRANCH  40  43
ENDBRANCH   1  40
TORSDOF 15
ENDMDL
MODEL 9
REMARK VINA RESULT:     -11.5      5.603      9.719
REMARK SMILES C[C@H](C(=O)NCCCCCCNC(=O)c1ccc(-c2c3nc(c(-c4c(F)c(F)c(F)c(F)c4F)c4ccc([nH]4)c(-c4c(F)c(F)c(F)c(F)c4F)c4nc(c(-c5c(F)c(F)c(F)c(F)c5F)c5ccc2[nH]5)C=C4)C=C3)cc1)c1ccc2c(c1)OCCO2
REMARK SMILES IDX 9 1 8 4 7 7 6 10 5 13 3 14 4 15 2 17 1 19 78 23 79 24 83 25
REMARK SMILES IDX 80 26 82 28 81 30 84 32 87 33 85 34 86 35 10 40 11 43 12 46
REMARK SMILES IDX 13 47 14 49 15 50 16 51 77 52 17 53 76 55 18 57 19 60 20 61
REMARK SMILES IDX 70 62 21 63 75 64 69 65 71 66 22 67 74 68 68 70 67 72 23 74
REMARK SMILES IDX 55 77 35 78 54 79 36 80 39 81 53 82 72 83 37 84 38 86 52 88
REMARK SMILES IDX 73 89 40 92 24 94 25 95 33 96 26 97 27 98 31 99 34 100
REMARK SMILES IDX 28 101 29 102 32 103 30 104 56 105 57 106 65 107 58 108
REMARK SMILES IDX 59 109 63 110 66 111 60 112 61 113 64 114 62 115 41 116
REMARK SMILES IDX 42 117 50 118 43 119 44 120 48 121 51 122 45 123 46 124
REMARK SMILES IDX 49 125 47 126
REMARK H PARENT 9 2 9 3 8 5 8 6 7 8 7 9 6 11 6 12 5 16 2 18 1 20 1 21 1 22
REMARK H PARENT 79 27 83 29 80 31 85 36 85 37 86 38 86 39 10 41 10 42 11 44
REMARK H PARENT 11 45 12 48 16 54 77 56 17 58 76 59 75 69 69 71 71 73 74 75
REMARK H PARENT 68 76 36 85 39 87 72 90 37 91 73 93
REMARK Flexibility Score: inf
ROOT
ATOM      1  C   UNL A   1      36.718  20.447  24.894  1.00  0.00    -0.052 C 
ATOM      2  H   UNL A   1      36.022  20.005  24.211  1.00  0.00     0.027 H 
ATOM      3  H   UNL A   1      36.359  20.546  25.897  1.00  0.00     0.027 H 
ENDROOT
BRANCH   1   4
ATOM      4  C   UNL A   1      36.985  21.879  24.419  1.00  0.00    -0.052 C 
ATOM      5  H   UNL A   1      37.992  21.918  24.058  1.00  0.00     0.027 H 
ATOM      6  H   UNL A   1      36.235  22.073  23.680  1.00  0.00     0.027 H 
BRANCH   4   7
ATOM      7  C   UNL A   1      36.824  22.994  25.457  1.00  0.00    -0.036 C 
ATOM      8  H   UNL A   1      36.932  22.554  26.427  1.00  0.00     0.028 H 
ATOM      9  H   UNL A   1      37.573  23.718  25.212  1.00  0.00     0.028 H 
BRANCH   7  10
ATOM     10  C   UNL A   1      35.503  23.760  25.439  1.00  0.00     0.017 C 
ATOM     11  H   UNL A   1      35.654  24.693  25.941  1.00  0.00     0.049 H 
ATOM     12  H   UNL A   1      35.235  23.870  24.409  1.00  0.00     0.049 H 
BRANCH  10  13
ATOM     13  N   UNL A   1      34.388  23.080  26.078  1.00  0.00    -0.356 N 
ATOM     14  C   UNL A   1      33.535  22.122  25.598  1.00  0.00     0.227 C 
ATOM     15  O   UNL A   1      32.859  21.519  26.441  1.00  0.00    -0.274 OA
ATOM     16  H   UNL A   1      34.219  23.352  27.009  1.00  0.00     0.163 HD
BRANCH  14  17
ATOM     17  C   UNL A   1      33.297  21.852  24.094  1.00  0.00     0.060 C 
ATOM     18  H   UNL A   1      34.236  21.847  23.579  1.00  0.00     0.045 H 
BRANCH  17  19
ATOM     19  C   UNL A   1      32.621  20.476  24.012  1.00  0.00    -0.049 C 
ATOM     20  H   UNL A   1      31.647  20.583  23.581  1.00  0.00     0.024 H 
ATOM     21  H   UNL A   1      32.532  20.063  24.995  1.00  0.00     0.024 H 
ATOM     22  H   UNL A   1      33.211  19.824  23.402  1.00  0.00     0.024 H 
ENDBRANCH  17  19
BRANCH  17  23
ATOM     23  C   UNL A   1      32.579  22.960  23.330  1.00  0.00    -0.032 A 
ATOM     24  C   UNL A   1      31.234  23.291  23.584  1.00  0.00    -0.054 A 
ATOM     25  C   UNL A   1      33.311  23.771  22.451  1.00  0.00    -0.012 A 
ATOM     26  C   UNL A   1      30.725  24.532  23.203  1.00  0.00    -0.016 A 
ATOM     27  H   UNL A   1      30.621  22.610  24.059  1.00  0.00     0.063 H 
ATOM     28  C   UNL A   1      32.857  25.058  22.192  1.00  0.00     0.161 A 
ATOM     29  H   UNL A   1      34.172  23.418  22.005  1.00  0.00     0.067 H 
ATOM     30  C   UNL A   1      31.584  25.446  22.613  1.00  0.00     0.161 A 
ATOM     31  H   UNL A   1      29.731  24.764  23.355  1.00  0.00     0.066 H 
ATOM     32  O   UNL A   1      33.788  25.937  21.705  1.00  0.00    -0.486 OA
ATOM     33  O   UNL A   1      31.213  26.767  22.614  1.00  0.00    -0.486 OA
ATOM     34  C   UNL A   1      33.491  27.308  22.001  1.00  0.00     0.122 C 
ATOM     35  C   UNL A   1      32.373  27.505  23.018  1.00  0.00     0.122 C 
ATOM     36  H   UNL A   1      33.205  27.792  21.090  1.00  0.00     0.074 H 
ATOM     37  H   UNL A   1      34.376  27.727  22.433  1.00  0.00     0.074 H 
ATOM     38  H   UNL A   1      32.129  28.544  23.081  1.00  0.00     0.074 H 
ATOM     39  H   UNL A   1      32.700  27.153  23.975  1.00  0.00     0.074 H 
ENDBRANCH  17  23
ENDBRANCH  14  17
ENDBRANCH  10  13
ENDBRANCH   7  10
ENDBRANCH   4   7
ENDBRANCH   1   4
BRANCH   1  40
ATOM     40  C   UNL A   1      37.930  19.516  24.990  1.00  0.00    -0.036 C 
ATOM     41  H   UNL A   1      38.291  19.350  23.997  1.00  0.00     0.028 H 
ATOM     42  H   UNL A   1      37.573  18.640  25.490  1.00  0.00     0.028 H 
BRANCH  40  43
ATOM     43  C   UNL A   1      39.107  20.007  25.834  1.00  0.00     0.018 C 
ATOM     44  H   UNL A   1      38.760  20.173  26.833  1.00  0.00     0.049 H 
ATOM     45  H   UNL A   1      39.470  20.903  25.375  1.00  0.00     0.049 H 
BRANCH  43  46
ATOM     46  N   UNL A   1      40.219  19.074  25.883  1.00  0.00    -0.352 N 
ATOM     47  C   UNL A   1      41.554  19.280  26.123  1.00  0.00     0.251 C 
ATOM     48  H   UNL A   1      39.973  18.135  25.715  1.00  0.00     0.163 HD
ATOM     49  O   UNL A   1      42.334  18.329  26.019  1.00  0.00    -0.269 OA
BRANCH  47  50
ATOM     50  C   UNL A   1      42.095  20.617  26.469  1.00  0.00     0.039 A 
ATOM     51  C   UNL A   1      42.408  21.494  25.425  1.00  0.00    -0.049 A 
ATOM     52  C   UNL A   1      42.343  21.009  27.788  1.00  0.00    -0.049 A 
ATOM     53  C   UNL A   1      42.905  22.771  25.700  1.00  0.00    -0.053 A 
ATOM     54  H   UNL A   1      42.271  21.196  24.446  1.00  0.00     0.063 H 
ATOM     55  C   UNL A   1      42.775  22.310  28.066  1.00  0.00    -0.053 A 
ATOM     56  H   UNL A   1      42.208  20.336  28.559  1.00  0.00     0.063 H 
ATOM     57  C   UNL A   1      43.058  23.208  27.026  1.00  0.00    -0.014 A 
ATOM     58  H   UNL A   1      43.163  23.398  24.922  1.00  0.00     0.063 H 
ATOM     59  H   UNL A   1      42.884  22.614  29.047  1.00  0.00     0.063 H 
BRANCH  57  60
ATOM     60  C   UNL A   1      43.490  24.603  27.316  1.00  0.00     0.031 A 
ATOM     61  C   UNL A   1      42.509  25.633  27.806  1.00  0.00     0.074 A 
ATOM     62  C   UNL A   1      44.777  24.952  27.113  1.00  0.00     0.049 A 
ATOM     63  N   UNL A   1      42.713  26.893  28.111  1.00  0.00    -0.248 NA
ATOM     64  C   UNL A   1      41.111  25.203  27.956  1.00  0.00    -0.034 C 
ATOM     65  C   UNL A   1      45.817  24.066  26.587  1.00  0.00    -0.036 A 
ATOM     66  N   UNL A   1      45.429  26.142  27.321  1.00  0.00    -0.354 N 
ATOM     67  C   UNL A   1      41.477  27.398  28.494  1.00  0.00     0.074 A 
ATOM     68  C   UNL A   1      40.515  26.329  28.322  1.00  0.00    -0.034 C 
ATOM     69  H   UNL A   1      40.700  24.267  27.814  1.00  0.00     0.065 H 
ATOM     70  C   UNL A   1      46.980  24.735  26.537  1.00  0.00    -0.036 A 
ATOM     71  H   UNL A   1      45.678  23.084  26.302  1.00  0.00     0.065 H 
ATOM     72  C   UNL A   1      46.763  26.104  26.995  1.00  0.00     0.049 A 
ATOM     73  H   UNL A   1      44.983  26.948  27.671  1.00  0.00     0.167 HD
ATOM     74  C   UNL A   1      41.174  28.629  28.973  1.00  0.00     0.037 A 
ATOM     75  H   UNL A   1      39.498  26.431  28.465  1.00  0.00     0.065 H 
ATOM     76  H   UNL A   1      47.882  24.342  26.225  1.00  0.00     0.065 H 
ATOM     77  C   UNL A   1      47.708  27.062  27.055  1.00  0.00     0.037 A 
ATOM     78  C   UNL A   1      42.130  29.693  29.150  1.00  0.00     0.049 A 
ATOM     79  C   UNL A   1      47.344  28.423  27.586  1.00  0.00     0.074 A 
ATOM     80  C   UNL A   1      41.923  30.966  29.655  1.00  0.00    -0.036 A 
ATOM     81  N   UNL A   1      43.476  29.609  28.825  1.00  0.00    -0.354 N 
ATOM     82  N   UNL A   1      46.184  28.864  28.006  1.00  0.00    -0.248 NA
ATOM     83  C   UNL A   1      48.426  29.413  27.664  1.00  0.00    -0.034 C 
ATOM     84  C   UNL A   1      43.133  31.666  29.597  1.00  0.00    -0.036 A 
ATOM     85  H   UNL A   1      41.029  31.336  30.014  1.00  0.00     0.065 H 
ATOM     86  C   UNL A   1      44.108  30.813  29.105  1.00  0.00     0.049 A 
ATOM     87  H   UNL A   1      43.918  28.814  28.451  1.00  0.00     0.167 HD
ATOM     88  C   UNL A   1      46.399  30.172  28.419  1.00  0.00     0.074 A 
ATOM     89  C   UNL A   1      47.809  30.443  28.225  1.00  0.00    -0.034 C 
ATOM     90  H   UNL A   1      49.409  29.330  27.362  1.00  0.00     0.065 H 
ATOM     91  H   UNL A   1      43.277  32.649  29.872  1.00  0.00     0.065 H 
ATOM     92  C   UNL A   1      45.511  31.071  28.907  1.00  0.00     0.037 A 
ATOM     93  H   UNL A   1      48.273  31.325  28.492  1.00  0.00     0.065 H 
BRANCH  74  94
ATOM     94  C   UNL A   1      39.748  28.893  29.363  1.00  0.00     0.064 A 
ATOM     95  C   UNL A   1      38.810  29.360  28.430  1.00  0.00     0.173 A 
ATOM     96  C   UNL A   1      39.296  28.622  30.664  1.00  0.00     0.173 A 
ATOM     97  F   UNL A   1      39.191  29.643  27.175  1.00  0.00    -0.203 F 
ATOM     98  C   UNL A   1      37.481  29.571  28.789  1.00  0.00     0.198 A 
ATOM     99  C   UNL A   1      37.960  28.805  31.012  1.00  0.00     0.198 A 
ATOM    100  F   UNL A   1      40.148  28.167  31.595  1.00  0.00    -0.203 F 
ATOM    101  F   UNL A   1      36.615  30.059  27.891  1.00  0.00    -0.200 F 
ATOM    102  C   UNL A   1      37.055  29.285  30.078  1.00  0.00     0.200 A 
ATOM    103  F   UNL A   1      37.547  28.514  32.254  1.00  0.00    -0.200 F 
ATOM    104  F   UNL A   1      35.774  29.476  30.419  1.00  0.00    -0.200 F 
ENDBRANCH  74  94
BRANCH  77 105
ATOM    105  C   UNL A   1      49.097  26.768  26.610  1.00  0.00     0.064 A 
ATOM    106  C   UNL A   1      49.477  26.916  25.268  1.00  0.00     0.173 A 
ATOM    107  C   UNL A   1      50.068  26.311  27.514  1.00  0.00     0.173 A 
ATOM    108  F   UNL A   1      48.580  27.332  24.361  1.00  0.00    -0.203 F 
ATOM    109  C   UNL A   1      50.763  26.588  24.843  1.00  0.00     0.198 A 
ATOM    110  C   UNL A   1      51.362  26.016  27.094  1.00  0.00     0.198 A 
ATOM    111  F   UNL A   1      49.759  26.159  28.810  1.00  0.00    -0.203 F 
ATOM    112  F   UNL A   1      51.080  26.683  23.544  1.00  0.00    -0.200 F 
ATOM    113  C   UNL A   1      51.705  26.143  25.757  1.00  0.00     0.200 A 
ATOM    114  F   UNL A   1      52.275  25.602  27.983  1.00  0.00    -0.200 F 
ATOM    115  F   UNL A   1      52.942  25.828  25.347  1.00  0.00    -0.200 F 
ENDBRANCH  77 105
BRANCH  92 116
ATOM    116  C   UNL A   1      46.044  32.422  29.292  1.00  0.00     0.064 A 
ATOM    117  C   UNL A   1      46.536  32.679  30.582  1.00  0.00     0.173 A 
ATOM    118  C   UNL A   1      46.073  33.469  28.359  1.00  0.00     0.173 A 
ATOM    119  F   UNL A   1      46.518  31.717  31.516  1.00  0.00    -0.203 F 
ATOM    120  C   UNL A   1      47.000  33.944  30.932  1.00  0.00     0.198 A 
ATOM    121  C   UNL A   1      46.569  34.723  28.703  1.00  0.00     0.198 A 
ATOM    122  F   UNL A   1      45.622  33.275  27.111  1.00  0.00    -0.203 F 
ATOM    123  F   UNL A   1      47.405  34.183  32.186  1.00  0.00    -0.200 F 
ATOM    124  C   UNL A   1      47.021  34.964  29.992  1.00  0.00     0.200 A 
ATOM    125  F   UNL A   1      46.602  35.703  27.790  1.00  0.00    -0.200 F 
ATOM    126  F   UNL A   1      47.466  36.181  30.331  1.00  0.00    -0.200 F 
ENDBRANCH  92 116
ENDBRANCH  57  60
ENDBRANCH  47  50
ENDBRANCH  43  46
ENDBRANCH  40  43
ENDBRANCH   1  40
TORSDOF 15
ENDMDL
MODEL 10
REMARK VINA RESULT:     -11.5      3.919      8.675
REMARK SMILES C[C@H](C(=O)NCCCCCCNC(=O)c1ccc(-c2c3nc(c(-c4c(F)c(F)c(F)c(F)c4F)c4ccc([nH]4)c(-c4c(F)c(F)c(F)c(F)c4F)c4nc(c(-c5c(F)c(F)c(F)c(F)c5F)c5ccc2[nH]5)C=C4)C=C3)cc1)c1ccc2c(c1)OCCO2
REMARK SMILES IDX 9 1 8 4 7 7 6 10 5 13 3 14 4 15 2 17 1 19 78 23 79 24 83 25
REMARK SMILES IDX 80 26 82 28 81 30 84 32 87 33 85 34 86 35 10 40 11 43 12 46
REMARK SMILES IDX 13 47 14 49 15 50 16 51 77 52 17 53 76 55 18 57 19 60 20 61
REMARK SMILES IDX 70 62 21 63 75 64 69 65 71 66 22 67 74 68 68 70 67 72 23 74
REMARK SMILES IDX 55 77 35 78 54 79 36 80 39 81 53 82 72 83 37 84 38 86 52 88
REMARK SMILES IDX 73 89 40 92 24 94 25 95 33 96 26 97 27 98 31 99 34 100
REMARK SMILES IDX 28 101 29 102 32 103 30 104 56 105 57 106 65 107 58 108
REMARK SMILES IDX 59 109 63 110 66 111 60 112 61 113 64 114 62 115 41 116
REMARK SMILES IDX 42 117 50 118 43 119 44 120 48 121 51 122 45 123 46 124
REMARK SMILES IDX 49 125 47 126
REMARK H PARENT 9 2 9 3 8 5 8 6 7 8 7 9 6 11 6 12 5 16 2 18 1 20 1 21 1 22
REMARK H PARENT 79 27 83 29 80 31 85 36 85 37 86 38 86 39 10 41 10 42 11 44
REMARK H PARENT 11 45 12 48 16 54 77 56 17 58 76 59 75 69 69 71 71 73 74 75
REMARK H PARENT 68 76 36 85 39 87 72 90 37 91 73 93
REMARK Flexibility Score: inf
ROOT
ATOM      1  C   UNL A   1      35.140  22.394  24.343  1.00  0.00    -0.052 C 
ATOM      2  H   UNL A   1      34.430  22.971  23.789  1.00  0.00     0.027 H 
ATOM      3  H   UNL A   1      35.975  22.044  23.772  1.00  0.00     0.027 H 
ENDROOT
BRANCH   1   4
ATOM      4  C   UNL A   1      34.428  21.128  24.831  1.00  0.00    -0.052 C 
ATOM      5  H   UNL A   1      35.081  20.299  24.651  1.00  0.00     0.027 H 
ATOM      6  H   UNL A   1      34.210  21.311  25.864  1.00  0.00     0.027 H 
BRANCH   4   7
ATOM      7  C   UNL A   1      33.078  20.801  24.188  1.00  0.00    -0.036 C 
ATOM      8  H   UNL A   1      32.929  21.484  23.378  1.00  0.00     0.028 H 
ATOM      9  H   UNL A   1      33.147  19.773  23.895  1.00  0.00     0.028 H 
BRANCH   7  10
ATOM     10  C   UNL A   1      31.851  20.879  25.094  1.00  0.00     0.017 C 
ATOM     11  H   UNL A   1      31.020  21.196  24.500  1.00  0.00     0.049 H 
ATOM     12  H   UNL A   1      31.726  19.903  25.514  1.00  0.00     0.049 H 
BRANCH  10  13
ATOM     13  N   UNL A   1      31.974  21.793  26.218  1.00  0.00    -0.356 N 
ATOM     14  C   UNL A   1      31.465  23.051  26.405  1.00  0.00     0.227 C 
ATOM     15  O   UNL A   1      31.491  23.485  27.563  1.00  0.00    -0.274 OA
ATOM     16  H   UNL A   1      32.511  21.451  26.969  1.00  0.00     0.163 HD
BRANCH  14  17
ATOM     17  C   UNL A   1      30.988  23.968  25.256  1.00  0.00     0.060 C 
ATOM     18  H   UNL A   1      30.428  23.393  24.547  1.00  0.00     0.045 H 
BRANCH  17  19
ATOM     19  C   UNL A   1      30.104  25.041  25.909  1.00  0.00    -0.049 C 
ATOM     20  H   UNL A   1      30.178  25.952  25.353  1.00  0.00     0.024 H 
ATOM     21  H   UNL A   1      30.430  25.209  26.914  1.00  0.00     0.024 H 
ATOM     22  H   UNL A   1      29.086  24.709  25.915  1.00  0.00     0.024 H 
ENDBRANCH  17  19
BRANCH  17  23
ATOM     23  C   UNL A   1      32.084  24.516  24.348  1.00  0.00    -0.032 A 
ATOM     24  C   UNL A   1      32.155  24.186  22.980  1.00  0.00    -0.054 A 
ATOM     25  C   UNL A   1      32.964  25.488  24.845  1.00  0.00    -0.012 A 
ATOM     26  C   UNL A   1      32.873  24.988  22.094  1.00  0.00    -0.016 A 
ATOM     27  H   UNL A   1      31.669  23.345  22.632  1.00  0.00     0.063 H 
ATOM     28  C   UNL A   1      33.563  26.369  23.954  1.00  0.00     0.161 A 
ATOM     29  H   UNL A   1      33.161  25.549  25.857  1.00  0.00     0.067 H 
ATOM     30  C   UNL A   1      33.473  26.139  22.581  1.00  0.00     0.161 A 
ATOM     31  H   UNL A   1      32.957  24.730  21.098  1.00  0.00     0.066 H 
ATOM     32  O   UNL A   1      34.043  27.533  24.492  1.00  0.00    -0.486 OA
ATOM     33  O   UNL A   1      33.814  27.114  21.678  1.00  0.00    -0.486 OA
ATOM     34  C   UNL A   1      34.098  28.617  23.554  1.00  0.00     0.122 C 
ATOM     35  C   UNL A   1      33.367  28.353  22.243  1.00  0.00     0.122 C 
ATOM     36  H   UNL A   1      35.127  28.814  23.330  1.00  0.00     0.074 H 
ATOM     37  H   UNL A   1      33.608  29.448  24.016  1.00  0.00     0.074 H 
ATOM     38  H   UNL A   1      33.567  29.149  21.557  1.00  0.00     0.074 H 
ATOM     39  H   UNL A   1      32.314  28.295  22.431  1.00  0.00     0.074 H 
ENDBRANCH  17  23
ENDBRANCH  14  17
ENDBRANCH  10  13
ENDBRANCH   7  10
ENDBRANCH   4   7
ENDBRANCH   1   4
BRANCH   1  40
ATOM     40  C   UNL A   1      35.741  23.304  25.418  1.00  0.00    -0.036 C 
ATOM     41  H   UNL A   1      35.786  22.744  26.329  1.00  0.00     0.028 H 
ATOM     42  H   UNL A   1      35.102  24.160  25.451  1.00  0.00     0.028 H 
BRANCH  40  43
ATOM     43  C   UNL A   1      37.140  23.857  25.145  1.00  0.00     0.018 C 
ATOM     44  H   UNL A   1      37.270  24.748  25.724  1.00  0.00     0.049 H 
ATOM     45  H   UNL A   1      37.204  24.043  24.093  1.00  0.00     0.049 H 
BRANCH  43  46
ATOM     46  N   UNL A   1      38.209  22.931  25.479  1.00  0.00    -0.352 N 
ATOM     47  C   UNL A   1      39.355  23.111  26.211  1.00  0.00     0.251 C 
ATOM     48  H   UNL A   1      38.091  22.023  25.118  1.00  0.00     0.163 HD
ATOM     49  O   UNL A   1      40.171  22.187  26.281  1.00  0.00    -0.269 OA
BRANCH  47  50
ATOM     50  C   UNL A   1      39.662  24.391  26.894  1.00  0.00     0.039 A 
ATOM     51  C   UNL A   1      39.229  24.555  28.215  1.00  0.00    -0.049 A 
ATOM     52  C   UNL A   1      40.321  25.446  26.256  1.00  0.00    -0.049 A 
ATOM     53  C   UNL A   1      39.508  25.737  28.907  1.00  0.00    -0.053 A 
ATOM     54  H   UNL A   1      38.701  23.800  28.680  1.00  0.00     0.063 H 
ATOM     55  C   UNL A   1      40.660  26.599  26.969  1.00  0.00    -0.053 A 
ATOM     56  H   UNL A   1      40.557  25.372  25.253  1.00  0.00     0.063 H 
ATOM     57  C   UNL A   1      40.260  26.758  28.304  1.00  0.00    -0.014 A 
ATOM     58  H   UNL A   1      39.156  25.861  29.870  1.00  0.00     0.063 H 
ATOM     59  H   UNL A   1      41.211  27.341  26.509  1.00  0.00     0.063 H 
BRANCH  57  60
ATOM     60  C   UNL A   1      40.643  27.971  29.078  1.00  0.00     0.031 A 
ATOM     61  C   UNL A   1      42.023  28.117  29.661  1.00  0.00     0.074 A 
ATOM     62  C   UNL A   1      39.730  28.943  29.278  1.00  0.00     0.049 A 
ATOM     63  N   UNL A   1      42.527  29.106  30.359  1.00  0.00    -0.248 NA
ATOM     64  C   UNL A   1      42.955  26.999  29.452  1.00  0.00    -0.034 C 
ATOM     65  C   UNL A   1      38.341  28.901  28.817  1.00  0.00    -0.036 A 
ATOM     66  N   UNL A   1      39.828  30.152  29.923  1.00  0.00    -0.354 N 
ATOM     67  C   UNL A   1      43.831  28.734  30.663  1.00  0.00     0.074 A 
ATOM     68  C   UNL A   1      44.021  27.401  30.130  1.00  0.00    -0.034 C 
ATOM     69  H   UNL A   1      42.816  26.128  28.916  1.00  0.00     0.065 H 
ATOM     70  C   UNL A   1      37.726  30.041  29.171  1.00  0.00    -0.036 A 
ATOM     71  H   UNL A   1      37.905  28.121  28.302  1.00  0.00     0.065 H 
ATOM     72  C   UNL A   1      38.663  30.879  29.912  1.00  0.00     0.049 A 
ATOM     73  H   UNL A   1      40.657  30.467  30.353  1.00  0.00     0.167 HD
ATOM     74  C   UNL A   1      44.791  29.447  31.300  1.00  0.00     0.037 A 
ATOM     75  H   UNL A   1      44.875  26.837  30.262  1.00  0.00     0.065 H 
ATOM     76  H   UNL A   1      36.746  30.284  28.953  1.00  0.00     0.065 H 
ATOM     77  C   UNL A   1      38.378  32.085  30.438  1.00  0.00     0.037 A 
ATOM     78  C   UNL A   1      44.606  30.776  31.827  1.00  0.00     0.049 A 
ATOM     79  C   UNL A   1      39.462  32.854  31.147  1.00  0.00     0.074 A 
ATOM     80  C   UNL A   1      45.529  31.589  32.463  1.00  0.00    -0.036 A 
ATOM     81  N   UNL A   1      43.416  31.487  31.779  1.00  0.00    -0.354 N 
ATOM     82  N   UNL A   1      40.708  32.515  31.367  1.00  0.00    -0.248 NA
ATOM     83  C   UNL A   1      39.101  34.181  31.665  1.00  0.00    -0.034 C 
ATOM     84  C   UNL A   1      44.886  32.774  32.839  1.00  0.00    -0.036 A 
ATOM     85  H   UNL A   1      46.521  31.361  32.632  1.00  0.00     0.065 H 
ATOM     86  C   UNL A   1      43.577  32.723  32.389  1.00  0.00     0.049 A 
ATOM     87  H   UNL A   1      42.580  31.162  31.373  1.00  0.00     0.167 HD
ATOM     88  C   UNL A   1      41.285  33.591  32.028  1.00  0.00     0.074 A 
ATOM     89  C   UNL A   1      40.260  34.606  32.146  1.00  0.00    -0.034 C 
ATOM     90  H   UNL A   1      38.185  34.656  31.657  1.00  0.00     0.065 H 
ATOM     91  H   UNL A   1      45.313  33.554  33.361  1.00  0.00     0.065 H 
ATOM     92  C   UNL A   1      42.548  33.725  32.501  1.00  0.00     0.037 A 
ATOM     93  H   UNL A   1      40.412  35.542  32.553  1.00  0.00     0.065 H 
BRANCH  74  94
ATOM     94  C   UNL A   1      46.145  28.813  31.449  1.00  0.00     0.064 A 
ATOM     95  C   UNL A   1      47.141  28.981  30.475  1.00  0.00     0.173 A 
ATOM     96  C   UNL A   1      46.473  28.080  32.600  1.00  0.00     0.173 A 
ATOM     97  F   UNL A   1      46.878  29.665  29.351  1.00  0.00    -0.203 F 
ATOM     98  C   UNL A   1      48.405  28.419  30.635  1.00  0.00     0.198 A 
ATOM     99  C   UNL A   1      47.748  27.546  32.771  1.00  0.00     0.198 A 
ATOM    100  F   UNL A   1      45.561  27.895  33.566  1.00  0.00    -0.203 F 
ATOM    101  F   UNL A   1      49.325  28.557  29.670  1.00  0.00    -0.200 F 
ATOM    102  C   UNL A   1      48.710  27.709  31.786  1.00  0.00     0.200 A 
ATOM    103  F   UNL A   1      48.045  26.872  33.891  1.00  0.00    -0.200 F 
ATOM    104  F   UNL A   1      49.930  27.179  31.945  1.00  0.00    -0.200 F 
ENDBRANCH  74  94
BRANCH  77 105
ATOM    105  C   UNL A   1      37.009  32.651  30.309  1.00  0.00     0.064 A 
ATOM    106  C   UNL A   1      36.637  33.404  29.185  1.00  0.00     0.173 A 
ATOM    107  C   UNL A   1      36.050  32.471  31.317  1.00  0.00     0.173 A 
ATOM    108  F   UNL A   1      37.524  33.622  28.202  1.00  0.00    -0.203 F 
ATOM    109  C   UNL A   1      35.371  33.980  29.090  1.00  0.00     0.198 A 
ATOM    110  C   UNL A   1      34.774  33.019  31.205  1.00  0.00     0.198 A 
ATOM    111  F   UNL A   1      36.351  31.753  32.409  1.00  0.00    -0.203 F 
ATOM    112  F   UNL A   1      35.063  34.744  28.033  1.00  0.00    -0.200 F 
ATOM    113  C   UNL A   1      34.440  33.783  30.098  1.00  0.00     0.200 A 
ATOM    114  F   UNL A   1      33.872  32.812  32.173  1.00  0.00    -0.200 F 
ATOM    115  F   UNL A   1      33.223  34.337  30.006  1.00  0.00    -0.200 F 
ENDBRANCH  77 105
BRANCH  92 116
ATOM    116  C   UNL A   1      42.897  35.027  33.165  1.00  0.00     0.064 A 
ATOM    117  C   UNL A   1      42.700  35.228  34.540  1.00  0.00     0.173 A 
ATOM    118  C   UNL A   1      43.445  36.083  32.420  1.00  0.00     0.173 A 
ATOM    119  F   UNL A   1      42.166  34.257  35.295  1.00  0.00    -0.203 F 
ATOM    120  C   UNL A   1      43.000  36.450  35.136  1.00  0.00     0.198 A 
ATOM    121  C   UNL A   1      43.776  37.292  33.026  1.00  0.00     0.198 A 
ATOM    122  F   UNL A   1      43.661  35.941  31.105  1.00  0.00    -0.203 F 
ATOM    123  F   UNL A   1      42.744  36.640  36.437  1.00  0.00    -0.200 F 
ATOM    124  C   UNL A   1      43.543  37.479  34.380  1.00  0.00     0.200 A 
ATOM    125  F   UNL A   1      44.313  38.279  32.297  1.00  0.00    -0.200 F 
ATOM    126  F   UNL A   1      43.830  38.655  34.955  1.00  0.00    -0.200 F 
ENDBRANCH  92 116
ENDBRANCH  57  60
ENDBRANCH  47  50
ENDBRANCH  43  46
ENDBRANCH  40  43
ENDBRANCH   1  40
TORSDOF 15
ENDMDL
