MODEL 1
REMARK VINA RESULT:     -12.0      0.000      0.000
REMARK SMILES O=C(NCCCCCCNC(=O)[C@H](CO)NC(=O)[C@H](Cc1c[nH]c2ccccc12)NC(=O)c1ccc(F)cc1)c1ccc(-c2c3nc(c(-c4c(F)c(F)c(F)c(F)c4F)c4ccc([nH]4)c(-c4c(F)c(F)c(F)c(F)c4F)c4nc(c(-c5c(F)c(F)c(F)c(F)c5F)c5ccc2[nH]5)C=C4)C=C3)cc1
REMARK SMILES IDX 7 1 6 4 5 7 4 10 3 13 1 14 2 15 40 17 41 18 102 19 42 20
REMARK SMILES IDX 101 22 43 24 44 27 45 28 95 29 46 30 100 31 94 32 96 33
REMARK SMILES IDX 47 34 99 35 93 37 92 39 48 41 80 44 60 45 79 46 61 47 64 48
REMARK SMILES IDX 78 49 97 50 62 51 63 53 77 55 98 56 65 59 49 61 50 62 58 63
REMARK SMILES IDX 51 64 52 65 56 66 59 67 53 68 54 69 57 70 55 71 81 72 82 73
REMARK SMILES IDX 90 74 83 75 84 76 88 77 91 78 85 79 86 80 89 81 87 82 66 83
REMARK SMILES IDX 67 84 75 85 68 86 69 87 73 88 76 89 70 90 71 91 74 92 72 93
REMARK SMILES IDX 8 94 9 97 10 100 11 101 12 103 13 104 16 106 17 107 18 109
REMARK SMILES IDX 19 110 30 112 31 113 32 115 33 116 34 117 39 118 35 119
REMARK SMILES IDX 38 121 36 123 37 126 20 127 21 130 22 131 29 132 23 133
REMARK SMILES IDX 24 135 28 136 25 138 27 139 26 141 14 145 15 148
REMARK H PARENT 7 2 7 3 6 5 6 6 5 8 5 9 4 11 4 12 3 16 41 21 102 23 42 25
REMARK H PARENT 101 26 100 36 94 38 96 40 99 42 93 43 61 52 64 54 97 57 62 58
REMARK H PARENT 98 60 8 95 8 96 9 98 9 99 10 102 13 105 16 108 19 111 30 114
REMARK H PARENT 34 120 39 122 35 124 38 125 20 128 20 129 22 134 23 137 28 140
REMARK H PARENT 25 142 27 143 26 144 14 146 14 147 15 149
REMARK Flexibility Score: inf
ROOT
ATOM      1  C   UNL A   1      37.179  21.718  24.853  1.00  0.00    -0.052 C 
ATOM      2  H   UNL A   1      38.221  21.923  24.977  1.00  0.00     0.027 H 
ATOM      3  H   UNL A   1      36.574  21.956  25.702  1.00  0.00     0.027 H 
ENDROOT
BRANCH   1   4
ATOM      4  C   UNL A   1      37.023  20.207  24.656  1.00  0.00    -0.052 C 
ATOM      5  H   UNL A   1      36.211  19.879  25.271  1.00  0.00     0.027 H 
ATOM      6  H   UNL A   1      36.866  20.070  23.607  1.00  0.00     0.027 H 
BRANCH   4   7
ATOM      7  C   UNL A   1      38.241  19.353  25.001  1.00  0.00    -0.036 C 
ATOM      8  H   UNL A   1      37.891  18.448  25.452  1.00  0.00     0.028 H 
ATOM      9  H   UNL A   1      38.763  19.205  24.078  1.00  0.00     0.028 H 
BRANCH   7  10
ATOM     10  C   UNL A   1      39.250  19.985  25.948  1.00  0.00     0.018 C 
ATOM     11  H   UNL A   1      39.532  20.939  25.554  1.00  0.00     0.049 H 
ATOM     12  H   UNL A   1      38.775  20.061  26.903  1.00  0.00     0.049 H 
BRANCH  10  13
ATOM     13  N   UNL A   1      40.453  19.194  26.135  1.00  0.00    -0.352 N 
ATOM     14  O   UNL A   1      42.653  18.825  26.493  1.00  0.00    -0.269 OA
ATOM     15  C   UNL A   1      41.722  19.623  26.442  1.00  0.00     0.251 C 
ATOM     16  H   UNL A   1      40.345  18.222  26.027  1.00  0.00     0.163 HD
BRANCH  15  17
ATOM     17  C   UNL A   1      41.969  21.063  26.666  1.00  0.00     0.039 A 
ATOM     18  C   UNL A   1      41.920  21.971  25.606  1.00  0.00    -0.049 A 
ATOM     19  C   UNL A   1      42.288  21.503  27.954  1.00  0.00    -0.049 A 
ATOM     20  C   UNL A   1      42.341  23.281  25.803  1.00  0.00    -0.053 A 
ATOM     21  H   UNL A   1      41.573  21.671  24.682  1.00  0.00     0.063 H 
ATOM     22  C   UNL A   1      42.626  22.841  28.167  1.00  0.00    -0.053 A 
ATOM     23  H   UNL A   1      42.274  20.839  28.745  1.00  0.00     0.063 H 
ATOM     24  C   UNL A   1      42.695  23.732  27.087  1.00  0.00    -0.014 A 
ATOM     25  H   UNL A   1      42.395  23.927  25.000  1.00  0.00     0.063 H 
ATOM     26  H   UNL A   1      42.828  23.175  29.123  1.00  0.00     0.063 H 
BRANCH  24  27
ATOM     27  C   UNL A   1      43.089  25.152  27.272  1.00  0.00     0.031 A 
ATOM     28  C   UNL A   1      42.176  26.133  27.950  1.00  0.00     0.074 A 
ATOM     29  C   UNL A   1      44.312  25.539  26.861  1.00  0.00     0.049 A 
ATOM     30  N   UNL A   1      42.386  27.396  28.227  1.00  0.00    -0.248 NA
ATOM     31  C   UNL A   1      40.854  25.640  28.367  1.00  0.00    -0.034 C 
ATOM     32  C   UNL A   1      45.280  24.675  26.182  1.00  0.00    -0.036 A 
ATOM     33  N   UNL A   1      44.962  26.741  26.977  1.00  0.00    -0.354 N 
ATOM     34  C   UNL A   1      41.222  27.852  28.833  1.00  0.00     0.074 A 
ATOM     35  C   UNL A   1      40.298  26.738  28.862  1.00  0.00    -0.034 C 
ATOM     36  H   UNL A   1      40.463  24.688  28.294  1.00  0.00     0.065 H 
ATOM     37  C   UNL A   1      46.420  25.353  25.998  1.00  0.00    -0.036 A 
ATOM     38  H   UNL A   1      45.110  23.699  25.892  1.00  0.00     0.065 H 
ATOM     39  C   UNL A   1      46.245  26.715  26.492  1.00  0.00     0.049 A 
ATOM     40  H   UNL A   1      44.548  27.543  27.369  1.00  0.00     0.167 HD
ATOM     41  C   UNL A   1      40.956  29.086  29.327  1.00  0.00     0.037 A 
ATOM     42  H   UNL A   1      39.333  26.791  29.221  1.00  0.00     0.065 H 
ATOM     43  H   UNL A   1      47.282  24.974  25.577  1.00  0.00     0.065 H 
ATOM     44  C   UNL A   1      47.181  27.682  26.445  1.00  0.00     0.037 A 
ATOM     45  C   UNL A   1      41.886  30.186  29.310  1.00  0.00     0.049 A 
ATOM     46  C   UNL A   1      46.859  29.040  26.993  1.00  0.00     0.074 A 
ATOM     47  C   UNL A   1      41.713  31.469  29.799  1.00  0.00    -0.036 A 
ATOM     48  N   UNL A   1      43.166  30.132  28.778  1.00  0.00    -0.354 N 
ATOM     49  N   UNL A   1      45.757  29.455  27.569  1.00  0.00    -0.248 NA
ATOM     50  C   UNL A   1      47.905  30.065  26.883  1.00  0.00    -0.034 C 
ATOM     51  C   UNL A   1      42.874  32.202  29.530  1.00  0.00    -0.036 A 
ATOM     52  H   UNL A   1      40.872  31.825  30.280  1.00  0.00     0.065 H 
ATOM     53  C   UNL A   1      43.788  31.363  28.914  1.00  0.00     0.049 A 
ATOM     54  H   UNL A   1      43.573  29.337  28.363  1.00  0.00     0.167 HD
ATOM     55  C   UNL A   1      45.976  30.785  27.894  1.00  0.00     0.074 A 
ATOM     56  C   UNL A   1      47.325  31.102  27.473  1.00  0.00    -0.034 C 
ATOM     57  H   UNL A   1      48.843  29.995  26.459  1.00  0.00     0.065 H 
ATOM     58  H   UNL A   1      43.023  33.199  29.754  1.00  0.00     0.065 H 
ATOM     59  C   UNL A   1      45.131  31.664  28.485  1.00  0.00     0.037 A 
ATOM     60  H   UNL A   1      47.778  32.019  27.613  1.00  0.00     0.065 H 
BRANCH  41  61
ATOM     61  C   UNL A   1      39.600  29.321  29.926  1.00  0.00     0.064 A 
ATOM     62  C   UNL A   1      38.547  29.805  29.134  1.00  0.00     0.173 A 
ATOM     63  C   UNL A   1      39.358  29.131  31.294  1.00  0.00     0.173 A 
ATOM     64  F   UNL A   1      38.728  30.012  27.821  1.00  0.00    -0.203 F 
ATOM     65  C   UNL A   1      37.305  30.096  29.692  1.00  0.00     0.198 A 
ATOM     66  C   UNL A   1      38.107  29.399  31.844  1.00  0.00     0.198 A 
ATOM     67  F   UNL A   1      40.328  28.658  32.092  1.00  0.00    -0.203 F 
ATOM     68  F   UNL A   1      36.322  30.582  28.921  1.00  0.00    -0.200 F 
ATOM     69  C   UNL A   1      37.084  29.889  31.045  1.00  0.00     0.200 A 
ATOM     70  F   UNL A   1      37.888  29.176  33.147  1.00  0.00    -0.200 F 
ATOM     71  F   UNL A   1      35.884  30.158  31.580  1.00  0.00    -0.200 F 
ENDBRANCH  41  61
BRANCH  44  72
ATOM     72  C   UNL A   1      48.514  27.369  25.873  1.00  0.00     0.064 A 
ATOM     73  C   UNL A   1      48.744  27.424  24.491  1.00  0.00     0.173 A 
ATOM     74  C   UNL A   1      49.564  26.941  26.696  1.00  0.00     0.173 A 
ATOM     75  F   UNL A   1      47.765  27.818  23.663  1.00  0.00    -0.203 F 
ATOM     76  C   UNL A   1      49.966  27.033  23.950  1.00  0.00     0.198 A 
ATOM     77  C   UNL A   1      50.795  26.575  26.155  1.00  0.00     0.198 A 
ATOM     78  F   UNL A   1      49.394  26.888  28.026  1.00  0.00    -0.203 F 
ATOM     79  F   UNL A   1      50.145  27.048  22.622  1.00  0.00    -0.200 F 
ATOM     80  C   UNL A   1      50.991  26.610  24.783  1.00  0.00     0.200 A 
ATOM     81  F   UNL A   1      51.789  26.183  26.965  1.00  0.00    -0.200 F 
ATOM     82  F   UNL A   1      52.166  26.233  24.263  1.00  0.00    -0.200 F 
ENDBRANCH  44  72
BRANCH  59  83
ATOM     83  C   UNL A   1      45.640  33.054  28.721  1.00  0.00     0.064 A 
ATOM     84  C   UNL A   1      46.221  33.400  29.950  1.00  0.00     0.173 A 
ATOM     85  C   UNL A   1      45.502  34.057  27.751  1.00  0.00     0.173 A 
ATOM     86  F   UNL A   1      46.370  32.475  30.911  1.00  0.00    -0.203 F 
ATOM     87  C   UNL A   1      46.638  34.703  30.202  1.00  0.00     0.198 A 
ATOM     88  C   UNL A   1      45.942  35.355  27.998  1.00  0.00     0.198 A 
ATOM     89  F   UNL A   1      44.964  33.771  26.555  1.00  0.00    -0.203 F 
ATOM     90  F   UNL A   1      47.169  35.016  31.392  1.00  0.00    -0.200 F 
ATOM     91  C   UNL A   1      46.501  35.678  29.226  1.00  0.00     0.200 A 
ATOM     92  F   UNL A   1      45.831  36.291  27.046  1.00  0.00    -0.200 F 
ATOM     93  F   UNL A   1      46.915  36.930  29.466  1.00  0.00    -0.200 F 
ENDBRANCH  59  83
ENDBRANCH  24  27
ENDBRANCH  15  17
ENDBRANCH  10  13
ENDBRANCH   7  10
ENDBRANCH   4   7
ENDBRANCH   1   4
BRANCH   1  94
ATOM     94  C   UNL A   1      36.658  22.612  23.722  1.00  0.00    -0.036 C 
ATOM     95  H   UNL A   1      36.650  22.033  22.822  1.00  0.00     0.028 H 
ATOM     96  H   UNL A   1      37.318  23.454  23.687  1.00  0.00     0.028 H 
BRANCH  94  97
ATOM     97  C   UNL A   1      35.262  23.183  23.927  1.00  0.00     0.017 C 
ATOM     98  H   UNL A   1      35.155  24.057  23.319  1.00  0.00     0.049 H 
ATOM     99  H   UNL A   1      35.154  23.414  24.966  1.00  0.00     0.049 H 
BRANCH  97 100
ATOM    100  N   UNL A   1      34.225  22.240  23.573  1.00  0.00    -0.354 N 
ATOM    101  C   UNL A   1      33.245  21.673  24.326  1.00  0.00     0.244 C 
ATOM    102  H   UNL A   1      34.229  21.962  22.629  1.00  0.00     0.163 HD
ATOM    103  O   UNL A   1      32.521  20.850  23.759  1.00  0.00    -0.273 OA
BRANCH 101 104
ATOM    104  C   UNL A   1      33.085  21.959  25.828  1.00  0.00     0.131 C 
ATOM    105  H   UNL A   1      33.465  22.945  25.993  1.00  0.00     0.066 H 
BRANCH 104 106
ATOM    106  N   UNL A   1      31.667  21.912  26.188  1.00  0.00    -0.340 N 
ATOM    107  C   UNL A   1      30.642  22.793  26.026  1.00  0.00     0.243 C 
ATOM    108  H   UNL A   1      31.402  21.078  26.637  1.00  0.00     0.164 HD
ATOM    109  O   UNL A   1      29.567  22.407  26.502  1.00  0.00    -0.273 OA
BRANCH 107 110
ATOM    110  C   UNL A   1      30.818  24.250  25.516  1.00  0.00     0.112 C 
ATOM    111  H   UNL A   1      31.558  24.145  24.750  1.00  0.00     0.064 H 
BRANCH 110 112
ATOM    112  N   UNL A   1      29.705  24.865  24.792  1.00  0.00    -0.340 N 
ATOM    113  C   UNL A   1      29.576  25.995  24.028  1.00  0.00     0.251 C 
ATOM    114  H   UNL A   1      28.866  24.355  24.870  1.00  0.00     0.164 HD
ATOM    115  O   UNL A   1      28.428  26.379  23.794  1.00  0.00    -0.269 OA
BRANCH 113 116
ATOM    116  C   UNL A   1      30.710  26.758  23.420  1.00  0.00     0.040 A 
ATOM    117  C   UNL A   1      30.941  28.128  23.597  1.00  0.00    -0.047 A 
ATOM    118  C   UNL A   1      31.690  26.004  22.747  1.00  0.00    -0.047 A 
ATOM    119  C   UNL A   1      32.112  28.728  23.117  1.00  0.00    -0.026 A 
ATOM    120  H   UNL A   1      30.239  28.703  24.088  1.00  0.00     0.063 H 
ATOM    121  C   UNL A   1      32.862  26.601  22.270  1.00  0.00    -0.026 A 
ATOM    122  H   UNL A   1      31.542  24.993  22.604  1.00  0.00     0.063 H 
ATOM    123  C   UNL A   1      33.063  27.959  22.463  1.00  0.00     0.123 A 
ATOM    124  H   UNL A   1      32.266  29.739  23.250  1.00  0.00     0.065 H 
ATOM    125  H   UNL A   1      33.571  26.034  21.778  1.00  0.00     0.065 H 
ATOM    126  F   UNL A   1      34.193  28.532  22.033  1.00  0.00    -0.207 F 
ENDBRANCH 113 116
ENDBRANCH 110 112
BRANCH 110 127
ATOM    127  C   UNL A   1      31.325  25.169  26.649  1.00  0.00     0.004 C 
ATOM    128  H   UNL A   1      31.645  24.528  27.444  1.00  0.00     0.034 H 
ATOM    129  H   UNL A   1      30.490  25.811  26.834  1.00  0.00     0.034 H 
BRANCH 127 130
ATOM    130  C   UNL A   1      32.454  26.141  26.395  1.00  0.00    -0.020 A 
ATOM    131  C   UNL A   1      33.664  25.726  25.859  1.00  0.00     0.005 A 
ATOM    132  C   UNL A   1      32.592  27.555  26.643  1.00  0.00     0.003 A 
ATOM    133  N   UNL A   1      34.501  26.797  25.763  1.00  0.00    -0.361 N 
ATOM    134  H   UNL A   1      33.893  24.760  25.577  1.00  0.00     0.082 H 
ATOM    135  C   UNL A   1      33.877  27.926  26.231  1.00  0.00     0.046 A 
ATOM    136  C   UNL A   1      31.771  28.578  27.168  1.00  0.00    -0.053 A 
ATOM    137  H   UNL A   1      35.419  26.765  25.409  1.00  0.00     0.166 HD
ATOM    138  C   UNL A   1      34.368  29.236  26.314  1.00  0.00    -0.038 A 
ATOM    139  C   UNL A   1      32.241  29.896  27.251  1.00  0.00    -0.062 A 
ATOM    140  H   UNL A   1      30.818  28.353  27.495  1.00  0.00     0.063 H 
ATOM    141  C   UNL A   1      33.524  30.219  26.829  1.00  0.00    -0.060 A 
ATOM    142  H   UNL A   1      35.325  29.466  26.003  1.00  0.00     0.064 H 
ATOM    143  H   UNL A   1      31.627  30.634  27.628  1.00  0.00     0.062 H 
ATOM    144  H   UNL A   1      33.855  31.193  26.898  1.00  0.00     0.062 H 
ENDBRANCH 127 130
ENDBRANCH 110 127
ENDBRANCH 107 110
ENDBRANCH 104 106
BRANCH 104 145
ATOM    145  C   UNL A   1      33.947  21.081  26.748  1.00  0.00     0.072 C 
ATOM    146  H   UNL A   1      34.472  20.365  26.149  1.00  0.00     0.059 H 
ATOM    147  H   UNL A   1      33.294  20.604  27.449  1.00  0.00     0.059 H 
BRANCH 145 148
ATOM    148  O   UNL A   1      34.898  21.839  27.489  1.00  0.00    -0.394 OA
ATOM    149  H   UNL A   1      34.745  21.712  28.438  1.00  0.00     0.210 HD
ENDBRANCH 145 148
ENDBRANCH 104 145
ENDBRANCH 101 104
ENDBRANCH  97 100
ENDBRANCH  94  97
ENDBRANCH   1  94
TORSDOF 21
ENDMDL
MODEL 2
REMARK VINA RESULT:     -11.9      1.844      7.402
REMARK SMILES O=C(NCCCCCCNC(=O)[C@H](CO)NC(=O)[C@H](Cc1c[nH]c2ccccc12)NC(=O)c1ccc(F)cc1)c1ccc(-c2c3nc(c(-c4c(F)c(F)c(F)c(F)c4F)c4ccc([nH]4)c(-c4c(F)c(F)c(F)c(F)c4F)c4nc(c(-c5c(F)c(F)c(F)c(F)c5F)c5ccc2[nH]5)C=C4)C=C3)cc1
REMARK SMILES IDX 7 1 6 4 5 7 4 10 3 13 1 14 2 15 40 17 41 18 102 19 42 20
REMARK SMILES IDX 101 22 43 24 44 27 45 28 95 29 46 30 100 31 94 32 96 33
REMARK SMILES IDX 47 34 99 35 93 37 92 39 48 41 80 44 60 45 79 46 61 47 64 48
REMARK SMILES IDX 78 49 97 50 62 51 63 53 77 55 98 56 65 59 49 61 50 62 58 63
REMARK SMILES IDX 51 64 52 65 56 66 59 67 53 68 54 69 57 70 55 71 81 72 82 73
REMARK SMILES IDX 90 74 83 75 84 76 88 77 91 78 85 79 86 80 89 81 87 82 66 83
REMARK SMILES IDX 67 84 75 85 68 86 69 87 73 88 76 89 70 90 71 91 74 92 72 93
REMARK SMILES IDX 8 94 9 97 10 100 11 101 12 103 13 104 16 106 17 107 18 109
REMARK SMILES IDX 19 110 30 112 31 113 32 115 33 116 34 117 39 118 35 119
REMARK SMILES IDX 38 121 36 123 37 126 20 127 21 130 22 131 29 132 23 133
REMARK SMILES IDX 24 135 28 136 25 138 27 139 26 141 14 145 15 148
REMARK H PARENT 7 2 7 3 6 5 6 6 5 8 5 9 4 11 4 12 3 16 41 21 102 23 42 25
REMARK H PARENT 101 26 100 36 94 38 96 40 99 42 93 43 61 52 64 54 97 57 62 58
REMARK H PARENT 98 60 8 95 8 96 9 98 9 99 10 102 13 105 16 108 19 111 30 114
REMARK H PARENT 34 120 39 122 35 124 38 125 20 128 20 129 22 134 23 137 28 140
REMARK H PARENT 25 142 27 143 26 144 14 146 14 147 15 149
REMARK Flexibility Score: inf
ROOT
ATOM      1  C   UNL A   1      41.433  22.056  26.206  1.00  0.00    -0.052 C 
ATOM      2  H   UNL A   1      41.039  21.592  25.327  1.00  0.00     0.027 H 
ATOM      3  H   UNL A   1      42.167  22.812  26.019  1.00  0.00     0.027 H 
ENDROOT
BRANCH   1   4
ATOM      4  C   UNL A   1      42.162  20.977  27.014  1.00  0.00    -0.052 C 
ATOM      5  H   UNL A   1      43.171  21.303  27.159  1.00  0.00     0.027 H 
ATOM      6  H   UNL A   1      41.599  20.869  27.918  1.00  0.00     0.027 H 
BRANCH   4   7
ATOM      7  C   UNL A   1      42.207  19.584  26.392  1.00  0.00    -0.036 C 
ATOM      8  H   UNL A   1      41.646  18.924  27.022  1.00  0.00     0.028 H 
ATOM      9  H   UNL A   1      41.803  19.692  25.407  1.00  0.00     0.028 H 
BRANCH   7  10
ATOM     10  C   UNL A   1      43.593  18.983  26.205  1.00  0.00     0.018 C 
ATOM     11  H   UNL A   1      44.307  19.635  26.662  1.00  0.00     0.049 H 
ATOM     12  H   UNL A   1      43.576  18.014  26.657  1.00  0.00     0.049 H 
BRANCH  10  13
ATOM     13  N   UNL A   1      43.967  18.796  24.816  1.00  0.00    -0.352 N 
ATOM     14  O   UNL A   1      44.724  19.405  22.775  1.00  0.00    -0.269 OA
ATOM     15  C   UNL A   1      44.537  19.700  23.952  1.00  0.00     0.251 C 
ATOM     16  H   UNL A   1      43.788  17.903  24.442  1.00  0.00     0.163 HD
BRANCH  15  17
ATOM     17  C   UNL A   1      44.881  21.053  24.438  1.00  0.00     0.039 A 
ATOM     18  C   UNL A   1      45.614  21.226  25.614  1.00  0.00    -0.049 A 
ATOM     19  C   UNL A   1      44.432  22.165  23.719  1.00  0.00    -0.049 A 
ATOM     20  C   UNL A   1      45.762  22.500  26.151  1.00  0.00    -0.053 A 
ATOM     21  H   UNL A   1      46.045  20.413  26.081  1.00  0.00     0.063 H 
ATOM     22  C   UNL A   1      44.658  23.451  24.216  1.00  0.00    -0.053 A 
ATOM     23  H   UNL A   1      43.935  22.035  22.824  1.00  0.00     0.063 H 
ATOM     24  C   UNL A   1      45.289  23.627  25.456  1.00  0.00    -0.014 A 
ATOM     25  H   UNL A   1      46.221  22.619  27.067  1.00  0.00     0.063 H 
ATOM     26  H   UNL A   1      44.358  24.273  23.670  1.00  0.00     0.063 H 
BRANCH  24  27
ATOM     27  C   UNL A   1      45.510  24.978  26.033  1.00  0.00     0.031 A 
ATOM     28  C   UNL A   1      46.849  25.653  25.947  1.00  0.00     0.074 A 
ATOM     29  C   UNL A   1      44.467  25.614  26.598  1.00  0.00     0.049 A 
ATOM     30  N   UNL A   1      47.197  26.846  26.362  1.00  0.00    -0.248 NA
ATOM     31  C   UNL A   1      47.943  24.895  25.321  1.00  0.00    -0.034 C 
ATOM     32  C   UNL A   1      43.122  25.052  26.745  1.00  0.00    -0.036 A 
ATOM     33  N   UNL A   1      44.360  26.876  27.124  1.00  0.00    -0.354 N 
ATOM     34  C   UNL A   1      48.547  26.974  26.065  1.00  0.00     0.074 A 
ATOM     35  C   UNL A   1      48.965  25.730  25.456  1.00  0.00    -0.034 C 
ATOM     36  H   UNL A   1      47.920  23.958  24.889  1.00  0.00     0.065 H 
ATOM     37  C   UNL A   1      42.312  25.984  27.264  1.00  0.00    -0.036 A 
ATOM     38  H   UNL A   1      42.845  24.092  26.489  1.00  0.00     0.065 H 
ATOM     39  C   UNL A   1      43.090  27.188  27.540  1.00  0.00     0.049 A 
ATOM     40  H   UNL A   1      45.120  27.497  27.196  1.00  0.00     0.167 HD
ATOM     41  C   UNL A   1      49.359  28.040  26.273  1.00  0.00     0.037 A 
ATOM     42  H   UNL A   1      49.932  25.519  25.166  1.00  0.00     0.065 H 
ATOM     43  H   UNL A   1      41.301  25.870  27.439  1.00  0.00     0.065 H 
ATOM     44  C   UNL A   1      42.602  28.316  28.088  1.00  0.00     0.037 A 
ATOM     45  C   UNL A   1      48.933  29.282  26.865  1.00  0.00     0.049 A 
ATOM     46  C   UNL A   1      43.523  29.478  28.314  1.00  0.00     0.074 A 
ATOM     47  C   UNL A   1      49.679  30.424  27.104  1.00  0.00    -0.036 A 
ATOM     48  N   UNL A   1      47.645  29.548  27.307  1.00  0.00    -0.354 N 
ATOM     49  N   UNL A   1      44.796  29.587  28.023  1.00  0.00    -0.248 NA
ATOM     50  C   UNL A   1      42.944  30.669  28.947  1.00  0.00    -0.034 C 
ATOM     51  C   UNL A   1      48.852  31.366  27.725  1.00  0.00    -0.036 A 
ATOM     52  H   UNL A   1      50.674  30.557  26.866  1.00  0.00     0.065 H 
ATOM     53  C   UNL A   1      47.579  30.830  27.831  1.00  0.00     0.049 A 
ATOM     54  H   UNL A   1      46.890  28.919  27.258  1.00  0.00     0.167 HD
ATOM     55  C   UNL A   1      45.171  30.858  28.431  1.00  0.00     0.074 A 
ATOM     56  C   UNL A   1      43.985  31.491  28.970  1.00  0.00    -0.034 C 
ATOM     57  H   UNL A   1      41.982  30.825  29.285  1.00  0.00     0.065 H 
ATOM     58  H   UNL A   1      49.142  32.303  28.048  1.00  0.00     0.065 H 
ATOM     59  C   UNL A   1      46.391  31.444  28.368  1.00  0.00     0.037 A 
ATOM     60  H   UNL A   1      43.953  32.459  29.327  1.00  0.00     0.065 H 
BRANCH  41  61
ATOM     61  C   UNL A   1      50.798  27.912  25.867  1.00  0.00     0.064 A 
ATOM     62  C   UNL A   1      51.788  27.651  26.827  1.00  0.00     0.173 A 
ATOM     63  C   UNL A   1      51.207  28.111  24.541  1.00  0.00     0.173 A 
ATOM     64  F   UNL A   1      51.451  27.460  28.112  1.00  0.00    -0.203 F 
ATOM     65  C   UNL A   1      53.134  27.601  26.474  1.00  0.00     0.198 A 
ATOM     66  C   UNL A   1      52.552  28.035  24.187  1.00  0.00     0.198 A 
ATOM     67  F   UNL A   1      50.299  28.351  23.583  1.00  0.00    -0.203 F 
ATOM     68  F   UNL A   1      54.064  27.377  27.413  1.00  0.00    -0.200 F 
ATOM     69  C   UNL A   1      53.515  27.789  25.154  1.00  0.00     0.200 A 
ATOM     70  F   UNL A   1      52.916  28.194  22.907  1.00  0.00    -0.200 F 
ATOM     71  F   UNL A   1      54.810  27.730  24.813  1.00  0.00    -0.200 F 
ENDBRANCH  41  61
BRANCH  44  72
ATOM     72  C   UNL A   1      41.160  28.387  28.432  1.00  0.00     0.064 A 
ATOM     73  C   UNL A   1      40.222  28.909  27.529  1.00  0.00     0.173 A 
ATOM     74  C   UNL A   1      40.706  27.998  29.698  1.00  0.00     0.173 A 
ATOM     75  F   UNL A   1      40.613  29.304  26.309  1.00  0.00    -0.203 F 
ATOM     76  C   UNL A   1      38.887  29.068  27.893  1.00  0.00     0.198 A 
ATOM     77  C   UNL A   1      39.364  28.133  30.051  1.00  0.00     0.198 A 
ATOM     78  F   UNL A   1      41.565  27.479  30.588  1.00  0.00    -0.203 F 
ATOM     79  F   UNL A   1      38.020  29.614  27.029  1.00  0.00    -0.200 F 
ATOM     80  C   UNL A   1      38.459  28.678  29.152  1.00  0.00     0.200 A 
ATOM     81  F   UNL A   1      38.951  27.739  31.263  1.00  0.00    -0.200 F 
ATOM     82  F   UNL A   1      37.175  28.831  29.502  1.00  0.00    -0.200 F 
ENDBRANCH  44  72
BRANCH  59  83
ATOM     83  C   UNL A   1      46.508  32.845  28.887  1.00  0.00     0.064 A 
ATOM     84  C   UNL A   1      46.808  33.081  30.238  1.00  0.00     0.173 A 
ATOM     85  C   UNL A   1      46.270  33.953  28.061  1.00  0.00     0.173 A 
ATOM     86  F   UNL A   1      47.039  32.053  31.068  1.00  0.00    -0.203 F 
ATOM     87  C   UNL A   1      46.855  34.376  30.744  1.00  0.00     0.198 A 
ATOM     88  C   UNL A   1      46.342  35.249  28.566  1.00  0.00     0.198 A 
ATOM     89  F   UNL A   1      45.994  33.778  26.760  1.00  0.00    -0.203 F 
ATOM     90  F   UNL A   1      47.120  34.577  32.042  1.00  0.00    -0.200 F 
ATOM     91  C   UNL A   1      46.626  35.459  29.908  1.00  0.00     0.200 A 
ATOM     92  F   UNL A   1      46.144  36.295  27.752  1.00  0.00    -0.200 F 
ATOM     93  F   UNL A   1      46.685  36.706  30.394  1.00  0.00    -0.200 F 
ENDBRANCH  59  83
ENDBRANCH  24  27
ENDBRANCH  15  17
ENDBRANCH  10  13
ENDBRANCH   7  10
ENDBRANCH   4   7
ENDBRANCH   1   4
BRANCH   1  94
ATOM     94  C   UNL A   1      40.279  22.777  26.912  1.00  0.00    -0.036 C 
ATOM     95  H   UNL A   1      40.519  23.819  26.955  1.00  0.00     0.028 H 
ATOM     96  H   UNL A   1      40.189  22.315  27.873  1.00  0.00     0.028 H 
BRANCH  94  97
ATOM     97  C   UNL A   1      38.916  22.635  26.249  1.00  0.00     0.017 C 
ATOM     98  H   UNL A   1      38.814  23.397  25.505  1.00  0.00     0.049 H 
ATOM     99  H   UNL A   1      38.171  22.732  27.011  1.00  0.00     0.049 H 
BRANCH  97 100
ATOM    100  N   UNL A   1      38.741  21.345  25.621  1.00  0.00    -0.354 N 
ATOM    101  C   UNL A   1      37.653  20.786  25.028  1.00  0.00     0.244 C 
ATOM    102  H   UNL A   1      39.544  20.777  25.623  1.00  0.00     0.163 HD
ATOM    103  O   UNL A   1      37.782  19.630  24.616  1.00  0.00    -0.273 OA
BRANCH 101 104
ATOM    104  C   UNL A   1      36.296  21.504  24.945  1.00  0.00     0.131 C 
ATOM    105  H   UNL A   1      35.740  21.018  24.170  1.00  0.00     0.066 H 
BRANCH 104 106
ATOM    106  N   UNL A   1      35.587  21.363  26.219  1.00  0.00    -0.340 N 
ATOM    107  C   UNL A   1      34.318  21.661  26.610  1.00  0.00     0.243 C 
ATOM    108  H   UNL A   1      36.140  20.976  26.935  1.00  0.00     0.164 HD
ATOM    109  O   UNL A   1      34.093  21.428  27.804  1.00  0.00    -0.273 OA
BRANCH 107 110
ATOM    110  C   UNL A   1      33.299  22.444  25.736  1.00  0.00     0.112 C 
ATOM    111  H   UNL A   1      33.870  23.285  25.403  1.00  0.00     0.064 H 
BRANCH 110 112
ATOM    112  N   UNL A   1      32.868  21.841  24.476  1.00  0.00    -0.340 N 
ATOM    113  C   UNL A   1      32.298  22.334  23.331  1.00  0.00     0.251 C 
ATOM    114  H   UNL A   1      33.022  20.868  24.441  1.00  0.00     0.164 HD
ATOM    115  O   UNL A   1      31.798  21.511  22.561  1.00  0.00    -0.269 OA
BRANCH 113 116
ATOM    116  C   UNL A   1      32.286  23.773  22.926  1.00  0.00     0.040 A 
ATOM    117  C   UNL A   1      31.143  24.579  22.859  1.00  0.00    -0.047 A 
ATOM    118  C   UNL A   1      33.539  24.390  22.747  1.00  0.00    -0.047 A 
ATOM    119  C   UNL A   1      31.244  25.954  22.619  1.00  0.00    -0.026 A 
ATOM    120  H   UNL A   1      30.212  24.152  22.988  1.00  0.00     0.063 H 
ATOM    121  C   UNL A   1      33.643  25.764  22.511  1.00  0.00    -0.026 A 
ATOM    122  H   UNL A   1      34.397  23.817  22.791  1.00  0.00     0.063 H 
ATOM    123  C   UNL A   1      32.492  26.535  22.453  1.00  0.00     0.123 A 
ATOM    124  H   UNL A   1      30.392  26.534  22.567  1.00  0.00     0.065 H 
ATOM    125  H   UNL A   1      34.570  26.201  22.381  1.00  0.00     0.065 H 
ATOM    126  F   UNL A   1      32.586  27.855  22.253  1.00  0.00    -0.207 F 
ENDBRANCH 113 116
ENDBRANCH 110 112
BRANCH 110 127
ATOM    127  C   UNL A   1      32.090  22.899  26.582  1.00  0.00     0.004 C 
ATOM    128  H   UNL A   1      32.374  22.790  27.608  1.00  0.00     0.034 H 
ATOM    129  H   UNL A   1      31.294  22.284  26.220  1.00  0.00     0.034 H 
BRANCH 127 130
ATOM    130  C   UNL A   1      31.537  24.297  26.432  1.00  0.00    -0.020 A 
ATOM    131  C   UNL A   1      30.173  24.545  26.445  1.00  0.00     0.005 A 
ATOM    132  C   UNL A   1      32.172  25.575  26.218  1.00  0.00     0.003 A 
ATOM    133  N   UNL A   1      29.958  25.879  26.265  1.00  0.00    -0.361 N 
ATOM    134  H   UNL A   1      29.437  23.832  26.571  1.00  0.00     0.082 H 
ATOM    135  C   UNL A   1      31.156  26.533  26.125  1.00  0.00     0.046 A 
ATOM    136  C   UNL A   1      33.500  26.040  26.095  1.00  0.00    -0.053 A 
ATOM    137  H   UNL A   1      29.073  26.309  26.240  1.00  0.00     0.166 HD
ATOM    138  C   UNL A   1      31.397  27.900  25.924  1.00  0.00    -0.038 A 
ATOM    139  C   UNL A   1      33.762  27.404  25.903  1.00  0.00    -0.062 A 
ATOM    140  H   UNL A   1      34.284  25.371  26.147  1.00  0.00     0.063 H 
ATOM    141  C   UNL A   1      32.722  28.320  25.818  1.00  0.00    -0.060 A 
ATOM    142  H   UNL A   1      30.617  28.573  25.857  1.00  0.00     0.064 H 
ATOM    143  H   UNL A   1      34.737  27.731  25.824  1.00  0.00     0.062 H 
ATOM    144  H   UNL A   1      32.931  29.320  25.674  1.00  0.00     0.062 H 
ENDBRANCH 127 130
ENDBRANCH 110 127
ENDBRANCH 107 110
ENDBRANCH 104 106
BRANCH 104 145
ATOM    145  C   UNL A   1      36.365  22.966  24.477  1.00  0.00     0.072 C 
ATOM    146  H   UNL A   1      36.835  23.549  25.242  1.00  0.00     0.059 H 
ATOM    147  H   UNL A   1      35.365  23.296  24.289  1.00  0.00     0.059 H 
BRANCH 145 148
ATOM    148  O   UNL A   1      37.105  23.116  23.270  1.00  0.00    -0.394 OA
ATOM    149  H   UNL A   1      37.985  23.469  23.472  1.00  0.00     0.210 HD
ENDBRANCH 145 148
ENDBRANCH 104 145
ENDBRANCH 101 104
ENDBRANCH  97 100
ENDBRANCH  94  97
ENDBRANCH   1  94
TORSDOF 21
ENDMDL
MODEL 3
REMARK VINA RESULT:     -11.8      5.277     10.910
REMARK SMILES O=C(NCCCCCCNC(=O)[C@H](CO)NC(=O)[C@H](Cc1c[nH]c2ccccc12)NC(=O)c1ccc(F)cc1)c1ccc(-c2c3nc(c(-c4c(F)c(F)c(F)c(F)c4F)c4ccc([nH]4)c(-c4c(F)c(F)c(F)c(F)c4F)c4nc(c(-c5c(F)c(F)c(F)c(F)c5F)c5ccc2[nH]5)C=C4)C=C3)cc1
REMARK SMILES IDX 7 1 6 4 5 7 4 10 3 13 1 14 2 15 40 17 41 18 102 19 42 20
REMARK SMILES IDX 101 22 43 24 44 27 45 28 95 29 46 30 100 31 94 32 96 33
REMARK SMILES IDX 47 34 99 35 93 37 92 39 48 41 80 44 60 45 79 46 61 47 64 48
REMARK SMILES IDX 78 49 97 50 62 51 63 53 77 55 98 56 65 59 49 61 50 62 58 63
REMARK SMILES IDX 51 64 52 65 56 66 59 67 53 68 54 69 57 70 55 71 81 72 82 73
REMARK SMILES IDX 90 74 83 75 84 76 88 77 91 78 85 79 86 80 89 81 87 82 66 83
REMARK SMILES IDX 67 84 75 85 68 86 69 87 73 88 76 89 70 90 71 91 74 92 72 93
REMARK SMILES IDX 8 94 9 97 10 100 11 101 12 103 13 104 16 106 17 107 18 109
REMARK SMILES IDX 19 110 30 112 31 113 32 115 33 116 34 117 39 118 35 119
REMARK SMILES IDX 38 121 36 123 37 126 20 127 21 130 22 131 29 132 23 133
REMARK SMILES IDX 24 135 28 136 25 138 27 139 26 141 14 145 15 148
REMARK H PARENT 7 2 7 3 6 5 6 6 5 8 5 9 4 11 4 12 3 16 41 21 102 23 42 25
REMARK H PARENT 101 26 100 36 94 38 96 40 99 42 93 43 61 52 64 54 97 57 62 58
REMARK H PARENT 98 60 8 95 8 96 9 98 9 99 10 102 13 105 16 108 19 111 30 114
REMARK H PARENT 34 120 39 122 35 124 38 125 20 128 20 129 22 134 23 137 28 140
REMARK H PARENT 25 142 27 143 26 144 14 146 14 147 15 149
REMARK Flexibility Score: inf
ROOT
ATOM      1  C   UNL A   1      34.159  31.081  27.680  1.00  0.00    -0.052 C 
ATOM      2  H   UNL A   1      34.387  30.379  28.454  1.00  0.00     0.027 H 
ATOM      3  H   UNL A   1      34.734  30.959  26.786  1.00  0.00     0.027 H 
ENDROOT
BRANCH   1   4
ATOM      4  C   UNL A   1      34.514  32.478  28.201  1.00  0.00    -0.052 C 
ATOM      5  H   UNL A   1      34.779  32.384  29.233  1.00  0.00     0.027 H 
ATOM      6  H   UNL A   1      35.307  32.824  27.571  1.00  0.00     0.027 H 
BRANCH   4   7
ATOM      7  C   UNL A   1      33.418  33.536  28.096  1.00  0.00    -0.036 C 
ATOM      8  H   UNL A   1      33.132  33.611  27.067  1.00  0.00     0.028 H 
ATOM      9  H   UNL A   1      32.633  33.206  28.743  1.00  0.00     0.028 H 
BRANCH   7  10
ATOM     10  C   UNL A   1      33.792  34.930  28.578  1.00  0.00     0.018 C 
ATOM     11  H   UNL A   1      34.781  34.894  28.983  1.00  0.00     0.049 H 
ATOM     12  H   UNL A   1      33.719  35.581  27.733  1.00  0.00     0.049 H 
BRANCH  10  13
ATOM     13  N   UNL A   1      32.900  35.455  29.595  1.00  0.00    -0.352 N 
ATOM     14  O   UNL A   1      32.108  35.780  31.687  1.00  0.00    -0.269 OA
ATOM     15  C   UNL A   1      32.993  35.336  30.961  1.00  0.00     0.251 C 
ATOM     16  H   UNL A   1      32.126  35.964  29.262  1.00  0.00     0.163 HD
BRANCH  15  17
ATOM     17  C   UNL A   1      34.147  34.627  31.553  1.00  0.00     0.039 A 
ATOM     18  C   UNL A   1      35.395  35.246  31.650  1.00  0.00    -0.049 A 
ATOM     19  C   UNL A   1      33.981  33.308  31.986  1.00  0.00    -0.049 A 
ATOM     20  C   UNL A   1      36.505  34.500  32.031  1.00  0.00    -0.053 A 
ATOM     21  H   UNL A   1      35.493  36.252  31.441  1.00  0.00     0.063 H 
ATOM     22  C   UNL A   1      35.083  32.586  32.452  1.00  0.00    -0.053 A 
ATOM     23  H   UNL A   1      33.047  32.869  31.961  1.00  0.00     0.063 H 
ATOM     24  C   UNL A   1      36.361  33.164  32.440  1.00  0.00    -0.014 A 
ATOM     25  H   UNL A   1      37.442  34.932  32.012  1.00  0.00     0.063 H 
ATOM     26  H   UNL A   1      34.956  31.625  32.804  1.00  0.00     0.063 H 
BRANCH  24  27
ATOM     27  C   UNL A   1      37.559  32.411  32.891  1.00  0.00     0.031 A 
ATOM     28  C   UNL A   1      38.216  31.389  32.008  1.00  0.00     0.074 A 
ATOM     29  C   UNL A   1      38.082  32.697  34.098  1.00  0.00     0.049 A 
ATOM     30  N   UNL A   1      39.291  30.675  32.234  1.00  0.00    -0.248 NA
ATOM     31  C   UNL A   1      37.585  31.125  30.705  1.00  0.00    -0.034 C 
ATOM     32  C   UNL A   1      37.524  33.665  35.045  1.00  0.00    -0.036 A 
ATOM     33  N   UNL A   1      39.209  32.230  34.725  1.00  0.00    -0.354 N 
ATOM     34  C   UNL A   1      39.456  29.869  31.115  1.00  0.00     0.074 A 
ATOM     35  C   UNL A   1      38.357  30.162  30.219  1.00  0.00    -0.034 C 
ATOM     36  H   UNL A   1      36.759  31.574  30.281  1.00  0.00     0.065 H 
ATOM     37  C   UNL A   1      38.341  33.767  36.102  1.00  0.00    -0.036 A 
ATOM     38  H   UNL A   1      36.642  34.185  34.918  1.00  0.00     0.065 H 
ATOM     39  C   UNL A   1      39.448  32.831  35.935  1.00  0.00     0.049 A 
ATOM     40  H   UNL A   1      39.789  31.533  34.343  1.00  0.00     0.167 HD
ATOM     41  C   UNL A   1      40.442  28.975  30.858  1.00  0.00     0.037 A 
ATOM     42  H   UNL A   1      38.196  29.684  29.320  1.00  0.00     0.065 H 
ATOM     43  H   UNL A   1      38.210  34.404  36.903  1.00  0.00     0.065 H 
ATOM     44  C   UNL A   1      40.447  32.647  36.819  1.00  0.00     0.037 A 
ATOM     45  C   UNL A   1      41.541  28.701  31.746  1.00  0.00     0.049 A 
ATOM     46  C   UNL A   1      41.521  31.647  36.513  1.00  0.00     0.074 A 
ATOM     47  C   UNL A   1      42.597  27.822  31.567  1.00  0.00    -0.036 A 
ATOM     48  N   UNL A   1      41.731  29.303  32.981  1.00  0.00    -0.354 N 
ATOM     49  N   UNL A   1      41.668  30.896  35.449  1.00  0.00    -0.248 NA
ATOM     50  C   UNL A   1      42.565  31.464  37.530  1.00  0.00    -0.034 C 
ATOM     51  C   UNL A   1      43.403  27.866  32.708  1.00  0.00    -0.036 A 
ATOM     52  H   UNL A   1      42.760  27.235  30.734  1.00  0.00     0.065 H 
ATOM     53  C   UNL A   1      42.878  28.805  33.581  1.00  0.00     0.049 A 
ATOM     54  H   UNL A   1      41.138  29.984  33.375  1.00  0.00     0.167 HD
ATOM     55  C   UNL A   1      42.821  30.156  35.662  1.00  0.00     0.074 A 
ATOM     56  C   UNL A   1      43.348  30.564  36.949  1.00  0.00    -0.034 C 
ATOM     57  H   UNL A   1      42.664  31.916  38.452  1.00  0.00     0.065 H 
ATOM     58  H   UNL A   1      44.248  27.295  32.873  1.00  0.00     0.065 H 
ATOM     59  C   UNL A   1      43.386  29.219  34.864  1.00  0.00     0.037 A 
ATOM     60  H   UNL A   1      44.221  30.200  37.361  1.00  0.00     0.065 H 
BRANCH  41  61
ATOM     61  C   UNL A   1      40.377  28.217  29.564  1.00  0.00     0.064 A 
ATOM     62  C   UNL A   1      39.627  27.034  29.469  1.00  0.00     0.173 A 
ATOM     63  C   UNL A   1      41.107  28.623  28.438  1.00  0.00     0.173 A 
ATOM     64  F   UNL A   1      38.917  26.598  30.520  1.00  0.00    -0.203 F 
ATOM     65  C   UNL A   1      39.617  26.284  28.296  1.00  0.00     0.198 A 
ATOM     66  C   UNL A   1      41.074  27.883  27.258  1.00  0.00     0.198 A 
ATOM     67  F   UNL A   1      41.830  29.753  28.473  1.00  0.00    -0.203 F 
ATOM     68  F   UNL A   1      38.915  25.144  28.237  1.00  0.00    -0.200 F 
ATOM     69  C   UNL A   1      40.337  26.710  27.191  1.00  0.00     0.200 A 
ATOM     70  F   UNL A   1      41.752  28.309  26.183  1.00  0.00    -0.200 F 
ATOM     71  F   UNL A   1      40.318  25.993  26.058  1.00  0.00    -0.200 F 
ENDBRANCH  41  61
BRANCH  44  72
ATOM     72  C   UNL A   1      40.469  33.459  38.062  1.00  0.00     0.064 A 
ATOM     73  C   UNL A   1      39.595  33.186  39.124  1.00  0.00     0.173 A 
ATOM     74  C   UNL A   1      41.319  34.566  38.179  1.00  0.00     0.173 A 
ATOM     75  F   UNL A   1      38.756  32.142  39.052  1.00  0.00    -0.203 F 
ATOM     76  C   UNL A   1      39.549  34.010  40.246  1.00  0.00     0.198 A 
ATOM     77  C   UNL A   1      41.289  35.374  39.314  1.00  0.00     0.198 A 
ATOM     78  F   UNL A   1      42.182  34.855  37.194  1.00  0.00    -0.203 F 
ATOM     79  F   UNL A   1      38.671  33.756  41.226  1.00  0.00    -0.200 F 
ATOM     80  C   UNL A   1      40.397  35.102  40.340  1.00  0.00     0.200 A 
ATOM     81  F   UNL A   1      42.123  36.419  39.409  1.00  0.00    -0.200 F 
ATOM     82  F   UNL A   1      40.352  35.895  41.419  1.00  0.00    -0.200 F 
ENDBRANCH  44  72
BRANCH  59  83
ATOM     83  C   UNL A   1      44.648  28.572  35.351  1.00  0.00     0.064 A 
ATOM     84  C   UNL A   1      45.899  29.119  35.028  1.00  0.00     0.173 A 
ATOM     85  C   UNL A   1      44.620  27.381  36.091  1.00  0.00     0.173 A 
ATOM     86  F   UNL A   1      45.977  30.254  34.317  1.00  0.00    -0.203 F 
ATOM     87  C   UNL A   1      47.077  28.490  35.420  1.00  0.00     0.198 A 
ATOM     88  C   UNL A   1      45.801  26.769  36.503  1.00  0.00     0.198 A 
ATOM     89  F   UNL A   1      43.447  26.828  36.437  1.00  0.00    -0.203 F 
ATOM     90  F   UNL A   1      48.261  29.018  35.079  1.00  0.00    -0.200 F 
ATOM     91  C   UNL A   1      47.027  27.319  36.160  1.00  0.00     0.200 A 
ATOM     92  F   UNL A   1      45.751  25.649  37.238  1.00  0.00    -0.200 F 
ATOM     93  F   UNL A   1      48.162  26.722  36.549  1.00  0.00    -0.200 F 
ENDBRANCH  59  83
ENDBRANCH  24  27
ENDBRANCH  15  17
ENDBRANCH  10  13
ENDBRANCH   7  10
ENDBRANCH   4   7
ENDBRANCH   1   4
BRANCH   1  94
ATOM     94  C   UNL A   1      32.703  30.858  27.260  1.00  0.00    -0.036 C 
ATOM     95  H   UNL A   1      32.198  31.801  27.304  1.00  0.00     0.028 H 
ATOM     96  H   UNL A   1      32.311  30.128  27.938  1.00  0.00     0.028 H 
BRANCH  94  97
ATOM     97  C   UNL A   1      32.503  30.283  25.864  1.00  0.00     0.017 C 
ATOM     98  H   UNL A   1      32.494  29.215  25.931  1.00  0.00     0.049 H 
ATOM     99  H   UNL A   1      33.309  30.629  25.251  1.00  0.00     0.049 H 
BRANCH  97 100
ATOM    100  N   UNL A   1      31.267  30.722  25.260  1.00  0.00    -0.354 N 
ATOM    101  C   UNL A   1      30.515  30.169  24.271  1.00  0.00     0.244 C 
ATOM    102  H   UNL A   1      30.908  31.563  25.626  1.00  0.00     0.163 HD
ATOM    103  O   UNL A   1      29.517  30.802  23.917  1.00  0.00    -0.273 OA
BRANCH 101 104
ATOM    104  C   UNL A   1      30.918  28.870  23.555  1.00  0.00     0.131 C 
ATOM    105  H   UNL A   1      31.773  28.488  24.071  1.00  0.00     0.066 H 
BRANCH 104 106
ATOM    106  N   UNL A   1      29.821  27.903  23.640  1.00  0.00    -0.340 N 
ATOM    107  C   UNL A   1      29.725  26.659  24.182  1.00  0.00     0.243 C 
ATOM    108  H   UNL A   1      28.988  28.216  23.221  1.00  0.00     0.164 HD
ATOM    109  O   UNL A   1      28.621  26.125  24.022  1.00  0.00    -0.273 OA
BRANCH 107 110
ATOM    110  C   UNL A   1      30.933  25.857  24.741  1.00  0.00     0.112 C 
ATOM    111  H   UNL A   1      31.326  25.381  23.867  1.00  0.00     0.064 H 
BRANCH 110 112
ATOM    112  N   UNL A   1      32.088  26.607  25.234  1.00  0.00    -0.340 N 
ATOM    113  C   UNL A   1      33.399  26.288  25.469  1.00  0.00     0.251 C 
ATOM    114  H   UNL A   1      31.877  27.546  25.442  1.00  0.00     0.164 HD
ATOM    115  O   UNL A   1      34.049  27.080  26.155  1.00  0.00    -0.269 OA
BRANCH 113 116
ATOM    116  C   UNL A   1      34.107  25.092  24.917  1.00  0.00     0.040 A 
ATOM    117  C   UNL A   1      34.202  24.772  23.557  1.00  0.00    -0.047 A 
ATOM    118  C   UNL A   1      34.855  24.323  25.829  1.00  0.00    -0.047 A 
ATOM    119  C   UNL A   1      35.014  23.719  23.119  1.00  0.00    -0.026 A 
ATOM    120  H   UNL A   1      33.665  25.321  22.867  1.00  0.00     0.063 H 
ATOM    121  C   UNL A   1      35.669  23.273  25.395  1.00  0.00    -0.026 A 
ATOM    122  H   UNL A   1      34.801  24.538  26.837  1.00  0.00     0.063 H 
ATOM    123  C   UNL A   1      35.743  22.982  24.041  1.00  0.00     0.123 A 
ATOM    124  H   UNL A   1      35.069  23.491  22.115  1.00  0.00     0.065 H 
ATOM    125  H   UNL A   1      36.210  22.717  26.077  1.00  0.00     0.065 H 
ATOM    126  F   UNL A   1      36.541  21.995  23.615  1.00  0.00    -0.207 F 
ENDBRANCH 113 116
ENDBRANCH 110 112
BRANCH 110 127
ATOM    127  C   UNL A   1      30.463  24.808  25.774  1.00  0.00     0.004 C 
ATOM    128  H   UNL A   1      29.458  24.550  25.513  1.00  0.00     0.034 H 
ATOM    129  H   UNL A   1      30.622  25.301  26.710  1.00  0.00     0.034 H 
BRANCH 127 130
ATOM    130  C   UNL A   1      31.216  23.509  25.938  1.00  0.00    -0.020 A 
ATOM    131  C   UNL A   1      31.636  23.065  27.183  1.00  0.00     0.005 A 
ATOM    132  C   UNL A   1      31.682  22.529  24.987  1.00  0.00     0.003 A 
ATOM    133  N   UNL A   1      32.308  21.888  27.034  1.00  0.00    -0.361 N 
ATOM    134  H   UNL A   1      31.468  23.549  28.079  1.00  0.00     0.082 H 
ATOM    135  C   UNL A   1      32.352  21.535  25.710  1.00  0.00     0.046 A 
ATOM    136  C   UNL A   1      31.612  22.362  23.586  1.00  0.00    -0.053 A 
ATOM    137  H   UNL A   1      32.704  21.368  27.771  1.00  0.00     0.166 HD
ATOM    138  C   UNL A   1      32.937  20.408  25.115  1.00  0.00    -0.038 A 
ATOM    139  C   UNL A   1      32.184  21.238  22.974  1.00  0.00    -0.062 A 
ATOM    140  H   UNL A   1      31.138  23.074  23.008  1.00  0.00     0.063 H 
ATOM    141  C   UNL A   1      32.838  20.275  23.731  1.00  0.00    -0.060 A 
ATOM    142  H   UNL A   1      33.426  19.699  25.685  1.00  0.00     0.064 H 
ATOM    143  H   UNL A   1      32.117  21.124  21.951  1.00  0.00     0.062 H 
ATOM    144  H   UNL A   1      33.255  19.454  23.265  1.00  0.00     0.062 H 
ENDBRANCH 127 130
ENDBRANCH 110 127
ENDBRANCH 107 110
ENDBRANCH 104 106
BRANCH 104 145
ATOM    145  C   UNL A   1      31.419  29.055  22.113  1.00  0.00     0.072 C 
ATOM    146  H   UNL A   1      31.158  28.186  21.545  1.00  0.00     0.059 H 
ATOM    147  H   UNL A   1      32.479  29.197  22.153  1.00  0.00     0.059 H 
BRANCH 145 148
ATOM    148  O   UNL A   1      30.852  30.199  21.484  1.00  0.00    -0.394 OA
ATOM    149  H   UNL A   1      31.545  30.687  21.014  1.00  0.00     0.210 HD
ENDBRANCH 145 148
ENDBRANCH 104 145
ENDBRANCH 101 104
ENDBRANCH  97 100
ENDBRANCH  94  97
ENDBRANCH   1  94
TORSDOF 21
ENDMDL
MODEL 4
REMARK VINA RESULT:     -11.6      1.269      2.659
REMARK SMILES O=C(NCCCCCCNC(=O)[C@H](CO)NC(=O)[C@H](Cc1c[nH]c2ccccc12)NC(=O)c1ccc(F)cc1)c1ccc(-c2c3nc(c(-c4c(F)c(F)c(F)c(F)c4F)c4ccc([nH]4)c(-c4c(F)c(F)c(F)c(F)c4F)c4nc(c(-c5c(F)c(F)c(F)c(F)c5F)c5ccc2[nH]5)C=C4)C=C3)cc1
REMARK SMILES IDX 7 1 6 4 5 7 4 10 3 13 1 14 2 15 40 17 41 18 102 19 42 20
REMARK SMILES IDX 101 22 43 24 44 27 45 28 95 29 46 30 100 31 94 32 96 33
REMARK SMILES IDX 47 34 99 35 93 37 92 39 48 41 80 44 60 45 79 46 61 47 64 48
REMARK SMILES IDX 78 49 97 50 62 51 63 53 77 55 98 56 65 59 49 61 50 62 58 63
REMARK SMILES IDX 51 64 52 65 56 66 59 67 53 68 54 69 57 70 55 71 81 72 82 73
REMARK SMILES IDX 90 74 83 75 84 76 88 77 91 78 85 79 86 80 89 81 87 82 66 83
REMARK SMILES IDX 67 84 75 85 68 86 69 87 73 88 76 89 70 90 71 91 74 92 72 93
REMARK SMILES IDX 8 94 9 97 10 100 11 101 12 103 13 104 16 106 17 107 18 109
REMARK SMILES IDX 19 110 30 112 31 113 32 115 33 116 34 117 39 118 35 119
REMARK SMILES IDX 38 121 36 123 37 126 20 127 21 130 22 131 29 132 23 133
REMARK SMILES IDX 24 135 28 136 25 138 27 139 26 141 14 145 15 148
REMARK H PARENT 7 2 7 3 6 5 6 6 5 8 5 9 4 11 4 12 3 16 41 21 102 23 42 25
REMARK H PARENT 101 26 100 36 94 38 96 40 99 42 93 43 61 52 64 54 97 57 62 58
REMARK H PARENT 98 60 8 95 8 96 9 98 9 99 10 102 13 105 16 108 19 111 30 114
REMARK H PARENT 34 120 39 122 35 124 38 125 20 128 20 129 22 134 23 137 28 140
REMARK H PARENT 25 142 27 143 26 144 14 146 14 147 15 149
REMARK Flexibility Score: inf
ROOT
ATOM      1  C   UNL A   1      37.116  21.559  24.761  1.00  0.00    -0.052 C 
ATOM      2  H   UNL A   1      38.145  21.761  24.548  1.00  0.00     0.027 H 
ATOM      3  H   UNL A   1      36.796  21.864  25.735  1.00  0.00     0.027 H 
ENDROOT
BRANCH   1   4
ATOM      4  C   UNL A   1      36.925  20.040  24.730  1.00  0.00    -0.052 C 
ATOM      5  H   UNL A   1      36.136  19.796  25.410  1.00  0.00     0.027 H 
ATOM      6  H   UNL A   1      36.717  19.799  23.708  1.00  0.00     0.027 H 
BRANCH   4   7
ATOM      7  C   UNL A   1      38.142  19.198  25.108  1.00  0.00    -0.036 C 
ATOM      8  H   UNL A   1      37.819  18.444  25.794  1.00  0.00     0.028 H 
ATOM      9  H   UNL A   1      38.526  18.813  24.186  1.00  0.00     0.028 H 
BRANCH   7  10
ATOM     10  C   UNL A   1      39.296  19.952  25.753  1.00  0.00     0.018 C 
ATOM     11  H   UNL A   1      39.587  20.747  25.100  1.00  0.00     0.049 H 
ATOM     12  H   UNL A   1      38.947  20.306  26.699  1.00  0.00     0.049 H 
BRANCH  10  13
ATOM     13  N   UNL A   1      40.461  19.125  26.014  1.00  0.00    -0.352 N 
ATOM     14  O   UNL A   1      42.619  18.691  26.524  1.00  0.00    -0.269 OA
ATOM     15  C   UNL A   1      41.715  19.515  26.419  1.00  0.00     0.251 C 
ATOM     16  H   UNL A   1      40.335  18.158  25.882  1.00  0.00     0.163 HD
BRANCH  15  17
ATOM     17  C   UNL A   1      41.983  20.945  26.683  1.00  0.00     0.039 A 
ATOM     18  C   UNL A   1      41.930  21.885  25.651  1.00  0.00    -0.049 A 
ATOM     19  C   UNL A   1      42.326  21.341  27.979  1.00  0.00    -0.049 A 
ATOM     20  C   UNL A   1      42.370  23.184  25.882  1.00  0.00    -0.053 A 
ATOM     21  H   UNL A   1      41.565  21.618  24.723  1.00  0.00     0.063 H 
ATOM     22  C   UNL A   1      42.684  22.668  28.227  1.00  0.00    -0.053 A 
ATOM     23  H   UNL A   1      42.315  20.653  28.749  1.00  0.00     0.063 H 
ATOM     24  C   UNL A   1      42.747  23.591  27.173  1.00  0.00    -0.014 A 
ATOM     25  H   UNL A   1      42.420  23.853  25.099  1.00  0.00     0.063 H 
ATOM     26  H   UNL A   1      42.903  22.970  29.190  1.00  0.00     0.063 H 
BRANCH  24  27
ATOM     27  C   UNL A   1      43.162  24.999  27.396  1.00  0.00     0.031 A 
ATOM     28  C   UNL A   1      42.235  25.994  28.033  1.00  0.00     0.074 A 
ATOM     29  C   UNL A   1      44.414  25.363  27.057  1.00  0.00     0.049 A 
ATOM     30  N   UNL A   1      42.456  27.249  28.335  1.00  0.00    -0.248 NA
ATOM     31  C   UNL A   1      40.881  25.527  28.370  1.00  0.00    -0.034 C 
ATOM     32  C   UNL A   1      45.399  24.484  26.424  1.00  0.00    -0.036 A 
ATOM     33  N   UNL A   1      45.083  26.549  27.223  1.00  0.00    -0.354 N 
ATOM     34  C   UNL A   1      41.270  27.725  28.880  1.00  0.00     0.074 A 
ATOM     35  C   UNL A   1      40.322  26.632  28.846  1.00  0.00    -0.034 C 
ATOM     36  H   UNL A   1      40.474  24.585  28.266  1.00  0.00     0.065 H 
ATOM     37  C   UNL A   1      46.563  25.138  26.311  1.00  0.00    -0.036 A 
ATOM     38  H   UNL A   1      45.224  23.515  26.114  1.00  0.00     0.065 H 
ATOM     39  C   UNL A   1      46.390  26.499  26.810  1.00  0.00     0.049 A 
ATOM     40  H   UNL A   1      44.665  27.356  27.600  1.00  0.00     0.167 HD
ATOM     41  C   UNL A   1      41.005  28.960  29.373  1.00  0.00     0.037 A 
ATOM     42  H   UNL A   1      39.340  26.704  29.151  1.00  0.00     0.065 H 
ATOM     43  H   UNL A   1      47.438  24.744  25.935  1.00  0.00     0.065 H 
ATOM     44  C   UNL A   1      47.348  27.444  26.826  1.00  0.00     0.037 A 
ATOM     45  C   UNL A   1      41.958  30.039  29.419  1.00  0.00     0.049 A 
ATOM     46  C   UNL A   1      47.026  28.804  27.370  1.00  0.00     0.074 A 
ATOM     47  C   UNL A   1      41.786  31.321  29.913  1.00  0.00    -0.036 A 
ATOM     48  N   UNL A   1      43.264  29.961  28.959  1.00  0.00    -0.354 N 
ATOM     49  N   UNL A   1      45.903  29.238  27.888  1.00  0.00    -0.248 NA
ATOM     50  C   UNL A   1      48.098  29.806  27.329  1.00  0.00    -0.034 C 
ATOM     51  C   UNL A   1      42.975  32.030  29.717  1.00  0.00    -0.036 A 
ATOM     52  H   UNL A   1      40.927  31.690  30.350  1.00  0.00     0.065 H 
ATOM     53  C   UNL A   1      43.904  31.177  29.143  1.00  0.00     0.049 A 
ATOM     54  H   UNL A   1      43.676  29.161  28.558  1.00  0.00     0.167 HD
ATOM     55  C   UNL A   1      46.132  30.559  28.239  1.00  0.00     0.074 A 
ATOM     56  C   UNL A   1      47.509  30.850  27.897  1.00  0.00    -0.034 C 
ATOM     57  H   UNL A   1      49.057  29.720  26.957  1.00  0.00     0.065 H 
ATOM     58  H   UNL A   1      43.134  33.021  29.959  1.00  0.00     0.065 H 
ATOM     59  C   UNL A   1      45.275  31.451  28.792  1.00  0.00     0.037 A 
ATOM     60  H   UNL A   1      47.974  31.755  28.072  1.00  0.00     0.065 H 
BRANCH  41  61
ATOM     61  C   UNL A   1      39.623  29.220  29.898  1.00  0.00     0.064 A 
ATOM     62  C   UNL A   1      38.627  29.737  29.055  1.00  0.00     0.173 A 
ATOM     63  C   UNL A   1      39.300  29.019  31.248  1.00  0.00     0.173 A 
ATOM     64  F   UNL A   1      38.886  29.955  27.756  1.00  0.00    -0.203 F 
ATOM     65  C   UNL A   1      37.362  30.051  29.547  1.00  0.00     0.198 A 
ATOM     66  C   UNL A   1      38.026  29.310  31.731  1.00  0.00     0.198 A 
ATOM     67  F   UNL A   1      40.212  28.515  32.092  1.00  0.00    -0.203 F 
ATOM     68  F   UNL A   1      36.435  30.568  28.728  1.00  0.00    -0.200 F 
ATOM     69  C   UNL A   1      37.061  29.833  30.882  1.00  0.00     0.200 A 
ATOM     70  F   UNL A   1      37.730  29.077  33.017  1.00  0.00    -0.200 F 
ATOM     71  F   UNL A   1      35.840  30.124  31.353  1.00  0.00    -0.200 F 
ENDBRANCH  41  61
BRANCH  44  72
ATOM     72  C   UNL A   1      48.704  27.107  26.325  1.00  0.00     0.064 A 
ATOM     73  C   UNL A   1      49.025  27.218  24.965  1.00  0.00     0.173 A 
ATOM     74  C   UNL A   1      49.681  26.601  27.191  1.00  0.00     0.173 A 
ATOM     75  F   UNL A   1      48.118  27.688  24.097  1.00  0.00    -0.203 F 
ATOM     76  C   UNL A   1      50.266  26.805  24.484  1.00  0.00     0.198 A 
ATOM     77  C   UNL A   1      50.931  26.213  26.712  1.00  0.00     0.198 A 
ATOM     78  F   UNL A   1      49.423  26.493  28.503  1.00  0.00    -0.203 F 
ATOM     79  F   UNL A   1      50.531  26.876  23.173  1.00  0.00    -0.200 F 
ATOM     80  C   UNL A   1      51.218  26.305  25.359  1.00  0.00     0.200 A 
ATOM     81  F   UNL A   1      51.855  25.746  27.564  1.00  0.00    -0.200 F 
ATOM     82  F   UNL A   1      52.411  25.908  24.897  1.00  0.00    -0.200 F 
ENDBRANCH  44  72
BRANCH  59  83
ATOM     83  C   UNL A   1      45.800  32.827  29.071  1.00  0.00     0.064 A 
ATOM     84  C   UNL A   1      45.698  33.838  28.103  1.00  0.00     0.173 A 
ATOM     85  C   UNL A   1      46.454  33.130  30.274  1.00  0.00     0.173 A 
ATOM     86  F   UNL A   1      45.085  33.595  26.935  1.00  0.00    -0.203 F 
ATOM     87  C   UNL A   1      46.239  35.100  28.327  1.00  0.00     0.198 A 
ATOM     88  C   UNL A   1      46.974  34.401  30.504  1.00  0.00     0.198 A 
ATOM     89  F   UNL A   1      46.564  32.200  31.235  1.00  0.00    -0.203 F 
ATOM     90  F   UNL A   1      46.151  36.043  27.379  1.00  0.00    -0.200 F 
ATOM     91  C   UNL A   1      46.874  35.382  29.528  1.00  0.00     0.200 A 
ATOM     92  F   UNL A   1      47.566  34.679  31.674  1.00  0.00    -0.200 F 
ATOM     93  F   UNL A   1      47.383  36.601  29.747  1.00  0.00    -0.200 F 
ENDBRANCH  59  83
ENDBRANCH  24  27
ENDBRANCH  15  17
ENDBRANCH  10  13
ENDBRANCH   7  10
ENDBRANCH   4   7
ENDBRANCH   1   4
BRANCH   1  94
ATOM     94  C   UNL A   1      36.267  22.376  23.780  1.00  0.00    -0.036 C 
ATOM     95  H   UNL A   1      35.883  21.705  23.040  1.00  0.00     0.028 H 
ATOM     96  H   UNL A   1      36.918  23.128  23.385  1.00  0.00     0.028 H 
BRANCH  94  97
ATOM     97  C   UNL A   1      35.091  23.121  24.396  1.00  0.00     0.017 C 
ATOM     98  H   UNL A   1      34.973  24.056  23.889  1.00  0.00     0.049 H 
ATOM     99  H   UNL A   1      35.302  23.264  25.435  1.00  0.00     0.049 H 
BRANCH  97 100
ATOM    100  N   UNL A   1      33.855  22.379  24.293  1.00  0.00    -0.354 N 
ATOM    101  C   UNL A   1      32.806  22.277  25.152  1.00  0.00     0.244 C 
ATOM    102  H   UNL A   1      33.757  21.860  23.463  1.00  0.00     0.163 HD
ATOM    103  O   UNL A   1      31.893  21.517  24.819  1.00  0.00    -0.273 OA
BRANCH 101 104
ATOM    104  C   UNL A   1      32.778  22.991  26.513  1.00  0.00     0.131 C 
ATOM    105  H   UNL A   1      33.374  23.873  26.407  1.00  0.00     0.066 H 
BRANCH 104 106
ATOM    106  N   UNL A   1      31.401  23.366  26.842  1.00  0.00    -0.340 N 
ATOM    107  C   UNL A   1      30.583  24.361  26.404  1.00  0.00     0.243 C 
ATOM    108  H   UNL A   1      30.985  22.780  27.515  1.00  0.00     0.164 HD
ATOM    109  O   UNL A   1      29.475  24.379  26.953  1.00  0.00    -0.273 OA
BRANCH 107 110
ATOM    110  C   UNL A   1      31.045  25.526  25.485  1.00  0.00     0.112 C 
ATOM    111  H   UNL A   1      30.762  26.394  26.044  1.00  0.00     0.064 H 
BRANCH 110 112
ATOM    112  N   UNL A   1      32.481  25.729  25.300  1.00  0.00    -0.340 N 
ATOM    113  C   UNL A   1      33.299  26.827  25.333  1.00  0.00     0.251 C 
ATOM    114  H   UNL A   1      32.967  24.893  25.112  1.00  0.00     0.164 HD
ATOM    115  O   UNL A   1      34.427  26.694  24.854  1.00  0.00    -0.269 OA
BRANCH 113 116
ATOM    116  C   UNL A   1      32.948  28.145  25.948  1.00  0.00     0.040 A 
ATOM    117  C   UNL A   1      33.599  28.716  27.048  1.00  0.00    -0.047 A 
ATOM    118  C   UNL A   1      31.991  28.924  25.270  1.00  0.00    -0.047 A 
ATOM    119  C   UNL A   1      33.306  30.021  27.461  1.00  0.00    -0.026 A 
ATOM    120  H   UNL A   1      34.306  28.167  27.562  1.00  0.00     0.063 H 
ATOM    121  C   UNL A   1      31.699  30.229  25.678  1.00  0.00    -0.026 A 
ATOM    122  H   UNL A   1      31.497  28.524  24.457  1.00  0.00     0.063 H 
ATOM    123  C   UNL A   1      32.363  30.767  26.770  1.00  0.00     0.123 A 
ATOM    124  H   UNL A   1      33.790  30.427  28.277  1.00  0.00     0.065 H 
ATOM    125  H   UNL A   1      30.993  30.787  25.170  1.00  0.00     0.065 H 
ATOM    126  F   UNL A   1      32.107  32.025  27.150  1.00  0.00    -0.207 F 
ENDBRANCH 113 116
ENDBRANCH 110 112
BRANCH 110 127
ATOM    127  C   UNL A   1      30.306  25.480  24.130  1.00  0.00     0.004 C 
ATOM    128  H   UNL A   1      29.812  24.532  24.081  1.00  0.00     0.034 H 
ATOM    129  H   UNL A   1      31.084  25.671  23.422  1.00  0.00     0.034 H 
BRANCH 127 130
ATOM    130  C   UNL A   1      29.270  26.526  23.789  1.00  0.00    -0.020 A 
ATOM    131  C   UNL A   1      27.933  26.359  24.116  1.00  0.00     0.005 A 
ATOM    132  C   UNL A   1      29.356  27.786  23.092  1.00  0.00     0.003 A 
ATOM    133  N   UNL A   1      27.226  27.436  23.671  1.00  0.00    -0.361 N 
ATOM    134  H   UNL A   1      27.537  25.548  24.617  1.00  0.00     0.082 H 
ATOM    135  C   UNL A   1      28.064  28.323  23.044  1.00  0.00     0.046 A 
ATOM    136  C   UNL A   1      30.385  28.547  22.494  1.00  0.00    -0.053 A 
ATOM    137  H   UNL A   1      26.256  27.558  23.783  1.00  0.00     0.166 HD
ATOM    138  C   UNL A   1      27.759  29.553  22.445  1.00  0.00    -0.038 A 
ATOM    139  C   UNL A   1      30.101  29.783  21.897  1.00  0.00    -0.062 A 
ATOM    140  H   UNL A   1      31.353  28.189  22.494  1.00  0.00     0.063 H 
ATOM    141  C   UNL A   1      28.804  30.278  21.874  1.00  0.00    -0.060 A 
ATOM    142  H   UNL A   1      26.790  29.911  22.428  1.00  0.00     0.064 H 
ATOM    143  H   UNL A   1      30.864  30.333  21.472  1.00  0.00     0.062 H 
ATOM    144  H   UNL A   1      28.611  31.189  21.430  1.00  0.00     0.062 H 
ENDBRANCH 127 130
ENDBRANCH 110 127
ENDBRANCH 107 110
ENDBRANCH 104 106
BRANCH 104 145
ATOM    145  C   UNL A   1      33.462  22.228  27.658  1.00  0.00     0.072 C 
ATOM    146  H   UNL A   1      32.760  22.103  28.455  1.00  0.00     0.059 H 
ATOM    147  H   UNL A   1      34.312  22.799  27.968  1.00  0.00     0.059 H 
BRANCH 145 148
ATOM    148  O   UNL A   1      33.926  20.944  27.254  1.00  0.00    -0.394 OA
ATOM    149  H   UNL A   1      33.566  20.268  27.848  1.00  0.00     0.210 HD
ENDBRANCH 145 148
ENDBRANCH 104 145
ENDBRANCH 101 104
ENDBRANCH  97 100
ENDBRANCH  94  97
ENDBRANCH   1  94
TORSDOF 21
ENDMDL
MODEL 5
REMARK VINA RESULT:     -11.5      1.403      7.139
REMARK SMILES O=C(NCCCCCCNC(=O)[C@H](CO)NC(=O)[C@H](Cc1c[nH]c2ccccc12)NC(=O)c1ccc(F)cc1)c1ccc(-c2c3nc(c(-c4c(F)c(F)c(F)c(F)c4F)c4ccc([nH]4)c(-c4c(F)c(F)c(F)c(F)c4F)c4nc(c(-c5c(F)c(F)c(F)c(F)c5F)c5ccc2[nH]5)C=C4)C=C3)cc1
REMARK SMILES IDX 7 1 6 4 5 7 4 10 3 13 1 14 2 15 40 17 41 18 102 19 42 20
REMARK SMILES IDX 101 22 43 24 44 27 45 28 95 29 46 30 100 31 94 32 96 33
REMARK SMILES IDX 47 34 99 35 93 37 92 39 48 41 80 44 60 45 79 46 61 47 64 48
REMARK SMILES IDX 78 49 97 50 62 51 63 53 77 55 98 56 65 59 49 61 50 62 58 63
REMARK SMILES IDX 51 64 52 65 56 66 59 67 53 68 54 69 57 70 55 71 81 72 82 73
REMARK SMILES IDX 90 74 83 75 84 76 88 77 91 78 85 79 86 80 89 81 87 82 66 83
REMARK SMILES IDX 67 84 75 85 68 86 69 87 73 88 76 89 70 90 71 91 74 92 72 93
REMARK SMILES IDX 8 94 9 97 10 100 11 101 12 103 13 104 16 106 17 107 18 109
REMARK SMILES IDX 19 110 30 112 31 113 32 115 33 116 34 117 39 118 35 119
REMARK SMILES IDX 38 121 36 123 37 126 20 127 21 130 22 131 29 132 23 133
REMARK SMILES IDX 24 135 28 136 25 138 27 139 26 141 14 145 15 148
REMARK H PARENT 7 2 7 3 6 5 6 6 5 8 5 9 4 11 4 12 3 16 41 21 102 23 42 25
REMARK H PARENT 101 26 100 36 94 38 96 40 99 42 93 43 61 52 64 54 97 57 62 58
REMARK H PARENT 98 60 8 95 8 96 9 98 9 99 10 102 13 105 16 108 19 111 30 114
REMARK H PARENT 34 120 39 122 35 124 38 125 20 128 20 129 22 134 23 137 28 140
REMARK H PARENT 25 142 27 143 26 144 14 146 14 147 15 149
REMARK Flexibility Score: inf
ROOT
ATOM      1  C   UNL A   1      36.945  21.472  24.985  1.00  0.00    -0.052 C 
ATOM      2  H   UNL A   1      37.922  21.759  25.315  1.00  0.00     0.027 H 
ATOM      3  H   UNL A   1      36.179  21.572  25.725  1.00  0.00     0.027 H 
ENDROOT
BRANCH   1   4
ATOM      4  C   UNL A   1      36.988  19.979  24.647  1.00  0.00    -0.052 C 
ATOM      5  H   UNL A   1      36.048  19.553  24.929  1.00  0.00     0.027 H 
ATOM      6  H   UNL A   1      37.198  19.929  23.599  1.00  0.00     0.027 H 
BRANCH   4   7
ATOM      7  C   UNL A   1      38.090  19.166  25.322  1.00  0.00    -0.036 C 
ATOM      8  H   UNL A   1      37.679  18.729  26.209  1.00  0.00     0.028 H 
ATOM      9  H   UNL A   1      38.411  18.450  24.594  1.00  0.00     0.028 H 
BRANCH   7  10
ATOM     10  C   UNL A   1      39.339  19.939  25.719  1.00  0.00     0.018 C 
ATOM     11  H   UNL A   1      39.504  20.709  24.995  1.00  0.00     0.049 H 
ATOM     12  H   UNL A   1      39.165  20.330  26.699  1.00  0.00     0.049 H 
BRANCH  10  13
ATOM     13  N   UNL A   1      40.535  19.120  25.797  1.00  0.00    -0.352 N 
ATOM     14  O   UNL A   1      42.731  18.687  26.104  1.00  0.00    -0.269 OA
ATOM     15  C   UNL A   1      41.806  19.491  26.162  1.00  0.00     0.251 C 
ATOM     16  H   UNL A   1      40.419  18.173  25.555  1.00  0.00     0.163 HD
BRANCH  15  17
ATOM     17  C   UNL A   1      42.065  20.885  26.584  1.00  0.00     0.039 A 
ATOM     18  C   UNL A   1      42.274  21.891  25.638  1.00  0.00    -0.049 A 
ATOM     19  C   UNL A   1      42.131  21.178  27.949  1.00  0.00    -0.049 A 
ATOM     20  C   UNL A   1      42.702  23.147  26.054  1.00  0.00    -0.053 A 
ATOM     21  H   UNL A   1      42.111  21.704  24.636  1.00  0.00     0.063 H 
ATOM     22  C   UNL A   1      42.476  22.465  28.367  1.00  0.00    -0.053 A 
ATOM     23  H   UNL A   1      41.925  20.444  28.646  1.00  0.00     0.063 H 
ATOM     24  C   UNL A   1      42.803  23.449  27.423  1.00  0.00    -0.014 A 
ATOM     25  H   UNL A   1      42.947  23.862  25.352  1.00  0.00     0.063 H 
ATOM     26  H   UNL A   1      42.491  22.692  29.374  1.00  0.00     0.063 H 
BRANCH  24  27
ATOM     27  C   UNL A   1      43.213  24.816  27.834  1.00  0.00     0.031 A 
ATOM     28  C   UNL A   1      44.657  25.233  27.827  1.00  0.00     0.074 A 
ATOM     29  C   UNL A   1      42.256  25.701  28.170  1.00  0.00     0.049 A 
ATOM     30  N   UNL A   1      45.178  26.399  28.117  1.00  0.00    -0.248 NA
ATOM     31  C   UNL A   1      45.647  24.211  27.455  1.00  0.00    -0.034 C 
ATOM     32  C   UNL A   1      40.822  25.406  28.221  1.00  0.00    -0.036 A 
ATOM     33  N   UNL A   1      42.334  27.030  28.502  1.00  0.00    -0.354 N 
ATOM     34  C   UNL A   1      46.551  26.248  27.979  1.00  0.00     0.074 A 
ATOM     35  C   UNL A   1      46.788  24.871  27.603  1.00  0.00    -0.034 C 
ATOM     36  H   UNL A   1      45.493  23.236  27.154  1.00  0.00     0.065 H 
ATOM     37  C   UNL A   1      40.152  26.531  28.501  1.00  0.00    -0.036 A 
ATOM     38  H   UNL A   1      40.397  24.479  28.065  1.00  0.00     0.065 H 
ATOM     39  C   UNL A   1      41.110  27.613  28.708  1.00  0.00     0.049 A 
ATOM     40  H   UNL A   1      43.186  27.516  28.585  1.00  0.00     0.167 HD
ATOM     41  C   UNL A   1      47.522  27.180  28.142  1.00  0.00     0.037 A 
ATOM     42  H   UNL A   1      47.723  24.456  27.469  1.00  0.00     0.065 H 
ATOM     43  H   UNL A   1      39.126  26.619  28.561  1.00  0.00     0.065 H 
ATOM     44  C   UNL A   1      40.789  28.880  29.031  1.00  0.00     0.037 A 
ATOM     45  C   UNL A   1      47.279  28.553  28.501  1.00  0.00     0.049 A 
ATOM     46  C   UNL A   1      41.883  29.889  29.212  1.00  0.00     0.074 A 
ATOM     47  C   UNL A   1      48.197  29.575  28.675  1.00  0.00    -0.036 A 
ATOM     48  N   UNL A   1      46.026  29.100  28.736  1.00  0.00    -0.354 N 
ATOM     49  N   UNL A   1      43.177  29.734  29.073  1.00  0.00    -0.248 NA
ATOM     50  C   UNL A   1      41.476  31.246  29.599  1.00  0.00    -0.034 C 
ATOM     51  C   UNL A   1      47.503  30.729  29.052  1.00  0.00    -0.036 A 
ATOM     52  H   UNL A   1      49.218  29.498  28.549  1.00  0.00     0.065 H 
ATOM     53  C   UNL A   1      46.148  30.440  29.068  1.00  0.00     0.049 A 
ATOM     54  H   UNL A   1      45.175  28.608  28.677  1.00  0.00     0.167 HD
ATOM     55  C   UNL A   1      43.739  30.971  29.349  1.00  0.00     0.074 A 
ATOM     56  C   UNL A   1      42.645  31.872  29.642  1.00  0.00    -0.034 C 
ATOM     57  H   UNL A   1      40.531  31.614  29.788  1.00  0.00     0.065 H 
ATOM     58  H   UNL A   1      47.929  31.642  29.280  1.00  0.00     0.065 H 
ATOM     59  C   UNL A   1      45.048  31.323  29.362  1.00  0.00     0.037 A 
ATOM     60  H   UNL A   1      42.758  32.876  29.857  1.00  0.00     0.065 H 
BRANCH  41  61
ATOM     61  C   UNL A   1      48.945  26.747  27.943  1.00  0.00     0.064 A 
ATOM     62  C   UNL A   1      49.474  26.609  26.649  1.00  0.00     0.173 A 
ATOM     63  C   UNL A   1      49.769  26.407  29.026  1.00  0.00     0.173 A 
ATOM     64  F   UNL A   1      48.725  26.915  25.578  1.00  0.00    -0.203 F 
ATOM     65  C   UNL A   1      50.769  26.140  26.449  1.00  0.00     0.198 A 
ATOM     66  C   UNL A   1      51.073  25.961  28.823  1.00  0.00     0.198 A 
ATOM     67  F   UNL A   1      49.316  26.532  30.283  1.00  0.00    -0.203 F 
ATOM     68  F   UNL A   1      51.242  25.992  25.204  1.00  0.00    -0.200 F 
ATOM     69  C   UNL A   1      51.569  25.821  27.535  1.00  0.00     0.200 A 
ATOM     70  F   UNL A   1      51.853  25.675  29.874  1.00  0.00    -0.200 F 
ATOM     71  F   UNL A   1      52.820  25.379  27.342  1.00  0.00    -0.200 F 
ENDBRANCH  41  61
BRANCH  44  72
ATOM     72  C   UNL A   1      39.358  29.248  29.177  1.00  0.00     0.064 A 
ATOM     73  C   UNL A   1      38.727  29.231  30.429  1.00  0.00     0.173 A 
ATOM     74  C   UNL A   1      38.580  29.554  28.053  1.00  0.00     0.173 A 
ATOM     75  F   UNL A   1      39.429  28.934  31.531  1.00  0.00    -0.203 F 
ATOM     76  C   UNL A   1      37.361  29.479  30.547  1.00  0.00     0.198 A 
ATOM     77  C   UNL A   1      37.219  29.827  28.177  1.00  0.00     0.198 A 
ATOM     78  F   UNL A   1      39.146  29.596  26.837  1.00  0.00    -0.203 F 
ATOM     79  F   UNL A   1      36.771  29.410  31.748  1.00  0.00    -0.200 F 
ATOM     80  C   UNL A   1      36.609  29.778  29.421  1.00  0.00     0.200 A 
ATOM     81  F   UNL A   1      36.499  30.132  27.088  1.00  0.00    -0.200 F 
ATOM     82  F   UNL A   1      35.296  30.015  29.535  1.00  0.00    -0.200 F 
ENDBRANCH  44  72
BRANCH  59  83
ATOM     83  C   UNL A   1      45.372  32.748  29.696  1.00  0.00     0.064 A 
ATOM     84  C   UNL A   1      45.588  33.135  31.028  1.00  0.00     0.173 A 
ATOM     85  C   UNL A   1      45.414  33.740  28.707  1.00  0.00     0.173 A 
ATOM     86  F   UNL A   1      45.553  32.222  32.011  1.00  0.00    -0.203 F 
ATOM     87  C   UNL A   1      45.826  34.466  31.356  1.00  0.00     0.198 A 
ATOM     88  C   UNL A   1      45.676  35.067  29.036  1.00  0.00     0.198 A 
ATOM     89  F   UNL A   1      45.227  33.416  27.418  1.00  0.00    -0.203 F 
ATOM     90  F   UNL A   1      46.006  34.816  32.637  1.00  0.00    -0.200 F 
ATOM     91  C   UNL A   1      45.873  35.430  30.360  1.00  0.00     0.200 A 
ATOM     92  F   UNL A   1      45.745  35.994  28.071  1.00  0.00    -0.200 F 
ATOM     93  F   UNL A   1      46.115  36.710  30.677  1.00  0.00    -0.200 F 
ENDBRANCH  59  83
ENDBRANCH  24  27
ENDBRANCH  15  17
ENDBRANCH  10  13
ENDBRANCH   7  10
ENDBRANCH   4   7
ENDBRANCH   1   4
BRANCH   1  94
ATOM     94  C   UNL A   1      36.539  22.419  23.850  1.00  0.00    -0.036 C 
ATOM     95  H   UNL A   1      36.576  21.869  22.933  1.00  0.00     0.028 H 
ATOM     96  H   UNL A   1      37.228  23.237  23.890  1.00  0.00     0.028 H 
BRANCH  94  97
ATOM     97  C   UNL A   1      35.151  23.033  23.974  1.00  0.00     0.017 C 
ATOM     98  H   UNL A   1      35.055  23.815  23.250  1.00  0.00     0.049 H 
ATOM     99  H   UNL A   1      35.049  23.410  24.970  1.00  0.00     0.049 H 
BRANCH  97 100
ATOM    100  N   UNL A   1      34.100  22.066  23.756  1.00  0.00    -0.354 N 
ATOM    101  C   UNL A   1      33.158  21.571  24.603  1.00  0.00     0.244 C 
ATOM    102  H   UNL A   1      34.060  21.704  22.842  1.00  0.00     0.163 HD
ATOM    103  O   UNL A   1      32.409  20.703  24.147  1.00  0.00    -0.273 OA
BRANCH 101 104
ATOM    104  C   UNL A   1      33.070  21.991  26.079  1.00  0.00     0.131 C 
ATOM    105  H   UNL A   1      33.642  22.890  26.175  1.00  0.00     0.066 H 
BRANCH 104 106
ATOM    106  N   UNL A   1      31.674  22.257  26.430  1.00  0.00    -0.340 N 
ATOM    107  C   UNL A   1      30.856  23.326  26.228  1.00  0.00     0.243 C 
ATOM    108  H   UNL A   1      31.240  21.514  26.909  1.00  0.00     0.164 HD
ATOM    109  O   UNL A   1      29.725  23.192  26.712  1.00  0.00    -0.273 OA
BRANCH 107 110
ATOM    110  C   UNL A   1      31.334  24.693  25.665  1.00  0.00     0.112 C 
ATOM    111  H   UNL A   1      30.877  25.396  26.331  1.00  0.00     0.064 H 
BRANCH 110 112
ATOM    112  N   UNL A   1      32.752  25.028  25.784  1.00  0.00    -0.340 N 
ATOM    113  C   UNL A   1      33.452  26.206  25.816  1.00  0.00     0.251 C 
ATOM    114  H   UNL A   1      33.331  24.235  25.859  1.00  0.00     0.164 HD
ATOM    115  O   UNL A   1      34.670  26.133  25.640  1.00  0.00    -0.269 OA
BRANCH 113 116
ATOM    116  C   UNL A   1      32.863  27.551  26.098  1.00  0.00     0.040 A 
ATOM    117  C   UNL A   1      31.936  27.825  27.111  1.00  0.00    -0.047 A 
ATOM    118  C   UNL A   1      33.400  28.639  25.383  1.00  0.00    -0.047 A 
ATOM    119  C   UNL A   1      31.554  29.140  27.402  1.00  0.00    -0.026 A 
ATOM    120  H   UNL A   1      31.527  27.046  27.650  1.00  0.00     0.063 H 
ATOM    121  C   UNL A   1      33.024  29.954  25.674  1.00  0.00    -0.026 A 
ATOM    122  H   UNL A   1      34.085  28.463  24.631  1.00  0.00     0.063 H 
ATOM    123  C   UNL A   1      32.105  30.192  26.685  1.00  0.00     0.123 A 
ATOM    124  H   UNL A   1      30.866  29.326  28.147  1.00  0.00     0.065 H 
ATOM    125  H   UNL A   1      33.426  30.741  25.140  1.00  0.00     0.065 H 
ATOM    126  F   UNL A   1      31.760  31.450  26.986  1.00  0.00    -0.207 F 
ENDBRANCH 113 116
ENDBRANCH 110 112
BRANCH 110 127
ATOM    127  C   UNL A   1      30.829  24.896  24.220  1.00  0.00     0.004 C 
ATOM    128  H   UNL A   1      30.336  23.990  23.937  1.00  0.00     0.034 H 
ATOM    129  H   UNL A   1      31.717  25.164  23.687  1.00  0.00     0.034 H 
BRANCH 127 130
ATOM    130  C   UNL A   1      29.881  26.026  23.894  1.00  0.00    -0.020 A 
ATOM    131  C   UNL A   1      28.526  25.942  24.175  1.00  0.00     0.005 A 
ATOM    132  C   UNL A   1      30.076  27.304  23.254  1.00  0.00     0.003 A 
ATOM    133  N   UNL A   1      27.910  27.083  23.756  1.00  0.00    -0.361 N 
ATOM    134  H   UNL A   1      28.058  25.141  24.630  1.00  0.00     0.082 H 
ATOM    135  C   UNL A   1      28.827  27.933  23.192  1.00  0.00     0.046 A 
ATOM    136  C   UNL A   1      31.174  28.013  22.718  1.00  0.00    -0.053 A 
ATOM    137  H   UNL A   1      26.947  27.270  23.845  1.00  0.00     0.166 HD
ATOM    138  C   UNL A   1      28.628  29.205  22.637  1.00  0.00    -0.038 A 
ATOM    139  C   UNL A   1      30.997  29.289  22.166  1.00  0.00    -0.062 A 
ATOM    140  H   UNL A   1      32.114  27.587  22.731  1.00  0.00     0.063 H 
ATOM    141  C   UNL A   1      29.738  29.876  22.127  1.00  0.00    -0.060 A 
ATOM    142  H   UNL A   1      27.688  29.631  22.607  1.00  0.00     0.064 H 
ATOM    143  H   UNL A   1      31.809  29.800  21.787  1.00  0.00     0.062 H 
ATOM    144  H   UNL A   1      29.624  30.815  21.716  1.00  0.00     0.062 H 
ENDBRANCH 127 130
ENDBRANCH 110 127
ENDBRANCH 107 110
ENDBRANCH 104 106
BRANCH 104 145
ATOM    145  C   UNL A   1      33.745  21.026  27.067  1.00  0.00     0.072 C 
ATOM    146  H   UNL A   1      34.030  20.139  26.540  1.00  0.00     0.059 H 
ATOM    147  H   UNL A   1      33.042  20.813  27.845  1.00  0.00     0.059 H 
BRANCH 145 148
ATOM    148  O   UNL A   1      34.904  21.590  27.671  1.00  0.00    -0.394 OA
ATOM    149  H   UNL A   1      35.667  21.467  27.085  1.00  0.00     0.210 HD
ENDBRANCH 145 148
ENDBRANCH 104 145
ENDBRANCH 101 104
ENDBRANCH  97 100
ENDBRANCH  94  97
ENDBRANCH   1  94
TORSDOF 21
ENDMDL
MODEL 6
REMARK VINA RESULT:     -11.5      4.729      9.385
REMARK SMILES O=C(NCCCCCCNC(=O)[C@H](CO)NC(=O)[C@H](Cc1c[nH]c2ccccc12)NC(=O)c1ccc(F)cc1)c1ccc(-c2c3nc(c(-c4c(F)c(F)c(F)c(F)c4F)c4ccc([nH]4)c(-c4c(F)c(F)c(F)c(F)c4F)c4nc(c(-c5c(F)c(F)c(F)c(F)c5F)c5ccc2[nH]5)C=C4)C=C3)cc1
REMARK SMILES IDX 7 1 6 4 5 7 4 10 3 13 1 14 2 15 40 17 41 18 102 19 42 20
REMARK SMILES IDX 101 22 43 24 44 27 45 28 95 29 46 30 100 31 94 32 96 33
REMARK SMILES IDX 47 34 99 35 93 37 92 39 48 41 80 44 60 45 79 46 61 47 64 48
REMARK SMILES IDX 78 49 97 50 62 51 63 53 77 55 98 56 65 59 49 61 50 62 58 63
REMARK SMILES IDX 51 64 52 65 56 66 59 67 53 68 54 69 57 70 55 71 81 72 82 73
REMARK SMILES IDX 90 74 83 75 84 76 88 77 91 78 85 79 86 80 89 81 87 82 66 83
REMARK SMILES IDX 67 84 75 85 68 86 69 87 73 88 76 89 70 90 71 91 74 92 72 93
REMARK SMILES IDX 8 94 9 97 10 100 11 101 12 103 13 104 16 106 17 107 18 109
REMARK SMILES IDX 19 110 30 112 31 113 32 115 33 116 34 117 39 118 35 119
REMARK SMILES IDX 38 121 36 123 37 126 20 127 21 130 22 131 29 132 23 133
REMARK SMILES IDX 24 135 28 136 25 138 27 139 26 141 14 145 15 148
REMARK H PARENT 7 2 7 3 6 5 6 6 5 8 5 9 4 11 4 12 3 16 41 21 102 23 42 25
REMARK H PARENT 101 26 100 36 94 38 96 40 99 42 93 43 61 52 64 54 97 57 62 58
REMARK H PARENT 98 60 8 95 8 96 9 98 9 99 10 102 13 105 16 108 19 111 30 114
REMARK H PARENT 34 120 39 122 35 124 38 125 20 128 20 129 22 134 23 137 28 140
REMARK H PARENT 25 142 27 143 26 144 14 146 14 147 15 149
REMARK Flexibility Score: inf
ROOT
ATOM      1  C   UNL A   1      31.775  28.949  26.146  1.00  0.00    -0.052 C 
ATOM      2  H   UNL A   1      32.502  28.776  25.381  1.00  0.00     0.027 H 
ATOM      3  H   UNL A   1      30.857  29.375  25.799  1.00  0.00     0.027 H 
ENDROOT
BRANCH   1   4
ATOM      4  C   UNL A   1      32.359  29.982  27.115  1.00  0.00    -0.052 C 
ATOM      5  H   UNL A   1      32.108  29.675  28.109  1.00  0.00     0.027 H 
ATOM      6  H   UNL A   1      33.409  30.003  26.912  1.00  0.00     0.027 H 
BRANCH   4   7
ATOM      7  C   UNL A   1      31.880  31.421  26.937  1.00  0.00    -0.036 C 
ATOM      8  H   UNL A   1      31.361  31.481  26.003  1.00  0.00     0.028 H 
ATOM      9  H   UNL A   1      31.267  31.631  27.789  1.00  0.00     0.028 H 
BRANCH   7  10
ATOM     10  C   UNL A   1      32.965  32.488  26.938  1.00  0.00     0.018 C 
ATOM     11  H   UNL A   1      33.782  32.139  27.534  1.00  0.00     0.049 H 
ATOM     12  H   UNL A   1      33.243  32.649  25.918  1.00  0.00     0.049 H 
BRANCH  10  13
ATOM     13  N   UNL A   1      32.528  33.767  27.465  1.00  0.00    -0.352 N 
ATOM     14  O   UNL A   1      32.526  35.535  28.873  1.00  0.00    -0.269 OA
ATOM     15  C   UNL A   1      33.064  34.497  28.498  1.00  0.00     0.251 C 
ATOM     16  H   UNL A   1      31.742  34.164  27.024  1.00  0.00     0.163 HD
BRANCH  15  17
ATOM     17  C   UNL A   1      34.273  34.000  29.190  1.00  0.00     0.039 A 
ATOM     18  C   UNL A   1      35.546  34.416  28.795  1.00  0.00    -0.049 A 
ATOM     19  C   UNL A   1      34.125  33.076  30.229  1.00  0.00    -0.049 A 
ATOM     20  C   UNL A   1      36.669  33.794  29.329  1.00  0.00    -0.053 A 
ATOM     21  H   UNL A   1      35.653  35.181  28.111  1.00  0.00     0.063 H 
ATOM     22  C   UNL A   1      35.257  32.516  30.826  1.00  0.00    -0.053 A 
ATOM     23  H   UNL A   1      33.182  32.809  30.553  1.00  0.00     0.063 H 
ATOM     24  C   UNL A   1      36.537  32.841  30.353  1.00  0.00    -0.014 A 
ATOM     25  H   UNL A   1      37.606  34.034  28.970  1.00  0.00     0.063 H 
ATOM     26  H   UNL A   1      35.151  31.861  31.616  1.00  0.00     0.063 H 
BRANCH  24  27
ATOM     27  C   UNL A   1      37.760  32.234  30.938  1.00  0.00     0.031 A 
ATOM     28  C   UNL A   1      38.233  32.605  32.315  1.00  0.00     0.074 A 
ATOM     29  C   UNL A   1      38.419  31.300  30.227  1.00  0.00     0.049 A 
ATOM     30  N   UNL A   1      39.255  32.138  32.988  1.00  0.00    -0.248 NA
ATOM     31  C   UNL A   1      37.466  33.637  33.031  1.00  0.00    -0.034 C 
ATOM     32  C   UNL A   1      38.057  30.867  28.875  1.00  0.00    -0.036 A 
ATOM     33  N   UNL A   1      39.506  30.527  30.544  1.00  0.00    -0.354 N 
ATOM     34  C   UNL A   1      39.266  32.828  34.193  1.00  0.00     0.074 A 
ATOM     35  C   UNL A   1      38.162  33.763  34.153  1.00  0.00    -0.034 C 
ATOM     36  H   UNL A   1      36.610  34.131  32.737  1.00  0.00     0.065 H 
ATOM     37  C   UNL A   1      38.865  29.864  28.505  1.00  0.00    -0.036 A 
ATOM     38  H   UNL A   1      37.300  31.269  28.301  1.00  0.00     0.065 H 
ATOM     39  C   UNL A   1      39.838  29.624  29.566  1.00  0.00     0.049 A 
ATOM     40  H   UNL A   1      40.000  30.612  31.391  1.00  0.00     0.167 HD
ATOM     41  C   UNL A   1      40.114  32.682  35.240  1.00  0.00     0.037 A 
ATOM     42  H   UNL A   1      37.946  34.441  34.900  1.00  0.00     0.065 H 
ATOM     43  H   UNL A   1      38.808  29.346  27.615  1.00  0.00     0.065 H 
ATOM     44  C   UNL A   1      40.819  28.704  29.522  1.00  0.00     0.037 A 
ATOM     45  C   UNL A   1      41.200  31.737  35.281  1.00  0.00     0.049 A 
ATOM     46  C   UNL A   1      41.748  28.568  30.691  1.00  0.00     0.074 A 
ATOM     47  C   UNL A   1      42.106  31.507  36.303  1.00  0.00    -0.036 A 
ATOM     48  N   UNL A   1      41.527  30.863  34.255  1.00  0.00    -0.354 N 
ATOM     49  N   UNL A   1      41.743  29.222  31.827  1.00  0.00    -0.248 NA
ATOM     50  C   UNL A   1      42.821  27.573  30.574  1.00  0.00    -0.034 C 
ATOM     51  C   UNL A   1      43.002  30.519  35.881  1.00  0.00    -0.036 A 
ATOM     52  H   UNL A   1      42.117  31.982  37.219  1.00  0.00     0.065 H 
ATOM     53  C   UNL A   1      42.629  30.101  34.615  1.00  0.00     0.049 A 
ATOM     54  H   UNL A   1      41.049  30.793  33.398  1.00  0.00     0.167 HD
ATOM     55  C   UNL A   1      42.804  28.716  32.562  1.00  0.00     0.074 A 
ATOM     56  C   UNL A   1      43.419  27.685  31.752  1.00  0.00    -0.034 C 
ATOM     57  H   UNL A   1      43.049  26.951  29.782  1.00  0.00     0.065 H 
ATOM     58  H   UNL A   1      43.805  30.163  36.423  1.00  0.00     0.065 H 
ATOM     59  C   UNL A   1      43.232  29.081  33.795  1.00  0.00     0.037 A 
ATOM     60  H   UNL A   1      44.221  27.109  32.054  1.00  0.00     0.065 H 
BRANCH  41  61
ATOM     61  C   UNL A   1      39.911  33.571  36.432  1.00  0.00     0.064 A 
ATOM     62  C   UNL A   1      39.048  33.185  37.470  1.00  0.00     0.173 A 
ATOM     63  C   UNL A   1      40.519  34.832  36.521  1.00  0.00     0.173 A 
ATOM     64  F   UNL A   1      38.435  31.992  37.430  1.00  0.00    -0.203 F 
ATOM     65  C   UNL A   1      38.795  34.032  38.546  1.00  0.00     0.198 A 
ATOM     66  C   UNL A   1      40.284  35.666  37.611  1.00  0.00     0.198 A 
ATOM     67  F   UNL A   1      41.362  35.243  35.562  1.00  0.00    -0.203 F 
ATOM     68  F   UNL A   1      37.947  33.652  39.511  1.00  0.00    -0.200 F 
ATOM     69  C   UNL A   1      39.416  35.269  38.618  1.00  0.00     0.200 A 
ATOM     70  F   UNL A   1      40.902  36.852  37.691  1.00  0.00    -0.200 F 
ATOM     71  F   UNL A   1      39.181  36.079  39.660  1.00  0.00    -0.200 F 
ENDBRANCH  41  61
BRANCH  44  72
ATOM     72  C   UNL A   1      40.939  27.832  28.327  1.00  0.00     0.064 A 
ATOM     73  C   UNL A   1      40.346  26.562  28.291  1.00  0.00     0.173 A 
ATOM     74  C   UNL A   1      41.709  28.229  27.226  1.00  0.00     0.173 A 
ATOM     75  F   UNL A   1      39.608  26.136  29.326  1.00  0.00    -0.203 F 
ATOM     76  C   UNL A   1      40.546  25.707  27.209  1.00  0.00     0.198 A 
ATOM     77  C   UNL A   1      41.886  27.382  26.133  1.00  0.00     0.198 A 
ATOM     78  F   UNL A   1      42.282  29.441  27.211  1.00  0.00    -0.203 F 
ATOM     79  F   UNL A   1      40.008  24.480  27.220  1.00  0.00    -0.200 F 
ATOM     80  C   UNL A   1      41.314  26.119  26.131  1.00  0.00     0.200 A 
ATOM     81  F   UNL A   1      42.615  27.790  25.086  1.00  0.00    -0.200 F 
ATOM     82  F   UNL A   1      41.506  25.297  25.091  1.00  0.00    -0.200 F 
ENDBRANCH  44  72
BRANCH  59  83
ATOM     83  C   UNL A   1      44.418  28.354  34.353  1.00  0.00     0.064 A 
ATOM     84  C   UNL A   1      45.719  28.818  34.105  1.00  0.00     0.173 A 
ATOM     85  C   UNL A   1      44.270  27.168  35.086  1.00  0.00     0.173 A 
ATOM     86  F   UNL A   1      45.911  29.946  33.404  1.00  0.00    -0.203 F 
ATOM     87  C   UNL A   1      46.828  28.115  34.564  1.00  0.00     0.198 A 
ATOM     88  C   UNL A   1      45.382  26.480  35.564  1.00  0.00     0.198 A 
ATOM     89  F   UNL A   1      43.046  26.692  35.360  1.00  0.00    -0.203 F 
ATOM     90  F   UNL A   1      48.062  28.565  34.294  1.00  0.00    -0.200 F 
ATOM     91  C   UNL A   1      46.660  26.949  35.295  1.00  0.00     0.200 A 
ATOM     92  F   UNL A   1      45.218  25.366  36.291  1.00  0.00    -0.200 F 
ATOM     93  F   UNL A   1      47.729  26.281  35.747  1.00  0.00    -0.200 F 
ENDBRANCH  59  83
ENDBRANCH  24  27
ENDBRANCH  15  17
ENDBRANCH  10  13
ENDBRANCH   7  10
ENDBRANCH   4   7
ENDBRANCH   1   4
BRANCH   1  94
ATOM     94  C   UNL A   1      31.391  27.591  26.743  1.00  0.00    -0.036 C 
ATOM     95  H   UNL A   1      30.323  27.519  26.739  1.00  0.00     0.028 H 
ATOM     96  H   UNL A   1      31.822  27.569  27.722  1.00  0.00     0.028 H 
BRANCH  94  97
ATOM     97  C   UNL A   1      31.946  26.375  26.014  1.00  0.00     0.017 C 
ATOM     98  H   UNL A   1      32.224  25.637  26.738  1.00  0.00     0.049 H 
ATOM     99  H   UNL A   1      32.790  26.695  25.440  1.00  0.00     0.049 H 
BRANCH  97 100
ATOM    100  N   UNL A   1      30.986  25.794  25.104  1.00  0.00    -0.354 N 
ATOM    101  C   UNL A   1      31.049  25.584  23.762  1.00  0.00     0.244 C 
ATOM    102  H   UNL A   1      30.147  25.501  25.526  1.00  0.00     0.163 HD
ATOM    103  O   UNL A   1      30.041  25.108  23.231  1.00  0.00    -0.273 OA
BRANCH 101 104
ATOM    104  C   UNL A   1      32.265  25.995  22.916  1.00  0.00     0.131 C 
ATOM    105  H   UNL A   1      33.079  26.130  23.596  1.00  0.00     0.066 H 
BRANCH 104 106
ATOM    106  N   UNL A   1      32.588  24.924  21.970  1.00  0.00    -0.340 N 
ATOM    107  C   UNL A   1      33.096  23.672  22.129  1.00  0.00     0.243 C 
ATOM    108  H   UNL A   1      32.401  25.158  21.033  1.00  0.00     0.164 HD
ATOM    109  O   UNL A   1      33.268  23.061  21.067  1.00  0.00    -0.273 OA
BRANCH 107 110
ATOM    110  C   UNL A   1      33.647  23.120  23.473  1.00  0.00     0.112 C 
ATOM    111  H   UNL A   1      34.343  22.373  23.154  1.00  0.00     0.064 H 
BRANCH 110 112
ATOM    112  N   UNL A   1      34.484  24.000  24.287  1.00  0.00    -0.340 N 
ATOM    113  C   UNL A   1      35.520  23.789  25.158  1.00  0.00     0.251 C 
ATOM    114  H   UNL A   1      34.254  24.952  24.185  1.00  0.00     0.164 HD
ATOM    115  O   UNL A   1      35.824  24.727  25.898  1.00  0.00    -0.269 OA
BRANCH 113 116
ATOM    116  C   UNL A   1      36.335  22.537  25.241  1.00  0.00     0.040 A 
ATOM    117  C   UNL A   1      35.922  21.279  24.785  1.00  0.00    -0.047 A 
ATOM    118  C   UNL A   1      37.667  22.678  25.675  1.00  0.00    -0.047 A 
ATOM    119  C   UNL A   1      36.808  20.195  24.763  1.00  0.00    -0.026 A 
ATOM    120  H   UNL A   1      34.951  21.149  24.461  1.00  0.00     0.063 H 
ATOM    121  C   UNL A   1      38.554  21.598  25.650  1.00  0.00    -0.026 A 
ATOM    122  H   UNL A   1      37.995  23.595  26.016  1.00  0.00     0.063 H 
ATOM    123  C   UNL A   1      38.116  20.365  25.190  1.00  0.00     0.123 A 
ATOM    124  H   UNL A   1      36.487  19.273  24.430  1.00  0.00     0.065 H 
ATOM    125  H   UNL A   1      39.528  21.717  25.972  1.00  0.00     0.065 H 
ATOM    126  F   UNL A   1      38.967  19.333  25.139  1.00  0.00    -0.207 F 
ENDBRANCH 113 116
ENDBRANCH 110 112
BRANCH 110 127
ATOM    127  C   UNL A   1      32.513  22.492  24.312  1.00  0.00     0.004 C 
ATOM    128  H   UNL A   1      31.653  22.440  23.677  1.00  0.00     0.034 H 
ATOM    129  H   UNL A   1      32.459  23.132  25.167  1.00  0.00     0.034 H 
BRANCH 127 130
ATOM    130  C   UNL A   1      32.684  21.120  24.922  1.00  0.00    -0.020 A 
ATOM    131  C   UNL A   1      32.912  20.952  26.279  1.00  0.00     0.005 A 
ATOM    132  C   UNL A   1      32.703  19.797  24.347  1.00  0.00     0.003 A 
ATOM    133  N   UNL A   1      33.053  19.623  26.548  1.00  0.00    -0.361 N 
ATOM    134  H   UNL A   1      32.966  21.712  26.976  1.00  0.00     0.082 H 
ATOM    135  C   UNL A   1      32.929  18.894  25.392  1.00  0.00     0.046 A 
ATOM    136  C   UNL A   1      32.548  19.250  23.054  1.00  0.00    -0.053 A 
ATOM    137  H   UNL A   1      33.219  19.242  27.440  1.00  0.00     0.166 HD
ATOM    138  C   UNL A   1      33.004  17.505  25.212  1.00  0.00    -0.038 A 
ATOM    139  C   UNL A   1      32.611  17.864  22.855  1.00  0.00    -0.062 A 
ATOM    140  H   UNL A   1      32.389  19.877  22.249  1.00  0.00     0.063 H 
ATOM    141  C   UNL A   1      32.837  17.004  23.922  1.00  0.00    -0.060 A 
ATOM    142  H   UNL A   1      33.177  16.874  26.010  1.00  0.00     0.064 H 
ATOM    143  H   UNL A   1      32.487  17.478  21.906  1.00  0.00     0.062 H 
ATOM    144  H   UNL A   1      32.882  15.987  23.758  1.00  0.00     0.062 H 
ENDBRANCH 127 130
ENDBRANCH 110 127
ENDBRANCH 107 110
ENDBRANCH 104 106
BRANCH 104 145
ATOM    145  C   UNL A   1      32.140  27.362  22.225  1.00  0.00     0.072 C 
ATOM    146  H   UNL A   1      32.770  27.369  21.360  1.00  0.00     0.059 H 
ATOM    147  H   UNL A   1      32.432  28.111  22.931  1.00  0.00     0.059 H 
BRANCH 145 148
ATOM    148  O   UNL A   1      30.805  27.646  21.820  1.00  0.00    -0.394 OA
ATOM    149  H   UNL A   1      30.422  26.863  21.396  1.00  0.00     0.210 HD
ENDBRANCH 145 148
ENDBRANCH 104 145
ENDBRANCH 101 104
ENDBRANCH  97 100
ENDBRANCH  94  97
ENDBRANCH   1  94
TORSDOF 21
ENDMDL
MODEL 7
REMARK VINA RESULT:     -11.4      4.853      9.041
REMARK SMILES O=C(NCCCCCCNC(=O)[C@H](CO)NC(=O)[C@H](Cc1c[nH]c2ccccc12)NC(=O)c1ccc(F)cc1)c1ccc(-c2c3nc(c(-c4c(F)c(F)c(F)c(F)c4F)c4ccc([nH]4)c(-c4c(F)c(F)c(F)c(F)c4F)c4nc(c(-c5c(F)c(F)c(F)c(F)c5F)c5ccc2[nH]5)C=C4)C=C3)cc1
REMARK SMILES IDX 7 1 6 4 5 7 4 10 3 13 1 14 2 15 40 17 41 18 102 19 42 20
REMARK SMILES IDX 101 22 43 24 44 27 45 28 95 29 46 30 100 31 94 32 96 33
REMARK SMILES IDX 47 34 99 35 93 37 92 39 48 41 80 44 60 45 79 46 61 47 64 48
REMARK SMILES IDX 78 49 97 50 62 51 63 53 77 55 98 56 65 59 49 61 50 62 58 63
REMARK SMILES IDX 51 64 52 65 56 66 59 67 53 68 54 69 57 70 55 71 81 72 82 73
REMARK SMILES IDX 90 74 83 75 84 76 88 77 91 78 85 79 86 80 89 81 87 82 66 83
REMARK SMILES IDX 67 84 75 85 68 86 69 87 73 88 76 89 70 90 71 91 74 92 72 93
REMARK SMILES IDX 8 94 9 97 10 100 11 101 12 103 13 104 16 106 17 107 18 109
REMARK SMILES IDX 19 110 30 112 31 113 32 115 33 116 34 117 39 118 35 119
REMARK SMILES IDX 38 121 36 123 37 126 20 127 21 130 22 131 29 132 23 133
REMARK SMILES IDX 24 135 28 136 25 138 27 139 26 141 14 145 15 148
REMARK H PARENT 7 2 7 3 6 5 6 6 5 8 5 9 4 11 4 12 3 16 41 21 102 23 42 25
REMARK H PARENT 101 26 100 36 94 38 96 40 99 42 93 43 61 52 64 54 97 57 62 58
REMARK H PARENT 98 60 8 95 8 96 9 98 9 99 10 102 13 105 16 108 19 111 30 114
REMARK H PARENT 34 120 39 122 35 124 38 125 20 128 20 129 22 134 23 137 28 140
REMARK H PARENT 25 142 27 143 26 144 14 146 14 147 15 149
REMARK Flexibility Score: inf
ROOT
ATOM      1  C   UNL A   1      31.794  29.507  26.727  1.00  0.00    -0.052 C 
ATOM      2  H   UNL A   1      32.004  29.385  25.685  1.00  0.00     0.027 H 
ATOM      3  H   UNL A   1      30.772  29.729  26.952  1.00  0.00     0.027 H 
ENDROOT
BRANCH   1   4
ATOM      4  C   UNL A   1      32.590  30.718  27.223  1.00  0.00    -0.052 C 
ATOM      5  H   UNL A   1      32.863  30.536  28.242  1.00  0.00     0.027 H 
ATOM      6  H   UNL A   1      33.419  30.809  26.553  1.00  0.00     0.027 H 
BRANCH   4   7
ATOM      7  C   UNL A   1      31.872  32.065  27.168  1.00  0.00    -0.036 C 
ATOM      8  H   UNL A   1      31.144  32.018  26.386  1.00  0.00     0.028 H 
ATOM      9  H   UNL A   1      31.455  32.212  28.143  1.00  0.00     0.028 H 
BRANCH   7  10
ATOM     10  C   UNL A   1      32.754  33.279  26.911  1.00  0.00     0.018 C 
ATOM     11  H   UNL A   1      33.771  33.002  27.093  1.00  0.00     0.049 H 
ATOM     12  H   UNL A   1      32.586  33.576  25.897  1.00  0.00     0.049 H 
BRANCH  10  13
ATOM     13  N   UNL A   1      32.435  34.422  27.746  1.00  0.00    -0.352 N 
ATOM     14  O   UNL A   1      32.619  35.801  29.526  1.00  0.00    -0.269 OA
ATOM     15  C   UNL A   1      33.063  34.850  28.890  1.00  0.00     0.251 C 
ATOM     16  H   UNL A   1      31.665  34.961  27.454  1.00  0.00     0.163 HD
BRANCH  15  17
ATOM     17  C   UNL A   1      34.256  34.126  29.380  1.00  0.00     0.039 A 
ATOM     18  C   UNL A   1      34.126  33.030  30.237  1.00  0.00    -0.049 A 
ATOM     19  C   UNL A   1      35.524  34.575  29.000  1.00  0.00    -0.049 A 
ATOM     20  C   UNL A   1      35.258  32.487  30.833  1.00  0.00    -0.053 A 
ATOM     21  H   UNL A   1      33.195  32.626  30.425  1.00  0.00     0.063 H 
ATOM     22  C   UNL A   1      36.663  33.969  29.534  1.00  0.00    -0.053 A 
ATOM     23  H   UNL A   1      35.616  35.352  28.327  1.00  0.00     0.063 H 
ATOM     24  C   UNL A   1      36.539  32.947  30.486  1.00  0.00    -0.014 A 
ATOM     25  H   UNL A   1      35.156  31.740  31.538  1.00  0.00     0.063 H 
ATOM     26  H   UNL A   1      37.600  34.276  29.227  1.00  0.00     0.063 H 
BRANCH  24  27
ATOM     27  C   UNL A   1      37.730  32.309  31.103  1.00  0.00     0.031 A 
ATOM     28  C   UNL A   1      38.166  32.656  32.498  1.00  0.00     0.074 A 
ATOM     29  C   UNL A   1      38.392  31.369  30.402  1.00  0.00     0.049 A 
ATOM     30  N   UNL A   1      39.156  32.162  33.198  1.00  0.00    -0.248 NA
ATOM     31  C   UNL A   1      37.398  33.696  33.200  1.00  0.00    -0.034 C 
ATOM     32  C   UNL A   1      38.065  30.957  29.036  1.00  0.00    -0.036 A 
ATOM     33  N   UNL A   1      39.453  30.571  30.746  1.00  0.00    -0.354 N 
ATOM     34  C   UNL A   1      39.142  32.839  34.410  1.00  0.00     0.074 A 
ATOM     35  C   UNL A   1      38.059  33.797  34.345  1.00  0.00    -0.034 C 
ATOM     36  H   UNL A   1      36.561  34.211  32.884  1.00  0.00     0.065 H 
ATOM     37  C   UNL A   1      38.864  29.942  28.681  1.00  0.00    -0.036 A 
ATOM     38  H   UNL A   1      37.335  31.381  28.442  1.00  0.00     0.065 H 
ATOM     39  C   UNL A   1      39.797  29.671  29.769  1.00  0.00     0.049 A 
ATOM     40  H   UNL A   1      39.921  30.637  31.609  1.00  0.00     0.167 HD
ATOM     41  C   UNL A   1      39.953  32.665  35.482  1.00  0.00     0.037 A 
ATOM     42  H   UNL A   1      37.833  34.472  35.092  1.00  0.00     0.065 H 
ATOM     43  H   UNL A   1      38.825  29.434  27.783  1.00  0.00     0.065 H 
ATOM     44  C   UNL A   1      40.760  28.731  29.747  1.00  0.00     0.037 A 
ATOM     45  C   UNL A   1      41.018  31.698  35.547  1.00  0.00     0.049 A 
ATOM     46  C   UNL A   1      41.648  28.564  30.944  1.00  0.00     0.074 A 
ATOM     47  C   UNL A   1      41.885  31.438  36.595  1.00  0.00    -0.036 A 
ATOM     48  N   UNL A   1      41.360  30.827  34.523  1.00  0.00    -0.354 N 
ATOM     49  N   UNL A   1      41.620  29.207  32.086  1.00  0.00    -0.248 NA
ATOM     50  C   UNL A   1      42.704  27.548  30.850  1.00  0.00    -0.034 C 
ATOM     51  C   UNL A   1      42.774  30.437  36.192  1.00  0.00    -0.036 A 
ATOM     52  H   UNL A   1      41.877  31.904  37.516  1.00  0.00     0.065 H 
ATOM     53  C   UNL A   1      42.434  30.039  34.909  1.00  0.00     0.049 A 
ATOM     54  H   UNL A   1      40.908  30.776  33.650  1.00  0.00     0.167 HD
ATOM     55  C   UNL A   1      42.647  28.672  32.848  1.00  0.00     0.074 A 
ATOM     56  C   UNL A   1      43.266  27.636  32.048  1.00  0.00    -0.034 C 
ATOM     57  H   UNL A   1      42.945  26.930  30.059  1.00  0.00     0.065 H 
ATOM     58  H   UNL A   1      43.553  30.058  36.755  1.00  0.00     0.065 H 
ATOM     59  C   UNL A   1      43.042  29.015  34.098  1.00  0.00     0.037 A 
ATOM     60  H   UNL A   1      44.046  27.041  32.369  1.00  0.00     0.065 H 
BRANCH  41  61
ATOM     61  C   UNL A   1      39.730  33.546  36.677  1.00  0.00     0.064 A 
ATOM     62  C   UNL A   1      38.863  33.145  37.705  1.00  0.00     0.173 A 
ATOM     63  C   UNL A   1      40.322  34.814  36.776  1.00  0.00     0.173 A 
ATOM     64  F   UNL A   1      38.265  31.945  37.655  1.00  0.00    -0.203 F 
ATOM     65  C   UNL A   1      38.592  33.984  38.783  1.00  0.00     0.198 A 
ATOM     66  C   UNL A   1      40.068  35.640  37.868  1.00  0.00     0.198 A 
ATOM     67  F   UNL A   1      41.168  35.239  35.826  1.00  0.00    -0.203 F 
ATOM     68  F   UNL A   1      37.740  33.589  39.740  1.00  0.00    -0.200 F 
ATOM     69  C   UNL A   1      39.198  35.228  38.866  1.00  0.00     0.200 A 
ATOM     70  F   UNL A   1      40.673  36.832  37.959  1.00  0.00    -0.200 F 
ATOM     71  F   UNL A   1      38.945  36.030  39.910  1.00  0.00    -0.200 F 
ENDBRANCH  41  61
BRANCH  44  72
ATOM     72  C   UNL A   1      40.901  27.869  28.547  1.00  0.00     0.064 A 
ATOM     73  C   UNL A   1      41.678  28.270  27.451  1.00  0.00     0.173 A 
ATOM     74  C   UNL A   1      40.202  26.659  28.449  1.00  0.00     0.173 A 
ATOM     75  F   UNL A   1      42.356  29.426  27.495  1.00  0.00    -0.203 F 
ATOM     76  C   UNL A   1      41.726  27.506  26.287  1.00  0.00     0.198 A 
ATOM     77  C   UNL A   1      40.272  25.883  27.293  1.00  0.00     0.198 A 
ATOM     78  F   UNL A   1      39.459  26.229  29.479  1.00  0.00    -0.203 F 
ATOM     79  F   UNL A   1      42.437  27.935  25.235  1.00  0.00    -0.200 F 
ATOM     80  C   UNL A   1      41.024  26.313  26.210  1.00  0.00     0.200 A 
ATOM     81  F   UNL A   1      39.607  24.722  27.229  1.00  0.00    -0.200 F 
ATOM     82  F   UNL A   1      41.070  25.578  25.091  1.00  0.00    -0.200 F 
ENDBRANCH  44  72
BRANCH  59  83
ATOM     83  C   UNL A   1      44.195  28.258  34.686  1.00  0.00     0.064 A 
ATOM     84  C   UNL A   1      43.974  27.081  35.419  1.00  0.00     0.173 A 
ATOM     85  C   UNL A   1      45.511  28.726  34.572  1.00  0.00     0.173 A 
ATOM     86  F   UNL A   1      42.731  26.597  35.560  1.00  0.00    -0.203 F 
ATOM     87  C   UNL A   1      45.030  26.407  36.023  1.00  0.00     0.198 A 
ATOM     88  C   UNL A   1      46.568  28.035  35.157  1.00  0.00     0.198 A 
ATOM     89  F   UNL A   1      45.773  29.839  33.869  1.00  0.00    -0.203 F 
ATOM     90  F   UNL A   1      44.793  25.298  36.738  1.00  0.00    -0.200 F 
ATOM     91  C   UNL A   1      46.326  26.882  35.889  1.00  0.00     0.200 A 
ATOM     92  F   UNL A   1      47.823  28.482  35.008  1.00  0.00    -0.200 F 
ATOM     93  F   UNL A   1      47.344  26.224  36.461  1.00  0.00    -0.200 F 
ENDBRANCH  59  83
ENDBRANCH  24  27
ENDBRANCH  15  17
ENDBRANCH  10  13
ENDBRANCH   7  10
ENDBRANCH   4   7
ENDBRANCH   1   4
BRANCH   1  94
ATOM     94  C   UNL A   1      32.081  28.170  27.420  1.00  0.00    -0.036 C 
ATOM     95  H   UNL A   1      31.160  27.805  27.825  1.00  0.00     0.028 H 
ATOM     96  H   UNL A   1      32.825  28.378  28.161  1.00  0.00     0.028 H 
BRANCH  94  97
ATOM     97  C   UNL A   1      32.667  27.083  26.530  1.00  0.00     0.017 C 
ATOM     98  H   UNL A   1      33.732  27.186  26.517  1.00  0.00     0.049 H 
ATOM     99  H   UNL A   1      32.251  27.203  25.552  1.00  0.00     0.049 H 
BRANCH  97 100
ATOM    100  N   UNL A   1      32.335  25.755  26.993  1.00  0.00    -0.354 N 
ATOM    101  C   UNL A   1      31.395  24.873  26.560  1.00  0.00     0.244 C 
ATOM    102  H   UNL A   1      32.879  25.436  27.747  1.00  0.00     0.163 HD
ATOM    103  O   UNL A   1      31.301  23.815  27.188  1.00  0.00    -0.273 OA
BRANCH 101 104
ATOM    104  C   UNL A   1      30.427  25.193  25.409  1.00  0.00     0.131 C 
ATOM    105  H   UNL A   1      30.762  26.111  24.975  1.00  0.00     0.066 H 
BRANCH 104 106
ATOM    106  N   UNL A   1      30.488  24.126  24.407  1.00  0.00    -0.340 N 
ATOM    107  C   UNL A   1      31.377  23.834  23.419  1.00  0.00     0.243 C 
ATOM    108  H   UNL A   1      29.734  23.495  24.459  1.00  0.00     0.164 HD
ATOM    109  O   UNL A   1      31.064  22.850  22.737  1.00  0.00    -0.273 OA
BRANCH 107 110
ATOM    110  C   UNL A   1      32.551  24.762  23.002  1.00  0.00     0.112 C 
ATOM    111  H   UNL A   1      32.838  25.212  23.929  1.00  0.00     0.064 H 
BRANCH 110 112
ATOM    112  N   UNL A   1      33.797  24.138  22.559  1.00  0.00    -0.340 N 
ATOM    113  C   UNL A   1      34.787  23.434  23.195  1.00  0.00     0.251 C 
ATOM    114  H   UNL A   1      33.961  24.245  21.594  1.00  0.00     0.164 HD
ATOM    115  O   UNL A   1      35.846  23.289  22.582  1.00  0.00    -0.269 OA
BRANCH 113 116
ATOM    116  C   UNL A   1      34.659  22.791  24.539  1.00  0.00     0.040 A 
ATOM    117  C   UNL A   1      34.927  23.422  25.759  1.00  0.00    -0.047 A 
ATOM    118  C   UNL A   1      34.084  21.506  24.572  1.00  0.00    -0.047 A 
ATOM    119  C   UNL A   1      34.633  22.793  26.975  1.00  0.00    -0.026 A 
ATOM    120  H   UNL A   1      35.347  24.365  25.763  1.00  0.00     0.063 H 
ATOM    121  C   UNL A   1      33.786  20.877  25.785  1.00  0.00    -0.026 A 
ATOM    122  H   UNL A   1      33.878  21.019  23.686  1.00  0.00     0.063 H 
ATOM    123  C   UNL A   1      34.061  21.530  26.977  1.00  0.00     0.123 A 
ATOM    124  H   UNL A   1      34.841  23.269  27.867  1.00  0.00     0.065 H 
ATOM    125  H   UNL A   1      33.365  19.934  25.793  1.00  0.00     0.065 H 
ATOM    126  F   UNL A   1      33.755  20.945  28.142  1.00  0.00    -0.207 F 
ENDBRANCH 113 116
ENDBRANCH 110 112
BRANCH 110 127
ATOM    127  C   UNL A   1      32.072  25.832  21.996  1.00  0.00     0.004 C 
ATOM    128  H   UNL A   1      31.160  25.467  21.570  1.00  0.00     0.034 H 
ATOM    129  H   UNL A   1      32.913  25.946  21.343  1.00  0.00     0.034 H 
BRANCH 127 130
ATOM    130  C   UNL A   1      31.802  27.245  22.456  1.00  0.00    -0.020 A 
ATOM    131  C   UNL A   1      32.832  28.139  22.702  1.00  0.00     0.005 A 
ATOM    132  C   UNL A   1      30.581  27.948  22.767  1.00  0.00     0.003 A 
ATOM    133  N   UNL A   1      32.306  29.323  23.126  1.00  0.00    -0.361 N 
ATOM    134  H   UNL A   1      33.839  27.940  22.583  1.00  0.00     0.082 H 
ATOM    135  C   UNL A   1      30.938  29.239  23.175  1.00  0.00     0.046 A 
ATOM    136  C   UNL A   1      29.202  27.644  22.747  1.00  0.00    -0.053 A 
ATOM    137  H   UNL A   1      32.831  30.121  23.362  1.00  0.00     0.166 HD
ATOM    138  C   UNL A   1      30.006  30.217  23.551  1.00  0.00    -0.038 A 
ATOM    139  C   UNL A   1      28.254  28.611  23.112  1.00  0.00    -0.062 A 
ATOM    140  H   UNL A   1      28.889  26.702  22.463  1.00  0.00     0.063 H 
ATOM    141  C   UNL A   1      28.653  29.880  23.509  1.00  0.00    -0.060 A 
ATOM    142  H   UNL A   1      30.312  31.156  23.850  1.00  0.00     0.064 H 
ATOM    143  H   UNL A   1      27.250  28.378  23.084  1.00  0.00     0.062 H 
ATOM    144  H   UNL A   1      27.944  30.579  23.776  1.00  0.00     0.062 H 
ENDBRANCH 127 130
ENDBRANCH 110 127
ENDBRANCH 107 110
ENDBRANCH 104 106
BRANCH 104 145
ATOM    145  C   UNL A   1      28.986  25.502  25.843  1.00  0.00     0.072 C 
ATOM    146  H   UNL A   1      28.325  25.263  25.035  1.00  0.00     0.059 H 
ATOM    147  H   UNL A   1      28.938  26.540  26.097  1.00  0.00     0.059 H 
BRANCH 145 148
ATOM    148  O   UNL A   1      28.592  24.756  26.989  1.00  0.00    -0.394 OA
ATOM    149  H   UNL A   1      27.916  25.249  27.479  1.00  0.00     0.210 HD
ENDBRANCH 145 148
ENDBRANCH 104 145
ENDBRANCH 101 104
ENDBRANCH  97 100
ENDBRANCH  94  97
ENDBRANCH   1  94
TORSDOF 21
ENDMDL
MODEL 8
REMARK VINA RESULT:     -11.3      2.111      7.837
REMARK SMILES O=C(NCCCCCCNC(=O)[C@H](CO)NC(=O)[C@H](Cc1c[nH]c2ccccc12)NC(=O)c1ccc(F)cc1)c1ccc(-c2c3nc(c(-c4c(F)c(F)c(F)c(F)c4F)c4ccc([nH]4)c(-c4c(F)c(F)c(F)c(F)c4F)c4nc(c(-c5c(F)c(F)c(F)c(F)c5F)c5ccc2[nH]5)C=C4)C=C3)cc1
REMARK SMILES IDX 7 1 6 4 5 7 4 10 3 13 1 14 2 15 40 17 41 18 102 19 42 20
REMARK SMILES IDX 101 22 43 24 44 27 45 28 95 29 46 30 100 31 94 32 96 33
REMARK SMILES IDX 47 34 99 35 93 37 92 39 48 41 80 44 60 45 79 46 61 47 64 48
REMARK SMILES IDX 78 49 97 50 62 51 63 53 77 55 98 56 65 59 49 61 50 62 58 63
REMARK SMILES IDX 51 64 52 65 56 66 59 67 53 68 54 69 57 70 55 71 81 72 82 73
REMARK SMILES IDX 90 74 83 75 84 76 88 77 91 78 85 79 86 80 89 81 87 82 66 83
REMARK SMILES IDX 67 84 75 85 68 86 69 87 73 88 76 89 70 90 71 91 74 92 72 93
REMARK SMILES IDX 8 94 9 97 10 100 11 101 12 103 13 104 16 106 17 107 18 109
REMARK SMILES IDX 19 110 30 112 31 113 32 115 33 116 34 117 39 118 35 119
REMARK SMILES IDX 38 121 36 123 37 126 20 127 21 130 22 131 29 132 23 133
REMARK SMILES IDX 24 135 28 136 25 138 27 139 26 141 14 145 15 148
REMARK H PARENT 7 2 7 3 6 5 6 6 5 8 5 9 4 11 4 12 3 16 41 21 102 23 42 25
REMARK H PARENT 101 26 100 36 94 38 96 40 99 42 93 43 61 52 64 54 97 57 62 58
REMARK H PARENT 98 60 8 95 8 96 9 98 9 99 10 102 13 105 16 108 19 111 30 114
REMARK H PARENT 34 120 39 122 35 124 38 125 20 128 20 129 22 134 23 137 28 140
REMARK H PARENT 25 142 27 143 26 144 14 146 14 147 15 149
REMARK Flexibility Score: inf
ROOT
ATOM      1  C   UNL A   1      40.753  22.087  26.262  1.00  0.00    -0.052 C 
ATOM      2  H   UNL A   1      40.405  21.859  25.276  1.00  0.00     0.027 H 
ATOM      3  H   UNL A   1      41.638  22.688  26.293  1.00  0.00     0.027 H 
ENDROOT
BRANCH   1   4
ATOM      4  C   UNL A   1      41.138  20.766  26.936  1.00  0.00    -0.052 C 
ATOM      5  H   UNL A   1      42.009  20.945  27.532  1.00  0.00     0.027 H 
ATOM      6  H   UNL A   1      40.275  20.467  27.493  1.00  0.00     0.027 H 
BRANCH   4   7
ATOM      7  C   UNL A   1      41.446  19.597  26.002  1.00  0.00    -0.036 C 
ATOM      8  H   UNL A   1      40.691  18.853  26.149  1.00  0.00     0.028 H 
ATOM      9  H   UNL A   1      41.464  20.010  25.015  1.00  0.00     0.028 H 
BRANCH   7  10
ATOM     10  C   UNL A   1      42.801  18.931  26.195  1.00  0.00     0.018 C 
ATOM     11  H   UNL A   1      43.365  19.510  26.896  1.00  0.00     0.049 H 
ATOM     12  H   UNL A   1      42.612  17.937  26.542  1.00  0.00     0.049 H 
BRANCH  10  13
ATOM     13  N   UNL A   1      43.573  18.812  24.972  1.00  0.00    -0.352 N 
ATOM     14  O   UNL A   1      44.852  19.532  23.253  1.00  0.00    -0.269 OA
ATOM     15  C   UNL A   1      44.313  19.776  24.329  1.00  0.00     0.251 C 
ATOM     16  H   UNL A   1      43.566  17.925  24.547  1.00  0.00     0.163 HD
BRANCH  15  17
ATOM     17  C   UNL A   1      44.417  21.128  24.918  1.00  0.00     0.039 A 
ATOM     18  C   UNL A   1      43.875  22.237  24.264  1.00  0.00    -0.049 A 
ATOM     19  C   UNL A   1      45.098  21.288  26.128  1.00  0.00    -0.049 A 
ATOM     20  C   UNL A   1      44.149  23.515  24.737  1.00  0.00    -0.053 A 
ATOM     21  H   UNL A   1      43.275  22.108  23.434  1.00  0.00     0.063 H 
ATOM     22  C   UNL A   1      45.296  22.569  26.648  1.00  0.00    -0.053 A 
ATOM     23  H   UNL A   1      45.452  20.461  26.635  1.00  0.00     0.063 H 
ATOM     24  C   UNL A   1      44.859  23.695  25.937  1.00  0.00    -0.014 A 
ATOM     25  H   UNL A   1      43.830  24.338  24.202  1.00  0.00     0.063 H 
ATOM     26  H   UNL A   1      45.768  22.686  27.559  1.00  0.00     0.063 H 
BRANCH  24  27
ATOM     27  C   UNL A   1      45.089  25.073  26.442  1.00  0.00     0.031 A 
ATOM     28  C   UNL A   1      46.431  25.737  26.313  1.00  0.00     0.074 A 
ATOM     29  C   UNL A   1      44.053  25.743  26.980  1.00  0.00     0.049 A 
ATOM     30  N   UNL A   1      46.787  26.948  26.663  1.00  0.00    -0.248 NA
ATOM     31  C   UNL A   1      47.517  24.942  25.720  1.00  0.00    -0.034 C 
ATOM     32  C   UNL A   1      42.707  25.195  27.164  1.00  0.00    -0.036 A 
ATOM     33  N   UNL A   1      43.955  27.031  27.441  1.00  0.00    -0.354 N 
ATOM     34  C   UNL A   1      48.136  27.054  26.352  1.00  0.00     0.074 A 
ATOM     35  C   UNL A   1      48.544  25.777  25.805  1.00  0.00    -0.034 C 
ATOM     36  H   UNL A   1      47.487  23.984  25.337  1.00  0.00     0.065 H 
ATOM     37  C   UNL A   1      41.904  26.157  27.640  1.00  0.00    -0.036 A 
ATOM     38  H   UNL A   1      42.423  24.225  26.960  1.00  0.00     0.065 H 
ATOM     39  C   UNL A   1      42.689  27.369  27.849  1.00  0.00     0.049 A 
ATOM     40  H   UNL A   1      44.719  27.651  27.477  1.00  0.00     0.167 HD
ATOM     41  C   UNL A   1      48.954  28.125  26.500  1.00  0.00     0.037 A 
ATOM     42  H   UNL A   1      49.508  25.547  25.519  1.00  0.00     0.065 H 
ATOM     43  H   UNL A   1      40.895  26.057  27.827  1.00  0.00     0.065 H 
ATOM     44  C   UNL A   1      42.210  28.526  28.341  1.00  0.00     0.037 A 
ATOM     45  C   UNL A   1      48.537  29.398  27.029  1.00  0.00     0.049 A 
ATOM     46  C   UNL A   1      43.138  29.694  28.501  1.00  0.00     0.074 A 
ATOM     47  C   UNL A   1      49.290  30.547  27.205  1.00  0.00    -0.036 A 
ATOM     48  N   UNL A   1      47.254  29.692  27.465  1.00  0.00    -0.354 N 
ATOM     49  N   UNL A   1      44.410  29.782  28.197  1.00  0.00    -0.248 NA
ATOM     50  C   UNL A   1      42.569  30.919  29.076  1.00  0.00    -0.034 C 
ATOM     51  C   UNL A   1      48.472  31.523  27.781  1.00  0.00    -0.036 A 
ATOM     52  H   UNL A   1      50.284  30.662  26.954  1.00  0.00     0.065 H 
ATOM     53  C   UNL A   1      47.197  31.000  27.923  1.00  0.00     0.049 A 
ATOM     54  H   UNL A   1      46.495  29.065  27.453  1.00  0.00     0.167 HD
ATOM     55  C   UNL A   1      44.793  31.071  28.537  1.00  0.00     0.074 A 
ATOM     56  C   UNL A   1      43.614  31.736  29.050  1.00  0.00    -0.034 C 
ATOM     57  H   UNL A   1      41.610  31.097  29.412  1.00  0.00     0.065 H 
ATOM     58  H   UNL A   1      48.768  32.474  28.055  1.00  0.00     0.065 H 
ATOM     59  C   UNL A   1      46.016  31.646  28.436  1.00  0.00     0.037 A 
ATOM     60  H   UNL A   1      43.589  32.722  29.357  1.00  0.00     0.065 H 
BRANCH  41  61
ATOM     61  C   UNL A   1      50.389  27.969  26.091  1.00  0.00     0.064 A 
ATOM     62  C   UNL A   1      51.388  27.771  27.058  1.00  0.00     0.173 A 
ATOM     63  C   UNL A   1      50.788  28.079  24.751  1.00  0.00     0.173 A 
ATOM     64  F   UNL A   1      51.060  27.666  28.356  1.00  0.00    -0.203 F 
ATOM     65  C   UNL A   1      52.730  27.697  26.699  1.00  0.00     0.198 A 
ATOM     66  C   UNL A   1      52.130  27.980  24.392  1.00  0.00     0.198 A 
ATOM     67  F   UNL A   1      49.872  28.257  23.787  1.00  0.00    -0.203 F 
ATOM     68  F   UNL A   1      53.668  27.534  27.643  1.00  0.00    -0.200 F 
ATOM     69  C   UNL A   1      53.101  27.797  25.366  1.00  0.00     0.200 A 
ATOM     70  F   UNL A   1      52.484  28.054  23.102  1.00  0.00    -0.200 F 
ATOM     71  F   UNL A   1      54.393  27.715  25.020  1.00  0.00    -0.200 F 
ENDBRANCH  41  61
BRANCH  44  72
ATOM     72  C   UNL A   1      40.771  28.622  28.690  1.00  0.00     0.064 A 
ATOM     73  C   UNL A   1      39.828  29.087  27.763  1.00  0.00     0.173 A 
ATOM     74  C   UNL A   1      40.326  28.316  29.983  1.00  0.00     0.173 A 
ATOM     75  F   UNL A   1      40.210  29.402  26.517  1.00  0.00    -0.203 F 
ATOM     76  C   UNL A   1      38.495  29.271  28.125  1.00  0.00     0.198 A 
ATOM     77  C   UNL A   1      38.987  28.477  30.336  1.00  0.00     0.198 A 
ATOM     78  F   UNL A   1      41.191  27.854  30.898  1.00  0.00    -0.203 F 
ATOM     79  F   UNL A   1      37.623  29.762  27.234  1.00  0.00    -0.200 F 
ATOM     80  C   UNL A   1      38.076  28.964  29.410  1.00  0.00     0.200 A 
ATOM     81  F   UNL A   1      38.582  28.163  31.574  1.00  0.00    -0.200 F 
ATOM     82  F   UNL A   1      36.795  29.142  29.759  1.00  0.00    -0.200 F 
ENDBRANCH  44  72
BRANCH  59  83
ATOM     83  C   UNL A   1      46.143  33.072  28.881  1.00  0.00     0.064 A 
ATOM     84  C   UNL A   1      45.968  34.122  27.967  1.00  0.00     0.173 A 
ATOM     85  C   UNL A   1      46.492  33.397  30.199  1.00  0.00     0.173 A 
ATOM     86  F   UNL A   1      45.638  33.860  26.693  1.00  0.00    -0.203 F 
ATOM     87  C   UNL A   1      46.147  35.446  28.355  1.00  0.00     0.198 A 
ATOM     88  C   UNL A   1      46.647  34.725  30.591  1.00  0.00     0.198 A 
ATOM     89  F   UNL A   1      46.657  32.428  31.113  1.00  0.00    -0.203 F 
ATOM     90  F   UNL A   1      45.998  36.431  27.459  1.00  0.00    -0.200 F 
ATOM     91  C   UNL A   1      46.483  35.746  29.667  1.00  0.00     0.200 A 
ATOM     92  F   UNL A   1      46.949  35.015  31.864  1.00  0.00    -0.200 F 
ATOM     93  F   UNL A   1      46.642  37.023  30.043  1.00  0.00    -0.200 F 
ENDBRANCH  59  83
ENDBRANCH  24  27
ENDBRANCH  15  17
ENDBRANCH  10  13
ENDBRANCH   7  10
ENDBRANCH   4   7
ENDBRANCH   1   4
BRANCH   1  94
ATOM     94  C   UNL A   1      39.672  22.920  26.959  1.00  0.00    -0.036 C 
ATOM     95  H   UNL A   1      40.068  23.900  27.126  1.00  0.00     0.028 H 
ATOM     96  H   UNL A   1      39.430  22.393  27.858  1.00  0.00     0.028 H 
BRANCH  94  97
ATOM     97  C   UNL A   1      38.363  23.066  26.194  1.00  0.00     0.017 C 
ATOM     98  H   UNL A   1      38.564  23.541  25.257  1.00  0.00     0.049 H 
ATOM     99  H   UNL A   1      37.699  23.651  26.794  1.00  0.00     0.049 H 
BRANCH  97 100
ATOM    100  N   UNL A   1      37.728  21.793  25.942  1.00  0.00    -0.354 N 
ATOM    101  C   UNL A   1      36.612  21.482  25.230  1.00  0.00     0.244 C 
ATOM    102  H   UNL A   1      38.178  21.022  26.356  1.00  0.00     0.163 HD
ATOM    103  O   UNL A   1      36.271  20.296  25.230  1.00  0.00    -0.273 OA
BRANCH 101 104
ATOM    104  C   UNL A   1      35.755  22.547  24.529  1.00  0.00     0.131 C 
ATOM    105  H   UNL A   1      35.088  22.023  23.878  1.00  0.00     0.066 H 
BRANCH 104 106
ATOM    106  N   UNL A   1      34.983  23.290  25.527  1.00  0.00    -0.340 N 
ATOM    107  C   UNL A   1      33.666  23.624  25.618  1.00  0.00     0.243 C 
ATOM    108  H   UNL A   1      35.524  23.613  26.283  1.00  0.00     0.164 HD
ATOM    109  O   UNL A   1      33.388  24.304  26.613  1.00  0.00    -0.273 OA
BRANCH 107 110
ATOM    110  C   UNL A   1      32.631  23.400  24.482  1.00  0.00     0.112 C 
ATOM    111  H   UNL A   1      32.067  24.309  24.492  1.00  0.00     0.064 H 
BRANCH 110 112
ATOM    112  N   UNL A   1      33.120  23.353  23.104  1.00  0.00    -0.340 N 
ATOM    113  C   UNL A   1      33.012  24.192  22.027  1.00  0.00     0.251 C 
ATOM    114  H   UNL A   1      33.644  22.541  22.909  1.00  0.00     0.164 HD
ATOM    115  O   UNL A   1      33.304  23.722  20.925  1.00  0.00    -0.269 OA
BRANCH 113 116
ATOM    116  C   UNL A   1      32.621  25.634  22.094  1.00  0.00     0.040 A 
ATOM    117  C   UNL A   1      31.304  26.110  22.083  1.00  0.00    -0.047 A 
ATOM    118  C   UNL A   1      33.655  26.558  22.337  1.00  0.00    -0.047 A 
ATOM    119  C   UNL A   1      31.026  27.464  22.304  1.00  0.00    -0.026 A 
ATOM    120  H   UNL A   1      30.528  25.454  21.908  1.00  0.00     0.063 H 
ATOM    121  C   UNL A   1      33.380  27.910  22.562  1.00  0.00    -0.026 A 
ATOM    122  H   UNL A   1      34.634  26.232  22.349  1.00  0.00     0.063 H 
ATOM    123  C   UNL A   1      32.065  28.351  22.547  1.00  0.00     0.123 A 
ATOM    124  H   UNL A   1      30.051  27.801  22.287  1.00  0.00     0.065 H 
ATOM    125  H   UNL A   1      34.150  28.576  22.738  1.00  0.00     0.065 H 
ATOM    126  F   UNL A   1      31.792  29.639  22.788  1.00  0.00    -0.207 F 
ENDBRANCH 113 116
ENDBRANCH 110 112
BRANCH 110 127
ATOM    127  C   UNL A   1      31.726  22.188  24.797  1.00  0.00     0.004 C 
ATOM    128  H   UNL A   1      31.067  22.072  23.962  1.00  0.00     0.034 H 
ATOM    129  H   UNL A   1      31.291  22.447  25.739  1.00  0.00     0.034 H 
BRANCH 127 130
ATOM    130  C   UNL A   1      32.334  20.830  25.062  1.00  0.00    -0.020 A 
ATOM    131  C   UNL A   1      32.865  20.501  26.299  1.00  0.00     0.005 A 
ATOM    132  C   UNL A   1      32.545  19.680  24.218  1.00  0.00     0.003 A 
ATOM    133  N   UNL A   1      33.364  19.234  26.249  1.00  0.00    -0.361 N 
ATOM    134  H   UNL A   1      32.880  21.117  27.127  1.00  0.00     0.082 H 
ATOM    135  C   UNL A   1      33.183  18.706  24.995  1.00  0.00     0.046 A 
ATOM    136  C   UNL A   1      32.264  19.340  22.875  1.00  0.00    -0.053 A 
ATOM    137  H   UNL A   1      33.792  18.766  27.002  1.00  0.00     0.166 HD
ATOM    138  C   UNL A   1      33.543  17.441  24.509  1.00  0.00    -0.038 A 
ATOM    139  C   UNL A   1      32.608  18.078  22.373  1.00  0.00    -0.062 A 
ATOM    140  H   UNL A   1      31.803  20.028  22.259  1.00  0.00     0.063 H 
ATOM    141  C   UNL A   1      33.240  17.141  23.182  1.00  0.00    -0.060 A 
ATOM    142  H   UNL A   1      34.017  16.753  25.116  1.00  0.00     0.064 H 
ATOM    143  H   UNL A   1      32.388  17.840  21.394  1.00  0.00     0.062 H 
ATOM    144  H   UNL A   1      33.488  16.217  22.797  1.00  0.00     0.062 H 
ENDBRANCH 127 130
ENDBRANCH 110 127
ENDBRANCH 107 110
ENDBRANCH 104 106
BRANCH 104 145
ATOM    145  C   UNL A   1      36.528  23.478  23.581  1.00  0.00     0.072 C 
ATOM    146  H   UNL A   1      37.496  23.665  23.997  1.00  0.00     0.059 H 
ATOM    147  H   UNL A   1      35.963  24.381  23.479  1.00  0.00     0.059 H 
BRANCH 145 148
ATOM    148  O   UNL A   1      36.689  22.918  22.283  1.00  0.00    -0.394 OA
ATOM    149  H   UNL A   1      37.621  22.689  22.143  1.00  0.00     0.210 HD
ENDBRANCH 145 148
ENDBRANCH 104 145
ENDBRANCH 101 104
ENDBRANCH  97 100
ENDBRANCH  94  97
ENDBRANCH   1  94
TORSDOF 21
ENDMDL
MODEL 9
REMARK VINA RESULT:     -11.3      2.109      4.048
REMARK SMILES O=C(NCCCCCCNC(=O)[C@H](CO)NC(=O)[C@H](Cc1c[nH]c2ccccc12)NC(=O)c1ccc(F)cc1)c1ccc(-c2c3nc(c(-c4c(F)c(F)c(F)c(F)c4F)c4ccc([nH]4)c(-c4c(F)c(F)c(F)c(F)c4F)c4nc(c(-c5c(F)c(F)c(F)c(F)c5F)c5ccc2[nH]5)C=C4)C=C3)cc1
REMARK SMILES IDX 7 1 6 4 5 7 4 10 3 13 1 14 2 15 40 17 41 18 102 19 42 20
REMARK SMILES IDX 101 22 43 24 44 27 45 28 95 29 46 30 100 31 94 32 96 33
REMARK SMILES IDX 47 34 99 35 93 37 92 39 48 41 80 44 60 45 79 46 61 47 64 48
REMARK SMILES IDX 78 49 97 50 62 51 63 53 77 55 98 56 65 59 49 61 50 62 58 63
REMARK SMILES IDX 51 64 52 65 56 66 59 67 53 68 54 69 57 70 55 71 81 72 82 73
REMARK SMILES IDX 90 74 83 75 84 76 88 77 91 78 85 79 86 80 89 81 87 82 66 83
REMARK SMILES IDX 67 84 75 85 68 86 69 87 73 88 76 89 70 90 71 91 74 92 72 93
REMARK SMILES IDX 8 94 9 97 10 100 11 101 12 103 13 104 16 106 17 107 18 109
REMARK SMILES IDX 19 110 30 112 31 113 32 115 33 116 34 117 39 118 35 119
REMARK SMILES IDX 38 121 36 123 37 126 20 127 21 130 22 131 29 132 23 133
REMARK SMILES IDX 24 135 28 136 25 138 27 139 26 141 14 145 15 148
REMARK H PARENT 7 2 7 3 6 5 6 6 5 8 5 9 4 11 4 12 3 16 41 21 102 23 42 25
REMARK H PARENT 101 26 100 36 94 38 96 40 99 42 93 43 61 52 64 54 97 57 62 58
REMARK H PARENT 98 60 8 95 8 96 9 98 9 99 10 102 13 105 16 108 19 111 30 114
REMARK H PARENT 34 120 39 122 35 124 38 125 20 128 20 129 22 134 23 137 28 140
REMARK H PARENT 25 142 27 143 26 144 14 146 14 147 15 149
REMARK Flexibility Score: inf
ROOT
ATOM      1  C   UNL A   1      40.802  22.083  26.248  1.00  0.00    -0.052 C 
ATOM      2  H   UNL A   1      40.470  21.852  25.257  1.00  0.00     0.027 H 
ATOM      3  H   UNL A   1      41.683  22.689  26.292  1.00  0.00     0.027 H 
ENDROOT
BRANCH   1   4
ATOM      4  C   UNL A   1      41.184  20.765  26.929  1.00  0.00    -0.052 C 
ATOM      5  H   UNL A   1      42.023  20.956  27.564  1.00  0.00     0.027 H 
ATOM      6  H   UNL A   1      40.303  20.445  27.445  1.00  0.00     0.027 H 
BRANCH   4   7
ATOM      7  C   UNL A   1      41.556  19.610  26.002  1.00  0.00    -0.036 C 
ATOM      8  H   UNL A   1      40.789  18.868  26.078  1.00  0.00     0.028 H 
ATOM      9  H   UNL A   1      41.650  20.039  25.026  1.00  0.00     0.028 H 
BRANCH   7  10
ATOM     10  C   UNL A   1      42.889  18.933  26.286  1.00  0.00     0.018 C 
ATOM     11  H   UNL A   1      43.441  19.545  26.967  1.00  0.00     0.049 H 
ATOM     12  H   UNL A   1      42.668  17.968  26.689  1.00  0.00     0.049 H 
BRANCH  10  13
ATOM     13  N   UNL A   1      43.701  18.720  25.101  1.00  0.00    -0.352 N 
ATOM     14  O   UNL A   1      45.040  19.304  23.377  1.00  0.00    -0.269 OA
ATOM     15  C   UNL A   1      44.467  19.630  24.413  1.00  0.00     0.251 C 
ATOM     16  H   UNL A   1      43.701  17.803  24.743  1.00  0.00     0.163 HD
BRANCH  15  17
ATOM     17  C   UNL A   1      44.561  21.022  24.903  1.00  0.00     0.039 A 
ATOM     18  C   UNL A   1      43.967  22.071  24.197  1.00  0.00    -0.049 A 
ATOM     19  C   UNL A   1      45.284  21.280  26.071  1.00  0.00    -0.049 A 
ATOM     20  C   UNL A   1      44.228  23.384  24.570  1.00  0.00    -0.053 A 
ATOM     21  H   UNL A   1      43.339  21.871  23.403  1.00  0.00     0.063 H 
ATOM     22  C   UNL A   1      45.471  22.598  26.494  1.00  0.00    -0.053 A 
ATOM     23  H   UNL A   1      45.678  20.499  26.619  1.00  0.00     0.063 H 
ATOM     24  C   UNL A   1      44.979  23.663  25.725  1.00  0.00    -0.014 A 
ATOM     25  H   UNL A   1      43.868  24.160  23.993  1.00  0.00     0.063 H 
ATOM     26  H   UNL A   1      45.974  22.789  27.375  1.00  0.00     0.063 H 
BRANCH  24  27
ATOM     27  C   UNL A   1      45.195  25.077  26.124  1.00  0.00     0.031 A 
ATOM     28  C   UNL A   1      44.096  25.886  26.752  1.00  0.00     0.074 A 
ATOM     29  C   UNL A   1      46.418  25.613  25.956  1.00  0.00     0.049 A 
ATOM     30  N   UNL A   1      44.132  27.118  27.196  1.00  0.00    -0.248 NA
ATOM     31  C   UNL A   1      42.785  25.236  26.898  1.00  0.00    -0.034 C 
ATOM     32  C   UNL A   1      47.559  24.925  25.349  1.00  0.00    -0.036 A 
ATOM     33  N   UNL A   1      46.918  26.842  26.304  1.00  0.00    -0.354 N 
ATOM     34  C   UNL A   1      42.851  27.396  27.655  1.00  0.00     0.074 A 
ATOM     35  C   UNL A   1      42.052  26.213  27.417  1.00  0.00    -0.034 C 
ATOM     36  H   UNL A   1      42.508  24.270  26.661  1.00  0.00     0.065 H 
ATOM     37  C   UNL A   1      48.638  25.715  25.423  1.00  0.00    -0.036 A 
ATOM     38  H   UNL A   1      47.534  23.982  24.931  1.00  0.00     0.065 H 
ATOM     39  C   UNL A   1      48.254  26.985  26.029  1.00  0.00     0.049 A 
ATOM     40  H   UNL A   1      46.370  27.552  26.712  1.00  0.00     0.167 HD
ATOM     41  C   UNL A   1      42.391  28.532  28.234  1.00  0.00     0.037 A 
ATOM     42  H   UNL A   1      41.044  26.140  27.622  1.00  0.00     0.065 H 
ATOM     43  H   UNL A   1      49.587  25.465  25.105  1.00  0.00     0.065 H 
ATOM     44  C   UNL A   1      49.082  28.026  26.237  1.00  0.00     0.037 A 
ATOM     45  C   UNL A   1      43.195  29.700  28.484  1.00  0.00     0.049 A 
ATOM     46  C   UNL A   1      48.546  29.273  26.872  1.00  0.00     0.074 A 
ATOM     47  C   UNL A   1      42.822  30.894  29.077  1.00  0.00    -0.036 A 
ATOM     48  N   UNL A   1      44.538  29.821  28.158  1.00  0.00    -0.354 N 
ATOM     49  N   UNL A   1      47.334  29.520  27.308  1.00  0.00    -0.248 NA
ATOM     50  C   UNL A   1      49.486  30.389  27.042  1.00  0.00    -0.034 C 
ATOM     51  C   UNL A   1      43.928  31.750  29.077  1.00  0.00    -0.036 A 
ATOM     52  H   UNL A   1      41.887  31.115  29.455  1.00  0.00     0.065 H 
ATOM     53  C   UNL A   1      45.004  31.074  28.525  1.00  0.00     0.049 A 
ATOM     54  H   UNL A   1      45.081  29.120  27.729  1.00  0.00     0.167 HD
ATOM     55  C   UNL A   1      47.366  30.813  27.807  1.00  0.00     0.074 A 
ATOM     56  C   UNL A   1      48.723  31.292  27.642  1.00  0.00    -0.034 C 
ATOM     57  H   UNL A   1      50.479  30.452  26.766  1.00  0.00     0.065 H 
ATOM     58  H   UNL A   1      43.940  32.721  29.429  1.00  0.00     0.065 H 
ATOM     59  C   UNL A   1      46.357  31.537  28.349  1.00  0.00     0.037 A 
ATOM     60  H   UNL A   1      49.054  32.220  27.951  1.00  0.00     0.065 H 
BRANCH  41  61
ATOM     61  C   UNL A   1      40.945  28.576  28.632  1.00  0.00     0.064 A 
ATOM     62  C   UNL A   1      39.970  29.024  27.727  1.00  0.00     0.173 A 
ATOM     63  C   UNL A   1      40.529  28.239  29.928  1.00  0.00     0.173 A 
ATOM     64  F   UNL A   1      40.315  29.366  26.476  1.00  0.00    -0.203 F 
ATOM     65  C   UNL A   1      38.635  29.138  28.107  1.00  0.00     0.198 A 
ATOM     66  C   UNL A   1      39.189  28.330  30.298  1.00  0.00     0.198 A 
ATOM     67  F   UNL A   1      41.419  27.794  30.828  1.00  0.00    -0.203 F 
ATOM     68  F   UNL A   1      37.727  29.592  27.233  1.00  0.00    -0.200 F 
ATOM     69  C   UNL A   1      38.245  28.787  29.390  1.00  0.00     0.200 A 
ATOM     70  F   UNL A   1      38.810  27.969  31.531  1.00  0.00    -0.200 F 
ATOM     71  F   UNL A   1      36.958  28.887  29.752  1.00  0.00    -0.200 F 
ENDBRANCH  41  61
BRANCH  44  72
ATOM     72  C   UNL A   1      50.511  27.900  25.852  1.00  0.00     0.064 A 
ATOM     73  C   UNL A   1      51.510  27.715  26.818  1.00  0.00     0.173 A 
ATOM     74  C   UNL A   1      50.906  28.033  24.515  1.00  0.00     0.173 A 
ATOM     75  F   UNL A   1      51.179  27.593  28.112  1.00  0.00    -0.203 F 
ATOM     76  C   UNL A   1      52.857  27.698  26.463  1.00  0.00     0.198 A 
ATOM     77  C   UNL A   1      52.253  27.990  24.159  1.00  0.00     0.198 A 
ATOM     78  F   UNL A   1      49.983  28.196  23.556  1.00  0.00    -0.203 F 
ATOM     79  F   UNL A   1      53.795  27.569  27.411  1.00  0.00    -0.200 F 
ATOM     80  C   UNL A   1      53.227  27.835  25.135  1.00  0.00     0.200 A 
ATOM     81  F   UNL A   1      52.606  28.105  22.871  1.00  0.00    -0.200 F 
ATOM     82  F   UNL A   1      54.522  27.819  24.794  1.00  0.00    -0.200 F 
ENDBRANCH  44  72
BRANCH  59  83
ATOM     83  C   UNL A   1      46.681  32.926  28.813  1.00  0.00     0.064 A 
ATOM     84  C   UNL A   1      47.075  33.159  30.140  1.00  0.00     0.173 A 
ATOM     85  C   UNL A   1      46.548  34.031  27.961  1.00  0.00     0.173 A 
ATOM     86  F   UNL A   1      47.211  32.134  30.994  1.00  0.00    -0.203 F 
ATOM     87  C   UNL A   1      47.315  34.451  30.597  1.00  0.00     0.198 A 
ATOM     88  C   UNL A   1      46.812  35.320  28.416  1.00  0.00     0.198 A 
ATOM     89  F   UNL A   1      46.187  33.856  26.680  1.00  0.00    -0.203 F 
ATOM     90  F   UNL A   1      47.667  34.652  31.875  1.00  0.00    -0.200 F 
ATOM     91  C   UNL A   1      47.187  35.529  29.735  1.00  0.00     0.200 A 
ATOM     92  F   UNL A   1      46.711  36.359  27.576  1.00  0.00    -0.200 F 
ATOM     93  F   UNL A   1      47.431  36.772  30.174  1.00  0.00    -0.200 F 
ENDBRANCH  59  83
ENDBRANCH  24  27
ENDBRANCH  15  17
ENDBRANCH  10  13
ENDBRANCH   7  10
ENDBRANCH   4   7
ENDBRANCH   1   4
BRANCH   1  94
ATOM     94  C   UNL A   1      39.706  22.912  26.927  1.00  0.00    -0.036 C 
ATOM     95  H   UNL A   1      40.091  23.897  27.090  1.00  0.00     0.028 H 
ATOM     96  H   UNL A   1      39.461  22.390  27.828  1.00  0.00     0.028 H 
BRANCH  94  97
ATOM     97  C   UNL A   1      38.404  23.039  26.148  1.00  0.00     0.017 C 
ATOM     98  H   UNL A   1      38.605  23.536  25.222  1.00  0.00     0.049 H 
ATOM     99  H   UNL A   1      37.718  23.597  26.750  1.00  0.00     0.049 H 
BRANCH  97 100
ATOM    100  N   UNL A   1      37.804  21.755  25.867  1.00  0.00    -0.354 N 
ATOM    101  C   UNL A   1      36.695  21.431  25.149  1.00  0.00     0.244 C 
ATOM    102  H   UNL A   1      38.276  20.987  26.260  1.00  0.00     0.163 HD
ATOM    103  O   UNL A   1      36.387  20.236  25.120  1.00  0.00    -0.273 OA
BRANCH 101 104
ATOM    104  C   UNL A   1      35.807  22.489  24.476  1.00  0.00     0.131 C 
ATOM    105  H   UNL A   1      35.118  21.958  23.853  1.00  0.00     0.066 H 
BRANCH 104 106
ATOM    106  N   UNL A   1      35.070  23.234  25.499  1.00  0.00    -0.340 N 
ATOM    107  C   UNL A   1      33.758  23.570  25.634  1.00  0.00     0.243 C 
ATOM    108  H   UNL A   1      35.637  23.556  26.236  1.00  0.00     0.164 HD
ATOM    109  O   UNL A   1      33.515  24.251  26.638  1.00  0.00    -0.273 OA
BRANCH 107 110
ATOM    110  C   UNL A   1      32.684  23.347  24.533  1.00  0.00     0.112 C 
ATOM    111  H   UNL A   1      32.101  24.243  24.587  1.00  0.00     0.064 H 
BRANCH 110 112
ATOM    112  N   UNL A   1      33.121  23.342  23.137  1.00  0.00    -0.340 N 
ATOM    113  C   UNL A   1      33.011  24.234  22.103  1.00  0.00     0.251 C 
ATOM    114  H   UNL A   1      33.600  22.519  22.887  1.00  0.00     0.164 HD
ATOM    115  O   UNL A   1      33.241  23.803  20.971  1.00  0.00    -0.269 OA
BRANCH 113 116
ATOM    116  C   UNL A   1      32.688  25.687  22.249  1.00  0.00     0.040 A 
ATOM    117  C   UNL A   1      31.436  26.260  21.996  1.00  0.00    -0.047 A 
ATOM    118  C   UNL A   1      33.682  26.500  22.825  1.00  0.00    -0.047 A 
ATOM    119  C   UNL A   1      31.182  27.601  22.306  1.00  0.00    -0.026 A 
ATOM    120  H   UNL A   1      30.689  25.685  21.575  1.00  0.00     0.063 H 
ATOM    121  C   UNL A   1      33.430  27.839  23.139  1.00  0.00    -0.026 A 
ATOM    122  H   UNL A   1      34.614  26.101  23.020  1.00  0.00     0.063 H 
ATOM    123  C   UNL A   1      32.179  28.377  22.879  1.00  0.00     0.123 A 
ATOM    124  H   UNL A   1      30.256  28.011  22.109  1.00  0.00     0.065 H 
ATOM    125  H   UNL A   1      34.170  28.423  23.561  1.00  0.00     0.065 H 
ATOM    126  F   UNL A   1      31.922  29.651  23.201  1.00  0.00    -0.207 F 
ENDBRANCH 113 116
ENDBRANCH 110 112
BRANCH 110 127
ATOM    127  C   UNL A   1      31.820  22.108  24.855  1.00  0.00     0.004 C 
ATOM    128  H   UNL A   1      31.084  22.038  24.081  1.00  0.00     0.034 H 
ATOM    129  H   UNL A   1      31.477  22.302  25.849  1.00  0.00     0.034 H 
BRANCH 127 130
ATOM    130  C   UNL A   1      32.457  20.743  24.972  1.00  0.00    -0.020 A 
ATOM    131  C   UNL A   1      33.093  20.335  26.135  1.00  0.00     0.005 A 
ATOM    132  C   UNL A   1      32.603  19.656  24.035  1.00  0.00     0.003 A 
ATOM    133  N   UNL A   1      33.595  19.081  25.954  1.00  0.00    -0.361 N 
ATOM    134  H   UNL A   1      33.174  20.894  27.000  1.00  0.00     0.082 H 
ATOM    135  C   UNL A   1      33.312  18.639  24.686  1.00  0.00     0.046 A 
ATOM    136  C   UNL A   1      32.212  19.407  22.701  1.00  0.00    -0.053 A 
ATOM    137  H   UNL A   1      34.088  18.568  26.634  1.00  0.00     0.166 HD
ATOM    138  C   UNL A   1      33.637  17.416  24.085  1.00  0.00    -0.038 A 
ATOM    139  C   UNL A   1      32.520  18.186  22.085  1.00  0.00    -0.062 A 
ATOM    140  H   UNL A   1      31.696  20.130  22.175  1.00  0.00     0.063 H 
ATOM    141  C   UNL A   1      33.225  17.204  22.770  1.00  0.00    -0.060 A 
ATOM    142  H   UNL A   1      34.165  16.693  24.600  1.00  0.00     0.064 H 
ATOM    143  H   UNL A   1      32.220  18.014  21.113  1.00  0.00     0.062 H 
ATOM    144  H   UNL A   1      33.445  16.312  22.302  1.00  0.00     0.062 H 
ENDBRANCH 127 130
ENDBRANCH 110 127
ENDBRANCH 107 110
ENDBRANCH 104 106
BRANCH 104 145
ATOM    145  C   UNL A   1      36.539  23.419  23.494  1.00  0.00     0.072 C 
ATOM    146  H   UNL A   1      37.458  23.735  23.942  1.00  0.00     0.059 H 
ATOM    147  H   UNL A   1      35.895  24.248  23.289  1.00  0.00     0.059 H 
BRANCH 145 148
ATOM    148  O   UNL A   1      36.831  22.779  22.257  1.00  0.00    -0.394 OA
ATOM    149  H   UNL A   1      37.684  22.324  22.321  1.00  0.00     0.210 HD
ENDBRANCH 145 148
ENDBRANCH 104 145
ENDBRANCH 101 104
ENDBRANCH  97 100
ENDBRANCH  94  97
ENDBRANCH   1  94
TORSDOF 21
ENDMDL
MODEL 10
REMARK VINA RESULT:     -11.3      4.877      9.243
REMARK SMILES O=C(NCCCCCCNC(=O)[C@H](CO)NC(=O)[C@H](Cc1c[nH]c2ccccc12)NC(=O)c1ccc(F)cc1)c1ccc(-c2c3nc(c(-c4c(F)c(F)c(F)c(F)c4F)c4ccc([nH]4)c(-c4c(F)c(F)c(F)c(F)c4F)c4nc(c(-c5c(F)c(F)c(F)c(F)c5F)c5ccc2[nH]5)C=C4)C=C3)cc1
REMARK SMILES IDX 7 1 6 4 5 7 4 10 3 13 1 14 2 15 40 17 41 18 102 19 42 20
REMARK SMILES IDX 101 22 43 24 44 27 45 28 95 29 46 30 100 31 94 32 96 33
REMARK SMILES IDX 47 34 99 35 93 37 92 39 48 41 80 44 60 45 79 46 61 47 64 48
REMARK SMILES IDX 78 49 97 50 62 51 63 53 77 55 98 56 65 59 49 61 50 62 58 63
REMARK SMILES IDX 51 64 52 65 56 66 59 67 53 68 54 69 57 70 55 71 81 72 82 73
REMARK SMILES IDX 90 74 83 75 84 76 88 77 91 78 85 79 86 80 89 81 87 82 66 83
REMARK SMILES IDX 67 84 75 85 68 86 69 87 73 88 76 89 70 90 71 91 74 92 72 93
REMARK SMILES IDX 8 94 9 97 10 100 11 101 12 103 13 104 16 106 17 107 18 109
REMARK SMILES IDX 19 110 30 112 31 113 32 115 33 116 34 117 39 118 35 119
REMARK SMILES IDX 38 121 36 123 37 126 20 127 21 130 22 131 29 132 23 133
REMARK SMILES IDX 24 135 28 136 25 138 27 139 26 141 14 145 15 148
REMARK H PARENT 7 2 7 3 6 5 6 6 5 8 5 9 4 11 4 12 3 16 41 21 102 23 42 25
REMARK H PARENT 101 26 100 36 94 38 96 40 99 42 93 43 61 52 64 54 97 57 62 58
REMARK H PARENT 98 60 8 95 8 96 9 98 9 99 10 102 13 105 16 108 19 111 30 114
REMARK H PARENT 34 120 39 122 35 124 38 125 20 128 20 129 22 134 23 137 28 140
REMARK H PARENT 25 142 27 143 26 144 14 146 14 147 15 149
REMARK Flexibility Score: inf
ROOT
ATOM      1  C   UNL A   1      31.725  29.551  26.456  1.00  0.00    -0.052 C 
ATOM      2  H   UNL A   1      32.166  29.204  25.545  1.00  0.00     0.027 H 
ATOM      3  H   UNL A   1      30.781  30.039  26.336  1.00  0.00     0.027 H 
ENDROOT
BRANCH   1   4
ATOM      4  C   UNL A   1      32.656  30.614  27.048  1.00  0.00    -0.052 C 
ATOM      5  H   UNL A   1      32.966  30.276  28.015  1.00  0.00     0.027 H 
ATOM      6  H   UNL A   1      33.453  30.721  26.341  1.00  0.00     0.027 H 
BRANCH   4   7
ATOM      7  C   UNL A   1      32.066  32.013  27.210  1.00  0.00    -0.036 C 
ATOM      8  H   UNL A   1      31.343  32.157  26.435  1.00  0.00     0.028 H 
ATOM      9  H   UNL A   1      31.656  32.043  28.199  1.00  0.00     0.028 H 
BRANCH   7  10
ATOM     10  C   UNL A   1      33.059  33.165  27.141  1.00  0.00     0.018 C 
ATOM     11  H   UNL A   1      33.957  32.868  27.639  1.00  0.00     0.049 H 
ATOM     12  H   UNL A   1      33.216  33.379  26.105  1.00  0.00     0.049 H 
BRANCH  10  13
ATOM     13  N   UNL A   1      32.578  34.389  27.757  1.00  0.00    -0.352 N 
ATOM     14  O   UNL A   1      32.486  36.026  29.313  1.00  0.00    -0.269 OA
ATOM     15  C   UNL A   1      33.056  35.031  28.874  1.00  0.00     0.251 C 
ATOM     16  H   UNL A   1      31.807  34.814  27.317  1.00  0.00     0.163 HD
BRANCH  15  17
ATOM     17  C   UNL A   1      34.239  34.488  29.575  1.00  0.00     0.039 A 
ATOM     18  C   UNL A   1      35.529  34.735  29.099  1.00  0.00    -0.049 A 
ATOM     19  C   UNL A   1      34.048  33.692  30.709  1.00  0.00    -0.049 A 
ATOM     20  C   UNL A   1      36.609  34.062  29.660  1.00  0.00    -0.053 A 
ATOM     21  H   UNL A   1      35.680  35.414  28.336  1.00  0.00     0.063 H 
ATOM     22  C   UNL A   1      35.146  33.086  31.324  1.00  0.00    -0.053 A 
ATOM     23  H   UNL A   1      33.098  33.554  31.089  1.00  0.00     0.063 H 
ATOM     24  C   UNL A   1      36.430  33.233  30.781  1.00  0.00    -0.014 A 
ATOM     25  H   UNL A   1      37.549  34.171  29.248  1.00  0.00     0.063 H 
ATOM     26  H   UNL A   1      35.010  32.527  32.181  1.00  0.00     0.063 H 
BRANCH  24  27
ATOM     27  C   UNL A   1      37.612  32.570  31.386  1.00  0.00     0.031 A 
ATOM     28  C   UNL A   1      38.086  32.928  32.767  1.00  0.00     0.074 A 
ATOM     29  C   UNL A   1      38.232  31.598  30.691  1.00  0.00     0.049 A 
ATOM     30  N   UNL A   1      39.074  32.416  33.456  1.00  0.00    -0.248 NA
ATOM     31  C   UNL A   1      37.364  34.004  33.464  1.00  0.00    -0.034 C 
ATOM     32  C   UNL A   1      37.865  31.172  29.339  1.00  0.00    -0.036 A 
ATOM     33  N   UNL A   1      39.274  30.773  31.029  1.00  0.00    -0.354 N 
ATOM     34  C   UNL A   1      39.105  33.115  34.656  1.00  0.00     0.074 A 
ATOM     35  C   UNL A   1      38.051  34.105  34.594  1.00  0.00    -0.034 C 
ATOM     36  H   UNL A   1      36.538  34.539  33.154  1.00  0.00     0.065 H 
ATOM     37  C   UNL A   1      38.626  30.126  28.987  1.00  0.00    -0.036 A 
ATOM     38  H   UNL A   1      37.138  31.607  28.752  1.00  0.00     0.065 H 
ATOM     39  C   UNL A   1      39.572  29.846  30.062  1.00  0.00     0.049 A 
ATOM     40  H   UNL A   1      39.761  30.841  31.882  1.00  0.00     0.167 HD
ATOM     41  C   UNL A   1      39.931  32.935  35.716  1.00  0.00     0.037 A 
ATOM     42  H   UNL A   1      37.860  34.799  35.332  1.00  0.00     0.065 H 
ATOM     43  H   UNL A   1      38.554  29.604  28.100  1.00  0.00     0.065 H 
ATOM     44  C   UNL A   1      40.505  28.877  30.039  1.00  0.00     0.037 A 
ATOM     45  C   UNL A   1      40.967  31.937  35.778  1.00  0.00     0.049 A 
ATOM     46  C   UNL A   1      41.411  28.704  31.221  1.00  0.00     0.074 A 
ATOM     47  C   UNL A   1      41.846  31.669  36.814  1.00  0.00    -0.036 A 
ATOM     48  N   UNL A   1      41.262  31.038  34.764  1.00  0.00    -0.354 N 
ATOM     49  N   UNL A   1      41.425  29.368  32.352  1.00  0.00    -0.248 NA
ATOM     50  C   UNL A   1      42.434  27.655  31.126  1.00  0.00    -0.034 C 
ATOM     51  C   UNL A   1      42.696  30.634  36.412  1.00  0.00    -0.036 A 
ATOM     52  H   UNL A   1      41.870  32.151  37.726  1.00  0.00     0.065 H 
ATOM     53  C   UNL A   1      42.319  30.224  35.144  1.00  0.00     0.049 A 
ATOM     54  H   UNL A   1      40.792  30.985  33.900  1.00  0.00     0.167 HD
ATOM     55  C   UNL A   1      42.449  28.815  33.104  1.00  0.00     0.074 A 
ATOM     56  C   UNL A   1      43.021  27.746  32.312  1.00  0.00    -0.034 C 
ATOM     57  H   UNL A   1      42.640  27.015  30.343  1.00  0.00     0.065 H 
ATOM     58  H   UNL A   1      43.474  30.241  36.967  1.00  0.00     0.065 H 
ATOM     59  C   UNL A   1      42.879  29.167  34.340  1.00  0.00     0.037 A 
ATOM     60  H   UNL A   1      43.789  27.133  32.629  1.00  0.00     0.065 H 
BRANCH  41  61
ATOM     61  C   UNL A   1      39.759  33.843  36.898  1.00  0.00     0.064 A 
ATOM     62  C   UNL A   1      38.916  33.478  37.960  1.00  0.00     0.173 A 
ATOM     63  C   UNL A   1      40.374  35.103  36.953  1.00  0.00     0.173 A 
ATOM     64  F   UNL A   1      38.297  32.287  37.952  1.00  0.00    -0.203 F 
ATOM     65  C   UNL A   1      38.691  34.343  39.027  1.00  0.00     0.198 A 
ATOM     66  C   UNL A   1      40.167  35.955  38.035  1.00  0.00     0.198 A 
ATOM     67  F   UNL A   1      41.198  35.495  35.970  1.00  0.00    -0.203 F 
ATOM     68  F   UNL A   1      37.862  33.983  40.017  1.00  0.00    -0.200 F 
ATOM     69  C   UNL A   1      39.320  35.578  39.067  1.00  0.00     0.200 A 
ATOM     70  F   UNL A   1      40.793  37.139  38.083  1.00  0.00    -0.200 F 
ATOM     71  F   UNL A   1      39.111  36.405  40.101  1.00  0.00    -0.200 F 
ENDBRANCH  41  61
BRANCH  44  72
ATOM     72  C   UNL A   1      40.596  27.990  28.852  1.00  0.00     0.064 A 
ATOM     73  C   UNL A   1      41.404  28.323  27.756  1.00  0.00     0.173 A 
ATOM     74  C   UNL A   1      39.820  26.827  28.767  1.00  0.00     0.173 A 
ATOM     75  F   UNL A   1      42.157  29.432  27.789  1.00  0.00    -0.203 F 
ATOM     76  C   UNL A   1      41.409  27.540  26.604  1.00  0.00     0.198 A 
ATOM     77  C   UNL A   1      39.846  26.031  27.623  1.00  0.00     0.198 A 
ATOM     78  F   UNL A   1      39.044  26.462  29.798  1.00  0.00    -0.203 F 
ATOM     79  F   UNL A   1      42.153  27.906  25.551  1.00  0.00    -0.200 F 
ATOM     80  C   UNL A   1      40.631  26.394  26.539  1.00  0.00     0.200 A 
ATOM     81  F   UNL A   1      39.106  24.915  27.571  1.00  0.00    -0.200 F 
ATOM     82  F   UNL A   1      40.635  25.642  25.431  1.00  0.00    -0.200 F 
ENDBRANCH  44  72
BRANCH  59  83
ATOM     83  C   UNL A   1      44.020  28.386  34.920  1.00  0.00     0.064 A 
ATOM     84  C   UNL A   1      45.346  28.774  34.674  1.00  0.00     0.173 A 
ATOM     85  C   UNL A   1      43.801  27.222  35.671  1.00  0.00     0.173 A 
ATOM     86  F   UNL A   1      45.605  29.877  33.957  1.00  0.00    -0.203 F 
ATOM     87  C   UNL A   1      46.412  28.019  35.154  1.00  0.00     0.198 A 
ATOM     88  C   UNL A   1      44.871  26.483  36.169  1.00  0.00     0.198 A 
ATOM     89  F   UNL A   1      42.551  26.819  35.943  1.00  0.00    -0.203 F 
ATOM     90  F   UNL A   1      47.670  28.395  34.887  1.00  0.00    -0.200 F 
ATOM     91  C   UNL A   1      46.174  26.876  35.903  1.00  0.00     0.200 A 
ATOM     92  F   UNL A   1      44.640  25.392  36.913  1.00  0.00    -0.200 F 
ATOM     93  F   UNL A   1      47.202  26.158  36.375  1.00  0.00    -0.200 F 
ENDBRANCH  59  83
ENDBRANCH  24  27
ENDBRANCH  15  17
ENDBRANCH  10  13
ENDBRANCH   7  10
ENDBRANCH   4   7
ENDBRANCH   1   4
BRANCH   1  94
ATOM     94  C   UNL A   1      31.440  28.327  27.333  1.00  0.00    -0.036 C 
ATOM     95  H   UNL A   1      30.633  28.574  27.992  1.00  0.00     0.028 H 
ATOM     96  H   UNL A   1      32.358  28.109  27.839  1.00  0.00     0.028 H 
BRANCH  94  97
ATOM     97  C   UNL A   1      31.063  27.057  26.583  1.00  0.00     0.017 C 
ATOM     98  H   UNL A   1      31.047  27.269  25.535  1.00  0.00     0.049 H 
ATOM     99  H   UNL A   1      30.102  26.745  26.933  1.00  0.00     0.049 H 
BRANCH  97 100
ATOM    100  N   UNL A   1      31.995  25.979  26.825  1.00  0.00    -0.354 N 
ATOM    101  C   UNL A   1      31.814  24.631  26.820  1.00  0.00     0.244 C 
ATOM    102  H   UNL A   1      32.913  26.269  27.028  1.00  0.00     0.163 HD
ATOM    103  O   UNL A   1      32.794  23.943  27.117  1.00  0.00    -0.273 OA
BRANCH 101 104
ATOM    104  C   UNL A   1      30.448  23.980  26.550  1.00  0.00     0.131 C 
ATOM    105  H   UNL A   1      29.719  24.584  27.047  1.00  0.00     0.066 H 
BRANCH 104 106
ATOM    106  N   UNL A   1      30.183  23.976  25.110  1.00  0.00    -0.340 N 
ATOM    107  C   UNL A   1      30.863  23.471  24.045  1.00  0.00     0.243 C 
ATOM    108  H   UNL A   1      29.345  24.431  24.863  1.00  0.00     0.164 HD
ATOM    109  O   UNL A   1      30.330  23.702  22.953  1.00  0.00    -0.273 OA
BRANCH 107 110
ATOM    110  C   UNL A   1      32.294  22.870  24.131  1.00  0.00     0.112 C 
ATOM    111  H   UNL A   1      32.701  23.351  24.996  1.00  0.00     0.064 H 
BRANCH 110 112
ATOM    112  N   UNL A   1      32.426  21.454  24.471  1.00  0.00    -0.340 N 
ATOM    113  C   UNL A   1      33.492  20.633  24.728  1.00  0.00     0.251 C 
ATOM    114  H   UNL A   1      31.559  20.990  24.530  1.00  0.00     0.164 HD
ATOM    115  O   UNL A   1      33.276  19.419  24.705  1.00  0.00    -0.269 OA
BRANCH 113 116
ATOM    116  C   UNL A   1      34.869  21.095  25.083  1.00  0.00     0.040 A 
ATOM    117  C   UNL A   1      36.051  20.415  24.763  1.00  0.00    -0.047 A 
ATOM    118  C   UNL A   1      34.979  22.380  25.646  1.00  0.00    -0.047 A 
ATOM    119  C   UNL A   1      37.303  20.996  24.999  1.00  0.00    -0.026 A 
ATOM    120  H   UNL A   1      35.998  19.471  24.348  1.00  0.00     0.063 H 
ATOM    121  C   UNL A   1      36.228  22.965  25.879  1.00  0.00    -0.026 A 
ATOM    122  H   UNL A   1      34.123  22.901  25.891  1.00  0.00     0.063 H 
ATOM    123  C   UNL A   1      37.380  22.267  25.549  1.00  0.00     0.123 A 
ATOM    124  H   UNL A   1      38.165  20.481  24.763  1.00  0.00     0.065 H 
ATOM    125  H   UNL A   1      36.292  23.908  26.294  1.00  0.00     0.065 H 
ATOM    126  F   UNL A   1      38.578  22.830  25.745  1.00  0.00    -0.207 F 
ENDBRANCH 113 116
ENDBRANCH 110 112
BRANCH 110 127
ATOM    127  C   UNL A   1      33.112  23.222  22.869  1.00  0.00     0.004 C 
ATOM    128  H   UNL A   1      32.731  22.612  22.077  1.00  0.00     0.034 H 
ATOM    129  H   UNL A   1      34.122  23.057  23.180  1.00  0.00     0.034 H 
BRANCH 127 130
ATOM    130  C   UNL A   1      33.141  24.641  22.350  1.00  0.00    -0.020 A 
ATOM    131  C   UNL A   1      32.838  24.938  21.030  1.00  0.00     0.005 A 
ATOM    132  C   UNL A   1      33.486  25.896  22.972  1.00  0.00     0.003 A 
ATOM    133  N   UNL A   1      32.969  26.280  20.832  1.00  0.00    -0.361 N 
ATOM    134  H   UNL A   1      32.558  24.251  20.311  1.00  0.00     0.082 H 
ATOM    135  C   UNL A   1      33.360  26.891  21.996  1.00  0.00     0.046 A 
ATOM    136  C   UNL A   1      33.888  26.313  24.261  1.00  0.00    -0.053 A 
ATOM    137  H   UNL A   1      32.805  26.743  19.979  1.00  0.00     0.166 HD
ATOM    138  C   UNL A   1      33.608  28.249  22.240  1.00  0.00    -0.038 A 
ATOM    139  C   UNL A   1      34.132  27.667  24.527  1.00  0.00    -0.062 A 
ATOM    140  H   UNL A   1      34.004  25.614  25.012  1.00  0.00     0.063 H 
ATOM    141  C   UNL A   1      33.994  28.622  23.527  1.00  0.00    -0.060 A 
ATOM    142  H   UNL A   1      33.508  28.951  21.490  1.00  0.00     0.064 H 
ATOM    143  H   UNL A   1      34.416  27.959  25.474  1.00  0.00     0.062 H 
ATOM    144  H   UNL A   1      34.179  29.614  23.739  1.00  0.00     0.062 H 
ENDBRANCH 127 130
ENDBRANCH 110 127
ENDBRANCH 107 110
ENDBRANCH 104 106
BRANCH 104 145
ATOM    145  C   UNL A   1      30.259  22.591  27.180  1.00  0.00     0.072 C 
ATOM    146  H   UNL A   1      30.302  22.688  28.245  1.00  0.00     0.059 H 
ATOM    147  H   UNL A   1      31.037  21.957  26.810  1.00  0.00     0.059 H 
BRANCH 145 148
ATOM    148  O   UNL A   1      29.013  22.000  26.826  1.00  0.00    -0.394 OA
ATOM    149  H   UNL A   1      29.117  21.491  26.008  1.00  0.00     0.210 HD
ENDBRANCH 145 148
ENDBRANCH 104 145
ENDBRANCH 101 104
ENDBRANCH  97 100
ENDBRANCH  94  97
ENDBRANCH   1  94
TORSDOF 21
ENDMDL
