MODEL 1
REMARK VINA RESULT:     -12.0      0.000      0.000
REMARK SMILES C[C@@H](C(=O)NCCCCCCNC(=O)c1ccc(-c2c3nc(c(-c4c(F)c(F)c(F)c(F)c4F)c4ccc([nH]4)c(-c4c(F)c(F)c(F)c(F)c4F)c4nc(c(-c5c(F)c(F)c(F)c(F)c5F)c5ccc2[nH]5)C=C4)C=C3)cc1)c1ccc(Cc2ccco2)cc1F
REMARK SMILES IDX 8 1 7 4 6 7 5 10 3 11 4 12 2 14 1 16 78 20 79 21 89 22 80 23
REMARK SMILES IDX 88 25 90 26 81 27 82 30 83 33 84 34 87 35 85 36 86 38 9 41
REMARK SMILES IDX 10 44 11 47 12 50 13 51 14 53 15 54 16 55 77 56 17 57 76 59
REMARK SMILES IDX 18 61 19 64 20 65 70 66 21 67 75 68 69 69 71 70 22 71 74 72
REMARK SMILES IDX 68 74 67 76 23 78 55 81 35 82 54 83 36 84 39 85 53 86 72 87
REMARK SMILES IDX 37 88 38 90 52 92 73 93 40 96 24 98 25 99 33 100 26 101
REMARK SMILES IDX 27 102 31 103 34 104 28 105 29 106 32 107 30 108 56 109
REMARK SMILES IDX 57 110 65 111 58 112 59 113 63 114 66 115 60 116 61 117
REMARK SMILES IDX 64 118 62 119 41 120 42 121 50 122 43 123 44 124 48 125
REMARK SMILES IDX 51 126 45 127 46 128 49 129 47 130
REMARK H PARENT 8 2 8 3 7 5 7 6 6 8 6 9 5 13 2 15 1 17 1 18 1 19 79 24 80 28
REMARK H PARENT 88 29 82 31 82 32 84 37 85 39 86 40 9 42 9 43 10 45 10 46
REMARK H PARENT 11 48 11 49 12 52 16 58 77 60 17 62 76 63 75 73 69 75 71 77
REMARK H PARENT 74 79 68 80 36 89 39 91 72 94 37 95 73 97
REMARK Flexibility Score: inf
ROOT
ATOM      1  C   UNL A   1      32.294  29.732  26.250  1.00  0.00    -0.052 C 
ATOM      2  H   UNL A   1      32.770  30.223  27.073  1.00  0.00     0.027 H 
ATOM      3  H   UNL A   1      31.768  28.842  26.525  1.00  0.00     0.027 H 
ENDROOT
BRANCH   1   4
ATOM      4  C   UNL A   1      33.385  29.290  25.266  1.00  0.00    -0.036 C 
ATOM      5  H   UNL A   1      33.110  29.628  24.289  1.00  0.00     0.028 H 
ATOM      6  H   UNL A   1      34.301  29.719  25.615  1.00  0.00     0.028 H 
BRANCH   4   7
ATOM      7  C   UNL A   1      33.609  27.778  25.204  1.00  0.00     0.017 C 
ATOM      8  H   UNL A   1      34.394  27.513  25.881  1.00  0.00     0.049 H 
ATOM      9  H   UNL A   1      32.696  27.289  25.475  1.00  0.00     0.049 H 
BRANCH   7  10
ATOM     10  N   UNL A   1      33.975  27.357  23.869  1.00  0.00    -0.356 N 
ATOM     11  C   UNL A   1      33.390  26.456  23.027  1.00  0.00     0.227 C 
ATOM     12  O   UNL A   1      33.929  26.310  21.928  1.00  0.00    -0.274 OA
ATOM     13  H   UNL A   1      34.780  27.794  23.507  1.00  0.00     0.163 HD
BRANCH  11  14
ATOM     14  C   UNL A   1      32.086  25.750  23.433  1.00  0.00     0.063 C 
ATOM     15  H   UNL A   1      32.217  25.523  24.469  1.00  0.00     0.045 H 
BRANCH  14  16
ATOM     16  C   UNL A   1      31.843  24.428  22.696  1.00  0.00    -0.049 C 
ATOM     17  H   UNL A   1      31.900  23.617  23.391  1.00  0.00     0.024 H 
ATOM     18  H   UNL A   1      32.588  24.300  21.938  1.00  0.00     0.024 H 
ATOM     19  H   UNL A   1      30.874  24.444  22.245  1.00  0.00     0.024 H 
ENDBRANCH  14  16
BRANCH  14  20
ATOM     20  C   UNL A   1      30.869  26.651  23.266  1.00  0.00    -0.000 A 
ATOM     21  C   UNL A   1      30.941  27.803  22.472  1.00  0.00    -0.055 A 
ATOM     22  C   UNL A   1      29.658  26.367  23.912  1.00  0.00     0.127 A 
ATOM     23  C   UNL A   1      29.837  28.653  22.355  1.00  0.00    -0.058 A 
ATOM     24  H   UNL A   1      31.815  28.026  21.971  1.00  0.00     0.063 H 
ATOM     25  C   UNL A   1      28.559  27.216  23.808  1.00  0.00    -0.022 A 
ATOM     26  F   UNL A   1      29.543  25.272  24.676  1.00  0.00    -0.207 F 
ATOM     27  C   UNL A   1      28.640  28.378  23.033  1.00  0.00    -0.038 A 
ATOM     28  H   UNL A   1      29.904  29.495  21.761  1.00  0.00     0.063 H 
ATOM     29  H   UNL A   1      27.683  26.986  24.302  1.00  0.00     0.066 H 
BRANCH  27  30
ATOM     30  C   UNL A   1      27.467  29.328  22.952  1.00  0.00     0.031 C 
ATOM     31  H   UNL A   1      26.919  29.272  23.869  1.00  0.00     0.040 H 
ATOM     32  H   UNL A   1      26.875  29.031  22.111  1.00  0.00     0.040 H 
BRANCH  30  33
ATOM     33  C   UNL A   1      27.874  30.745  22.729  1.00  0.00     0.108 A 
ATOM     34  C   UNL A   1      28.356  31.740  23.556  1.00  0.00    -0.020 A 
ATOM     35  O   UNL A   1      27.799  31.208  21.447  1.00  0.00    -0.469 OA
ATOM     36  C   UNL A   1      28.580  32.872  22.737  1.00  0.00    -0.024 A 
ATOM     37  H   UNL A   1      28.522  31.671  24.573  1.00  0.00     0.066 H 
ATOM     38  C   UNL A   1      28.227  32.496  21.463  1.00  0.00     0.091 A 
ATOM     39  H   UNL A   1      28.935  33.793  23.037  1.00  0.00     0.066 H 
ATOM     40  H   UNL A   1      28.281  33.109  20.634  1.00  0.00     0.104 H 
ENDBRANCH  30  33
ENDBRANCH  27  30
ENDBRANCH  14  20
ENDBRANCH  11  14
ENDBRANCH   7  10
ENDBRANCH   4   7
ENDBRANCH   1   4
BRANCH   1  41
ATOM     41  C   UNL A   1      31.239  30.685  25.677  1.00  0.00    -0.052 C 
ATOM     42  H   UNL A   1      30.287  30.202  25.743  1.00  0.00     0.027 H 
ATOM     43  H   UNL A   1      31.544  30.896  24.674  1.00  0.00     0.027 H 
BRANCH  41  44
ATOM     44  C   UNL A   1      31.131  32.040  26.381  1.00  0.00    -0.036 C 
ATOM     45  H   UNL A   1      30.360  31.971  27.119  1.00  0.00     0.028 H 
ATOM     46  H   UNL A   1      30.923  32.759  25.616  1.00  0.00     0.028 H 
BRANCH  44  47
ATOM     47  C   UNL A   1      32.408  32.507  27.071  1.00  0.00     0.018 C 
ATOM     48  H   UNL A   1      33.231  32.372  26.399  1.00  0.00     0.049 H 
ATOM     49  H   UNL A   1      32.531  31.926  27.961  1.00  0.00     0.049 H 
BRANCH  47  50
ATOM     50  N   UNL A   1      32.347  33.905  27.459  1.00  0.00    -0.352 N 
ATOM     51  C   UNL A   1      33.078  34.576  28.404  1.00  0.00     0.251 C 
ATOM     52  H   UNL A   1      31.684  34.449  26.974  1.00  0.00     0.163 HD
ATOM     53  O   UNL A   1      32.773  35.727  28.714  1.00  0.00    -0.269 OA
BRANCH  51  54
ATOM     54  C   UNL A   1      34.228  33.923  29.067  1.00  0.00     0.039 A 
ATOM     55  C   UNL A   1      35.520  34.334  28.726  1.00  0.00    -0.049 A 
ATOM     56  C   UNL A   1      34.045  32.881  29.980  1.00  0.00    -0.049 A 
ATOM     57  C   UNL A   1      36.626  33.720  29.318  1.00  0.00    -0.053 A 
ATOM     58  H   UNL A   1      35.658  35.090  28.037  1.00  0.00     0.063 H 
ATOM     59  C   UNL A   1      35.145  32.314  30.622  1.00  0.00    -0.053 A 
ATOM     60  H   UNL A   1      33.094  32.531  30.181  1.00  0.00     0.063 H 
ATOM     61  C   UNL A   1      36.446  32.712  30.280  1.00  0.00    -0.014 A 
ATOM     62  H   UNL A   1      37.579  34.008  29.049  1.00  0.00     0.063 H 
ATOM     63  H   UNL A   1      35.001  31.599  31.351  1.00  0.00     0.063 H 
BRANCH  61  64
ATOM     64  C   UNL A   1      37.611  32.027  30.892  1.00  0.00     0.031 A 
ATOM     65  C   UNL A   1      38.048  32.393  32.285  1.00  0.00     0.074 A 
ATOM     66  C   UNL A   1      38.299  31.108  30.187  1.00  0.00     0.049 A 
ATOM     67  N   UNL A   1      39.058  31.938  32.984  1.00  0.00    -0.248 NA
ATOM     68  C   UNL A   1      37.261  33.427  32.972  1.00  0.00    -0.034 C 
ATOM     69  C   UNL A   1      38.002  30.700  28.814  1.00  0.00    -0.036 A 
ATOM     70  N   UNL A   1      39.393  30.356  30.530  1.00  0.00    -0.354 N 
ATOM     71  C   UNL A   1      39.040  32.648  34.178  1.00  0.00     0.074 A 
ATOM     72  C   UNL A   1      37.951  33.595  34.092  1.00  0.00    -0.034 C 
ATOM     73  H   UNL A   1      36.397  33.900  32.664  1.00  0.00     0.065 H 
ATOM     74  C   UNL A   1      38.876  29.752  28.440  1.00  0.00    -0.036 A 
ATOM     75  H   UNL A   1      37.244  31.081  28.227  1.00  0.00     0.065 H 
ATOM     76  C   UNL A   1      39.809  29.504  29.536  1.00  0.00     0.049 A 
ATOM     77  H   UNL A   1      39.839  30.420  31.405  1.00  0.00     0.167 HD
ATOM     78  C   UNL A   1      39.845  32.506  35.258  1.00  0.00     0.037 A 
ATOM     79  H   UNL A   1      37.739  34.307  34.807  1.00  0.00     0.065 H 
ATOM     80  H   UNL A   1      38.887  29.275  27.525  1.00  0.00     0.065 H 
ATOM     81  C   UNL A   1      40.823  28.619  29.518  1.00  0.00     0.037 A 
ATOM     82  C   UNL A   1      40.898  31.532  35.360  1.00  0.00     0.049 A 
ATOM     83  C   UNL A   1      41.681  28.456  30.744  1.00  0.00     0.074 A 
ATOM     84  C   UNL A   1      41.726  31.262  36.436  1.00  0.00    -0.036 A 
ATOM     85  N   UNL A   1      41.265  30.661  34.345  1.00  0.00    -0.354 N 
ATOM     86  N   UNL A   1      41.612  29.085  31.892  1.00  0.00    -0.248 NA
ATOM     87  C   UNL A   1      42.750  27.450  30.674  1.00  0.00    -0.034 C 
ATOM     88  C   UNL A   1      42.616  30.251  36.060  1.00  0.00    -0.036 A 
ATOM     89  H   UNL A   1      41.693  31.728  37.356  1.00  0.00     0.065 H 
ATOM     90  C   UNL A   1      42.315  29.860  34.765  1.00  0.00     0.049 A 
ATOM     91  H   UNL A   1      40.841  30.617  33.457  1.00  0.00     0.167 HD
ATOM     92  C   UNL A   1      42.599  28.527  32.693  1.00  0.00     0.074 A 
ATOM     93  C   UNL A   1      43.250  27.504  31.901  1.00  0.00    -0.034 C 
ATOM     94  H   UNL A   1      43.036  26.859  29.879  1.00  0.00     0.065 H 
ATOM     95  H   UNL A   1      43.370  29.861  36.647  1.00  0.00     0.065 H 
ATOM     96  C   UNL A   1      42.936  28.833  33.970  1.00  0.00     0.037 A 
ATOM     97  H   UNL A   1      44.006  26.893  32.247  1.00  0.00     0.065 H 
BRANCH  78  98
ATOM     98  C   UNL A   1      39.611  33.427  36.420  1.00  0.00     0.064 A 
ATOM     99  C   UNL A   1      38.775  33.068  37.488  1.00  0.00     0.173 A 
ATOM    100  C   UNL A   1      40.252  34.674  36.479  1.00  0.00     0.173 A 
ATOM    101  F   UNL A   1      38.128  31.892  37.474  1.00  0.00    -0.203 F 
ATOM    102  C   UNL A   1      38.563  33.937  38.556  1.00  0.00     0.198 A 
ATOM    103  C   UNL A   1      40.061  35.528  37.562  1.00  0.00     0.198 A 
ATOM    104  F   UNL A   1      41.066  35.064  35.487  1.00  0.00    -0.203 F 
ATOM    105  F   UNL A   1      37.718  33.595  39.538  1.00  0.00    -0.200 F 
ATOM    106  C   UNL A   1      39.210  35.162  38.595  1.00  0.00     0.200 A 
ATOM    107  F   UNL A   1      40.696  36.706  37.605  1.00  0.00    -0.200 F 
ATOM    108  F   UNL A   1      39.008  35.996  39.624  1.00  0.00    -0.200 F 
ENDBRANCH  78  98
BRANCH  81 109
ATOM    109  C   UNL A   1      41.052  27.777  28.316  1.00  0.00     0.064 A 
ATOM    110  C   UNL A   1      41.891  28.218  27.283  1.00  0.00     0.173 A 
ATOM    111  C   UNL A   1      40.440  26.525  28.171  1.00  0.00     0.173 A 
ATOM    112  F   UNL A   1      42.482  29.419  27.369  1.00  0.00    -0.203 F 
ATOM    113  C   UNL A   1      42.091  27.449  26.139  1.00  0.00     0.198 A 
ATOM    114  C   UNL A   1      40.661  25.744  27.039  1.00  0.00     0.198 A 
ATOM    115  F   UNL A   1      39.633  26.055  29.134  1.00  0.00    -0.203 F 
ATOM    116  F   UNL A   1      42.862  27.914  25.148  1.00  0.00    -0.200 F 
ATOM    117  C   UNL A   1      41.480  26.209  26.020  1.00  0.00     0.200 A 
ATOM    118  F   UNL A   1      40.079  24.542  26.931  1.00  0.00    -0.200 F 
ATOM    119  F   UNL A   1      41.674  25.468  24.922  1.00  0.00    -0.200 F 
ENDBRANCH  81 109
BRANCH  96 120
ATOM    120  C   UNL A   1      44.021  28.017  34.608  1.00  0.00     0.064 A 
ATOM    121  C   UNL A   1      45.361  28.428  34.589  1.00  0.00     0.173 A 
ATOM    122  C   UNL A   1      43.707  26.823  35.277  1.00  0.00     0.173 A 
ATOM    123  F   UNL A   1      45.712  29.554  33.949  1.00  0.00    -0.203 F 
ATOM    124  C   UNL A   1      46.353  27.660  35.193  1.00  0.00     0.198 A 
ATOM    125  C   UNL A   1      44.697  26.072  35.903  1.00  0.00     0.198 A 
ATOM    126  F   UNL A   1      42.438  26.391  35.328  1.00  0.00    -0.203 F 
ATOM    127  F   UNL A   1      47.634  28.047  35.122  1.00  0.00    -0.200 F 
ATOM    128  C   UNL A   1      46.019  26.487  35.854  1.00  0.00     0.200 A 
ATOM    129  F   UNL A   1      44.372  24.946  36.552  1.00  0.00    -0.200 F 
ATOM    130  F   UNL A   1      46.975  25.752  36.438  1.00  0.00    -0.200 F 
ENDBRANCH  96 120
ENDBRANCH  61  64
ENDBRANCH  51  54
ENDBRANCH  47  50
ENDBRANCH  44  47
ENDBRANCH  41  44
ENDBRANCH   1  41
TORSDOF 17
ENDMDL
MODEL 2
REMARK VINA RESULT:     -11.9      0.493      1.674
REMARK SMILES C[C@@H](C(=O)NCCCCCCNC(=O)c1ccc(-c2c3nc(c(-c4c(F)c(F)c(F)c(F)c4F)c4ccc([nH]4)c(-c4c(F)c(F)c(F)c(F)c4F)c4nc(c(-c5c(F)c(F)c(F)c(F)c5F)c5ccc2[nH]5)C=C4)C=C3)cc1)c1ccc(Cc2ccco2)cc1F
REMARK SMILES IDX 8 1 7 4 6 7 5 10 3 11 4 12 2 14 1 16 78 20 79 21 89 22 80 23
REMARK SMILES IDX 88 25 90 26 81 27 82 30 83 33 84 34 87 35 85 36 86 38 9 41
REMARK SMILES IDX 10 44 11 47 12 50 13 51 14 53 15 54 16 55 77 56 17 57 76 59
REMARK SMILES IDX 18 61 19 64 20 65 70 66 21 67 75 68 69 69 71 70 22 71 74 72
REMARK SMILES IDX 68 74 67 76 23 78 55 81 35 82 54 83 36 84 39 85 53 86 72 87
REMARK SMILES IDX 37 88 38 90 52 92 73 93 40 96 24 98 25 99 33 100 26 101
REMARK SMILES IDX 27 102 31 103 34 104 28 105 29 106 32 107 30 108 56 109
REMARK SMILES IDX 57 110 65 111 58 112 59 113 63 114 66 115 60 116 61 117
REMARK SMILES IDX 64 118 62 119 41 120 42 121 50 122 43 123 44 124 48 125
REMARK SMILES IDX 51 126 45 127 46 128 49 129 47 130
REMARK H PARENT 8 2 8 3 7 5 7 6 6 8 6 9 5 13 2 15 1 17 1 18 1 19 79 24 80 28
REMARK H PARENT 88 29 82 31 82 32 84 37 85 39 86 40 9 42 9 43 10 45 10 46
REMARK H PARENT 11 48 11 49 12 52 16 58 77 60 17 62 76 63 75 73 69 75 71 77
REMARK H PARENT 74 79 68 80 36 89 39 91 72 94 37 95 73 97
REMARK Flexibility Score: inf
ROOT
ATOM      1  C   UNL A   1      32.284  29.569  26.566  1.00  0.00    -0.052 C 
ATOM      2  H   UNL A   1      33.016  29.189  25.885  1.00  0.00     0.027 H 
ATOM      3  H   UNL A   1      32.696  30.157  27.359  1.00  0.00     0.027 H 
ENDROOT
BRANCH   1   4
ATOM      4  C   UNL A   1      31.598  28.373  27.240  1.00  0.00    -0.036 C 
ATOM      5  H   UNL A   1      31.775  28.436  28.293  1.00  0.00     0.028 H 
ATOM      6  H   UNL A   1      30.560  28.434  26.985  1.00  0.00     0.028 H 
BRANCH   4   7
ATOM      7  C   UNL A   1      32.085  27.006  26.754  1.00  0.00     0.017 C 
ATOM      8  H   UNL A   1      32.472  26.458  27.587  1.00  0.00     0.049 H 
ATOM      9  H   UNL A   1      31.259  26.489  26.313  1.00  0.00     0.049 H 
BRANCH   7  10
ATOM     10  N   UNL A   1      33.124  27.145  25.756  1.00  0.00    -0.356 N 
ATOM     11  C   UNL A   1      33.213  26.650  24.488  1.00  0.00     0.227 C 
ATOM     12  O   UNL A   1      34.230  26.948  23.858  1.00  0.00    -0.274 OA
ATOM     13  H   UNL A   1      33.895  27.688  26.040  1.00  0.00     0.163 HD
BRANCH  11  14
ATOM     14  C   UNL A   1      32.050  25.844  23.888  1.00  0.00     0.063 C 
ATOM     15  H   UNL A   1      31.781  25.151  24.657  1.00  0.00     0.045 H 
BRANCH  14  16
ATOM     16  C   UNL A   1      32.437  25.031  22.647  1.00  0.00    -0.049 C 
ATOM     17  H   UNL A   1      33.502  25.015  22.548  1.00  0.00     0.024 H 
ATOM     18  H   UNL A   1      32.005  25.482  21.777  1.00  0.00     0.024 H 
ATOM     19  H   UNL A   1      32.073  24.030  22.748  1.00  0.00     0.024 H 
ENDBRANCH  14  16
BRANCH  14  20
ATOM     20  C   UNL A   1      30.849  26.722  23.561  1.00  0.00    -0.000 A 
ATOM     21  C   UNL A   1      31.006  27.880  22.789  1.00  0.00    -0.055 A 
ATOM     22  C   UNL A   1      29.568  26.411  24.035  1.00  0.00     0.127 A 
ATOM     23  C   UNL A   1      29.912  28.711  22.527  1.00  0.00    -0.058 A 
ATOM     24  H   UNL A   1      31.936  28.124  22.413  1.00  0.00     0.063 H 
ATOM     25  C   UNL A   1      28.477  27.239  23.787  1.00  0.00    -0.022 A 
ATOM     26  F   UNL A   1      29.372  25.308  24.772  1.00  0.00    -0.207 F 
ATOM     27  C   UNL A   1      28.639  28.409  23.036  1.00  0.00    -0.038 A 
ATOM     28  H   UNL A   1      30.042  29.558  21.952  1.00  0.00     0.063 H 
ATOM     29  H   UNL A   1      27.547  26.990  24.157  1.00  0.00     0.066 H 
BRANCH  27  30
ATOM     30  C   UNL A   1      27.470  29.336  22.799  1.00  0.00     0.031 C 
ATOM     31  H   UNL A   1      26.789  29.243  23.620  1.00  0.00     0.040 H 
ATOM     32  H   UNL A   1      27.020  29.052  21.871  1.00  0.00     0.040 H 
BRANCH  30  33
ATOM     33  C   UNL A   1      27.871  30.767  22.678  1.00  0.00     0.108 A 
ATOM     34  C   UNL A   1      28.269  31.726  23.589  1.00  0.00    -0.020 A 
ATOM     35  O   UNL A   1      27.894  31.291  21.418  1.00  0.00    -0.469 OA
ATOM     36  C   UNL A   1      28.541  32.899  22.845  1.00  0.00    -0.024 A 
ATOM     37  H   UNL A   1      28.352  31.610  24.611  1.00  0.00     0.066 H 
ATOM     38  C   UNL A   1      28.299  32.582  21.531  1.00  0.00     0.091 A 
ATOM     39  H   UNL A   1      28.856  33.809  23.217  1.00  0.00     0.066 H 
ATOM     40  H   UNL A   1      28.411  33.235  20.739  1.00  0.00     0.104 H 
ENDBRANCH  30  33
ENDBRANCH  27  30
ENDBRANCH  14  20
ENDBRANCH  11  14
ENDBRANCH   7  10
ENDBRANCH   4   7
ENDBRANCH   1   4
BRANCH   1  41
ATOM     41  C   UNL A   1      31.355  30.506  25.786  1.00  0.00    -0.052 C 
ATOM     42  H   UNL A   1      30.372  30.084  25.800  1.00  0.00     0.027 H 
ATOM     43  H   UNL A   1      31.773  30.587  24.804  1.00  0.00     0.027 H 
BRANCH  41  44
ATOM     44  C   UNL A   1      31.265  31.935  26.326  1.00  0.00    -0.036 C 
ATOM     45  H   UNL A   1      30.469  31.971  27.041  1.00  0.00     0.028 H 
ATOM     46  H   UNL A   1      31.101  32.567  25.478  1.00  0.00     0.028 H 
BRANCH  44  47
ATOM     47  C   UNL A   1      32.533  32.446  27.002  1.00  0.00     0.018 C 
ATOM     48  H   UNL A   1      33.342  32.385  26.304  1.00  0.00     0.049 H 
ATOM     49  H   UNL A   1      32.712  31.838  27.864  1.00  0.00     0.049 H 
BRANCH  47  50
ATOM     50  N   UNL A   1      32.404  33.822  27.449  1.00  0.00    -0.352 N 
ATOM     51  C   UNL A   1      33.088  34.481  28.437  1.00  0.00     0.251 C 
ATOM     52  H   UNL A   1      31.729  34.358  26.974  1.00  0.00     0.163 HD
ATOM     53  O   UNL A   1      32.728  35.603  28.791  1.00  0.00    -0.269 OA
BRANCH  51  54
ATOM     54  C   UNL A   1      34.252  33.847  29.096  1.00  0.00     0.039 A 
ATOM     55  C   UNL A   1      35.535  34.282  28.752  1.00  0.00    -0.049 A 
ATOM     56  C   UNL A   1      34.089  32.800  30.008  1.00  0.00    -0.049 A 
ATOM     57  C   UNL A   1      36.653  33.687  29.340  1.00  0.00    -0.053 A 
ATOM     58  H   UNL A   1      35.657  35.042  28.064  1.00  0.00     0.063 H 
ATOM     59  C   UNL A   1      35.201  32.252  30.645  1.00  0.00    -0.053 A 
ATOM     60  H   UNL A   1      33.146  32.432  30.210  1.00  0.00     0.063 H 
ATOM     61  C   UNL A   1      36.494  32.674  30.300  1.00  0.00    -0.014 A 
ATOM     62  H   UNL A   1      37.600  33.993  29.069  1.00  0.00     0.063 H 
ATOM     63  H   UNL A   1      35.073  31.533  31.373  1.00  0.00     0.063 H 
BRANCH  61  64
ATOM     64  C   UNL A   1      37.673  32.009  30.907  1.00  0.00     0.031 A 
ATOM     65  C   UNL A   1      38.113  32.387  32.296  1.00  0.00     0.074 A 
ATOM     66  C   UNL A   1      38.371  31.099  30.202  1.00  0.00     0.049 A 
ATOM     67  N   UNL A   1      39.134  31.950  32.991  1.00  0.00    -0.248 NA
ATOM     68  C   UNL A   1      37.315  33.412  32.985  1.00  0.00    -0.034 C 
ATOM     69  C   UNL A   1      38.072  30.681  28.832  1.00  0.00    -0.036 A 
ATOM     70  N   UNL A   1      39.479  30.364  30.541  1.00  0.00    -0.354 N 
ATOM     71  C   UNL A   1      39.113  32.665  34.182  1.00  0.00     0.074 A 
ATOM     72  C   UNL A   1      38.008  33.594  34.100  1.00  0.00    -0.034 C 
ATOM     73  H   UNL A   1      36.442  33.871  32.680  1.00  0.00     0.065 H 
ATOM     74  C   UNL A   1      38.958  29.745  28.457  1.00  0.00    -0.036 A 
ATOM     75  H   UNL A   1      37.304  31.048  28.249  1.00  0.00     0.065 H 
ATOM     76  C   UNL A   1      39.901  29.515  29.548  1.00  0.00     0.049 A 
ATOM     77  H   UNL A   1      39.929  30.438  31.413  1.00  0.00     0.167 HD
ATOM     78  C   UNL A   1      39.926  32.539  35.258  1.00  0.00     0.037 A 
ATOM     79  H   UNL A   1      37.790  34.306  34.813  1.00  0.00     0.065 H 
ATOM     80  H   UNL A   1      38.971  29.265  27.543  1.00  0.00     0.065 H 
ATOM     81  C   UNL A   1      40.928  28.645  29.527  1.00  0.00     0.037 A 
ATOM     82  C   UNL A   1      40.994  31.581  35.357  1.00  0.00     0.049 A 
ATOM     83  C   UNL A   1      41.796  28.501  30.748  1.00  0.00     0.074 A 
ATOM     84  C   UNL A   1      41.834  31.328  36.429  1.00  0.00    -0.036 A 
ATOM     85  N   UNL A   1      41.369  30.712  34.343  1.00  0.00    -0.354 N 
ATOM     86  N   UNL A   1      41.725  29.133  31.894  1.00  0.00    -0.248 NA
ATOM     87  C   UNL A   1      42.880  27.511  30.675  1.00  0.00    -0.034 C 
ATOM     88  C   UNL A   1      42.736  30.329  36.051  1.00  0.00    -0.036 A 
ATOM     89  H   UNL A   1      41.798  31.797  37.347  1.00  0.00     0.065 H 
ATOM     90  C   UNL A   1      42.433  29.929  34.760  1.00  0.00     0.049 A 
ATOM     91  H   UNL A   1      40.941  30.658  33.458  1.00  0.00     0.167 HD
ATOM     92  C   UNL A   1      42.725  28.592  32.690  1.00  0.00     0.074 A 
ATOM     93  C   UNL A   1      43.387  27.577  31.898  1.00  0.00    -0.034 C 
ATOM     94  H   UNL A   1      43.171  26.921  29.880  1.00  0.00     0.065 H 
ATOM     95  H   UNL A   1      43.500  29.953  36.635  1.00  0.00     0.065 H 
ATOM     96  C   UNL A   1      43.065  28.908  33.965  1.00  0.00     0.037 A 
ATOM     97  H   UNL A   1      44.154  26.979  32.243  1.00  0.00     0.065 H 
BRANCH  78  98
ATOM     98  C   UNL A   1      39.686  33.460  36.418  1.00  0.00     0.064 A 
ATOM     99  C   UNL A   1      40.317  34.710  36.510  1.00  0.00     0.173 A 
ATOM    100  C   UNL A   1      38.794  33.100  37.440  1.00  0.00     0.173 A 
ATOM    101  F   UNL A   1      41.189  35.097  35.566  1.00  0.00    -0.203 F 
ATOM    102  C   UNL A   1      40.089  35.550  37.597  1.00  0.00     0.198 A 
ATOM    103  C   UNL A   1      38.546  33.954  38.511  1.00  0.00     0.198 A 
ATOM    104  F   UNL A   1      38.160  31.918  37.399  1.00  0.00    -0.203 F 
ATOM    105  F   UNL A   1      40.744  36.715  37.690  1.00  0.00    -0.200 F 
ATOM    106  C   UNL A   1      39.200  35.174  38.593  1.00  0.00     0.200 A 
ATOM    107  F   UNL A   1      37.678  33.596  39.466  1.00  0.00    -0.200 F 
ATOM    108  F   UNL A   1      38.979  35.985  39.637  1.00  0.00    -0.200 F 
ENDBRANCH  78  98
BRANCH  81 109
ATOM    109  C   UNL A   1      41.163  27.803  28.326  1.00  0.00     0.064 A 
ATOM    110  C   UNL A   1      40.526  26.562  28.187  1.00  0.00     0.173 A 
ATOM    111  C   UNL A   1      42.025  28.214  27.300  1.00  0.00     0.173 A 
ATOM    112  F   UNL A   1      39.708  26.118  29.153  1.00  0.00    -0.203 F 
ATOM    113  C   UNL A   1      40.760  25.753  27.078  1.00  0.00     0.198 A 
ATOM    114  C   UNL A   1      42.240  27.416  26.179  1.00  0.00     0.198 A 
ATOM    115  F   UNL A   1      42.654  29.395  27.383  1.00  0.00    -0.203 F 
ATOM    116  F   UNL A   1      40.173  24.551  26.992  1.00  0.00    -0.200 F 
ATOM    117  C   UNL A   1      41.613  26.182  26.072  1.00  0.00     0.200 A 
ATOM    118  F   UNL A   1      43.054  27.838  25.203  1.00  0.00    -0.200 F 
ATOM    119  F   UNL A   1      41.837  25.405  25.004  1.00  0.00    -0.200 F 
ENDBRANCH  81 109
BRANCH  96 120
ATOM    120  C   UNL A   1      44.166  28.112  34.599  1.00  0.00     0.064 A 
ATOM    121  C   UNL A   1      45.503  28.531  34.548  1.00  0.00     0.173 A 
ATOM    122  C   UNL A   1      43.872  26.930  35.296  1.00  0.00     0.173 A 
ATOM    123  F   UNL A   1      45.836  29.646  33.881  1.00  0.00    -0.203 F 
ATOM    124  C   UNL A   1      46.510  27.780  35.150  1.00  0.00     0.198 A 
ATOM    125  C   UNL A   1      44.877  26.197  35.919  1.00  0.00     0.198 A 
ATOM    126  F   UNL A   1      42.607  26.491  35.379  1.00  0.00    -0.203 F 
ATOM    127  F   UNL A   1      47.787  28.173  35.048  1.00  0.00    -0.200 F 
ATOM    128  C   UNL A   1      46.196  26.618  35.839  1.00  0.00     0.200 A 
ATOM    129  F   UNL A   1      44.570  25.081  36.595  1.00  0.00    -0.200 F 
ATOM    130  F   UNL A   1      47.167  25.900  36.420  1.00  0.00    -0.200 F 
ENDBRANCH  96 120
ENDBRANCH  61  64
ENDBRANCH  51  54
ENDBRANCH  47  50
ENDBRANCH  44  47
ENDBRANCH  41  44
ENDBRANCH   1  41
TORSDOF 17
ENDMDL
MODEL 3
REMARK VINA RESULT:     -11.8      0.821      7.484
REMARK SMILES C[C@@H](C(=O)NCCCCCCNC(=O)c1ccc(-c2c3nc(c(-c4c(F)c(F)c(F)c(F)c4F)c4ccc([nH]4)c(-c4c(F)c(F)c(F)c(F)c4F)c4nc(c(-c5c(F)c(F)c(F)c(F)c5F)c5ccc2[nH]5)C=C4)C=C3)cc1)c1ccc(Cc2ccco2)cc1F
REMARK SMILES IDX 8 1 7 4 6 7 5 10 3 11 4 12 2 14 1 16 78 20 79 21 89 22 80 23
REMARK SMILES IDX 88 25 90 26 81 27 82 30 83 33 84 34 87 35 85 36 86 38 9 41
REMARK SMILES IDX 10 44 11 47 12 50 13 51 14 53 15 54 16 55 77 56 17 57 76 59
REMARK SMILES IDX 18 61 19 64 20 65 70 66 21 67 75 68 69 69 71 70 22 71 74 72
REMARK SMILES IDX 68 74 67 76 23 78 55 81 35 82 54 83 36 84 39 85 53 86 72 87
REMARK SMILES IDX 37 88 38 90 52 92 73 93 40 96 24 98 25 99 33 100 26 101
REMARK SMILES IDX 27 102 31 103 34 104 28 105 29 106 32 107 30 108 56 109
REMARK SMILES IDX 57 110 65 111 58 112 59 113 63 114 66 115 60 116 61 117
REMARK SMILES IDX 64 118 62 119 41 120 42 121 50 122 43 123 44 124 48 125
REMARK SMILES IDX 51 126 45 127 46 128 49 129 47 130
REMARK H PARENT 8 2 8 3 7 5 7 6 6 8 6 9 5 13 2 15 1 17 1 18 1 19 79 24 80 28
REMARK H PARENT 88 29 82 31 82 32 84 37 85 39 86 40 9 42 9 43 10 45 10 46
REMARK H PARENT 11 48 11 49 12 52 16 58 77 60 17 62 76 63 75 73 69 75 71 77
REMARK H PARENT 74 79 68 80 36 89 39 91 72 94 37 95 73 97
REMARK Flexibility Score: inf
ROOT
ATOM      1  C   UNL A   1      32.382  29.904  26.504  1.00  0.00    -0.052 C 
ATOM      2  H   UNL A   1      32.972  29.465  25.728  1.00  0.00     0.027 H 
ATOM      3  H   UNL A   1      32.943  30.517  27.178  1.00  0.00     0.027 H 
ENDROOT
BRANCH   1   4
ATOM      4  C   UNL A   1      31.798  28.768  27.355  1.00  0.00    -0.036 C 
ATOM      5  H   UNL A   1      32.224  28.832  28.335  1.00  0.00     0.028 H 
ATOM      6  H   UNL A   1      30.736  28.899  27.351  1.00  0.00     0.028 H 
BRANCH   4   7
ATOM      7  C   UNL A   1      32.065  27.364  26.809  1.00  0.00     0.017 C 
ATOM      8  H   UNL A   1      32.359  26.726  27.616  1.00  0.00     0.049 H 
ATOM      9  H   UNL A   1      31.168  27.003  26.350  1.00  0.00     0.049 H 
BRANCH   7  10
ATOM     10  N   UNL A   1      33.114  27.381  25.813  1.00  0.00    -0.356 N 
ATOM     11  C   UNL A   1      33.211  26.745  24.609  1.00  0.00     0.227 C 
ATOM     12  O   UNL A   1      34.236  26.962  23.960  1.00  0.00    -0.274 OA
ATOM     13  H   UNL A   1      33.887  27.946  26.041  1.00  0.00     0.163 HD
BRANCH  11  14
ATOM     14  C   UNL A   1      32.045  25.886  24.092  1.00  0.00     0.063 C 
ATOM     15  H   UNL A   1      31.783  25.265  24.922  1.00  0.00     0.045 H 
BRANCH  14  16
ATOM     16  C   UNL A   1      32.426  24.965  22.927  1.00  0.00    -0.049 C 
ATOM     17  H   UNL A   1      33.361  24.491  23.138  1.00  0.00     0.024 H 
ATOM     18  H   UNL A   1      32.513  25.543  22.030  1.00  0.00     0.024 H 
ATOM     19  H   UNL A   1      31.670  24.220  22.800  1.00  0.00     0.024 H 
ENDBRANCH  14  16
BRANCH  14  20
ATOM     20  C   UNL A   1      30.840  26.729  23.695  1.00  0.00    -0.000 A 
ATOM     21  C   UNL A   1      31.002  27.864  22.890  1.00  0.00    -0.055 A 
ATOM     22  C   UNL A   1      29.549  26.408  24.136  1.00  0.00     0.127 A 
ATOM     23  C   UNL A   1      29.902  28.664  22.563  1.00  0.00    -0.058 A 
ATOM     24  H   UNL A   1      31.939  28.113  22.537  1.00  0.00     0.063 H 
ATOM     25  C   UNL A   1      28.452  27.206  23.823  1.00  0.00    -0.022 A 
ATOM     26  F   UNL A   1      29.349  25.327  24.903  1.00  0.00    -0.207 F 
ATOM     27  C   UNL A   1      28.619  28.353  23.038  1.00  0.00    -0.038 A 
ATOM     28  H   UNL A   1      30.036  29.493  21.964  1.00  0.00     0.063 H 
ATOM     29  H   UNL A   1      27.515  26.951  24.170  1.00  0.00     0.066 H 
BRANCH  27  30
ATOM     30  C   UNL A   1      27.441  29.249  22.731  1.00  0.00     0.031 C 
ATOM     31  H   UNL A   1      26.724  29.153  23.520  1.00  0.00     0.040 H 
ATOM     32  H   UNL A   1      27.043  28.940  21.787  1.00  0.00     0.040 H 
BRANCH  30  33
ATOM     33  C   UNL A   1      27.815  30.687  22.606  1.00  0.00     0.108 A 
ATOM     34  C   UNL A   1      28.142  31.670  23.519  1.00  0.00    -0.020 A 
ATOM     35  O   UNL A   1      27.892  31.190  21.339  1.00  0.00    -0.469 OA
ATOM     36  C   UNL A   1      28.425  32.837  22.769  1.00  0.00    -0.024 A 
ATOM     37  H   UNL A   1      28.174  31.573  24.546  1.00  0.00     0.066 H 
ATOM     38  C   UNL A   1      28.261  32.492  21.450  1.00  0.00     0.091 A 
ATOM     39  H   UNL A   1      28.699  33.761  23.140  1.00  0.00     0.066 H 
ATOM     40  H   UNL A   1      28.399  33.134  20.653  1.00  0.00     0.104 H 
ENDBRANCH  30  33
ENDBRANCH  27  30
ENDBRANCH  14  20
ENDBRANCH  11  14
ENDBRANCH   7  10
ENDBRANCH   4   7
ENDBRANCH   1   4
BRANCH   1  41
ATOM     41  C   UNL A   1      31.353  30.831  25.849  1.00  0.00    -0.052 C 
ATOM     42  H   UNL A   1      30.407  30.331  25.855  1.00  0.00     0.027 H 
ATOM     43  H   UNL A   1      31.723  31.036  24.866  1.00  0.00     0.027 H 
BRANCH  41  44
ATOM     44  C   UNL A   1      31.174  32.191  26.526  1.00  0.00    -0.036 C 
ATOM     45  H   UNL A   1      30.417  32.093  27.276  1.00  0.00     0.028 H 
ATOM     46  H   UNL A   1      30.915  32.881  25.750  1.00  0.00     0.028 H 
BRANCH  44  47
ATOM     47  C   UNL A   1      32.429  32.747  27.189  1.00  0.00     0.018 C 
ATOM     48  H   UNL A   1      33.249  32.654  26.507  1.00  0.00     0.049 H 
ATOM     49  H   UNL A   1      32.601  32.188  28.085  1.00  0.00     0.049 H 
BRANCH  47  50
ATOM     50  N   UNL A   1      32.287  34.144  27.560  1.00  0.00    -0.352 N 
ATOM     51  C   UNL A   1      32.943  34.856  28.530  1.00  0.00     0.251 C 
ATOM     52  H   UNL A   1      31.623  34.652  27.039  1.00  0.00     0.163 HD
ATOM     53  O   UNL A   1      32.571  35.994  28.814  1.00  0.00    -0.269 OA
BRANCH  51  54
ATOM     54  C   UNL A   1      34.089  34.262  29.251  1.00  0.00     0.039 A 
ATOM     55  C   UNL A   1      35.378  34.473  28.751  1.00  0.00    -0.049 A 
ATOM     56  C   UNL A   1      33.901  33.462  30.383  1.00  0.00    -0.049 A 
ATOM     57  C   UNL A   1      36.478  33.906  29.399  1.00  0.00    -0.053 A 
ATOM     58  H   UNL A   1      35.517  35.047  27.905  1.00  0.00     0.063 H 
ATOM     59  C   UNL A   1      35.003  32.952  31.067  1.00  0.00    -0.053 A 
ATOM     60  H   UNL A   1      32.946  33.250  30.712  1.00  0.00     0.063 H 
ATOM     61  C   UNL A   1      36.299  33.149  30.568  1.00  0.00    -0.014 A 
ATOM     62  H   UNL A   1      37.426  34.043  29.015  1.00  0.00     0.063 H 
ATOM     63  H   UNL A   1      34.864  32.427  31.944  1.00  0.00     0.063 H 
BRANCH  61  64
ATOM     64  C   UNL A   1      37.455  32.511  31.246  1.00  0.00     0.031 A 
ATOM     65  C   UNL A   1      38.218  31.415  30.553  1.00  0.00     0.074 A 
ATOM     66  C   UNL A   1      37.794  32.886  32.495  1.00  0.00     0.049 A 
ATOM     67  N   UNL A   1      39.233  30.709  30.986  1.00  0.00    -0.248 NA
ATOM     68  C   UNL A   1      37.763  31.045  29.205  1.00  0.00    -0.034 C 
ATOM     69  C   UNL A   1      37.105  33.904  33.288  1.00  0.00    -0.036 A 
ATOM     70  N   UNL A   1      38.802  32.448  33.315  1.00  0.00    -0.354 N 
ATOM     71  C   UNL A   1      39.517  29.799  29.976  1.00  0.00     0.074 A 
ATOM     72  C   UNL A   1      38.542  30.009  28.929  1.00  0.00    -0.034 C 
ATOM     73  H   UNL A   1      37.028  31.479  28.624  1.00  0.00     0.065 H 
ATOM     74  C   UNL A   1      37.727  34.031  34.471  1.00  0.00    -0.036 A 
ATOM     75  H   UNL A   1      36.274  34.436  32.987  1.00  0.00     0.065 H 
ATOM     76  C   UNL A   1      38.840  33.089  34.529  1.00  0.00     0.049 A 
ATOM     77  H   UNL A   1      39.439  31.743  33.058  1.00  0.00     0.167 HD
ATOM     78  C   UNL A   1      40.516  28.886  29.916  1.00  0.00     0.037 A 
ATOM     79  H   UNL A   1      38.463  29.429  28.080  1.00  0.00     0.065 H 
ATOM     80  H   UNL A   1      37.460  34.691  35.219  1.00  0.00     0.065 H 
ATOM     81  C   UNL A   1      39.686  32.937  35.566  1.00  0.00     0.037 A 
ATOM     82  C   UNL A   1      41.513  28.711  30.938  1.00  0.00     0.049 A 
ATOM     83  C   UNL A   1      40.808  31.940  35.461  1.00  0.00     0.074 A 
ATOM     84  C   UNL A   1      42.606  27.861  30.944  1.00  0.00    -0.036 A 
ATOM     85  N   UNL A   1      41.540  29.404  32.138  1.00  0.00    -0.354 N 
ATOM     86  N   UNL A   1      41.109  31.132  34.472  1.00  0.00    -0.248 NA
ATOM     87  C   UNL A   1      41.717  31.844  36.612  1.00  0.00    -0.034 C 
ATOM     88  C   UNL A   1      43.275  28.017  32.162  1.00  0.00    -0.036 A 
ATOM     89  H   UNL A   1      42.879  27.222  30.181  1.00  0.00     0.065 H 
ATOM     90  C   UNL A   1      42.625  28.994  32.898  1.00  0.00     0.049 A 
ATOM     91  H   UNL A   1      40.887  30.088  32.411  1.00  0.00     0.167 HD
ATOM     92  C   UNL A   1      42.259  30.462  34.864  1.00  0.00     0.074 A 
ATOM     93  C   UNL A   1      42.607  30.961  36.178  1.00  0.00    -0.034 C 
ATOM     94  H   UNL A   1      41.673  32.333  37.518  1.00  0.00     0.065 H 
ATOM     95  H   UNL A   1      44.112  27.492  32.463  1.00  0.00     0.065 H 
ATOM     96  C   UNL A   1      42.966  29.518  34.195  1.00  0.00     0.037 A 
ATOM     97  H   UNL A   1      43.441  30.667  36.710  1.00  0.00     0.065 H 
BRANCH  78  98
ATOM     98  C   UNL A   1      40.582  28.010  28.699  1.00  0.00     0.064 A 
ATOM     99  C   UNL A   1      41.319  28.379  27.564  1.00  0.00     0.173 A 
ATOM    100  C   UNL A   1      39.918  26.774  28.677  1.00  0.00     0.173 A 
ATOM    101  F   UNL A   1      41.961  29.557  27.530  1.00  0.00    -0.203 F 
ATOM    102  C   UNL A   1      41.363  27.558  26.440  1.00  0.00     0.198 A 
ATOM    103  C   UNL A   1      39.988  25.942  27.563  1.00  0.00     0.198 A 
ATOM    104  F   UNL A   1      39.203  26.370  29.738  1.00  0.00    -0.203 F 
ATOM    105  F   UNL A   1      42.030  27.956  25.348  1.00  0.00    -0.200 F 
ATOM    106  C   UNL A   1      40.703  26.338  26.442  1.00  0.00     0.200 A 
ATOM    107  F   UNL A   1      39.360  24.759  27.570  1.00  0.00    -0.200 F 
ATOM    108  F   UNL A   1      40.749  25.548  25.361  1.00  0.00    -0.200 F 
ENDBRANCH  78  98
BRANCH  81 109
ATOM    109  C   UNL A   1      39.537  33.785  36.776  1.00  0.00     0.064 A 
ATOM    110  C   UNL A   1      38.808  33.329  37.884  1.00  0.00     0.173 A 
ATOM    111  C   UNL A   1      40.110  35.061  36.851  1.00  0.00     0.173 A 
ATOM    112  F   UNL A   1      38.224  32.122  37.850  1.00  0.00    -0.203 F 
ATOM    113  C   UNL A   1      38.640  34.127  39.013  1.00  0.00     0.198 A 
ATOM    114  C   UNL A   1      39.964  35.849  37.991  1.00  0.00     0.198 A 
ATOM    115  F   UNL A   1      40.822  35.540  35.820  1.00  0.00    -0.203 F 
ATOM    116  F   UNL A   1      37.902  33.685  40.039  1.00  0.00    -0.200 F 
ATOM    117  C   UNL A   1      39.222  35.385  39.068  1.00  0.00     0.200 A 
ATOM    118  F   UNL A   1      40.537  37.058  38.045  1.00  0.00    -0.200 F 
ATOM    119  F   UNL A   1      39.062  36.152  40.154  1.00  0.00    -0.200 F 
ENDBRANCH  81 109
BRANCH  96 120
ATOM    120  C   UNL A   1      44.214  29.002  34.848  1.00  0.00     0.064 A 
ATOM    121  C   UNL A   1      44.199  27.874  35.680  1.00  0.00     0.173 A 
ATOM    122  C   UNL A   1      45.447  29.630  34.610  1.00  0.00     0.173 A 
ATOM    123  F   UNL A   1      43.042  27.250  35.949  1.00  0.00    -0.203 F 
ATOM    124  C   UNL A   1      45.370  27.407  36.272  1.00  0.00     0.198 A 
ATOM    125  C   UNL A   1      46.619  29.144  35.182  1.00  0.00     0.198 A 
ATOM    126  F   UNL A   1      45.514  30.709  33.817  1.00  0.00    -0.203 F 
ATOM    127  F   UNL A   1      45.325  26.355  37.101  1.00  0.00    -0.200 F 
ATOM    128  C   UNL A   1      46.578  28.038  36.018  1.00  0.00     0.200 A 
ATOM    129  F   UNL A   1      47.787  29.747  34.926  1.00  0.00    -0.200 F 
ATOM    130  F   UNL A   1      47.704  27.584  36.586  1.00  0.00    -0.200 F 
ENDBRANCH  96 120
ENDBRANCH  61  64
ENDBRANCH  51  54
ENDBRANCH  47  50
ENDBRANCH  44  47
ENDBRANCH  41  44
ENDBRANCH   1  41
TORSDOF 17
ENDMDL
MODEL 4
REMARK VINA RESULT:     -11.7      0.616      7.205
REMARK SMILES C[C@@H](C(=O)NCCCCCCNC(=O)c1ccc(-c2c3nc(c(-c4c(F)c(F)c(F)c(F)c4F)c4ccc([nH]4)c(-c4c(F)c(F)c(F)c(F)c4F)c4nc(c(-c5c(F)c(F)c(F)c(F)c5F)c5ccc2[nH]5)C=C4)C=C3)cc1)c1ccc(Cc2ccco2)cc1F
REMARK SMILES IDX 8 1 7 4 6 7 5 10 3 11 4 12 2 14 1 16 78 20 79 21 89 22 80 23
REMARK SMILES IDX 88 25 90 26 81 27 82 30 83 33 84 34 87 35 85 36 86 38 9 41
REMARK SMILES IDX 10 44 11 47 12 50 13 51 14 53 15 54 16 55 77 56 17 57 76 59
REMARK SMILES IDX 18 61 19 64 20 65 70 66 21 67 75 68 69 69 71 70 22 71 74 72
REMARK SMILES IDX 68 74 67 76 23 78 55 81 35 82 54 83 36 84 39 85 53 86 72 87
REMARK SMILES IDX 37 88 38 90 52 92 73 93 40 96 24 98 25 99 33 100 26 101
REMARK SMILES IDX 27 102 31 103 34 104 28 105 29 106 32 107 30 108 56 109
REMARK SMILES IDX 57 110 65 111 58 112 59 113 63 114 66 115 60 116 61 117
REMARK SMILES IDX 64 118 62 119 41 120 42 121 50 122 43 123 44 124 48 125
REMARK SMILES IDX 51 126 45 127 46 128 49 129 47 130
REMARK H PARENT 8 2 8 3 7 5 7 6 6 8 6 9 5 13 2 15 1 17 1 18 1 19 79 24 80 28
REMARK H PARENT 88 29 82 31 82 32 84 37 85 39 86 40 9 42 9 43 10 45 10 46
REMARK H PARENT 11 48 11 49 12 52 16 58 77 60 17 62 76 63 75 73 69 75 71 77
REMARK H PARENT 74 79 68 80 36 89 39 91 72 94 37 95 73 97
REMARK Flexibility Score: inf
ROOT
ATOM      1  C   UNL A   1      31.767  29.829  25.090  1.00  0.00    -0.052 C 
ATOM      2  H   UNL A   1      31.187  28.939  24.959  1.00  0.00     0.027 H 
ATOM      3  H   UNL A   1      31.556  30.591  24.370  1.00  0.00     0.027 H 
ENDROOT
BRANCH   1   4
ATOM      4  C   UNL A   1      33.245  29.463  24.897  1.00  0.00    -0.036 C 
ATOM      5  H   UNL A   1      33.544  29.788  23.923  1.00  0.00     0.028 H 
ATOM      6  H   UNL A   1      33.783  29.948  25.684  1.00  0.00     0.028 H 
BRANCH   4   7
ATOM      7  C   UNL A   1      33.550  27.969  25.018  1.00  0.00     0.017 C 
ATOM      8  H   UNL A   1      34.332  27.830  25.735  1.00  0.00     0.049 H 
ATOM      9  H   UNL A   1      32.658  27.466  25.328  1.00  0.00     0.049 H 
BRANCH   7  10
ATOM     10  N   UNL A   1      33.969  27.416  23.747  1.00  0.00    -0.356 N 
ATOM     11  C   UNL A   1      33.455  26.392  23.008  1.00  0.00     0.227 C 
ATOM     12  O   UNL A   1      34.026  26.149  21.943  1.00  0.00    -0.274 OA
ATOM     13  H   UNL A   1      34.757  27.853  23.351  1.00  0.00     0.163 HD
BRANCH  11  14
ATOM     14  C   UNL A   1      32.182  25.665  23.473  1.00  0.00     0.063 C 
ATOM     15  H   UNL A   1      32.347  25.476  24.512  1.00  0.00     0.045 H 
BRANCH  14  16
ATOM     16  C   UNL A   1      31.957  24.312  22.786  1.00  0.00    -0.049 C 
ATOM     17  H   UNL A   1      31.126  24.387  22.116  1.00  0.00     0.024 H 
ATOM     18  H   UNL A   1      31.751  23.567  23.526  1.00  0.00     0.024 H 
ATOM     19  H   UNL A   1      32.834  24.040  22.238  1.00  0.00     0.024 H 
ENDBRANCH  14  16
BRANCH  14  20
ATOM     20  C   UNL A   1      30.936  26.526  23.310  1.00  0.00    -0.000 A 
ATOM     21  C   UNL A   1      30.939  27.622  22.438  1.00  0.00    -0.055 A 
ATOM     22  C   UNL A   1      29.767  26.261  24.036  1.00  0.00     0.127 A 
ATOM     23  C   UNL A   1      29.810  28.440  22.323  1.00  0.00    -0.058 A 
ATOM     24  H   UNL A   1      31.781  27.830  21.878  1.00  0.00     0.063 H 
ATOM     25  C   UNL A   1      28.644  27.077  23.934  1.00  0.00    -0.022 A 
ATOM     26  F   UNL A   1      29.718  25.218  24.877  1.00  0.00    -0.207 F 
ATOM     27  C   UNL A   1      28.656  28.186  23.081  1.00  0.00    -0.038 A 
ATOM     28  H   UNL A   1      29.826  29.240  21.672  1.00  0.00     0.063 H 
ATOM     29  H   UNL A   1      27.800  26.863  24.488  1.00  0.00     0.066 H 
BRANCH  27  30
ATOM     30  C   UNL A   1      27.458  29.103  22.997  1.00  0.00     0.031 C 
ATOM     31  H   UNL A   1      26.929  29.059  23.926  1.00  0.00     0.040 H 
ATOM     32  H   UNL A   1      26.857  28.768  22.177  1.00  0.00     0.040 H 
BRANCH  30  33
ATOM     33  C   UNL A   1      27.823  30.523  22.729  1.00  0.00     0.108 A 
ATOM     34  C   UNL A   1      28.111  31.604  23.539  1.00  0.00    -0.020 A 
ATOM     35  O   UNL A   1      27.938  30.887  21.418  1.00  0.00    -0.469 OA
ATOM     36  C   UNL A   1      28.409  32.686  22.677  1.00  0.00    -0.024 A 
ATOM     37  H   UNL A   1      28.109  31.619  24.571  1.00  0.00     0.066 H 
ATOM     38  C   UNL A   1      28.291  32.198  21.398  1.00  0.00     0.091 A 
ATOM     39  H   UNL A   1      28.663  33.647  22.955  1.00  0.00     0.066 H 
ATOM     40  H   UNL A   1      28.451  32.752  20.542  1.00  0.00     0.104 H 
ENDBRANCH  30  33
ENDBRANCH  27  30
ENDBRANCH  14  20
ENDBRANCH  11  14
ENDBRANCH   7  10
ENDBRANCH   4   7
ENDBRANCH   1   4
BRANCH   1  41
ATOM     41  C   UNL A   1      31.410  30.428  26.455  1.00  0.00    -0.052 C 
ATOM     42  H   UNL A   1      32.125  30.075  27.168  1.00  0.00     0.027 H 
ATOM     43  H   UNL A   1      30.408  30.115  26.662  1.00  0.00     0.027 H 
BRANCH  41  44
ATOM     44  C   UNL A   1      31.396  31.957  26.514  1.00  0.00    -0.036 C 
ATOM     45  H   UNL A   1      30.603  32.258  27.166  1.00  0.00     0.028 H 
ATOM     46  H   UNL A   1      31.268  32.295  25.506  1.00  0.00     0.028 H 
BRANCH  44  47
ATOM     47  C   UNL A   1      32.689  32.591  27.016  1.00  0.00     0.018 C 
ATOM     48  H   UNL A   1      33.411  32.570  26.226  1.00  0.00     0.049 H 
ATOM     49  H   UNL A   1      33.021  32.029  27.864  1.00  0.00     0.049 H 
BRANCH  47  50
ATOM     50  N   UNL A   1      32.501  33.966  27.441  1.00  0.00    -0.352 N 
ATOM     51  C   UNL A   1      33.100  34.646  28.469  1.00  0.00     0.251 C 
ATOM     52  H   UNL A   1      31.850  34.485  26.915  1.00  0.00     0.163 HD
ATOM     53  O   UNL A   1      32.693  35.763  28.787  1.00  0.00    -0.269 OA
BRANCH  51  54
ATOM     54  C   UNL A   1      34.227  34.042  29.214  1.00  0.00     0.039 A 
ATOM     55  C   UNL A   1      35.532  34.345  28.815  1.00  0.00    -0.049 A 
ATOM     56  C   UNL A   1      34.007  33.146  30.264  1.00  0.00    -0.049 A 
ATOM     57  C   UNL A   1      36.616  33.771  29.484  1.00  0.00    -0.053 A 
ATOM     58  H   UNL A   1      35.696  34.991  28.027  1.00  0.00     0.063 H 
ATOM     59  C   UNL A   1      35.087  32.626  30.975  1.00  0.00    -0.053 A 
ATOM     60  H   UNL A   1      33.044  32.869  30.514  1.00  0.00     0.063 H 
ATOM     61  C   UNL A   1      36.401  32.915  30.577  1.00  0.00    -0.014 A 
ATOM     62  H   UNL A   1      37.577  33.977  29.174  1.00  0.00     0.063 H 
ATOM     63  H   UNL A   1      34.920  32.027  31.797  1.00  0.00     0.063 H 
BRANCH  61  64
ATOM     64  C   UNL A   1      37.541  32.272  31.275  1.00  0.00     0.031 A 
ATOM     65  C   UNL A   1      38.305  31.165  30.599  1.00  0.00     0.074 A 
ATOM     66  C   UNL A   1      37.865  32.650  32.526  1.00  0.00     0.049 A 
ATOM     67  N   UNL A   1      39.307  30.452  31.050  1.00  0.00    -0.248 NA
ATOM     68  C   UNL A   1      37.866  30.791  29.246  1.00  0.00    -0.034 C 
ATOM     69  C   UNL A   1      37.174  33.678  33.304  1.00  0.00    -0.036 A 
ATOM     70  N   UNL A   1      38.858  32.208  33.363  1.00  0.00    -0.354 N 
ATOM     71  C   UNL A   1      39.598  29.534  30.049  1.00  0.00     0.074 A 
ATOM     72  C   UNL A   1      38.640  29.747  28.987  1.00  0.00    -0.034 C 
ATOM     73  H   UNL A   1      37.143  31.228  28.653  1.00  0.00     0.065 H 
ATOM     74  C   UNL A   1      37.780  33.807  34.495  1.00  0.00    -0.036 A 
ATOM     75  H   UNL A   1      36.352  34.216  32.988  1.00  0.00     0.065 H 
ATOM     76  C   UNL A   1      38.885  32.856  34.574  1.00  0.00     0.049 A 
ATOM     77  H   UNL A   1      39.492  31.496  33.120  1.00  0.00     0.167 HD
ATOM     78  C   UNL A   1      40.590  28.613  30.008  1.00  0.00     0.037 A 
ATOM     79  H   UNL A   1      38.568  29.163  28.140  1.00  0.00     0.065 H 
ATOM     80  H   UNL A   1      37.509  34.472  35.236  1.00  0.00     0.065 H 
ATOM     81  C   UNL A   1      39.713  32.701  35.624  1.00  0.00     0.037 A 
ATOM     82  C   UNL A   1      41.570  28.435  31.046  1.00  0.00     0.049 A 
ATOM     83  C   UNL A   1      40.829  31.694  35.540  1.00  0.00     0.074 A 
ATOM     84  C   UNL A   1      42.656  27.575  31.072  1.00  0.00    -0.036 A 
ATOM     85  N   UNL A   1      41.587  29.135  32.242  1.00  0.00    -0.354 N 
ATOM     86  N   UNL A   1      41.137  30.879  34.561  1.00  0.00    -0.248 NA
ATOM     87  C   UNL A   1      41.720  31.597  36.704  1.00  0.00    -0.034 C 
ATOM     88  C   UNL A   1      43.308  27.732  32.299  1.00  0.00    -0.036 A 
ATOM     89  H   UNL A   1      42.934  26.930  30.316  1.00  0.00     0.065 H 
ATOM     90  C   UNL A   1      42.656  28.719  33.019  1.00  0.00     0.049 A 
ATOM     91  H   UNL A   1      40.935  29.826  32.502  1.00  0.00     0.167 HD
ATOM     92  C   UNL A   1      42.275  30.201  34.972  1.00  0.00     0.074 A 
ATOM     93  C   UNL A   1      42.608  30.704  36.289  1.00  0.00    -0.034 C 
ATOM     94  H   UNL A   1      41.668  32.092  37.608  1.00  0.00     0.065 H 
ATOM     95  H   UNL A   1      44.136  27.203  32.614  1.00  0.00     0.065 H 
ATOM     96  C   UNL A   1      42.984  29.247  34.318  1.00  0.00     0.037 A 
ATOM     97  H   UNL A   1      43.432  30.406  36.834  1.00  0.00     0.065 H 
BRANCH  78  98
ATOM     98  C   UNL A   1      40.665  27.730  28.797  1.00  0.00     0.064 A 
ATOM     99  C   UNL A   1      39.909  26.552  28.696  1.00  0.00     0.173 A 
ATOM    100  C   UNL A   1      41.486  28.077  27.713  1.00  0.00     0.173 A 
ATOM    101  F   UNL A   1      39.119  26.168  29.710  1.00  0.00    -0.203 F 
ATOM    102  C   UNL A   1      39.996  25.739  27.569  1.00  0.00     0.198 A 
ATOM    103  C   UNL A   1      41.548  27.278  26.575  1.00  0.00     0.198 A 
ATOM    104  F   UNL A   1      42.226  29.195  27.756  1.00  0.00    -0.203 F 
ATOM    105  F   UNL A   1      39.305  24.592  27.517  1.00  0.00    -0.200 F 
ATOM    106  C   UNL A   1      40.810  26.105  26.507  1.00  0.00     0.200 A 
ATOM    107  F   UNL A   1      42.325  27.638  25.546  1.00  0.00    -0.200 F 
ATOM    108  F   UNL A   1      40.890  25.324  25.422  1.00  0.00    -0.200 F 
ENDBRANCH  78  98
BRANCH  81 109
ATOM    109  C   UNL A   1      39.554  33.557  36.827  1.00  0.00     0.064 A 
ATOM    110  C   UNL A   1      40.216  34.789  36.922  1.00  0.00     0.173 A 
ATOM    111  C   UNL A   1      38.746  33.165  37.903  1.00  0.00     0.173 A 
ATOM    112  F   UNL A   1      41.016  35.197  35.925  1.00  0.00    -0.203 F 
ATOM    113  C   UNL A   1      40.095  35.587  38.057  1.00  0.00     0.198 A 
ATOM    114  C   UNL A   1      38.605  33.975  39.028  1.00  0.00     0.198 A 
ATOM    115  F   UNL A   1      38.087  31.998  37.859  1.00  0.00    -0.203 F 
ATOM    116  F   UNL A   1      40.774  36.739  38.140  1.00  0.00    -0.200 F 
ATOM    117  C   UNL A   1      39.285  35.181  39.108  1.00  0.00     0.200 A 
ATOM    118  F   UNL A   1      37.813  33.586  40.036  1.00  0.00    -0.200 F 
ATOM    119  F   UNL A   1      39.166  35.949  40.199  1.00  0.00    -0.200 F 
ENDBRANCH  81 109
BRANCH  96 120
ATOM    120  C   UNL A   1      44.217  28.725  34.992  1.00  0.00     0.064 A 
ATOM    121  C   UNL A   1      45.467  29.336  34.822  1.00  0.00     0.173 A 
ATOM    122  C   UNL A   1      44.138  27.614  35.847  1.00  0.00     0.173 A 
ATOM    123  F   UNL A   1      45.595  30.391  34.003  1.00  0.00    -0.203 F 
ATOM    124  C   UNL A   1      46.600  28.839  35.462  1.00  0.00     0.198 A 
ATOM    125  C   UNL A   1      45.267  27.136  36.507  1.00  0.00     0.198 A 
ATOM    126  F   UNL A   1      42.964  26.998  36.048  1.00  0.00    -0.203 F 
ATOM    127  F   UNL A   1      47.793  29.410  35.248  1.00  0.00    -0.200 F 
ATOM    128  C   UNL A   1      46.497  27.745  36.308  1.00  0.00     0.200 A 
ATOM    129  F   UNL A   1      45.164  26.086  37.333  1.00  0.00    -0.200 F 
ATOM    130  F   UNL A   1      47.588  27.270  36.926  1.00  0.00    -0.200 F 
ENDBRANCH  96 120
ENDBRANCH  61  64
ENDBRANCH  51  54
ENDBRANCH  47  50
ENDBRANCH  44  47
ENDBRANCH  41  44
ENDBRANCH   1  41
TORSDOF 17
ENDMDL
MODEL 5
REMARK VINA RESULT:     -11.6      5.905     10.194
REMARK SMILES C[C@@H](C(=O)NCCCCCCNC(=O)c1ccc(-c2c3nc(c(-c4c(F)c(F)c(F)c(F)c4F)c4ccc([nH]4)c(-c4c(F)c(F)c(F)c(F)c4F)c4nc(c(-c5c(F)c(F)c(F)c(F)c5F)c5ccc2[nH]5)C=C4)C=C3)cc1)c1ccc(Cc2ccco2)cc1F
REMARK SMILES IDX 8 1 7 4 6 7 5 10 3 11 4 12 2 14 1 16 78 20 79 21 89 22 80 23
REMARK SMILES IDX 88 25 90 26 81 27 82 30 83 33 84 34 87 35 85 36 86 38 9 41
REMARK SMILES IDX 10 44 11 47 12 50 13 51 14 53 15 54 16 55 77 56 17 57 76 59
REMARK SMILES IDX 18 61 19 64 20 65 70 66 21 67 75 68 69 69 71 70 22 71 74 72
REMARK SMILES IDX 68 74 67 76 23 78 55 81 35 82 54 83 36 84 39 85 53 86 72 87
REMARK SMILES IDX 37 88 38 90 52 92 73 93 40 96 24 98 25 99 33 100 26 101
REMARK SMILES IDX 27 102 31 103 34 104 28 105 29 106 32 107 30 108 56 109
REMARK SMILES IDX 57 110 65 111 58 112 59 113 63 114 66 115 60 116 61 117
REMARK SMILES IDX 64 118 62 119 41 120 42 121 50 122 43 123 44 124 48 125
REMARK SMILES IDX 51 126 45 127 46 128 49 129 47 130
REMARK H PARENT 8 2 8 3 7 5 7 6 6 8 6 9 5 13 2 15 1 17 1 18 1 19 79 24 80 28
REMARK H PARENT 88 29 82 31 82 32 84 37 85 39 86 40 9 42 9 43 10 45 10 46
REMARK H PARENT 11 48 11 49 12 52 16 58 77 60 17 62 76 63 75 73 69 75 71 77
REMARK H PARENT 74 79 68 80 36 89 39 91 72 94 37 95 73 97
REMARK Flexibility Score: inf
ROOT
ATOM      1  C   UNL A   1      36.727  21.989  24.875  1.00  0.00    -0.052 C 
ATOM      2  H   UNL A   1      36.069  22.458  25.576  1.00  0.00     0.027 H 
ATOM      3  H   UNL A   1      37.764  22.156  25.078  1.00  0.00     0.027 H 
ENDROOT
BRANCH   1   4
ATOM      4  C   UNL A   1      36.463  22.605  23.494  1.00  0.00    -0.036 C 
ATOM      5  H   UNL A   1      37.345  23.129  23.188  1.00  0.00     0.028 H 
ATOM      6  H   UNL A   1      36.211  21.794  22.842  1.00  0.00     0.028 H 
BRANCH   4   7
ATOM      7  C   UNL A   1      35.287  23.581  23.449  1.00  0.00     0.017 C 
ATOM      8  H   UNL A   1      35.580  24.456  22.906  1.00  0.00     0.049 H 
ATOM      9  H   UNL A   1      34.463  23.097  22.968  1.00  0.00     0.049 H 
BRANCH   7  10
ATOM     10  N   UNL A   1      34.876  23.968  24.782  1.00  0.00    -0.356 N 
ATOM     11  C   UNL A   1      33.637  24.034  25.348  1.00  0.00     0.227 C 
ATOM     12  O   UNL A   1      33.595  24.394  26.527  1.00  0.00    -0.274 OA
ATOM     13  H   UNL A   1      35.614  24.226  25.380  1.00  0.00     0.163 HD
BRANCH  11  14
ATOM     14  C   UNL A   1      32.397  23.593  24.552  1.00  0.00     0.063 C 
ATOM     15  H   UNL A   1      32.409  24.208  23.677  1.00  0.00     0.045 H 
BRANCH  14  16
ATOM     16  C   UNL A   1      31.072  23.849  25.280  1.00  0.00    -0.049 C 
ATOM     17  H   UNL A   1      30.267  23.439  24.708  1.00  0.00     0.024 H 
ATOM     18  H   UNL A   1      30.926  24.903  25.395  1.00  0.00     0.024 H 
ATOM     19  H   UNL A   1      31.098  23.384  26.242  1.00  0.00     0.024 H 
ENDBRANCH  14  16
BRANCH  14  20
ATOM     20  C   UNL A   1      32.470  22.130  24.138  1.00  0.00    -0.000 A 
ATOM     21  C   UNL A   1      32.189  21.751  22.818  1.00  0.00    -0.055 A 
ATOM     22  C   UNL A   1      32.797  21.126  25.059  1.00  0.00     0.127 A 
ATOM     23  C   UNL A   1      32.212  20.402  22.448  1.00  0.00    -0.058 A 
ATOM     24  H   UNL A   1      31.962  22.471  22.115  1.00  0.00     0.063 H 
ATOM     25  C   UNL A   1      32.811  19.781  24.700  1.00  0.00    -0.022 A 
ATOM     26  F   UNL A   1      33.079  21.445  26.330  1.00  0.00    -0.207 F 
ATOM     27  C   UNL A   1      32.507  19.402  23.388  1.00  0.00    -0.038 A 
ATOM     28  H   UNL A   1      32.008  20.139  21.471  1.00  0.00     0.063 H 
ATOM     29  H   UNL A   1      33.046  19.063  25.402  1.00  0.00     0.066 H 
BRANCH  27  30
ATOM     30  C   UNL A   1      32.475  17.941  23.000  1.00  0.00     0.031 C 
ATOM     31  H   UNL A   1      32.843  17.845  22.000  1.00  0.00     0.040 H 
ATOM     32  H   UNL A   1      31.462  17.610  23.089  1.00  0.00     0.040 H 
BRANCH  30  33
ATOM     33  C   UNL A   1      33.303  17.080  23.893  1.00  0.00     0.108 A 
ATOM     34  C   UNL A   1      34.663  16.936  24.085  1.00  0.00    -0.020 A 
ATOM     35  O   UNL A   1      32.628  16.253  24.743  1.00  0.00    -0.469 OA
ATOM     36  C   UNL A   1      34.826  15.964  25.101  1.00  0.00    -0.024 A 
ATOM     37  H   UNL A   1      35.414  17.439  23.587  1.00  0.00     0.066 H 
ATOM     38  C   UNL A   1      33.558  15.581  25.468  1.00  0.00     0.091 A 
ATOM     39  H   UNL A   1      35.717  15.613  25.486  1.00  0.00     0.066 H 
ATOM     40  H   UNL A   1      33.344  14.881  26.195  1.00  0.00     0.104 H 
ENDBRANCH  30  33
ENDBRANCH  27  30
ENDBRANCH  14  20
ENDBRANCH  11  14
ENDBRANCH   7  10
ENDBRANCH   4   7
ENDBRANCH   1   4
BRANCH   1  41
ATOM     41  C   UNL A   1      36.517  20.474  24.970  1.00  0.00    -0.052 C 
ATOM     42  H   UNL A   1      35.874  20.178  24.168  1.00  0.00     0.027 H 
ATOM     43  H   UNL A   1      36.102  20.294  25.940  1.00  0.00     0.027 H 
BRANCH  41  44
ATOM     44  C   UNL A   1      37.791  19.632  24.891  1.00  0.00    -0.036 C 
ATOM     45  H   UNL A   1      38.102  19.593  23.868  1.00  0.00     0.028 H 
ATOM     46  H   UNL A   1      37.543  18.672  25.295  1.00  0.00     0.028 H 
BRANCH  44  47
ATOM     47  C   UNL A   1      38.959  20.154  25.721  1.00  0.00     0.018 C 
ATOM     48  H   UNL A   1      38.595  20.430  26.690  1.00  0.00     0.049 H 
ATOM     49  H   UNL A   1      39.375  20.995  25.206  1.00  0.00     0.049 H 
BRANCH  47  50
ATOM     50  N   UNL A   1      40.011  19.167  25.880  1.00  0.00    -0.352 N 
ATOM     51  C   UNL A   1      41.352  19.353  26.090  1.00  0.00     0.251 C 
ATOM     52  H   UNL A   1      39.718  18.228  25.830  1.00  0.00     0.163 HD
ATOM     53  O   UNL A   1      42.122  18.395  26.035  1.00  0.00    -0.269 OA
BRANCH  51  54
ATOM     54  C   UNL A   1      41.888  20.704  26.370  1.00  0.00     0.039 A 
ATOM     55  C   UNL A   1      42.187  21.044  27.693  1.00  0.00    -0.049 A 
ATOM     56  C   UNL A   1      42.050  21.647  25.352  1.00  0.00    -0.049 A 
ATOM     57  C   UNL A   1      42.673  22.320  27.991  1.00  0.00    -0.053 A 
ATOM     58  H   UNL A   1      42.050  20.355  28.449  1.00  0.00     0.063 H 
ATOM     59  C   UNL A   1      42.597  22.896  25.639  1.00  0.00    -0.053 A 
ATOM     60  H   UNL A   1      41.764  21.419  24.386  1.00  0.00     0.063 H 
ATOM     61  C   UNL A   1      42.892  23.252  26.964  1.00  0.00    -0.014 A 
ATOM     62  H   UNL A   1      42.871  22.578  28.969  1.00  0.00     0.063 H 
ATOM     63  H   UNL A   1      42.786  23.562  24.874  1.00  0.00     0.063 H 
BRANCH  61  64
ATOM     64  C   UNL A   1      43.374  24.622  27.269  1.00  0.00     0.031 A 
ATOM     65  C   UNL A   1      42.428  25.635  27.855  1.00  0.00     0.074 A 
ATOM     66  C   UNL A   1      44.643  24.968  26.984  1.00  0.00     0.049 A 
ATOM     67  N   UNL A   1      42.642  26.891  28.161  1.00  0.00    -0.248 NA
ATOM     68  C   UNL A   1      41.051  25.185  28.106  1.00  0.00    -0.034 C 
ATOM     69  C   UNL A   1      45.642  24.091  26.374  1.00  0.00    -0.036 A 
ATOM     70  N   UNL A   1      45.308  26.154  27.168  1.00  0.00    -0.354 N 
ATOM     71  C   UNL A   1      41.424  27.382  28.614  1.00  0.00     0.074 A 
ATOM     72  C   UNL A   1      40.465  26.306  28.501  1.00  0.00    -0.034 C 
ATOM     73  H   UNL A   1      40.646  24.241  28.002  1.00  0.00     0.065 H 
ATOM     74  C   UNL A   1      46.800  24.760  26.257  1.00  0.00    -0.036 A 
ATOM     75  H   UNL A   1      45.481  23.115  26.079  1.00  0.00     0.065 H 
ATOM     76  C   UNL A   1      46.619  26.118  26.761  1.00  0.00     0.049 A 
ATOM     77  H   UNL A   1      44.886  26.954  27.555  1.00  0.00     0.167 HD
ATOM     78  C   UNL A   1      41.138  28.612  29.103  1.00  0.00     0.037 A 
ATOM     79  H   UNL A   1      39.457  26.399  28.700  1.00  0.00     0.065 H 
ATOM     80  H   UNL A   1      47.678  24.375  25.874  1.00  0.00     0.065 H 
ATOM     81  C   UNL A   1      47.568  27.073  26.800  1.00  0.00     0.037 A 
ATOM     82  C   UNL A   1      42.104  29.666  29.259  1.00  0.00     0.049 A 
ATOM     83  C   UNL A   1      47.232  28.421  27.380  1.00  0.00     0.074 A 
ATOM     84  C   UNL A   1      41.930  30.925  29.806  1.00  0.00    -0.036 A 
ATOM     85  N   UNL A   1      43.432  29.579  28.870  1.00  0.00    -0.354 N 
ATOM     86  N   UNL A   1      46.095  28.852  27.869  1.00  0.00    -0.248 NA
ATOM     87  C   UNL A   1      48.318  29.410  27.425  1.00  0.00    -0.034 C 
ATOM     88  C   UNL A   1      43.145  31.612  29.717  1.00  0.00    -0.036 A 
ATOM     89  H   UNL A   1      41.055  31.294  30.209  1.00  0.00     0.065 H 
ATOM     90  C   UNL A   1      44.087  30.767  29.154  1.00  0.00     0.049 A 
ATOM     91  H   UNL A   1      43.849  28.790  28.453  1.00  0.00     0.167 HD
ATOM     92  C   UNL A   1      46.337  30.145  28.313  1.00  0.00     0.074 A 
ATOM     93  C   UNL A   1      47.731  30.426  28.042  1.00  0.00    -0.034 C 
ATOM     94  H   UNL A   1      49.284  29.333  27.070  1.00  0.00     0.065 H 
ATOM     95  H   UNL A   1      43.312  32.585  30.019  1.00  0.00     0.065 H 
ATOM     96  C   UNL A   1      45.481  31.021  28.896  1.00  0.00     0.037 A 
ATOM     97  H   UNL A   1      48.207  31.305  28.297  1.00  0.00     0.065 H 
BRANCH  78  98
ATOM     98  C   UNL A   1      39.718  28.881  29.511  1.00  0.00     0.064 A 
ATOM     99  C   UNL A   1      38.778  29.399  28.607  1.00  0.00     0.173 A 
ATOM    100  C   UNL A   1      39.287  28.595  30.815  1.00  0.00     0.173 A 
ATOM    101  F   UNL A   1      39.143  29.702  27.352  1.00  0.00    -0.203 F 
ATOM    102  C   UNL A   1      37.467  29.650  29.003  1.00  0.00     0.198 A 
ATOM    103  C   UNL A   1      37.967  28.820  31.199  1.00  0.00     0.198 A 
ATOM    104  F   UNL A   1      40.144  28.095  31.717  1.00  0.00    -0.203 F 
ATOM    105  F   UNL A   1      36.600  30.194  28.138  1.00  0.00    -0.200 F 
ATOM    106  C   UNL A   1      37.061  29.355  30.296  1.00  0.00     0.200 A 
ATOM    107  F   UNL A   1      37.574  28.524  32.445  1.00  0.00    -0.200 F 
ATOM    108  F   UNL A   1      35.799  29.595  30.675  1.00  0.00    -0.200 F 
ENDBRANCH  78  98
BRANCH  81 109
ATOM    109  C   UNL A   1      48.942  26.775  26.322  1.00  0.00     0.064 A 
ATOM    110  C   UNL A   1      49.306  27.022  24.991  1.00  0.00     0.173 A 
ATOM    111  C   UNL A   1      49.913  26.236  27.176  1.00  0.00     0.173 A 
ATOM    112  F   UNL A   1      48.403  27.517  24.132  1.00  0.00    -0.203 F 
ATOM    113  C   UNL A   1      50.584  26.720  24.526  1.00  0.00     0.198 A 
ATOM    114  C   UNL A   1      51.199  25.959  26.718  1.00  0.00     0.198 A 
ATOM    115  F   UNL A   1      49.616  25.987  28.460  1.00  0.00    -0.203 F 
ATOM    116  F   UNL A   1      50.892  26.924  23.239  1.00  0.00    -0.200 F 
ATOM    117  C   UNL A   1      51.532  26.193  25.392  1.00  0.00     0.200 A 
ATOM    118  F   UNL A   1      52.116  25.461  27.558  1.00  0.00    -0.200 F 
ATOM    119  F   UNL A   1      52.761  25.905  24.945  1.00  0.00    -0.200 F 
ENDBRANCH  81 109
BRANCH  96 120
ATOM    120  C   UNL A   1      46.040  32.344  29.327  1.00  0.00     0.064 A 
ATOM    121  C   UNL A   1      46.614  32.525  30.593  1.00  0.00     0.173 A 
ATOM    122  C   UNL A   1      46.030  33.436  28.445  1.00  0.00     0.173 A 
ATOM    123  F   UNL A   1      46.633  31.515  31.476  1.00  0.00    -0.203 F 
ATOM    124  C   UNL A   1      47.133  33.761  30.972  1.00  0.00     0.198 A 
ATOM    125  C   UNL A   1      46.575  34.661  28.818  1.00  0.00     0.198 A 
ATOM    126  F   UNL A   1      45.498  33.311  27.220  1.00  0.00    -0.203 F 
ATOM    127  F   UNL A   1      47.634  33.925  32.204  1.00  0.00    -0.200 F 
ATOM    128  C   UNL A   1      47.119  34.824  30.082  1.00  0.00     0.200 A 
ATOM    129  F   UNL A   1      46.571  35.685  27.953  1.00  0.00    -0.200 F 
ATOM    130  F   UNL A   1      47.623  36.011  30.448  1.00  0.00    -0.200 F 
ENDBRANCH  96 120
ENDBRANCH  61  64
ENDBRANCH  51  54
ENDBRANCH  47  50
ENDBRANCH  44  47
ENDBRANCH  41  44
ENDBRANCH   1  41
TORSDOF 17
ENDMDL
MODEL 6
REMARK VINA RESULT:     -11.5      1.587      2.576
REMARK SMILES C[C@@H](C(=O)NCCCCCCNC(=O)c1ccc(-c2c3nc(c(-c4c(F)c(F)c(F)c(F)c4F)c4ccc([nH]4)c(-c4c(F)c(F)c(F)c(F)c4F)c4nc(c(-c5c(F)c(F)c(F)c(F)c5F)c5ccc2[nH]5)C=C4)C=C3)cc1)c1ccc(Cc2ccco2)cc1F
REMARK SMILES IDX 8 1 7 4 6 7 5 10 3 11 4 12 2 14 1 16 78 20 79 21 89 22 80 23
REMARK SMILES IDX 88 25 90 26 81 27 82 30 83 33 84 34 87 35 85 36 86 38 9 41
REMARK SMILES IDX 10 44 11 47 12 50 13 51 14 53 15 54 16 55 77 56 17 57 76 59
REMARK SMILES IDX 18 61 19 64 20 65 70 66 21 67 75 68 69 69 71 70 22 71 74 72
REMARK SMILES IDX 68 74 67 76 23 78 55 81 35 82 54 83 36 84 39 85 53 86 72 87
REMARK SMILES IDX 37 88 38 90 52 92 73 93 40 96 24 98 25 99 33 100 26 101
REMARK SMILES IDX 27 102 31 103 34 104 28 105 29 106 32 107 30 108 56 109
REMARK SMILES IDX 57 110 65 111 58 112 59 113 63 114 66 115 60 116 61 117
REMARK SMILES IDX 64 118 62 119 41 120 42 121 50 122 43 123 44 124 48 125
REMARK SMILES IDX 51 126 45 127 46 128 49 129 47 130
REMARK H PARENT 8 2 8 3 7 5 7 6 6 8 6 9 5 13 2 15 1 17 1 18 1 19 79 24 80 28
REMARK H PARENT 88 29 82 31 82 32 84 37 85 39 86 40 9 42 9 43 10 45 10 46
REMARK H PARENT 11 48 11 49 12 52 16 58 77 60 17 62 76 63 75 73 69 75 71 77
REMARK H PARENT 74 79 68 80 36 89 39 91 72 94 37 95 73 97
REMARK Flexibility Score: inf
ROOT
ATOM      1  C   UNL A   1      31.589  25.884  26.376  1.00  0.00    -0.052 C 
ATOM      2  H   UNL A   1      30.833  25.401  26.959  1.00  0.00     0.027 H 
ATOM      3  H   UNL A   1      31.348  25.961  25.336  1.00  0.00     0.027 H 
ENDROOT
BRANCH   1   4
ATOM      4  C   UNL A   1      32.863  25.031  26.452  1.00  0.00    -0.036 C 
ATOM      5  H   UNL A   1      33.601  25.581  26.998  1.00  0.00     0.028 H 
ATOM      6  H   UNL A   1      32.587  24.113  26.928  1.00  0.00     0.028 H 
BRANCH   4   7
ATOM      7  C   UNL A   1      33.456  24.654  25.093  1.00  0.00     0.017 C 
ATOM      8  H   UNL A   1      34.259  23.963  25.242  1.00  0.00     0.049 H 
ATOM      9  H   UNL A   1      32.684  24.214  24.497  1.00  0.00     0.049 H 
BRANCH   7  10
ATOM     10  N   UNL A   1      33.959  25.821  24.400  1.00  0.00    -0.356 N 
ATOM     11  C   UNL A   1      33.552  26.414  23.241  1.00  0.00     0.227 C 
ATOM     12  O   UNL A   1      34.176  27.420  22.896  1.00  0.00    -0.274 OA
ATOM     13  H   UNL A   1      34.724  26.260  24.839  1.00  0.00     0.163 HD
BRANCH  11  14
ATOM     14  C   UNL A   1      32.325  25.877  22.486  1.00  0.00     0.063 C 
ATOM     15  H   UNL A   1      32.125  24.930  22.942  1.00  0.00     0.045 H 
BRANCH  14  16
ATOM     16  C   UNL A   1      32.577  25.628  20.994  1.00  0.00    -0.049 C 
ATOM     17  H   UNL A   1      32.824  26.552  20.515  1.00  0.00     0.024 H 
ATOM     18  H   UNL A   1      31.695  25.219  20.547  1.00  0.00     0.024 H 
ATOM     19  H   UNL A   1      33.388  24.940  20.879  1.00  0.00     0.024 H 
ENDBRANCH  14  16
BRANCH  14  20
ATOM     20  C   UNL A   1      31.109  26.779  22.647  1.00  0.00    -0.000 A 
ATOM     21  C   UNL A   1      31.139  28.100  22.182  1.00  0.00    -0.055 A 
ATOM     22  C   UNL A   1      29.943  26.325  23.278  1.00  0.00     0.127 A 
ATOM     23  C   UNL A   1      30.039  28.943  22.370  1.00  0.00    -0.058 A 
ATOM     24  H   UNL A   1      31.979  28.455  21.698  1.00  0.00     0.063 H 
ATOM     25  C   UNL A   1      28.848  27.163  23.478  1.00  0.00    -0.022 A 
ATOM     26  F   UNL A   1      29.869  25.067  23.732  1.00  0.00    -0.207 F 
ATOM     27  C   UNL A   1      28.888  28.489  23.034  1.00  0.00    -0.038 A 
ATOM     28  H   UNL A   1      30.073  29.912  22.017  1.00  0.00     0.063 H 
ATOM     29  H   UNL A   1      28.007  26.804  23.954  1.00  0.00     0.066 H 
BRANCH  27  30
ATOM     30  C   UNL A   1      27.722  29.417  23.287  1.00  0.00     0.031 C 
ATOM     31  H   UNL A   1      27.510  29.420  24.336  1.00  0.00     0.040 H 
ATOM     32  H   UNL A   1      26.897  29.056  22.711  1.00  0.00     0.040 H 
BRANCH  30  33
ATOM     33  C   UNL A   1      27.985  30.820  22.855  1.00  0.00     0.108 A 
ATOM     34  C   UNL A   1      28.413  31.957  23.512  1.00  0.00    -0.020 A 
ATOM     35  O   UNL A   1      27.806  31.095  21.530  1.00  0.00    -0.469 OA
ATOM     36  C   UNL A   1      28.491  32.981  22.539  1.00  0.00    -0.024 A 
ATOM     37  H   UNL A   1      28.634  32.042  24.517  1.00  0.00     0.066 H 
ATOM     38  C   UNL A   1      28.113  32.405  21.349  1.00  0.00     0.091 A 
ATOM     39  H   UNL A   1      28.774  33.961  22.692  1.00  0.00     0.066 H 
ATOM     40  H   UNL A   1      28.069  32.900  20.445  1.00  0.00     0.104 H 
ENDBRANCH  30  33
ENDBRANCH  27  30
ENDBRANCH  14  20
ENDBRANCH  11  14
ENDBRANCH   7  10
ENDBRANCH   4   7
ENDBRANCH   1   4
BRANCH   1  41
ATOM     41  C   UNL A   1      31.730  27.323  26.883  1.00  0.00    -0.052 C 
ATOM     42  H   UNL A   1      32.620  27.379  27.474  1.00  0.00     0.027 H 
ATOM     43  H   UNL A   1      30.836  27.531  27.433  1.00  0.00     0.027 H 
BRANCH  41  44
ATOM     44  C   UNL A   1      31.816  28.394  25.794  1.00  0.00    -0.036 C 
ATOM     45  H   UNL A   1      30.957  29.026  25.880  1.00  0.00     0.028 H 
ATOM     46  H   UNL A   1      31.866  27.871  24.862  1.00  0.00     0.028 H 
BRANCH  44  47
ATOM     47  C   UNL A   1      33.060  29.274  25.856  1.00  0.00     0.018 C 
ATOM     48  H   UNL A   1      33.563  29.225  24.912  1.00  0.00     0.049 H 
ATOM     49  H   UNL A   1      33.680  28.908  26.648  1.00  0.00     0.049 H 
BRANCH  47  50
ATOM     50  N   UNL A   1      32.743  30.660  26.147  1.00  0.00    -0.352 N 
ATOM     51  C   UNL A   1      33.302  31.503  27.072  1.00  0.00     0.251 C 
ATOM     52  H   UNL A   1      32.023  31.052  25.601  1.00  0.00     0.163 HD
ATOM     53  O   UNL A   1      32.791  32.600  27.292  1.00  0.00    -0.269 OA
BRANCH  51  54
ATOM     54  C   UNL A   1      34.511  31.099  27.822  1.00  0.00     0.039 A 
ATOM     55  C   UNL A   1      35.553  32.021  27.961  1.00  0.00    -0.049 A 
ATOM     56  C   UNL A   1      34.645  29.809  28.344  1.00  0.00    -0.049 A 
ATOM     57  C   UNL A   1      36.716  31.660  28.645  1.00  0.00    -0.053 A 
ATOM     58  H   UNL A   1      35.463  32.968  27.559  1.00  0.00     0.063 H 
ATOM     59  C   UNL A   1      35.777  29.471  29.084  1.00  0.00    -0.053 A 
ATOM     60  H   UNL A   1      33.906  29.107  28.182  1.00  0.00     0.063 H 
ATOM     61  C   UNL A   1      36.833  30.385  29.221  1.00  0.00    -0.014 A 
ATOM     62  H   UNL A   1      37.493  32.334  28.726  1.00  0.00     0.063 H 
ATOM     63  H   UNL A   1      35.839  28.544  29.532  1.00  0.00     0.063 H 
BRANCH  61  64
ATOM     64  C   UNL A   1      38.076  29.976  29.919  1.00  0.00     0.031 A 
ATOM     65  C   UNL A   1      38.356  30.484  31.308  1.00  0.00     0.074 A 
ATOM     66  C   UNL A   1      38.970  29.184  29.296  1.00  0.00     0.049 A 
ATOM     67  N   UNL A   1      39.398  30.273  32.075  1.00  0.00    -0.248 NA
ATOM     68  C   UNL A   1      37.344  31.369  31.904  1.00  0.00    -0.034 C 
ATOM     69  C   UNL A   1      38.834  28.664  27.936  1.00  0.00    -0.036 A 
ATOM     70  N   UNL A   1      40.172  28.683  29.727  1.00  0.00    -0.354 N 
ATOM     71  C   UNL A   1      39.175  31.017  33.226  1.00  0.00     0.074 A 
ATOM     72  C   UNL A   1      37.925  31.721  33.042  1.00  0.00    -0.034 C 
ATOM     73  H   UNL A   1      36.421  31.644  31.533  1.00  0.00     0.065 H 
ATOM     74  C   UNL A   1      39.898  27.896  27.653  1.00  0.00    -0.036 A 
ATOM     75  H   UNL A   1      38.047  28.859  27.297  1.00  0.00     0.065 H 
ATOM     76  C   UNL A   1      40.801  27.889  28.800  1.00  0.00     0.049 A 
ATOM     77  H   UNL A   1      40.548  28.874  30.616  1.00  0.00     0.167 HD
ATOM     78  C   UNL A   1      39.933  31.088  34.347  1.00  0.00     0.037 A 
ATOM     79  H   UNL A   1      37.538  32.407  33.707  1.00  0.00     0.065 H 
ATOM     80  H   UNL A   1      40.052  27.391  26.766  1.00  0.00     0.065 H 
ATOM     81  C   UNL A   1      41.970  27.226  28.874  1.00  0.00     0.037 A 
ATOM     82  C   UNL A   1      41.151  30.351  34.547  1.00  0.00     0.049 A 
ATOM     83  C   UNL A   1      42.776  27.294  30.143  1.00  0.00     0.074 A 
ATOM     84  C   UNL A   1      41.958  30.301  35.671  1.00  0.00    -0.036 A 
ATOM     85  N   UNL A   1      41.738  29.527  33.598  1.00  0.00    -0.354 N 
ATOM     86  N   UNL A   1      42.522  27.946  31.252  1.00  0.00    -0.248 NA
ATOM     87  C   UNL A   1      44.026  26.521  30.175  1.00  0.00    -0.034 C 
ATOM     88  C   UNL A   1      43.050  29.474  35.390  1.00  0.00    -0.036 A 
ATOM     89  H   UNL A   1      41.783  30.791  36.562  1.00  0.00     0.065 H 
ATOM     90  C   UNL A   1      42.902  28.974  34.106  1.00  0.00     0.049 A 
ATOM     91  H   UNL A   1      41.380  29.360  32.696  1.00  0.00     0.167 HD
ATOM     92  C   UNL A   1      43.556  27.634  32.123  1.00  0.00     0.074 A 
ATOM     93  C   UNL A   1      44.439  26.729  31.417  1.00  0.00    -0.034 C 
ATOM     94  H   UNL A   1      44.467  25.965  29.426  1.00  0.00     0.065 H 
ATOM     95  H   UNL A   1      43.834  29.270  36.030  1.00  0.00     0.065 H 
ATOM     96  C   UNL A   1      43.756  28.058  33.396  1.00  0.00     0.037 A 
ATOM     97  H   UNL A   1      45.282  26.299  31.829  1.00  0.00     0.065 H 
BRANCH  78  98
ATOM     98  C   UNL A   1      39.459  31.994  35.446  1.00  0.00     0.064 A 
ATOM     99  C   UNL A   1      39.854  33.338  35.515  1.00  0.00     0.173 A 
ATOM    100  C   UNL A   1      38.580  31.517  36.430  1.00  0.00     0.173 A 
ATOM    101  F   UNL A   1      40.705  33.839  34.606  1.00  0.00    -0.203 F 
ATOM    102  C   UNL A   1      39.412  34.163  36.546  1.00  0.00     0.198 A 
ATOM    103  C   UNL A   1      38.116  32.353  37.443  1.00  0.00     0.198 A 
ATOM    104  F   UNL A   1      38.167  30.241  36.408  1.00  0.00    -0.203 F 
ATOM    105  F   UNL A   1      39.845  35.429  36.621  1.00  0.00    -0.200 F 
ATOM    106  C   UNL A   1      38.539  33.672  37.505  1.00  0.00     0.200 A 
ATOM    107  F   UNL A   1      37.263  31.881  38.362  1.00  0.00    -0.200 F 
ATOM    108  F   UNL A   1      38.112  34.468  38.495  1.00  0.00    -0.200 F 
ENDBRANCH  78  98
BRANCH  81 109
ATOM    109  C   UNL A   1      42.426  26.395  27.731  1.00  0.00     0.064 A 
ATOM    110  C   UNL A   1      43.339  26.903  26.796  1.00  0.00     0.173 A 
ATOM    111  C   UNL A   1      41.961  25.086  27.545  1.00  0.00     0.173 A 
ATOM    112  F   UNL A   1      43.796  28.158  26.922  1.00  0.00    -0.203 F 
ATOM    113  C   UNL A   1      43.752  26.142  25.705  1.00  0.00     0.198 A 
ATOM    114  C   UNL A   1      42.393  24.316  26.468  1.00  0.00     0.198 A 
ATOM    115  F   UNL A   1      41.090  24.552  28.414  1.00  0.00    -0.203 F 
ATOM    116  F   UNL A   1      44.591  26.668  24.803  1.00  0.00    -0.200 F 
ATOM    117  C   UNL A   1      43.283  24.846  25.544  1.00  0.00     0.200 A 
ATOM    118  F   UNL A   1      41.948  23.061  26.321  1.00  0.00    -0.200 F 
ATOM    119  F   UNL A   1      43.682  24.113  24.497  1.00  0.00    -0.200 F 
ENDBRANCH  81 109
BRANCH  96 120
ATOM    120  C   UNL A   1      44.946  27.507  34.124  1.00  0.00     0.064 A 
ATOM    121  C   UNL A   1      44.872  26.318  34.865  1.00  0.00     0.173 A 
ATOM    122  C   UNL A   1      46.185  28.162  34.052  1.00  0.00     0.173 A 
ATOM    123  F   UNL A   1      43.707  25.664  34.976  1.00  0.00    -0.203 F 
ATOM    124  C   UNL A   1      45.991  25.820  35.529  1.00  0.00     0.198 A 
ATOM    125  C   UNL A   1      47.307  27.646  34.694  1.00  0.00     0.198 A 
ATOM    126  F   UNL A   1      46.308  29.299  33.350  1.00  0.00    -0.203 F 
ATOM    127  F   UNL A   1      45.887  24.708  36.269  1.00  0.00    -0.200 F 
ATOM    128  C   UNL A   1      47.207  26.480  35.437  1.00  0.00     0.200 A 
ATOM    129  F   UNL A   1      48.483  28.279  34.595  1.00  0.00    -0.200 F 
ATOM    130  F   UNL A   1      48.282  25.996  36.074  1.00  0.00    -0.200 F 
ENDBRANCH  96 120
ENDBRANCH  61  64
ENDBRANCH  51  54
ENDBRANCH  47  50
ENDBRANCH  44  47
ENDBRANCH  41  44
ENDBRANCH   1  41
TORSDOF 17
ENDMDL
MODEL 7
REMARK VINA RESULT:     -11.4      4.438      8.933
REMARK SMILES C[C@@H](C(=O)NCCCCCCNC(=O)c1ccc(-c2c3nc(c(-c4c(F)c(F)c(F)c(F)c4F)c4ccc([nH]4)c(-c4c(F)c(F)c(F)c(F)c4F)c4nc(c(-c5c(F)c(F)c(F)c(F)c5F)c5ccc2[nH]5)C=C4)C=C3)cc1)c1ccc(Cc2ccco2)cc1F
REMARK SMILES IDX 8 1 7 4 6 7 5 10 3 11 4 12 2 14 1 16 78 20 79 21 89 22 80 23
REMARK SMILES IDX 88 25 90 26 81 27 82 30 83 33 84 34 87 35 85 36 86 38 9 41
REMARK SMILES IDX 10 44 11 47 12 50 13 51 14 53 15 54 16 55 77 56 17 57 76 59
REMARK SMILES IDX 18 61 19 64 20 65 70 66 21 67 75 68 69 69 71 70 22 71 74 72
REMARK SMILES IDX 68 74 67 76 23 78 55 81 35 82 54 83 36 84 39 85 53 86 72 87
REMARK SMILES IDX 37 88 38 90 52 92 73 93 40 96 24 98 25 99 33 100 26 101
REMARK SMILES IDX 27 102 31 103 34 104 28 105 29 106 32 107 30 108 56 109
REMARK SMILES IDX 57 110 65 111 58 112 59 113 63 114 66 115 60 116 61 117
REMARK SMILES IDX 64 118 62 119 41 120 42 121 50 122 43 123 44 124 48 125
REMARK SMILES IDX 51 126 45 127 46 128 49 129 47 130
REMARK H PARENT 8 2 8 3 7 5 7 6 6 8 6 9 5 13 2 15 1 17 1 18 1 19 79 24 80 28
REMARK H PARENT 88 29 82 31 82 32 84 37 85 39 86 40 9 42 9 43 10 45 10 46
REMARK H PARENT 11 48 11 49 12 52 16 58 77 60 17 62 76 63 75 73 69 75 71 77
REMARK H PARENT 74 79 68 80 36 89 39 91 72 94 37 95 73 97
REMARK Flexibility Score: inf
ROOT
ATOM      1  C   UNL A   1      37.470  32.970  29.682  1.00  0.00    -0.052 C 
ATOM      2  H   UNL A   1      36.820  32.218  30.076  1.00  0.00     0.027 H 
ATOM      3  H   UNL A   1      38.236  32.586  29.042  1.00  0.00     0.027 H 
ENDROOT
BRANCH   1   4
ATOM      4  C   UNL A   1      38.198  33.632  30.860  1.00  0.00    -0.036 C 
ATOM      5  H   UNL A   1      38.825  32.898  31.320  1.00  0.00     0.028 H 
ATOM      6  H   UNL A   1      38.745  34.457  30.454  1.00  0.00     0.028 H 
BRANCH   4   7
ATOM      7  C   UNL A   1      37.273  34.210  31.933  1.00  0.00     0.017 C 
ATOM      8  H   UNL A   1      36.626  34.934  31.483  1.00  0.00     0.049 H 
ATOM      9  H   UNL A   1      36.704  33.408  32.357  1.00  0.00     0.049 H 
BRANCH   7  10
ATOM     10  N   UNL A   1      38.029  34.844  32.991  1.00  0.00    -0.356 N 
ATOM     11  C   UNL A   1      38.185  34.503  34.302  1.00  0.00     0.227 C 
ATOM     12  O   UNL A   1      38.911  35.239  34.974  1.00  0.00    -0.274 OA
ATOM     13  H   UNL A   1      38.513  35.657  32.718  1.00  0.00     0.163 HD
BRANCH  11  14
ATOM     14  C   UNL A   1      37.544  33.217  34.850  1.00  0.00     0.063 C 
ATOM     15  H   UNL A   1      36.533  33.255  34.503  1.00  0.00     0.045 H 
BRANCH  14  16
ATOM     16  C   UNL A   1      37.507  33.148  36.381  1.00  0.00    -0.049 C 
ATOM     17  H   UNL A   1      36.511  32.929  36.704  1.00  0.00     0.024 H 
ATOM     18  H   UNL A   1      37.814  34.089  36.788  1.00  0.00     0.024 H 
ATOM     19  H   UNL A   1      38.168  32.379  36.719  1.00  0.00     0.024 H 
ENDBRANCH  14  16
BRANCH  14  20
ATOM     20  C   UNL A   1      38.215  31.963  34.305  1.00  0.00    -0.000 A 
ATOM     21  C   UNL A   1      37.477  31.026  33.569  1.00  0.00    -0.055 A 
ATOM     22  C   UNL A   1      39.571  31.701  34.539  1.00  0.00     0.127 A 
ATOM     23  C   UNL A   1      38.081  29.852  33.108  1.00  0.00    -0.058 A 
ATOM     24  H   UNL A   1      36.480  31.202  33.368  1.00  0.00     0.063 H 
ATOM     25  C   UNL A   1      40.176  30.529  34.091  1.00  0.00    -0.022 A 
ATOM     26  F   UNL A   1      40.315  32.574  35.232  1.00  0.00    -0.207 F 
ATOM     27  C   UNL A   1      39.432  29.583  33.377  1.00  0.00    -0.038 A 
ATOM     28  H   UNL A   1      37.526  29.175  32.562  1.00  0.00     0.063 H 
ATOM     29  H   UNL A   1      41.175  30.359  34.287  1.00  0.00     0.066 H 
BRANCH  27  30
ATOM     30  C   UNL A   1      40.070  28.289  32.927  1.00  0.00     0.031 C 
ATOM     31  H   UNL A   1      40.328  28.378  31.892  1.00  0.00     0.040 H 
ATOM     32  H   UNL A   1      39.359  27.508  33.098  1.00  0.00     0.040 H 
BRANCH  30  33
ATOM     33  C   UNL A   1      41.301  27.944  33.694  1.00  0.00     0.108 A 
ATOM     34  C   UNL A   1      42.650  28.133  33.466  1.00  0.00    -0.020 A 
ATOM     35  O   UNL A   1      41.119  27.332  34.900  1.00  0.00    -0.469 OA
ATOM     36  C   UNL A   1      43.327  27.599  34.589  1.00  0.00    -0.024 A 
ATOM     37  H   UNL A   1      43.081  28.576  32.639  1.00  0.00     0.066 H 
ATOM     38  C   UNL A   1      42.350  27.126  35.433  1.00  0.00     0.091 A 
ATOM     39  H   UNL A   1      44.347  27.571  34.742  1.00  0.00     0.066 H 
ATOM     40  H   UNL A   1      42.529  26.678  36.345  1.00  0.00     0.104 H 
ENDBRANCH  30  33
ENDBRANCH  27  30
ENDBRANCH  14  20
ENDBRANCH  11  14
ENDBRANCH   7  10
ENDBRANCH   4   7
ENDBRANCH   1   4
BRANCH   1  41
ATOM     41  C   UNL A   1      36.630  33.913  28.813  1.00  0.00    -0.052 C 
ATOM     42  H   UNL A   1      37.253  34.280  28.026  1.00  0.00     0.027 H 
ATOM     43  H   UNL A   1      36.272  34.679  29.469  1.00  0.00     0.027 H 
BRANCH  41  44
ATOM     44  C   UNL A   1      35.387  33.284  28.180  1.00  0.00    -0.036 C 
ATOM     45  H   UNL A   1      35.699  32.718  27.327  1.00  0.00     0.028 H 
ATOM     46  H   UNL A   1      34.733  34.094  27.934  1.00  0.00     0.028 H 
BRANCH  44  47
ATOM     47  C   UNL A   1      34.596  32.360  29.099  1.00  0.00     0.018 C 
ATOM     48  H   UNL A   1      33.812  32.924  29.561  1.00  0.00     0.049 H 
ATOM     49  H   UNL A   1      35.274  31.964  29.827  1.00  0.00     0.049 H 
BRANCH  47  50
ATOM     50  N   UNL A   1      34.010  31.240  28.385  1.00  0.00    -0.352 N 
ATOM     51  C   UNL A   1      34.611  30.108  27.900  1.00  0.00     0.251 C 
ATOM     52  H   UNL A   1      33.039  31.302  28.227  1.00  0.00     0.163 HD
ATOM     53  O   UNL A   1      33.983  29.341  27.172  1.00  0.00    -0.269 OA
BRANCH  51  54
ATOM     54  C   UNL A   1      36.021  29.806  28.233  1.00  0.00     0.039 A 
ATOM     55  C   UNL A   1      37.003  30.041  27.266  1.00  0.00    -0.049 A 
ATOM     56  C   UNL A   1      36.374  29.251  29.466  1.00  0.00    -0.049 A 
ATOM     57  C   UNL A   1      38.339  29.745  27.543  1.00  0.00    -0.053 A 
ATOM     58  H   UNL A   1      36.741  30.433  26.347  1.00  0.00     0.063 H 
ATOM     59  C   UNL A   1      37.715  29.018  29.768  1.00  0.00    -0.053 A 
ATOM     60  H   UNL A   1      35.642  29.013  30.155  1.00  0.00     0.063 H 
ATOM     61  C   UNL A   1      38.707  29.240  28.801  1.00  0.00    -0.014 A 
ATOM     62  H   UNL A   1      39.059  29.897  26.821  1.00  0.00     0.063 H 
ATOM     63  H   UNL A   1      37.978  28.680  30.706  1.00  0.00     0.063 H 
BRANCH  61  64
ATOM     64  C   UNL A   1      40.117  28.888  29.098  1.00  0.00     0.031 A 
ATOM     65  C   UNL A   1      40.973  29.835  29.896  1.00  0.00     0.074 A 
ATOM     66  C   UNL A   1      40.640  27.743  28.621  1.00  0.00     0.049 A 
ATOM     67  N   UNL A   1      42.235  29.729  30.232  1.00  0.00    -0.248 NA
ATOM     68  C   UNL A   1      40.334  31.078  30.352  1.00  0.00    -0.034 C 
ATOM     69  C   UNL A   1      39.926  26.765  27.799  1.00  0.00    -0.036 A 
ATOM     70  N   UNL A   1      41.897  27.211  28.757  1.00  0.00    -0.354 N 
ATOM     71  C   UNL A   1      42.542  30.900  30.914  1.00  0.00     0.074 A 
ATOM     72  C   UNL A   1      41.352  31.721  30.905  1.00  0.00    -0.034 C 
ATOM     73  H   UNL A   1      39.349  31.373  30.264  1.00  0.00     0.065 H 
ATOM     74  C   UNL A   1      40.748  25.740  27.526  1.00  0.00    -0.036 A 
ATOM     75  H   UNL A   1      38.948  26.852  27.480  1.00  0.00     0.065 H 
ATOM     76  C   UNL A   1      42.051  25.998  28.131  1.00  0.00     0.049 A 
ATOM     77  H   UNL A   1      42.620  27.655  29.256  1.00  0.00     0.167 HD
ATOM     78  C   UNL A   1      43.705  31.248  31.516  1.00  0.00     0.037 A 
ATOM     79  H   UNL A   1      41.302  32.682  31.278  1.00  0.00     0.065 H 
ATOM     80  H   UNL A   1      40.498  24.902  26.976  1.00  0.00     0.065 H 
ATOM     81  C   UNL A   1      43.123  25.186  28.062  1.00  0.00     0.037 A 
ATOM     82  C   UNL A   1      44.873  30.409  31.564  1.00  0.00     0.049 A 
ATOM     83  C   UNL A   1      44.393  25.580  28.768  1.00  0.00     0.074 A 
ATOM     84  C   UNL A   1      46.078  30.641  32.205  1.00  0.00    -0.036 A 
ATOM     85  N   UNL A   1      44.979  29.171  30.949  1.00  0.00    -0.354 N 
ATOM     86  N   UNL A   1      44.651  26.658  29.467  1.00  0.00    -0.248 NA
ATOM     87  C   UNL A   1      45.516  24.636  28.683  1.00  0.00    -0.034 C 
ATOM     88  C   UNL A   1      46.924  29.557  31.949  1.00  0.00    -0.036 A 
ATOM     89  H   UNL A   1      46.311  31.471  32.773  1.00  0.00     0.065 H 
ATOM     90  C   UNL A   1      46.233  28.631  31.185  1.00  0.00     0.049 A 
ATOM     91  H   UNL A   1      44.268  28.739  30.423  1.00  0.00     0.167 HD
ATOM     92  C   UNL A   1      45.947  26.506  29.938  1.00  0.00     0.074 A 
ATOM     93  C   UNL A   1      46.422  25.228  29.449  1.00  0.00    -0.034 C 
ATOM     94  H   UNL A   1      45.582  23.747  28.164  1.00  0.00     0.065 H 
ATOM     95  H   UNL A   1      47.900  29.463  32.274  1.00  0.00     0.065 H 
ATOM     96  C   UNL A   1      46.680  27.348  30.708  1.00  0.00     0.037 A 
ATOM     97  H   UNL A   1      47.348  24.829  29.669  1.00  0.00     0.065 H 
BRANCH  78  98
ATOM     98  C   UNL A   1      43.767  32.595  32.174  1.00  0.00     0.064 A 
ATOM     99  C   UNL A   1      44.097  33.753  31.454  1.00  0.00     0.173 A 
ATOM    100  C   UNL A   1      43.470  32.734  33.539  1.00  0.00     0.173 A 
ATOM    101  F   UNL A   1      44.403  33.673  30.150  1.00  0.00    -0.203 F 
ATOM    102  C   UNL A   1      44.158  34.995  32.082  1.00  0.00     0.198 A 
ATOM    103  C   UNL A   1      43.503  33.981  34.157  1.00  0.00     0.198 A 
ATOM    104  F   UNL A   1      43.144  31.659  34.273  1.00  0.00    -0.203 F 
ATOM    105  F   UNL A   1      44.527  36.078  31.385  1.00  0.00    -0.200 F 
ATOM    106  C   UNL A   1      43.855  35.108  33.431  1.00  0.00     0.200 A 
ATOM    107  F   UNL A   1      43.199  34.092  35.457  1.00  0.00    -0.200 F 
ATOM    108  F   UNL A   1      43.911  36.304  34.033  1.00  0.00    -0.200 F 
ENDBRANCH  78  98
BRANCH  81 109
ATOM    109  C   UNL A   1      43.028  23.892  27.340  1.00  0.00     0.064 A 
ATOM    110  C   UNL A   1      43.391  23.797  25.989  1.00  0.00     0.173 A 
ATOM    111  C   UNL A   1      42.572  22.729  27.976  1.00  0.00     0.173 A 
ATOM    112  F   UNL A   1      43.814  24.888  25.333  1.00  0.00    -0.203 F 
ATOM    113  C   UNL A   1      43.281  22.594  25.296  1.00  0.00     0.198 A 
ATOM    114  C   UNL A   1      42.485  21.520  27.290  1.00  0.00     0.198 A 
ATOM    115  F   UNL A   1      42.217  22.766  29.269  1.00  0.00    -0.203 F 
ATOM    116  F   UNL A   1      43.592  22.543  23.994  1.00  0.00    -0.200 F 
ATOM    117  C   UNL A   1      42.832  21.455  25.948  1.00  0.00     0.200 A 
ATOM    118  F   UNL A   1      42.064  20.419  27.925  1.00  0.00    -0.200 F 
ATOM    119  F   UNL A   1      42.728  20.298  25.282  1.00  0.00    -0.200 F 
ENDBRANCH  81 109
BRANCH  96 120
ATOM    120  C   UNL A   1      48.050  26.892  31.113  1.00  0.00     0.064 A 
ATOM    121  C   UNL A   1      48.259  26.112  32.258  1.00  0.00     0.173 A 
ATOM    122  C   UNL A   1      49.164  27.216  30.323  1.00  0.00     0.173 A 
ATOM    123  F   UNL A   1      47.228  25.789  33.053  1.00  0.00    -0.203 F 
ATOM    124  C   UNL A   1      49.540  25.693  32.614  1.00  0.00     0.198 A 
ATOM    125  C   UNL A   1      50.438  26.773  30.666  1.00  0.00     0.198 A 
ATOM    126  F   UNL A   1      49.014  27.956  29.214  1.00  0.00    -0.203 F 
ATOM    127  F   UNL A   1      49.723  24.988  33.738  1.00  0.00    -0.200 F 
ATOM    128  C   UNL A   1      50.625  26.019  31.814  1.00  0.00     0.200 A 
ATOM    129  F   UNL A   1      51.484  27.079  29.887  1.00  0.00    -0.200 F 
ATOM    130  F   UNL A   1      51.856  25.612  32.157  1.00  0.00    -0.200 F 
ENDBRANCH  96 120
ENDBRANCH  61  64
ENDBRANCH  51  54
ENDBRANCH  47  50
ENDBRANCH  44  47
ENDBRANCH  41  44
ENDBRANCH   1  41
TORSDOF 17
ENDMDL
MODEL 8
REMARK VINA RESULT:     -11.3      1.891      8.227
REMARK SMILES C[C@@H](C(=O)NCCCCCCNC(=O)c1ccc(-c2c3nc(c(-c4c(F)c(F)c(F)c(F)c4F)c4ccc([nH]4)c(-c4c(F)c(F)c(F)c(F)c4F)c4nc(c(-c5c(F)c(F)c(F)c(F)c5F)c5ccc2[nH]5)C=C4)C=C3)cc1)c1ccc(Cc2ccco2)cc1F
REMARK SMILES IDX 8 1 7 4 6 7 5 10 3 11 4 12 2 14 1 16 78 20 79 21 89 22 80 23
REMARK SMILES IDX 88 25 90 26 81 27 82 30 83 33 84 34 87 35 85 36 86 38 9 41
REMARK SMILES IDX 10 44 11 47 12 50 13 51 14 53 15 54 16 55 77 56 17 57 76 59
REMARK SMILES IDX 18 61 19 64 20 65 70 66 21 67 75 68 69 69 71 70 22 71 74 72
REMARK SMILES IDX 68 74 67 76 23 78 55 81 35 82 54 83 36 84 39 85 53 86 72 87
REMARK SMILES IDX 37 88 38 90 52 92 73 93 40 96 24 98 25 99 33 100 26 101
REMARK SMILES IDX 27 102 31 103 34 104 28 105 29 106 32 107 30 108 56 109
REMARK SMILES IDX 57 110 65 111 58 112 59 113 63 114 66 115 60 116 61 117
REMARK SMILES IDX 64 118 62 119 41 120 42 121 50 122 43 123 44 124 48 125
REMARK SMILES IDX 51 126 45 127 46 128 49 129 47 130
REMARK H PARENT 8 2 8 3 7 5 7 6 6 8 6 9 5 13 2 15 1 17 1 18 1 19 79 24 80 28
REMARK H PARENT 88 29 82 31 82 32 84 37 85 39 86 40 9 42 9 43 10 45 10 46
REMARK H PARENT 11 48 11 49 12 52 16 58 77 60 17 62 76 63 75 73 69 75 71 77
REMARK H PARENT 74 79 68 80 36 89 39 91 72 94 37 95 73 97
REMARK Flexibility Score: inf
ROOT
ATOM      1  C   UNL A   1      32.738  30.240  25.878  1.00  0.00    -0.052 C 
ATOM      2  H   UNL A   1      32.356  29.591  25.118  1.00  0.00     0.027 H 
ATOM      3  H   UNL A   1      33.245  31.100  25.495  1.00  0.00     0.027 H 
ENDROOT
BRANCH   1   4
ATOM      4  C   UNL A   1      33.782  29.459  26.687  1.00  0.00    -0.036 C 
ATOM      5  H   UNL A   1      34.752  29.828  26.424  1.00  0.00     0.028 H 
ATOM      6  H   UNL A   1      33.542  29.609  27.719  1.00  0.00     0.028 H 
BRANCH   4   7
ATOM      7  C   UNL A   1      33.766  27.948  26.453  1.00  0.00     0.017 C 
ATOM      8  H   UNL A   1      33.906  27.755  25.409  1.00  0.00     0.049 H 
ATOM      9  H   UNL A   1      34.554  27.507  27.027  1.00  0.00     0.049 H 
BRANCH   7  10
ATOM     10  N   UNL A   1      32.510  27.365  26.876  1.00  0.00    -0.356 N 
ATOM     11  C   UNL A   1      31.432  26.948  26.151  1.00  0.00     0.227 C 
ATOM     12  O   UNL A   1      30.493  26.475  26.796  1.00  0.00    -0.274 OA
ATOM     13  H   UNL A   1      32.420  27.251  27.849  1.00  0.00     0.163 HD
BRANCH  11  14
ATOM     14  C   UNL A   1      31.464  27.003  24.615  1.00  0.00     0.063 C 
ATOM     15  H   UNL A   1      32.304  27.624  24.387  1.00  0.00     0.045 H 
BRANCH  14  16
ATOM     16  C   UNL A   1      30.223  27.655  23.994  1.00  0.00    -0.049 C 
ATOM     17  H   UNL A   1      30.484  28.616  23.603  1.00  0.00     0.024 H 
ATOM     18  H   UNL A   1      29.467  27.768  24.742  1.00  0.00     0.024 H 
ATOM     19  H   UNL A   1      29.854  27.038  23.203  1.00  0.00     0.024 H 
ENDBRANCH  14  16
BRANCH  14  20
ATOM     20  C   UNL A   1      31.674  25.628  23.995  1.00  0.00    -0.000 A 
ATOM     21  C   UNL A   1      30.602  24.733  23.872  1.00  0.00    -0.055 A 
ATOM     22  C   UNL A   1      32.937  25.213  23.551  1.00  0.00     0.127 A 
ATOM     23  C   UNL A   1      30.804  23.454  23.343  1.00  0.00    -0.058 A 
ATOM     24  H   UNL A   1      29.658  25.020  24.174  1.00  0.00     0.063 H 
ATOM     25  C   UNL A   1      33.145  23.936  23.034  1.00  0.00    -0.022 A 
ATOM     26  F   UNL A   1      33.988  26.039  23.644  1.00  0.00    -0.207 F 
ATOM     27  C   UNL A   1      32.079  23.036  22.934  1.00  0.00    -0.038 A 
ATOM     28  H   UNL A   1      30.003  22.809  23.253  1.00  0.00     0.063 H 
ATOM     29  H   UNL A   1      34.089  23.655  22.725  1.00  0.00     0.066 H 
BRANCH  27  30
ATOM     30  C   UNL A   1      32.307  21.634  22.416  1.00  0.00     0.031 C 
ATOM     31  H   UNL A   1      33.184  21.635  21.804  1.00  0.00     0.040 H 
ATOM     32  H   UNL A   1      31.433  21.352  21.867  1.00  0.00     0.040 H 
BRANCH  30  33
ATOM     33  C   UNL A   1      32.490  20.630  23.504  1.00  0.00     0.108 A 
ATOM     34  C   UNL A   1      32.818  20.723  24.842  1.00  0.00    -0.020 A 
ATOM     35  O   UNL A   1      32.278  19.324  23.171  1.00  0.00    -0.469 OA
ATOM     36  C   UNL A   1      32.813  19.402  25.351  1.00  0.00    -0.024 A 
ATOM     37  H   UNL A   1      33.025  21.587  25.368  1.00  0.00     0.066 H 
ATOM     38  C   UNL A   1      32.477  18.589  24.295  1.00  0.00     0.091 A 
ATOM     39  H   UNL A   1      33.021  19.110  26.319  1.00  0.00     0.066 H 
ATOM     40  H   UNL A   1      32.388  17.562  24.351  1.00  0.00     0.104 H 
ENDBRANCH  30  33
ENDBRANCH  27  30
ENDBRANCH  14  20
ENDBRANCH  11  14
ENDBRANCH   7  10
ENDBRANCH   4   7
ENDBRANCH   1   4
BRANCH   1  41
ATOM     41  C   UNL A   1      31.548  30.775  26.682  1.00  0.00    -0.052 C 
ATOM     42  H   UNL A   1      31.633  30.407  27.683  1.00  0.00     0.027 H 
ATOM     43  H   UNL A   1      30.671  30.436  26.173  1.00  0.00     0.027 H 
BRANCH  41  44
ATOM     44  C   UNL A   1      31.437  32.300  26.747  1.00  0.00    -0.036 C 
ATOM     45  H   UNL A   1      30.684  32.548  27.465  1.00  0.00     0.028 H 
ATOM     46  H   UNL A   1      31.202  32.626  25.755  1.00  0.00     0.028 H 
BRANCH  44  47
ATOM     47  C   UNL A   1      32.722  33.021  27.140  1.00  0.00     0.018 C 
ATOM     48  H   UNL A   1      33.354  33.090  26.279  1.00  0.00     0.049 H 
ATOM     49  H   UNL A   1      33.187  32.457  27.921  1.00  0.00     0.049 H 
BRANCH  47  50
ATOM     50  N   UNL A   1      32.473  34.358  27.647  1.00  0.00    -0.352 N 
ATOM     51  C   UNL A   1      33.021  34.991  28.731  1.00  0.00     0.251 C 
ATOM     52  H   UNL A   1      31.816  34.886  27.138  1.00  0.00     0.163 HD
ATOM     53  O   UNL A   1      32.566  36.070  29.109  1.00  0.00    -0.269 OA
BRANCH  51  54
ATOM     54  C   UNL A   1      34.152  34.381  29.465  1.00  0.00     0.039 A 
ATOM     55  C   UNL A   1      35.438  34.497  28.930  1.00  0.00    -0.049 A 
ATOM     56  C   UNL A   1      33.948  33.658  30.644  1.00  0.00    -0.049 A 
ATOM     57  C   UNL A   1      36.522  33.911  29.589  1.00  0.00    -0.053 A 
ATOM     58  H   UNL A   1      35.588  35.014  28.050  1.00  0.00     0.063 H 
ATOM     59  C   UNL A   1      35.037  33.131  31.336  1.00  0.00    -0.053 A 
ATOM     60  H   UNL A   1      32.990  33.513  31.002  1.00  0.00     0.063 H 
ATOM     61  C   UNL A   1      36.331  33.232  30.803  1.00  0.00    -0.014 A 
ATOM     62  H   UNL A   1      37.467  33.977  29.181  1.00  0.00     0.063 H 
ATOM     63  H   UNL A   1      34.890  32.664  32.244  1.00  0.00     0.063 H 
BRANCH  61  64
ATOM     64  C   UNL A   1      37.466  32.576  31.496  1.00  0.00     0.031 A 
ATOM     65  C   UNL A   1      38.199  31.444  30.826  1.00  0.00     0.074 A 
ATOM     66  C   UNL A   1      37.815  32.965  32.737  1.00  0.00     0.049 A 
ATOM     67  N   UNL A   1      39.193  30.718  31.274  1.00  0.00    -0.248 NA
ATOM     68  C   UNL A   1      37.735  31.061  29.484  1.00  0.00    -0.034 C 
ATOM     69  C   UNL A   1      37.154  34.017  33.509  1.00  0.00    -0.036 A 
ATOM     70  N   UNL A   1      38.809  32.515  33.567  1.00  0.00    -0.354 N 
ATOM     71  C   UNL A   1      39.452  29.781  30.282  1.00  0.00     0.074 A 
ATOM     72  C   UNL A   1      38.485  29.998  29.230  1.00  0.00    -0.034 C 
ATOM     73  H   UNL A   1      37.013  31.504  28.894  1.00  0.00     0.065 H 
ATOM     74  C   UNL A   1      37.778  34.150  34.690  1.00  0.00    -0.036 A 
ATOM     75  H   UNL A   1      36.339  34.567  33.196  1.00  0.00     0.065 H 
ATOM     76  C   UNL A   1      38.864  33.179  34.769  1.00  0.00     0.049 A 
ATOM     77  H   UNL A   1      39.426  31.787  33.326  1.00  0.00     0.167 HD
ATOM     78  C   UNL A   1      40.425  28.839  30.242  1.00  0.00     0.037 A 
ATOM     79  H   UNL A   1      38.390  29.404  28.392  1.00  0.00     0.065 H 
ATOM     80  H   UNL A   1      37.530  34.832  35.425  1.00  0.00     0.065 H 
ATOM     81  C   UNL A   1      39.704  33.022  35.810  1.00  0.00     0.037 A 
ATOM     82  C   UNL A   1      41.415  28.656  31.269  1.00  0.00     0.049 A 
ATOM     83  C   UNL A   1      40.798  31.992  35.726  1.00  0.00     0.074 A 
ATOM     84  C   UNL A   1      42.483  27.775  31.294  1.00  0.00    -0.036 A 
ATOM     85  N   UNL A   1      41.461  29.372  32.455  1.00  0.00    -0.354 N 
ATOM     86  N   UNL A   1      41.076  31.157  34.754  1.00  0.00    -0.248 NA
ATOM     87  C   UNL A   1      41.702  31.893  36.880  1.00  0.00    -0.034 C 
ATOM     88  C   UNL A   1      43.155  27.936  32.510  1.00  0.00    -0.036 A 
ATOM     89  H   UNL A   1      42.739  27.114  30.544  1.00  0.00     0.065 H 
ATOM     90  C   UNL A   1      42.532  28.946  33.225  1.00  0.00     0.049 A 
ATOM     91  H   UNL A   1      40.827  30.079  32.714  1.00  0.00     0.167 HD
ATOM     92  C   UNL A   1      42.207  30.462  35.161  1.00  0.00     0.074 A 
ATOM     93  C   UNL A   1      42.567  30.977  36.466  1.00  0.00    -0.034 C 
ATOM     94  H   UNL A   1      41.671  32.401  37.777  1.00  0.00     0.065 H 
ATOM     95  H   UNL A   1      43.976  27.394  32.822  1.00  0.00     0.065 H 
ATOM     96  C   UNL A   1      42.887  29.485  34.512  1.00  0.00     0.037 A 
ATOM     97  H   UNL A   1      43.392  30.670  37.005  1.00  0.00     0.065 H 
BRANCH  78  98
ATOM     98  C   UNL A   1      40.467  27.938  29.043  1.00  0.00     0.064 A 
ATOM     99  C   UNL A   1      41.254  28.239  27.922  1.00  0.00     0.173 A 
ATOM    100  C   UNL A   1      39.728  26.745  29.024  1.00  0.00     0.173 A 
ATOM    101  F   UNL A   1      41.969  29.374  27.884  1.00  0.00    -0.203 F 
ATOM    102  C   UNL A   1      41.276  27.395  26.814  1.00  0.00     0.198 A 
ATOM    103  C   UNL A   1      39.775  25.889  27.927  1.00  0.00     0.198 A 
ATOM    104  F   UNL A   1      38.962  26.407  30.072  1.00  0.00    -0.203 F 
ATOM    105  F   UNL A   1      41.995  27.730  25.733  1.00  0.00    -0.200 F 
ATOM    106  C   UNL A   1      40.542  26.219  26.820  1.00  0.00     0.200 A 
ATOM    107  F   UNL A   1      39.074  24.747  27.938  1.00  0.00    -0.200 F 
ATOM    108  F   UNL A   1      40.566  25.407  25.754  1.00  0.00    -0.200 F 
ENDBRANCH  78  98
BRANCH  81 109
ATOM    109  C   UNL A   1      39.578  33.898  37.003  1.00  0.00     0.064 A 
ATOM    110  C   UNL A   1      38.841  33.482  38.120  1.00  0.00     0.173 A 
ATOM    111  C   UNL A   1      40.182  35.161  37.051  1.00  0.00     0.173 A 
ATOM    112  F   UNL A   1      38.228  32.290  38.112  1.00  0.00    -0.203 F 
ATOM    113  C   UNL A   1      38.694  34.307  39.233  1.00  0.00     0.198 A 
ATOM    114  C   UNL A   1      40.057  35.976  38.174  1.00  0.00     0.198 A 
ATOM    115  F   UNL A   1      40.903  35.603  36.009  1.00  0.00    -0.203 F 
ATOM    116  F   UNL A   1      37.947  33.904  40.270  1.00  0.00    -0.200 F 
ATOM    117  C   UNL A   1      39.306  35.552  39.262  1.00  0.00     0.200 A 
ATOM    118  F   UNL A   1      40.659  37.172  38.204  1.00  0.00    -0.200 F 
ATOM    119  F   UNL A   1      39.167  36.344  40.333  1.00  0.00    -0.200 F 
ENDBRANCH  81 109
BRANCH  96 120
ATOM    120  C   UNL A   1      44.119  28.947  35.177  1.00  0.00     0.064 A 
ATOM    121  C   UNL A   1      45.385  29.506  34.949  1.00  0.00     0.173 A 
ATOM    122  C   UNL A   1      44.023  27.877  36.081  1.00  0.00     0.173 A 
ATOM    123  F   UNL A   1      45.528  30.520  34.083  1.00  0.00    -0.203 F 
ATOM    124  C   UNL A   1      46.515  28.995  35.582  1.00  0.00     0.198 A 
ATOM    125  C   UNL A   1      45.152  27.388  36.732  1.00  0.00     0.198 A 
ATOM    126  F   UNL A   1      42.833  27.313  36.337  1.00  0.00    -0.203 F 
ATOM    127  F   UNL A   1      47.722  29.513  35.314  1.00  0.00    -0.200 F 
ATOM    128  C   UNL A   1      46.397  27.942  36.477  1.00  0.00     0.200 A 
ATOM    129  F   UNL A   1      45.034  26.378  37.605  1.00  0.00    -0.200 F 
ATOM    130  F   UNL A   1      47.486  27.455  37.088  1.00  0.00    -0.200 F 
ENDBRANCH  96 120
ENDBRANCH  61  64
ENDBRANCH  51  54
ENDBRANCH  47  50
ENDBRANCH  44  47
ENDBRANCH  41  44
ENDBRANCH   1  41
TORSDOF 17
ENDMDL
MODEL 9
REMARK VINA RESULT:     -11.3      4.161      8.887
REMARK SMILES C[C@@H](C(=O)NCCCCCCNC(=O)c1ccc(-c2c3nc(c(-c4c(F)c(F)c(F)c(F)c4F)c4ccc([nH]4)c(-c4c(F)c(F)c(F)c(F)c4F)c4nc(c(-c5c(F)c(F)c(F)c(F)c5F)c5ccc2[nH]5)C=C4)C=C3)cc1)c1ccc(Cc2ccco2)cc1F
REMARK SMILES IDX 8 1 7 4 6 7 5 10 3 11 4 12 2 14 1 16 78 20 79 21 89 22 80 23
REMARK SMILES IDX 88 25 90 26 81 27 82 30 83 33 84 34 87 35 85 36 86 38 9 41
REMARK SMILES IDX 10 44 11 47 12 50 13 51 14 53 15 54 16 55 77 56 17 57 76 59
REMARK SMILES IDX 18 61 19 64 20 65 70 66 21 67 75 68 69 69 71 70 22 71 74 72
REMARK SMILES IDX 68 74 67 76 23 78 55 81 35 82 54 83 36 84 39 85 53 86 72 87
REMARK SMILES IDX 37 88 38 90 52 92 73 93 40 96 24 98 25 99 33 100 26 101
REMARK SMILES IDX 27 102 31 103 34 104 28 105 29 106 32 107 30 108 56 109
REMARK SMILES IDX 57 110 65 111 58 112 59 113 63 114 66 115 60 116 61 117
REMARK SMILES IDX 64 118 62 119 41 120 42 121 50 122 43 123 44 124 48 125
REMARK SMILES IDX 51 126 45 127 46 128 49 129 47 130
REMARK H PARENT 8 2 8 3 7 5 7 6 6 8 6 9 5 13 2 15 1 17 1 18 1 19 79 24 80 28
REMARK H PARENT 88 29 82 31 82 32 84 37 85 39 86 40 9 42 9 43 10 45 10 46
REMARK H PARENT 11 48 11 49 12 52 16 58 77 60 17 62 76 63 75 73 69 75 71 77
REMARK H PARENT 74 79 68 80 36 89 39 91 72 94 37 95 73 97
REMARK Flexibility Score: inf
ROOT
ATOM      1  C   UNL A   1      33.632  22.229  26.597  1.00  0.00    -0.052 C 
ATOM      2  H   UNL A   1      33.456  21.956  27.616  1.00  0.00     0.027 H 
ATOM      3  H   UNL A   1      33.175  23.154  26.314  1.00  0.00     0.027 H 
ENDROOT
BRANCH   1   4
ATOM      4  C   UNL A   1      33.000  21.155  25.702  1.00  0.00    -0.036 C 
ATOM      5  H   UNL A   1      33.775  20.493  25.376  1.00  0.00     0.028 H 
ATOM      6  H   UNL A   1      32.254  20.667  26.293  1.00  0.00     0.028 H 
BRANCH   4   7
ATOM      7  C   UNL A   1      32.285  21.700  24.464  1.00  0.00     0.017 C 
ATOM      8  H   UNL A   1      31.698  20.919  24.027  1.00  0.00     0.049 H 
ATOM      9  H   UNL A   1      31.663  22.517  24.765  1.00  0.00     0.049 H 
BRANCH   7  10
ATOM     10  N   UNL A   1      33.233  22.183  23.483  1.00  0.00    -0.356 N 
ATOM     11  C   UNL A   1      33.272  23.353  22.782  1.00  0.00     0.227 C 
ATOM     12  O   UNL A   1      34.223  23.494  22.010  1.00  0.00    -0.274 OA
ATOM     13  H   UNL A   1      33.974  21.565  23.289  1.00  0.00     0.163 HD
BRANCH  11  14
ATOM     14  C   UNL A   1      32.217  24.442  23.035  1.00  0.00     0.063 C 
ATOM     15  H   UNL A   1      31.367  23.910  23.406  1.00  0.00     0.045 H 
BRANCH  14  16
ATOM     16  C   UNL A   1      31.780  25.187  21.768  1.00  0.00    -0.049 C 
ATOM     17  H   UNL A   1      31.194  24.534  21.155  1.00  0.00     0.024 H 
ATOM     18  H   UNL A   1      32.646  25.504  21.224  1.00  0.00     0.024 H 
ATOM     19  H   UNL A   1      31.196  26.040  22.039  1.00  0.00     0.024 H 
ENDBRANCH  14  16
BRANCH  14  20
ATOM     20  C   UNL A   1      32.671  25.452  24.081  1.00  0.00    -0.000 A 
ATOM     21  C   UNL A   1      32.189  25.379  25.394  1.00  0.00    -0.055 A 
ATOM     22  C   UNL A   1      33.561  26.486  23.758  1.00  0.00     0.127 A 
ATOM     23  C   UNL A   1      32.571  26.333  26.343  1.00  0.00    -0.058 A 
ATOM     24  H   UNL A   1      31.546  24.618  25.663  1.00  0.00     0.063 H 
ATOM     25  C   UNL A   1      33.936  27.444  24.696  1.00  0.00    -0.022 A 
ATOM     26  F   UNL A   1      34.051  26.588  22.515  1.00  0.00    -0.207 F 
ATOM     27  C   UNL A   1      33.435  27.385  26.001  1.00  0.00    -0.038 A 
ATOM     28  H   UNL A   1      32.212  26.263  27.308  1.00  0.00     0.063 H 
ATOM     29  H   UNL A   1      34.585  28.200  24.427  1.00  0.00     0.066 H 
BRANCH  27  30
ATOM     30  C   UNL A   1      33.802  28.446  27.012  1.00  0.00     0.031 C 
ATOM     31  H   UNL A   1      34.837  28.690  26.891  1.00  0.00     0.040 H 
ATOM     32  H   UNL A   1      33.595  28.048  27.983  1.00  0.00     0.040 H 
BRANCH  30  33
ATOM     33  C   UNL A   1      33.003  29.697  26.865  1.00  0.00     0.108 A 
ATOM     34  C   UNL A   1      31.778  29.984  26.296  1.00  0.00    -0.020 A 
ATOM     35  O   UNL A   1      33.533  30.829  27.413  1.00  0.00    -0.469 OA
ATOM     36  C   UNL A   1      31.553  31.366  26.501  1.00  0.00    -0.024 A 
ATOM     37  H   UNL A   1      31.149  29.320  25.817  1.00  0.00     0.066 H 
ATOM     38  C   UNL A   1      32.649  31.833  27.186  1.00  0.00     0.091 A 
ATOM     39  H   UNL A   1      30.731  31.912  26.196  1.00  0.00     0.066 H 
ATOM     40  H   UNL A   1      32.780  32.812  27.486  1.00  0.00     0.104 H 
ENDBRANCH  30  33
ENDBRANCH  27  30
ENDBRANCH  14  20
ENDBRANCH  11  14
ENDBRANCH   7  10
ENDBRANCH   4   7
ENDBRANCH   1   4
BRANCH   1  41
ATOM     41  C   UNL A   1      35.140  22.432  26.416  1.00  0.00    -0.052 C 
ATOM     42  H   UNL A   1      35.509  21.639  25.801  1.00  0.00     0.027 H 
ATOM     43  H   UNL A   1      35.558  22.441  27.400  1.00  0.00     0.027 H 
BRANCH  41  44
ATOM     44  C   UNL A   1      35.548  23.759  25.771  1.00  0.00    -0.036 C 
ATOM     45  H   UNL A   1      35.686  24.479  26.551  1.00  0.00     0.028 H 
ATOM     46  H   UNL A   1      34.763  24.016  25.092  1.00  0.00     0.028 H 
BRANCH  44  47
ATOM     47  C   UNL A   1      36.828  23.704  24.944  1.00  0.00     0.018 C 
ATOM     48  H   UNL A   1      37.323  24.650  25.015  1.00  0.00     0.049 H 
ATOM     49  H   UNL A   1      36.554  23.481  23.934  1.00  0.00     0.049 H 
BRANCH  47  50
ATOM     50  N   UNL A   1      37.735  22.665  25.397  1.00  0.00    -0.352 N 
ATOM     51  C   UNL A   1      38.890  22.778  26.126  1.00  0.00     0.251 C 
ATOM     52  H   UNL A   1      37.484  21.747  25.144  1.00  0.00     0.163 HD
ATOM     53  O   UNL A   1      39.620  21.800  26.276  1.00  0.00    -0.269 OA
BRANCH  51  54
ATOM     54  C   UNL A   1      39.275  24.075  26.725  1.00  0.00     0.039 A 
ATOM     55  C   UNL A   1      40.024  24.971  25.957  1.00  0.00    -0.049 A 
ATOM     56  C   UNL A   1      38.947  24.391  28.047  1.00  0.00    -0.049 A 
ATOM     57  C   UNL A   1      40.421  26.194  26.504  1.00  0.00    -0.053 A 
ATOM     58  H   UNL A   1      40.283  24.731  24.988  1.00  0.00     0.063 H 
ATOM     59  C   UNL A   1      39.286  25.637  28.570  1.00  0.00    -0.053 A 
ATOM     60  H   UNL A   1      38.454  23.701  28.636  1.00  0.00     0.063 H 
ATOM     61  C   UNL A   1      40.046  26.541  27.812  1.00  0.00    -0.014 A 
ATOM     62  H   UNL A   1      40.994  26.844  25.944  1.00  0.00     0.063 H 
ATOM     63  H   UNL A   1      38.977  25.897  29.519  1.00  0.00     0.063 H 
BRANCH  61  64
ATOM     64  C   UNL A   1      40.491  27.820  28.418  1.00  0.00     0.031 A 
ATOM     65  C   UNL A   1      41.943  28.023  28.758  1.00  0.00     0.074 A 
ATOM     66  C   UNL A   1      39.590  28.781  28.699  1.00  0.00     0.049 A 
ATOM     67  N   UNL A   1      42.527  29.050  29.322  1.00  0.00    -0.248 NA
ATOM     68  C   UNL A   1      42.854  26.911  28.447  1.00  0.00    -0.034 C 
ATOM     69  C   UNL A   1      38.150  28.686  28.459  1.00  0.00    -0.036 A 
ATOM     70  N   UNL A   1      39.756  30.025  29.253  1.00  0.00    -0.354 N 
ATOM     71  C   UNL A   1      43.864  28.697  29.455  1.00  0.00     0.074 A 
ATOM     72  C   UNL A   1      43.998  27.347  28.957  1.00  0.00    -0.034 C 
ATOM     73  H   UNL A   1      42.656  26.024  27.960  1.00  0.00     0.065 H 
ATOM     74  C   UNL A   1      37.567  29.834  28.839  1.00  0.00    -0.036 A 
ATOM     75  H   UNL A   1      37.662  27.868  28.063  1.00  0.00     0.065 H 
ATOM     76  C   UNL A   1      38.586  30.734  29.371  1.00  0.00     0.049 A 
ATOM     77  H   UNL A   1      40.629  30.376  29.539  1.00  0.00     0.167 HD
ATOM     78  C   UNL A   1      44.892  29.442  29.928  1.00  0.00     0.037 A 
ATOM     79  H   UNL A   1      44.868  26.794  28.994  1.00  0.00     0.065 H 
ATOM     80  H   UNL A   1      36.559  30.046  28.765  1.00  0.00     0.065 H 
ATOM     81  C   UNL A   1      38.365  31.974  29.848  1.00  0.00     0.037 A 
ATOM     82  C   UNL A   1      44.765  30.802  30.379  1.00  0.00     0.049 A 
ATOM     83  C   UNL A   1      39.530  32.793  30.335  1.00  0.00     0.074 A 
ATOM     84  C   UNL A   1      45.756  31.665  30.814  1.00  0.00    -0.036 A 
ATOM     85  N   UNL A   1      43.569  31.499  30.449  1.00  0.00    -0.354 N 
ATOM     86  N   UNL A   1      40.800  32.474  30.393  1.00  0.00    -0.248 NA
ATOM     87  C   UNL A   1      39.230  34.150  30.812  1.00  0.00    -0.034 C 
ATOM     88  C   UNL A   1      45.154  32.874  31.178  1.00  0.00    -0.036 A 
ATOM     89  H   UNL A   1      46.765  31.452  30.861  1.00  0.00     0.065 H 
ATOM     90  C   UNL A   1      43.795  32.779  30.930  1.00  0.00     0.049 A 
ATOM     91  H   UNL A   1      42.689  31.139  30.194  1.00  0.00     0.167 HD
ATOM     92  C   UNL A   1      41.455  33.600  30.873  1.00  0.00     0.074 A 
ATOM     93  C   UNL A   1      40.442  34.613  31.087  1.00  0.00    -0.034 C 
ATOM     94  H   UNL A   1      38.316  34.620  30.908  1.00  0.00     0.065 H 
ATOM     95  H   UNL A   1      45.641  33.698  31.566  1.00  0.00     0.065 H 
ATOM     96  C   UNL A   1      42.776  33.780  31.116  1.00  0.00     0.037 A 
ATOM     97  H   UNL A   1      40.638  35.572  31.411  1.00  0.00     0.065 H 
BRANCH  78  98
ATOM     98  C   UNL A   1      46.248  28.799  29.975  1.00  0.00     0.064 A 
ATOM     99  C   UNL A   1      47.124  28.846  28.881  1.00  0.00     0.173 A 
ATOM    100  C   UNL A   1      46.686  28.148  31.138  1.00  0.00     0.173 A 
ATOM    101  F   UNL A   1      46.749  29.446  27.740  1.00  0.00    -0.203 F 
ATOM    102  C   UNL A   1      48.376  28.239  28.938  1.00  0.00     0.198 A 
ATOM    103  C   UNL A   1      47.949  27.567  31.203  1.00  0.00     0.198 A 
ATOM    104  F   UNL A   1      45.889  28.078  32.215  1.00  0.00    -0.203 F 
ATOM    105  F   UNL A   1      49.175  28.251  27.862  1.00  0.00    -0.200 F 
ATOM    106  C   UNL A   1      48.790  27.605  30.100  1.00  0.00     0.200 A 
ATOM    107  F   UNL A   1      48.352  26.965  32.329  1.00  0.00    -0.200 F 
ATOM    108  F   UNL A   1      49.995  27.023  30.155  1.00  0.00    -0.200 F 
ENDBRANCH  78  98
BRANCH  81 109
ATOM    109  C   UNL A   1      36.992  32.539  29.840  1.00  0.00     0.064 A 
ATOM    110  C   UNL A   1      36.520  33.257  28.732  1.00  0.00     0.173 A 
ATOM    111  C   UNL A   1      36.128  32.380  30.931  1.00  0.00     0.173 A 
ATOM    112  F   UNL A   1      37.319  33.452  27.672  1.00  0.00    -0.203 F 
ATOM    113  C   UNL A   1      35.243  33.814  28.725  1.00  0.00     0.198 A 
ATOM    114  C   UNL A   1      34.842  32.915  30.915  1.00  0.00     0.198 A 
ATOM    115  F   UNL A   1      36.530  31.696  32.013  1.00  0.00    -0.203 F 
ATOM    116  F   UNL A   1      34.834  34.533  27.672  1.00  0.00    -0.200 F 
ATOM    117  C   UNL A   1      34.403  33.638  29.815  1.00  0.00     0.200 A 
ATOM    118  F   UNL A   1      34.028  32.734  31.963  1.00  0.00    -0.200 F 
ATOM    119  F   UNL A   1      33.174  34.171  29.808  1.00  0.00    -0.200 F 
ENDBRANCH  81 109
BRANCH  96 120
ATOM    120  C   UNL A   1      43.210  35.136  31.588  1.00  0.00     0.064 A 
ATOM    121  C   UNL A   1      43.652  36.122  30.694  1.00  0.00     0.173 A 
ATOM    122  C   UNL A   1      43.150  35.462  32.952  1.00  0.00     0.173 A 
ATOM    123  F   UNL A   1      43.742  35.853  29.383  1.00  0.00    -0.203 F 
ATOM    124  C   UNL A   1      44.045  37.377  31.152  1.00  0.00     0.198 A 
ATOM    125  C   UNL A   1      43.517  36.727  33.402  1.00  0.00     0.198 A 
ATOM    126  F   UNL A   1      42.727  34.555  33.845  1.00  0.00    -0.203 F 
ATOM    127  F   UNL A   1      44.509  38.289  30.286  1.00  0.00    -0.200 F 
ATOM    128  C   UNL A   1      43.970  37.680  32.504  1.00  0.00     0.200 A 
ATOM    129  F   UNL A   1      43.433  37.022  34.707  1.00  0.00    -0.200 F 
ATOM    130  F   UNL A   1      44.345  38.890  32.941  1.00  0.00    -0.200 F 
ENDBRANCH  96 120
ENDBRANCH  61  64
ENDBRANCH  51  54
ENDBRANCH  47  50
ENDBRANCH  44  47
ENDBRANCH  41  44
ENDBRANCH   1  41
TORSDOF 17
ENDMDL
MODEL 10
REMARK VINA RESULT:     -11.2      4.320      8.543
REMARK SMILES C[C@@H](C(=O)NCCCCCCNC(=O)c1ccc(-c2c3nc(c(-c4c(F)c(F)c(F)c(F)c4F)c4ccc([nH]4)c(-c4c(F)c(F)c(F)c(F)c4F)c4nc(c(-c5c(F)c(F)c(F)c(F)c5F)c5ccc2[nH]5)C=C4)C=C3)cc1)c1ccc(Cc2ccco2)cc1F
REMARK SMILES IDX 8 1 7 4 6 7 5 10 3 11 4 12 2 14 1 16 78 20 79 21 89 22 80 23
REMARK SMILES IDX 88 25 90 26 81 27 82 30 83 33 84 34 87 35 85 36 86 38 9 41
REMARK SMILES IDX 10 44 11 47 12 50 13 51 14 53 15 54 16 55 77 56 17 57 76 59
REMARK SMILES IDX 18 61 19 64 20 65 70 66 21 67 75 68 69 69 71 70 22 71 74 72
REMARK SMILES IDX 68 74 67 76 23 78 55 81 35 82 54 83 36 84 39 85 53 86 72 87
REMARK SMILES IDX 37 88 38 90 52 92 73 93 40 96 24 98 25 99 33 100 26 101
REMARK SMILES IDX 27 102 31 103 34 104 28 105 29 106 32 107 30 108 56 109
REMARK SMILES IDX 57 110 65 111 58 112 59 113 63 114 66 115 60 116 61 117
REMARK SMILES IDX 64 118 62 119 41 120 42 121 50 122 43 123 44 124 48 125
REMARK SMILES IDX 51 126 45 127 46 128 49 129 47 130
REMARK H PARENT 8 2 8 3 7 5 7 6 6 8 6 9 5 13 2 15 1 17 1 18 1 19 79 24 80 28
REMARK H PARENT 88 29 82 31 82 32 84 37 85 39 86 40 9 42 9 43 10 45 10 46
REMARK H PARENT 11 48 11 49 12 52 16 58 77 60 17 62 76 63 75 73 69 75 71 77
REMARK H PARENT 74 79 68 80 36 89 39 91 72 94 37 95 73 97
REMARK Flexibility Score: inf
ROOT
ATOM      1  C   UNL A   1      33.386  35.292  30.626  1.00  0.00    -0.052 C 
ATOM      2  H   UNL A   1      32.924  36.139  30.165  1.00  0.00     0.027 H 
ATOM      3  H   UNL A   1      32.706  34.497  30.849  1.00  0.00     0.027 H 
ENDROOT
BRANCH   1   4
ATOM      4  C   UNL A   1      33.964  35.743  31.975  1.00  0.00    -0.036 C 
ATOM      5  H   UNL A   1      34.625  36.566  31.796  1.00  0.00     0.028 H 
ATOM      6  H   UNL A   1      33.130  36.003  32.592  1.00  0.00     0.028 H 
BRANCH   4   7
ATOM      7  C   UNL A   1      34.741  34.661  32.726  1.00  0.00     0.017 C 
ATOM      8  H   UNL A   1      34.348  34.575  33.718  1.00  0.00     0.049 H 
ATOM      9  H   UNL A   1      34.633  33.737  32.196  1.00  0.00     0.049 H 
BRANCH   7  10
ATOM     10  N   UNL A   1      36.150  34.984  32.802  1.00  0.00    -0.356 N 
ATOM     11  C   UNL A   1      37.142  34.463  33.579  1.00  0.00     0.227 C 
ATOM     12  O   UNL A   1      38.268  34.938  33.414  1.00  0.00    -0.274 OA
ATOM     13  H   UNL A   1      36.440  35.698  32.190  1.00  0.00     0.163 HD
BRANCH  11  14
ATOM     14  C   UNL A   1      36.847  33.293  34.531  1.00  0.00     0.063 C 
ATOM     15  H   UNL A   1      35.786  33.168  34.480  1.00  0.00     0.045 H 
BRANCH  14  16
ATOM     16  C   UNL A   1      37.211  33.578  35.993  1.00  0.00    -0.049 C 
ATOM     17  H   UNL A   1      36.358  33.976  36.501  1.00  0.00     0.024 H 
ATOM     18  H   UNL A   1      38.011  34.288  36.030  1.00  0.00     0.024 H 
ATOM     19  H   UNL A   1      37.516  32.670  36.468  1.00  0.00     0.024 H 
ENDBRANCH  14  16
BRANCH  14  20
ATOM     20  C   UNL A   1      37.525  32.003  34.086  1.00  0.00    -0.000 A 
ATOM     21  C   UNL A   1      38.770  31.637  34.614  1.00  0.00    -0.055 A 
ATOM     22  C   UNL A   1      36.939  31.164  33.129  1.00  0.00     0.127 A 
ATOM     23  C   UNL A   1      39.414  30.477  34.172  1.00  0.00    -0.058 A 
ATOM     24  H   UNL A   1      39.216  32.228  35.333  1.00  0.00     0.063 H 
ATOM     25  C   UNL A   1      37.581  30.014  32.677  1.00  0.00    -0.022 A 
ATOM     26  F   UNL A   1      35.747  31.474  32.602  1.00  0.00    -0.207 F 
ATOM     27  C   UNL A   1      38.835  29.661  33.188  1.00  0.00    -0.038 A 
ATOM     28  H   UNL A   1      40.328  30.217  34.575  1.00  0.00     0.063 H 
ATOM     29  H   UNL A   1      37.129  29.420  31.964  1.00  0.00     0.066 H 
BRANCH  27  30
ATOM     30  C   UNL A   1      39.557  28.439  32.671  1.00  0.00     0.031 C 
ATOM     31  H   UNL A   1      39.774  28.584  31.633  1.00  0.00     0.040 H 
ATOM     32  H   UNL A   1      38.916  27.597  32.833  1.00  0.00     0.040 H 
BRANCH  30  33
ATOM     33  C   UNL A   1      40.836  28.166  33.387  1.00  0.00     0.108 A 
ATOM     34  C   UNL A   1      42.148  28.538  33.171  1.00  0.00    -0.020 A 
ATOM     35  O   UNL A   1      40.752  27.414  34.522  1.00  0.00    -0.469 OA
ATOM     36  C   UNL A   1      42.906  27.976  34.226  1.00  0.00    -0.024 A 
ATOM     37  H   UNL A   1      42.506  29.115  32.393  1.00  0.00     0.066 H 
ATOM     38  C   UNL A   1      42.010  27.303  35.021  1.00  0.00     0.091 A 
ATOM     39  H   UNL A   1      43.925  28.055  34.367  1.00  0.00     0.066 H 
ATOM     40  H   UNL A   1      42.259  26.786  35.879  1.00  0.00     0.104 H 
ENDBRANCH  30  33
ENDBRANCH  27  30
ENDBRANCH  14  20
ENDBRANCH  11  14
ENDBRANCH   7  10
ENDBRANCH   4   7
ENDBRANCH   1   4
BRANCH   1  41
ATOM     41  C   UNL A   1      34.402  34.711  29.636  1.00  0.00    -0.052 C 
ATOM     42  H   UNL A   1      35.382  34.979  29.973  1.00  0.00     0.027 H 
ATOM     43  H   UNL A   1      34.151  35.120  28.681  1.00  0.00     0.027 H 
BRANCH  41  44
ATOM     44  C   UNL A   1      34.358  33.190  29.472  1.00  0.00    -0.036 C 
ATOM     45  H   UNL A   1      33.414  32.843  29.838  1.00  0.00     0.028 H 
ATOM     46  H   UNL A   1      35.192  32.805  30.019  1.00  0.00     0.028 H 
BRANCH  44  47
ATOM     47  C   UNL A   1      34.521  32.695  28.039  1.00  0.00     0.018 C 
ATOM     48  H   UNL A   1      35.561  32.525  27.851  1.00  0.00     0.049 H 
ATOM     49  H   UNL A   1      34.123  33.444  27.387  1.00  0.00     0.049 H 
BRANCH  47  50
ATOM     50  N   UNL A   1      33.793  31.462  27.794  1.00  0.00    -0.352 N 
ATOM     51  C   UNL A   1      34.270  30.184  27.665  1.00  0.00     0.251 C 
ATOM     52  H   UNL A   1      32.817  31.559  27.708  1.00  0.00     0.163 HD
ATOM     53  O   UNL A   1      33.520  29.283  27.293  1.00  0.00    -0.269 OA
BRANCH  51  54
ATOM     54  C   UNL A   1      35.688  29.878  27.958  1.00  0.00     0.039 A 
ATOM     55  C   UNL A   1      36.032  29.473  29.251  1.00  0.00    -0.049 A 
ATOM     56  C   UNL A   1      36.680  30.035  26.986  1.00  0.00    -0.049 A 
ATOM     57  C   UNL A   1      37.366  29.199  29.562  1.00  0.00    -0.053 A 
ATOM     58  H   UNL A   1      35.303  29.375  29.974  1.00  0.00     0.063 H 
ATOM     59  C   UNL A   1      38.001  29.698  27.278  1.00  0.00    -0.053 A 
ATOM     60  H   UNL A   1      36.436  30.401  26.052  1.00  0.00     0.063 H 
ATOM     61  C   UNL A   1      38.360  29.299  28.575  1.00  0.00    -0.014 A 
ATOM     62  H   UNL A   1      37.622  28.922  30.522  1.00  0.00     0.063 H 
ATOM     63  H   UNL A   1      38.717  29.741  26.538  1.00  0.00     0.063 H 
BRANCH  61  64
ATOM     64  C   UNL A   1      39.785  29.046  28.900  1.00  0.00     0.031 A 
ATOM     65  C   UNL A   1      40.563  30.059  29.695  1.00  0.00     0.074 A 
ATOM     66  C   UNL A   1      40.390  27.930  28.451  1.00  0.00     0.049 A 
ATOM     67  N   UNL A   1      41.823  30.043  30.054  1.00  0.00    -0.248 NA
ATOM     68  C   UNL A   1      39.835  31.264  30.121  1.00  0.00    -0.034 C 
ATOM     69  C   UNL A   1      39.757  26.895  27.634  1.00  0.00    -0.036 A 
ATOM     70  N   UNL A   1      41.677  27.484  28.615  1.00  0.00    -0.354 N 
ATOM     71  C   UNL A   1      42.041  31.241  30.721  1.00  0.00     0.074 A 
ATOM     72  C   UNL A   1      40.799  31.982  30.679  1.00  0.00    -0.034 C 
ATOM     73  H   UNL A   1      38.835  31.492  30.012  1.00  0.00     0.065 H 
ATOM     74  C   UNL A   1      40.649  25.922  27.390  1.00  0.00    -0.036 A 
ATOM     75  H   UNL A   1      38.781  26.912  27.298  1.00  0.00     0.065 H 
ATOM     76  C   UNL A   1      41.921  26.275  28.012  1.00  0.00     0.049 A 
ATOM     77  H   UNL A   1      42.360  27.983  29.118  1.00  0.00     0.167 HD
ATOM     78  C   UNL A   1      43.167  31.675  31.336  1.00  0.00     0.037 A 
ATOM     79  H   UNL A   1      40.680  32.942  31.036  1.00  0.00     0.065 H 
ATOM     80  H   UNL A   1      40.464  25.062  26.851  1.00  0.00     0.065 H 
ATOM     81  C   UNL A   1      43.046  25.535  27.973  1.00  0.00     0.037 A 
ATOM     82  C   UNL A   1      44.387  30.916  31.417  1.00  0.00     0.049 A 
ATOM     83  C   UNL A   1      44.274  26.023  28.693  1.00  0.00     0.074 A 
ATOM     84  C   UNL A   1      45.563  31.237  32.073  1.00  0.00    -0.036 A 
ATOM     85  N   UNL A   1      44.585  29.678  30.824  1.00  0.00    -0.354 N 
ATOM     86  N   UNL A   1      44.448  27.126  29.379  1.00  0.00    -0.248 NA
ATOM     87  C   UNL A   1      45.458  25.154  28.643  1.00  0.00    -0.034 C 
ATOM     88  C   UNL A   1      46.483  30.208  31.849  1.00  0.00    -0.036 A 
ATOM     89  H   UNL A   1      45.731  32.089  32.631  1.00  0.00     0.065 H 
ATOM     90  C   UNL A   1      45.868  29.226  31.090  1.00  0.00     0.049 A 
ATOM     91  H   UNL A   1      43.913  29.192  30.294  1.00  0.00     0.167 HD
ATOM     92  C   UNL A   1      45.744  27.068  29.873  1.00  0.00     0.074 A 
ATOM     93  C   UNL A   1      46.310  25.817  29.413  1.00  0.00    -0.034 C 
ATOM     94  H   UNL A   1      45.592  24.264  28.139  1.00  0.00     0.065 H 
ATOM     95  H   UNL A   1      47.457  30.183  32.191  1.00  0.00     0.065 H 
ATOM     96  C   UNL A   1      46.406  27.968  30.641  1.00  0.00     0.037 A 
ATOM     97  H   UNL A   1      47.256  25.483  29.654  1.00  0.00     0.065 H 
BRANCH  78  98
ATOM     98  C   UNL A   1      43.130  33.033  31.973  1.00  0.00     0.064 A 
ATOM     99  C   UNL A   1      43.507  34.187  31.271  1.00  0.00     0.173 A 
ATOM    100  C   UNL A   1      42.687  33.185  33.296  1.00  0.00     0.173 A 
ATOM    101  F   UNL A   1      43.950  34.094  30.008  1.00  0.00    -0.203 F 
ATOM    102  C   UNL A   1      43.473  35.440  31.879  1.00  0.00     0.198 A 
ATOM    103  C   UNL A   1      42.627  34.442  33.892  1.00  0.00     0.198 A 
ATOM    104  F   UNL A   1      42.310  32.115  34.011  1.00  0.00    -0.203 F 
ATOM    105  F   UNL A   1      43.889  36.521  31.206  1.00  0.00    -0.200 F 
ATOM    106  C   UNL A   1      43.028  35.567  33.186  1.00  0.00     0.200 A 
ATOM    107  F   UNL A   1      42.185  34.566  35.151  1.00  0.00    -0.200 F 
ATOM    108  F   UNL A   1      42.993  36.773  33.769  1.00  0.00    -0.200 F 
ENDBRANCH  78  98
BRANCH  81 109
ATOM    109  C   UNL A   1      43.048  24.226  27.271  1.00  0.00     0.064 A 
ATOM    110  C   UNL A   1      42.630  23.061  27.928  1.00  0.00     0.173 A 
ATOM    111  C   UNL A   1      43.470  24.110  25.940  1.00  0.00     0.173 A 
ATOM    112  F   UNL A   1      42.237  23.120  29.209  1.00  0.00    -0.203 F 
ATOM    113  C   UNL A   1      42.654  21.824  27.287  1.00  0.00     0.198 A 
ATOM    114  C   UNL A   1      43.470  22.878  25.290  1.00  0.00     0.198 A 
ATOM    115  F   UNL A   1      43.875  25.197  25.265  1.00  0.00    -0.203 F 
ATOM    116  F   UNL A   1      42.291  20.720  27.952  1.00  0.00    -0.200 F 
ATOM    117  C   UNL A   1      43.070  21.734  25.966  1.00  0.00     0.200 A 
ATOM    118  F   UNL A   1      43.860  22.796  24.012  1.00  0.00    -0.200 F 
ATOM    119  F   UNL A   1      43.091  20.546  25.349  1.00  0.00    -0.200 F 
ENDBRANCH  81 109
BRANCH  96 120
ATOM    120  C   UNL A   1      47.796  27.611  31.075  1.00  0.00     0.064 A 
ATOM    121  C   UNL A   1      48.921  27.965  30.317  1.00  0.00     0.173 A 
ATOM    122  C   UNL A   1      48.005  26.931  32.285  1.00  0.00     0.173 A 
ATOM    123  F   UNL A   1      48.771  28.603  29.146  1.00  0.00    -0.203 F 
ATOM    124  C   UNL A   1      50.204  27.629  30.741  1.00  0.00     0.198 A 
ATOM    125  C   UNL A   1      49.291  26.621  32.719  1.00  0.00     0.198 A 
ATOM    126  F   UNL A   1      46.962  26.575  33.050  1.00  0.00    -0.203 F 
ATOM    127  F   UNL A   1      51.261  27.936  29.977  1.00  0.00    -0.200 F 
ATOM    128  C   UNL A   1      50.388  26.963  31.944  1.00  0.00     0.200 A 
ATOM    129  F   UNL A   1      49.467  25.988  33.887  1.00  0.00    -0.200 F 
ATOM    130  F   UNL A   1      51.624  26.645  32.351  1.00  0.00    -0.200 F 
ENDBRANCH  96 120
ENDBRANCH  61  64
ENDBRANCH  51  54
ENDBRANCH  47  50
ENDBRANCH  44  47
ENDBRANCH  41  44
ENDBRANCH   1  41
TORSDOF 17
ENDMDL
