MODEL 1
REMARK VINA RESULT:     -12.2      0.000      0.000
REMARK SMILES CC(C)(C)c1cc(Nc2ccccc2C(=O)NCCCCCCNC(=O)c2ccc(-c3c4nc(c(-c5c(F)c(F)c(F)c(F)c5F)c5ccc([nH]5)c(-c5c(F)c(F)c(F)c(F)c5F)c5nc(c(-c6c(F)c(F)c(F)c(F)c6F)c6ccc3[nH]6)C=C5)C=C4)cc2)cc2c1OCC2(C)C
REMARK SMILES IDX 19 1 18 4 17 7 15 8 16 9 14 11 9 12 10 13 11 14 13 16 12 17
REMARK SMILES IDX 8 21 7 23 5 24 6 25 92 26 91 28 93 29 90 30 95 31 94 32 2 36
REMARK SMILES IDX 1 37 3 41 4 45 96 49 97 53 20 57 21 60 22 63 23 66 24 69
REMARK SMILES IDX 25 70 26 72 27 73 28 74 89 75 29 76 88 78 30 80 31 83 32 84
REMARK SMILES IDX 82 85 33 86 87 87 81 88 83 89 34 90 86 91 80 93 79 95 35 97
REMARK SMILES IDX 67 100 47 101 66 102 48 103 51 104 65 105 84 106 49 107
REMARK SMILES IDX 50 109 64 111 85 112 52 115 36 117 37 118 45 119 38 120
REMARK SMILES IDX 39 121 43 122 46 123 40 124 41 125 44 126 42 127 68 128
REMARK SMILES IDX 69 129 77 130 70 131 71 132 75 133 78 134 72 135 73 136
REMARK SMILES IDX 76 137 74 138 53 139 54 140 62 141 55 142 56 143 60 144
REMARK SMILES IDX 63 145 57 146 58 147 61 148 59 149
REMARK H PARENT 19 2 19 3 18 5 18 6 17 10 10 15 11 18 13 19 12 20 8 22 6 27
REMARK H PARENT 90 33 94 34 94 35 1 38 1 39 1 40 3 42 3 43 3 44 4 46 4 47 4 48
REMARK H PARENT 96 50 96 51 96 52 97 54 97 55 97 56 20 58 20 59 21 61 21 62
REMARK H PARENT 22 64 22 65 23 67 23 68 24 71 28 77 89 79 29 81 88 82 87 92
REMARK H PARENT 81 94 83 96 86 98 80 99 48 108 51 110 84 113 49 114 85 116
REMARK Flexibility Score: inf
ROOT
ATOM      1  C   UNL A   1      33.642  24.329  26.501  1.00  0.00    -0.036 C 
ATOM      2  H   UNL A   1      33.612  25.071  27.272  1.00  0.00     0.028 H 
ATOM      3  H   UNL A   1      32.954  24.435  25.688  1.00  0.00     0.028 H 
ENDROOT
BRANCH   1   4
ATOM      4  C   UNL A   1      33.225  23.010  27.143  1.00  0.00     0.018 C 
ATOM      5  H   UNL A   1      33.815  22.236  26.699  1.00  0.00     0.049 H 
ATOM      6  H   UNL A   1      33.378  23.157  28.192  1.00  0.00     0.049 H 
BRANCH   4   7
ATOM      7  N   UNL A   1      31.847  22.622  27.026  1.00  0.00    -0.352 N 
ATOM      8  C   UNL A   1      31.054  22.464  25.911  1.00  0.00     0.253 C 
ATOM      9  O   UNL A   1      29.902  22.068  26.133  1.00  0.00    -0.269 OA
ATOM     10  H   UNL A   1      31.396  22.441  27.882  1.00  0.00     0.163 HD
BRANCH   8  11
ATOM     11  C   UNL A   1      31.417  22.770  24.479  1.00  0.00     0.063 A 
ATOM     12  C   UNL A   1      31.042  23.857  23.658  1.00  0.00     0.051 A 
ATOM     13  C   UNL A   1      31.650  23.988  22.381  1.00  0.00    -0.038 A 
ATOM     14  C   UNL A   1      32.534  23.042  21.871  1.00  0.00    -0.060 A 
ATOM     15  H   UNL A   1      31.426  24.816  21.807  1.00  0.00     0.064 H 
ATOM     16  C   UNL A   1      32.326  21.826  23.934  1.00  0.00    -0.047 A 
ATOM     17  C   UNL A   1      32.860  21.945  22.646  1.00  0.00    -0.061 A 
ATOM     18  H   UNL A   1      32.939  23.158  20.929  1.00  0.00     0.062 H 
ATOM     19  H   UNL A   1      32.606  21.018  24.512  1.00  0.00     0.063 H 
ATOM     20  H   UNL A   1      33.493  21.218  22.276  1.00  0.00     0.062 H 
BRANCH  12  21
ATOM     21  N   UNL A   1      30.025  24.795  23.943  1.00  0.00    -0.355 N 
ATOM     22  H   UNL A   1      29.095  24.474  23.919  1.00  0.00     0.167 HD
BRANCH  21  23
ATOM     23  C   UNL A   1      30.235  26.163  24.261  1.00  0.00     0.039 A 
ATOM     24  C   UNL A   1      29.783  28.553  23.771  1.00  0.00     0.002 A 
ATOM     25  C   UNL A   1      29.481  27.173  23.623  1.00  0.00    -0.031 A 
ATOM     26  C   UNL A   1      30.830  28.864  24.636  1.00  0.00     0.127 A 
ATOM     27  H   UNL A   1      28.682  26.898  23.030  1.00  0.00     0.065 H 
ATOM     28  C   UNL A   1      31.551  27.896  25.303  1.00  0.00     0.006 A 
ATOM     29  O   UNL A   1      31.301  30.128  24.867  1.00  0.00    -0.492 OA
ATOM     30  C   UNL A   1      31.272  26.556  25.117  1.00  0.00    -0.031 A 
ATOM     31  C   UNL A   1      32.611  28.509  26.148  1.00  0.00     0.028 C 
ATOM     32  C   UNL A   1      32.371  29.996  25.825  1.00  0.00     0.097 C 
ATOM     33  H   UNL A   1      31.830  25.841  25.609  1.00  0.00     0.065 H 
ATOM     34  H   UNL A   1      32.109  30.515  26.723  1.00  0.00     0.072 H 
ATOM     35  H   UNL A   1      33.265  30.414  25.413  1.00  0.00     0.072 H 
BRANCH  24  36
ATOM     36  C   UNL A   1      29.143  29.636  22.891  1.00  0.00    -0.009 C 
BRANCH  36  37
ATOM     37  C   UNL A   1      29.019  31.018  23.571  1.00  0.00    -0.056 C 
ATOM     38  H   UNL A   1      29.937  31.255  24.066  1.00  0.00     0.024 H 
ATOM     39  H   UNL A   1      28.224  30.992  24.288  1.00  0.00     0.024 H 
ATOM     40  H   UNL A   1      28.809  31.762  22.832  1.00  0.00     0.024 H 
ENDBRANCH  36  37
BRANCH  36  41
ATOM     41  C   UNL A   1      27.724  29.265  22.410  1.00  0.00    -0.056 C 
ATOM     42  H   UNL A   1      27.698  29.263  21.340  1.00  0.00     0.024 H 
ATOM     43  H   UNL A   1      27.022  29.981  22.782  1.00  0.00     0.024 H 
ATOM     44  H   UNL A   1      27.467  28.292  22.775  1.00  0.00     0.024 H 
ENDBRANCH  36  41
BRANCH  36  45
ATOM     45  C   UNL A   1      30.084  29.785  21.681  1.00  0.00    -0.056 C 
ATOM     46  H   UNL A   1      30.200  30.823  21.445  1.00  0.00     0.024 H 
ATOM     47  H   UNL A   1      29.667  29.274  20.840  1.00  0.00     0.024 H 
ATOM     48  H   UNL A   1      31.039  29.364  21.918  1.00  0.00     0.024 H 
ENDBRANCH  36  45
ENDBRANCH  24  36
BRANCH  31  49
ATOM     49  C   UNL A   1      32.356  28.204  27.625  1.00  0.00    -0.052 C 
ATOM     50  H   UNL A   1      31.324  28.376  27.852  1.00  0.00     0.024 H 
ATOM     51  H   UNL A   1      32.966  28.840  28.231  1.00  0.00     0.024 H 
ATOM     52  H   UNL A   1      32.598  27.181  27.824  1.00  0.00     0.024 H 
ENDBRANCH  31  49
BRANCH  31  53
ATOM     53  C   UNL A   1      34.018  28.071  25.735  1.00  0.00    -0.052 C 
ATOM     54  H   UNL A   1      34.392  28.732  24.980  1.00  0.00     0.024 H 
ATOM     55  H   UNL A   1      33.982  27.074  25.347  1.00  0.00     0.024 H 
ATOM     56  H   UNL A   1      34.666  28.098  26.586  1.00  0.00     0.024 H 
ENDBRANCH  31  53
ENDBRANCH  21  23
ENDBRANCH  12  21
ENDBRANCH   8  11
ENDBRANCH   4   7
ENDBRANCH   1   4
BRANCH   1  57
ATOM     57  C   UNL A   1      35.009  24.451  25.823  1.00  0.00    -0.052 C 
ATOM     58  H   UNL A   1      35.721  23.991  26.477  1.00  0.00     0.027 H 
ATOM     59  H   UNL A   1      35.108  25.503  25.653  1.00  0.00     0.027 H 
BRANCH  57  60
ATOM     60  C   UNL A   1      35.228  23.846  24.432  1.00  0.00    -0.052 C 
ATOM     61  H   UNL A   1      35.715  24.590  23.838  1.00  0.00     0.027 H 
ATOM     62  H   UNL A   1      34.248  23.556  24.117  1.00  0.00     0.027 H 
BRANCH  60  63
ATOM     63  C   UNL A   1      36.052  22.562  24.313  1.00  0.00    -0.036 C 
ATOM     64  H   UNL A   1      36.954  22.809  23.791  1.00  0.00     0.028 H 
ATOM     65  H   UNL A   1      35.401  21.872  23.817  1.00  0.00     0.028 H 
BRANCH  63  66
ATOM     66  C   UNL A   1      36.457  21.842  25.603  1.00  0.00     0.018 C 
ATOM     67  H   UNL A   1      35.605  21.300  25.954  1.00  0.00     0.049 H 
ATOM     68  H   UNL A   1      36.795  22.610  26.266  1.00  0.00     0.049 H 
BRANCH  66  69
ATOM     69  N   UNL A   1      37.562  20.908  25.493  1.00  0.00    -0.352 N 
ATOM     70  C   UNL A   1      38.876  21.039  25.911  1.00  0.00     0.251 C 
ATOM     71  H   UNL A   1      37.346  20.054  25.055  1.00  0.00     0.163 HD
ATOM     72  O   UNL A   1      39.652  20.104  25.782  1.00  0.00    -0.269 OA
BRANCH  70  73
ATOM     73  C   UNL A   1      39.383  22.327  26.459  1.00  0.00     0.039 A 
ATOM     74  C   UNL A   1      38.814  23.552  26.123  1.00  0.00    -0.049 A 
ATOM     75  C   UNL A   1      40.458  22.305  27.351  1.00  0.00    -0.049 A 
ATOM     76  C   UNL A   1      39.442  24.748  26.504  1.00  0.00    -0.053 A 
ATOM     77  H   UNL A   1      37.930  23.581  25.592  1.00  0.00     0.063 H 
ATOM     78  C   UNL A   1      41.037  23.505  27.796  1.00  0.00    -0.053 A 
ATOM     79  H   UNL A   1      40.829  21.401  27.684  1.00  0.00     0.063 H 
ATOM     80  C   UNL A   1      40.590  24.747  27.316  1.00  0.00    -0.014 A 
ATOM     81  H   UNL A   1      39.052  25.647  26.181  1.00  0.00     0.063 H 
ATOM     82  H   UNL A   1      41.804  23.473  28.486  1.00  0.00     0.063 H 
BRANCH  80  83
ATOM     83  C   UNL A   1      41.359  26.008  27.603  1.00  0.00     0.031 A 
ATOM     84  C   UNL A   1      40.738  27.117  28.433  1.00  0.00     0.074 A 
ATOM     85  C   UNL A   1      42.626  26.184  27.168  1.00  0.00     0.049 A 
ATOM     86  N   UNL A   1      41.180  28.330  28.675  1.00  0.00    -0.248 NA
ATOM     87  C   UNL A   1      39.444  26.826  29.069  1.00  0.00    -0.034 C 
ATOM     88  C   UNL A   1      43.403  25.210  26.405  1.00  0.00    -0.036 A 
ATOM     89  N   UNL A   1      43.489  27.248  27.318  1.00  0.00    -0.354 N 
ATOM     90  C   UNL A   1      40.204  28.952  29.447  1.00  0.00     0.074 A 
ATOM     91  C   UNL A   1      39.133  27.993  29.614  1.00  0.00    -0.034 C 
ATOM     92  H   UNL A   1      38.914  25.939  29.086  1.00  0.00     0.065 H 
ATOM     93  C   UNL A   1      44.638  25.694  26.200  1.00  0.00    -0.036 A 
ATOM     94  H   UNL A   1      43.058  24.295  26.076  1.00  0.00     0.065 H 
ATOM     95  C   UNL A   1      44.719  27.051  26.736  1.00  0.00     0.049 A 
ATOM     96  H   UNL A   1      43.248  28.074  27.797  1.00  0.00     0.167 HD
ATOM     97  C   UNL A   1      40.197  30.199  29.983  1.00  0.00     0.037 A 
ATOM     98  H   UNL A   1      38.243  28.192  30.096  1.00  0.00     0.065 H 
ATOM     99  H   UNL A   1      45.409  25.187  25.738  1.00  0.00     0.065 H 
ATOM    100  C   UNL A   1      45.786  27.868  26.610  1.00  0.00     0.037 A 
ATOM    101  C   UNL A   1      41.275  31.150  29.876  1.00  0.00     0.049 A 
ATOM    102  C   UNL A   1      45.729  29.273  27.148  1.00  0.00     0.074 A 
ATOM    103  C   UNL A   1      41.348  32.430  30.401  1.00  0.00    -0.036 A 
ATOM    104  N   UNL A   1      42.473  30.923  29.217  1.00  0.00    -0.354 N 
ATOM    105  N   UNL A   1      44.778  29.862  27.829  1.00  0.00    -0.248 NA
ATOM    106  C   UNL A   1      46.891  30.136  26.879  1.00  0.00    -0.034 C 
ATOM    107  C   UNL A   1      42.569  32.995  30.021  1.00  0.00    -0.036 A 
ATOM    108  H   UNL A   1      40.623  32.890  30.973  1.00  0.00     0.065 H 
ATOM    109  C   UNL A   1      43.281  32.047  29.307  1.00  0.00     0.049 A 
ATOM    110  H   UNL A   1      42.714  30.088  28.754  1.00  0.00     0.167 HD
ATOM    111  C   UNL A   1      45.232  31.150  28.085  1.00  0.00     0.074 A 
ATOM    112  C   UNL A   1      46.551  31.255  27.503  1.00  0.00    -0.034 C 
ATOM    113  H   UNL A   1      47.748  29.923  26.343  1.00  0.00     0.065 H 
ATOM    114  H   UNL A   1      42.886  33.953  30.238  1.00  0.00     0.065 H 
ATOM    115  C   UNL A   1      44.600  32.155  28.739  1.00  0.00     0.037 A 
ATOM    116  H   UNL A   1      47.152  32.093  27.566  1.00  0.00     0.065 H 
BRANCH  97 117
ATOM    117  C   UNL A   1      38.974  30.632  30.745  1.00  0.00     0.064 A 
ATOM    118  C   UNL A   1      37.843  31.145  30.094  1.00  0.00     0.173 A 
ATOM    119  C   UNL A   1      38.903  30.450  32.136  1.00  0.00     0.173 A 
ATOM    120  F   UNL A   1      37.859  31.346  28.768  1.00  0.00    -0.203 F 
ATOM    121  C   UNL A   1      36.694  31.478  30.809  1.00  0.00     0.198 A 
ATOM    122  C   UNL A   1      37.742  30.754  32.843  1.00  0.00     0.198 A 
ATOM    123  F   UNL A   1      39.951  29.949  32.807  1.00  0.00    -0.203 F 
ATOM    124  F   UNL A   1      35.638  32.002  30.170  1.00  0.00    -0.200 F 
ATOM    125  C   UNL A   1      36.641  31.273  32.180  1.00  0.00     0.200 A 
ATOM    126  F   UNL A   1      37.686  30.536  34.164  1.00  0.00    -0.200 F 
ATOM    127  F   UNL A   1      35.528  31.576  32.862  1.00  0.00    -0.200 F 
ENDBRANCH  97 117
BRANCH 100 128
ATOM    128  C   UNL A   1      47.012  27.378  25.925  1.00  0.00     0.064 A 
ATOM    129  C   UNL A   1      47.200  27.590  24.551  1.00  0.00     0.173 A 
ATOM    130  C   UNL A   1      48.022  26.700  26.623  1.00  0.00     0.173 A 
ATOM    131  F   UNL A   1      46.249  28.202  23.832  1.00  0.00    -0.203 F 
ATOM    132  C   UNL A   1      48.351  27.142  23.905  1.00  0.00     0.198 A 
ATOM    133  C   UNL A   1      49.187  26.283  25.983  1.00  0.00     0.198 A 
ATOM    134  F   UNL A   1      47.888  26.463  27.936  1.00  0.00    -0.203 F 
ATOM    135  F   UNL A   1      48.489  27.325  22.584  1.00  0.00    -0.200 F 
ATOM    136  C   UNL A   1      49.348  26.500  24.623  1.00  0.00     0.200 A 
ATOM    137  F   UNL A   1      50.153  25.675  26.683  1.00  0.00    -0.200 F 
ATOM    138  F   UNL A   1      50.463  26.086  24.004  1.00  0.00    -0.200 F 
ENDBRANCH 100 128
BRANCH 115 139
ATOM    139  C   UNL A   1      45.328  33.460  28.896  1.00  0.00     0.064 A 
ATOM    140  C   UNL A   1      46.192  33.695  29.975  1.00  0.00     0.173 A 
ATOM    141  C   UNL A   1      45.213  34.462  27.919  1.00  0.00     0.173 A 
ATOM    142  F   UNL A   1      46.327  32.776  30.943  1.00  0.00    -0.203 F 
ATOM    143  C   UNL A   1      46.901  34.889  30.080  1.00  0.00     0.198 A 
ATOM    144  C   UNL A   1      45.946  35.643  28.012  1.00  0.00     0.198 A 
ATOM    145  F   UNL A   1      44.407  34.287  26.862  1.00  0.00    -0.203 F 
ATOM    146  F   UNL A   1      47.693  35.105  31.139  1.00  0.00    -0.200 F 
ATOM    147  C   UNL A   1      46.786  35.857  29.094  1.00  0.00     0.200 A 
ATOM    148  F   UNL A   1      45.845  36.571  27.049  1.00  0.00    -0.200 F 
ATOM    149  F   UNL A   1      47.482  36.999  29.189  1.00  0.00    -0.200 F 
ENDBRANCH 115 139
ENDBRANCH  80  83
ENDBRANCH  70  73
ENDBRANCH  66  69
ENDBRANCH  63  66
ENDBRANCH  60  63
ENDBRANCH  57  60
ENDBRANCH   1  57
TORSDOF 21
ENDMDL
MODEL 2
REMARK VINA RESULT:     -11.9      0.928      2.342
REMARK SMILES CC(C)(C)c1cc(Nc2ccccc2C(=O)NCCCCCCNC(=O)c2ccc(-c3c4nc(c(-c5c(F)c(F)c(F)c(F)c5F)c5ccc([nH]5)c(-c5c(F)c(F)c(F)c(F)c5F)c5nc(c(-c6c(F)c(F)c(F)c(F)c6F)c6ccc3[nH]6)C=C5)C=C4)cc2)cc2c1OCC2(C)C
REMARK SMILES IDX 19 1 18 4 17 7 15 8 16 9 14 11 9 12 10 13 11 14 13 16 12 17
REMARK SMILES IDX 8 21 7 23 5 24 6 25 92 26 91 28 93 29 90 30 95 31 94 32 2 36
REMARK SMILES IDX 1 37 3 41 4 45 96 49 97 53 20 57 21 60 22 63 23 66 24 69
REMARK SMILES IDX 25 70 26 72 27 73 28 74 89 75 29 76 88 78 30 80 31 83 32 84
REMARK SMILES IDX 82 85 33 86 87 87 81 88 83 89 34 90 86 91 80 93 79 95 35 97
REMARK SMILES IDX 67 100 47 101 66 102 48 103 51 104 65 105 84 106 49 107
REMARK SMILES IDX 50 109 64 111 85 112 52 115 36 117 37 118 45 119 38 120
REMARK SMILES IDX 39 121 43 122 46 123 40 124 41 125 44 126 42 127 68 128
REMARK SMILES IDX 69 129 77 130 70 131 71 132 75 133 78 134 72 135 73 136
REMARK SMILES IDX 76 137 74 138 53 139 54 140 62 141 55 142 56 143 60 144
REMARK SMILES IDX 63 145 57 146 58 147 61 148 59 149
REMARK H PARENT 19 2 19 3 18 5 18 6 17 10 10 15 11 18 13 19 12 20 8 22 6 27
REMARK H PARENT 90 33 94 34 94 35 1 38 1 39 1 40 3 42 3 43 3 44 4 46 4 47 4 48
REMARK H PARENT 96 50 96 51 96 52 97 54 97 55 97 56 20 58 20 59 21 61 21 62
REMARK H PARENT 22 64 22 65 23 67 23 68 24 71 28 77 89 79 29 81 88 82 87 92
REMARK H PARENT 81 94 83 96 86 98 80 99 48 108 51 110 84 113 49 114 85 116
REMARK Flexibility Score: inf
ROOT
ATOM      1  C   UNL A   1      32.598  25.295  26.245  1.00  0.00    -0.036 C 
ATOM      2  H   UNL A   1      32.924  25.934  27.039  1.00  0.00     0.028 H 
ATOM      3  H   UNL A   1      32.597  25.701  25.255  1.00  0.00     0.028 H 
ENDROOT
BRANCH   1   4
ATOM      4  C   UNL A   1      31.126  24.991  26.501  1.00  0.00     0.018 C 
ATOM      5  H   UNL A   1      31.017  23.927  26.522  1.00  0.00     0.049 H 
ATOM      6  H   UNL A   1      30.900  25.492  27.419  1.00  0.00     0.049 H 
BRANCH   4   7
ATOM      7  N   UNL A   1      30.170  25.504  25.559  1.00  0.00    -0.352 N 
ATOM      8  C   UNL A   1      30.100  25.366  24.191  1.00  0.00     0.253 C 
ATOM      9  O   UNL A   1      29.115  25.892  23.656  1.00  0.00    -0.269 OA
ATOM     10  H   UNL A   1      29.447  26.041  25.958  1.00  0.00     0.163 HD
BRANCH   8  11
ATOM     11  C   UNL A   1      31.107  24.703  23.285  1.00  0.00     0.063 A 
ATOM     12  C   UNL A   1      31.966  25.264  22.313  1.00  0.00     0.051 A 
ATOM     13  C   UNL A   1      32.936  24.429  21.697  1.00  0.00    -0.038 A 
ATOM     14  C   UNL A   1      33.018  23.063  21.949  1.00  0.00    -0.060 A 
ATOM     15  H   UNL A   1      33.606  24.852  21.036  1.00  0.00     0.064 H 
ATOM     16  C   UNL A   1      31.221  23.308  23.525  1.00  0.00    -0.047 A 
ATOM     17  C   UNL A   1      32.143  22.496  22.856  1.00  0.00    -0.061 A 
ATOM     18  H   UNL A   1      33.722  22.483  21.466  1.00  0.00     0.062 H 
ATOM     19  H   UNL A   1      30.596  22.874  24.224  1.00  0.00     0.063 H 
ATOM     20  H   UNL A   1      32.170  21.480  23.038  1.00  0.00     0.062 H 
BRANCH  12  21
ATOM     21  N   UNL A   1      31.889  26.579  21.805  1.00  0.00    -0.355 N 
ATOM     22  H   UNL A   1      32.058  26.702  20.842  1.00  0.00     0.167 HD
BRANCH  21  23
ATOM     23  C   UNL A   1      31.588  27.738  22.567  1.00  0.00     0.039 A 
ATOM     24  C   UNL A   1      31.946  29.085  24.621  1.00  0.00     0.002 A 
ATOM     25  C   UNL A   1      32.328  28.047  23.729  1.00  0.00    -0.031 A 
ATOM     26  C   UNL A   1      30.828  29.831  24.251  1.00  0.00     0.127 A 
ATOM     27  H   UNL A   1      33.178  27.499  23.938  1.00  0.00     0.065 H 
ATOM     28  C   UNL A   1      30.117  29.575  23.099  1.00  0.00     0.006 A 
ATOM     29  O   UNL A   1      30.278  30.833  25.002  1.00  0.00    -0.492 OA
ATOM     30  C   UNL A   1      30.476  28.535  22.263  1.00  0.00    -0.031 A 
ATOM     31  C   UNL A   1      28.972  30.516  22.960  1.00  0.00     0.028 C 
ATOM     32  C   UNL A   1      29.154  31.337  24.250  1.00  0.00     0.097 C 
ATOM     33  H   UNL A   1      29.925  28.345  21.412  1.00  0.00     0.065 H 
ATOM     34  H   UNL A   1      29.329  32.362  23.996  1.00  0.00     0.072 H 
ATOM     35  H   UNL A   1      28.269  31.257  24.845  1.00  0.00     0.072 H 
BRANCH  24  36
ATOM     36  C   UNL A   1      32.585  29.261  26.005  1.00  0.00    -0.009 C 
BRANCH  36  37
ATOM     37  C   UNL A   1      31.778  28.632  27.163  1.00  0.00    -0.056 C 
ATOM     38  H   UNL A   1      31.588  27.602  26.948  1.00  0.00     0.024 H 
ATOM     39  H   UNL A   1      30.848  29.151  27.272  1.00  0.00     0.024 H 
ATOM     40  H   UNL A   1      32.338  28.709  28.071  1.00  0.00     0.024 H 
ENDBRANCH  36  37
BRANCH  36  41
ATOM     41  C   UNL A   1      32.804  30.741  26.387  1.00  0.00    -0.056 C 
ATOM     42  H   UNL A   1      33.803  30.873  26.748  1.00  0.00     0.024 H 
ATOM     43  H   UNL A   1      32.109  31.019  27.151  1.00  0.00     0.024 H 
ATOM     44  H   UNL A   1      32.652  31.357  25.525  1.00  0.00     0.024 H 
ENDBRANCH  36  41
BRANCH  36  45
ATOM     45  C   UNL A   1      33.940  28.535  25.922  1.00  0.00    -0.056 C 
ATOM     46  H   UNL A   1      33.816  27.512  26.212  1.00  0.00     0.024 H 
ATOM     47  H   UNL A   1      34.639  29.008  26.580  1.00  0.00     0.024 H 
ATOM     48  H   UNL A   1      34.308  28.579  24.919  1.00  0.00     0.024 H 
ENDBRANCH  36  45
ENDBRANCH  24  36
BRANCH  31  49
ATOM     49  C   UNL A   1      29.143  31.382  21.711  1.00  0.00    -0.052 C 
ATOM     50  H   UNL A   1      30.120  31.226  21.299  1.00  0.00     0.024 H 
ATOM     51  H   UNL A   1      29.026  32.412  21.972  1.00  0.00     0.024 H 
ATOM     52  H   UNL A   1      28.404  31.111  20.985  1.00  0.00     0.024 H 
ENDBRANCH  31  49
BRANCH  31  53
ATOM     53  C   UNL A   1      27.620  29.798  22.945  1.00  0.00    -0.052 C 
ATOM     54  H   UNL A   1      26.878  30.442  22.519  1.00  0.00     0.024 H 
ATOM     55  H   UNL A   1      27.339  29.546  23.947  1.00  0.00     0.024 H 
ATOM     56  H   UNL A   1      27.696  28.904  22.361  1.00  0.00     0.024 H 
ENDBRANCH  31  53
ENDBRANCH  21  23
ENDBRANCH  12  21
ENDBRANCH   8  11
ENDBRANCH   4   7
ENDBRANCH   1   4
BRANCH   1  57
ATOM     57  C   UNL A   1      33.612  24.152  26.155  1.00  0.00    -0.052 C 
ATOM     58  H   UNL A   1      33.052  23.253  25.997  1.00  0.00     0.027 H 
ATOM     59  H   UNL A   1      34.158  24.232  27.072  1.00  0.00     0.027 H 
BRANCH  57  60
ATOM     60  C   UNL A   1      34.707  24.186  25.084  1.00  0.00    -0.052 C 
ATOM     61  H   UNL A   1      35.461  24.863  25.427  1.00  0.00     0.027 H 
ATOM     62  H   UNL A   1      34.190  24.466  24.191  1.00  0.00     0.027 H 
BRANCH  60  63
ATOM     63  C   UNL A   1      35.411  22.879  24.713  1.00  0.00    -0.036 C 
ATOM     64  H   UNL A   1      36.237  23.130  24.081  1.00  0.00     0.028 H 
ATOM     65  H   UNL A   1      34.645  22.282  24.262  1.00  0.00     0.028 H 
BRANCH  63  66
ATOM     66  C   UNL A   1      35.955  22.005  25.847  1.00  0.00     0.018 C 
ATOM     67  H   UNL A   1      35.148  21.401  26.209  1.00  0.00     0.049 H 
ATOM     68  H   UNL A   1      36.354  22.686  26.568  1.00  0.00     0.049 H 
BRANCH  66  69
ATOM     69  N   UNL A   1      37.050  21.118  25.501  1.00  0.00    -0.352 N 
ATOM     70  C   UNL A   1      38.406  21.248  25.751  1.00  0.00     0.251 C 
ATOM     71  H   UNL A   1      36.791  20.303  25.015  1.00  0.00     0.163 HD
ATOM     72  O   UNL A   1      39.173  20.353  25.430  1.00  0.00    -0.269 OA
BRANCH  70  73
ATOM     73  C   UNL A   1      38.960  22.494  26.348  1.00  0.00     0.039 A 
ATOM     74  C   UNL A   1      38.409  23.747  26.097  1.00  0.00    -0.049 A 
ATOM     75  C   UNL A   1      40.065  22.401  27.199  1.00  0.00    -0.049 A 
ATOM     76  C   UNL A   1      39.077  24.907  26.519  1.00  0.00    -0.053 A 
ATOM     77  H   UNL A   1      37.508  23.823  25.599  1.00  0.00     0.063 H 
ATOM     78  C   UNL A   1      40.686  23.563  27.687  1.00  0.00    -0.053 A 
ATOM     79  H   UNL A   1      40.426  21.473  27.471  1.00  0.00     0.063 H 
ATOM     80  C   UNL A   1      40.252  24.839  27.289  1.00  0.00    -0.014 A 
ATOM     81  H   UNL A   1      38.697  25.830  26.258  1.00  0.00     0.063 H 
ATOM     82  H   UNL A   1      41.475  23.478  28.347  1.00  0.00     0.063 H 
BRANCH  80  83
ATOM     83  C   UNL A   1      41.059  26.066  27.616  1.00  0.00     0.031 A 
ATOM     84  C   UNL A   1      40.469  27.170  28.473  1.00  0.00     0.074 A 
ATOM     85  C   UNL A   1      42.333  26.213  27.191  1.00  0.00     0.049 A 
ATOM     86  N   UNL A   1      40.948  28.361  28.752  1.00  0.00    -0.248 NA
ATOM     87  C   UNL A   1      39.162  26.902  29.095  1.00  0.00    -0.034 C 
ATOM     88  C   UNL A   1      43.083  25.237  26.405  1.00  0.00    -0.036 A 
ATOM     89  N   UNL A   1      43.229  27.245  27.376  1.00  0.00    -0.354 N 
ATOM     90  C   UNL A   1      39.987  28.991  29.537  1.00  0.00     0.074 A 
ATOM     91  C   UNL A   1      38.886  28.063  29.672  1.00  0.00    -0.034 C 
ATOM     92  H   UNL A   1      38.605  26.033  29.084  1.00  0.00     0.065 H 
ATOM     93  C   UNL A   1      44.334  25.686  26.220  1.00  0.00    -0.036 A 
ATOM     94  H   UNL A   1      42.711  24.343  26.048  1.00  0.00     0.065 H 
ATOM     95  C   UNL A   1      44.455  27.024  26.794  1.00  0.00     0.049 A 
ATOM     96  H   UNL A   1      43.011  28.063  27.877  1.00  0.00     0.167 HD
ATOM     97  C   UNL A   1      40.017  30.222  30.108  1.00  0.00     0.037 A 
ATOM     98  H   UNL A   1      38.000  28.277  30.155  1.00  0.00     0.065 H 
ATOM     99  H   UNL A   1      45.090  25.168  25.746  1.00  0.00     0.065 H 
ATOM    100  C   UNL A   1      45.548  27.810  26.696  1.00  0.00     0.037 A 
ATOM    101  C   UNL A   1      41.126  31.142  30.033  1.00  0.00     0.049 A 
ATOM    102  C   UNL A   1      45.532  29.201  27.274  1.00  0.00     0.074 A 
ATOM    103  C   UNL A   1      41.237  32.403  30.594  1.00  0.00    -0.036 A 
ATOM    104  N   UNL A   1      42.319  30.895  29.373  1.00  0.00    -0.354 N 
ATOM    105  N   UNL A   1      44.597  29.800  27.967  1.00  0.00    -0.248 NA
ATOM    106  C   UNL A   1      46.723  30.033  27.035  1.00  0.00    -0.034 C 
ATOM    107  C   UNL A   1      42.477  32.939  30.237  1.00  0.00    -0.036 A 
ATOM    108  H   UNL A   1      40.523  32.870  31.176  1.00  0.00     0.065 H 
ATOM    109  C   UNL A   1      43.163  31.989  29.499  1.00  0.00     0.049 A 
ATOM    110  H   UNL A   1      42.536  30.066  28.888  1.00  0.00     0.167 HD
ATOM    111  C   UNL A   1      45.090  31.065  28.261  1.00  0.00     0.074 A 
ATOM    112  C   UNL A   1      46.416  31.144  27.689  1.00  0.00    -0.034 C 
ATOM    113  H   UNL A   1      47.575  29.809  26.497  1.00  0.00     0.065 H 
ATOM    114  H   UNL A   1      42.823  33.880  30.482  1.00  0.00     0.065 H 
ATOM    115  C   UNL A   1      44.487  32.071  28.940  1.00  0.00     0.037 A 
ATOM    116  H   UNL A   1      47.042  31.961  27.778  1.00  0.00     0.065 H 
BRANCH  97 117
ATOM    117  C   UNL A   1      38.805  30.673  30.876  1.00  0.00     0.064 A 
ATOM    118  C   UNL A   1      38.711  30.516  32.267  1.00  0.00     0.173 A 
ATOM    119  C   UNL A   1      37.761  31.349  30.222  1.00  0.00     0.173 A 
ATOM    120  F   UNL A   1      39.675  29.871  32.939  1.00  0.00    -0.203 F 
ATOM    121  C   UNL A   1      37.610  31.000  32.970  1.00  0.00     0.198 A 
ATOM    122  C   UNL A   1      36.679  31.860  30.933  1.00  0.00     0.198 A 
ATOM    123  F   UNL A   1      37.806  31.541  28.895  1.00  0.00    -0.203 F 
ATOM    124  F   UNL A   1      37.525  30.805  34.294  1.00  0.00    -0.200 F 
ATOM    125  C   UNL A   1      36.601  31.680  32.305  1.00  0.00     0.200 A 
ATOM    126  F   UNL A   1      35.714  32.535  30.291  1.00  0.00    -0.200 F 
ATOM    127  F   UNL A   1      35.553  32.162  32.987  1.00  0.00    -0.200 F 
ENDBRANCH  97 117
BRANCH 100 128
ATOM    128  C   UNL A   1      46.762  27.301  26.003  1.00  0.00     0.064 A 
ATOM    129  C   UNL A   1      46.963  27.543  24.636  1.00  0.00     0.173 A 
ATOM    130  C   UNL A   1      47.747  26.575  26.687  1.00  0.00     0.173 A 
ATOM    131  F   UNL A   1      46.033  28.202  23.930  1.00  0.00    -0.203 F 
ATOM    132  C   UNL A   1      48.102  27.077  23.983  1.00  0.00     0.198 A 
ATOM    133  C   UNL A   1      48.902  26.139  26.041  1.00  0.00     0.198 A 
ATOM    134  F   UNL A   1      47.600  26.308  27.993  1.00  0.00    -0.203 F 
ATOM    135  F   UNL A   1      48.252  27.289  22.668  1.00  0.00    -0.200 F 
ATOM    136  C   UNL A   1      49.076  26.386  24.688  1.00  0.00     0.200 A 
ATOM    137  F   UNL A   1      49.846  25.484  26.729  1.00  0.00    -0.200 F 
ATOM    138  F   UNL A   1      50.180  25.954  24.063  1.00  0.00    -0.200 F 
ENDBRANCH 100 128
BRANCH 115 139
ATOM    139  C   UNL A   1      45.255  33.348  29.138  1.00  0.00     0.064 A 
ATOM    140  C   UNL A   1      46.119  33.524  30.228  1.00  0.00     0.173 A 
ATOM    141  C   UNL A   1      45.179  34.379  28.189  1.00  0.00     0.173 A 
ATOM    142  F   UNL A   1      46.218  32.575  31.171  1.00  0.00    -0.203 F 
ATOM    143  C   UNL A   1      46.865  34.692  30.370  1.00  0.00     0.198 A 
ATOM    144  C   UNL A   1      45.949  35.533  28.318  1.00  0.00     0.198 A 
ATOM    145  F   UNL A   1      44.375  34.260  27.122  1.00  0.00    -0.203 F 
ATOM    146  F   UNL A   1      47.657  34.853  31.440  1.00  0.00    -0.200 F 
ATOM    147  C   UNL A   1      46.788  35.690  29.411  1.00  0.00     0.200 A 
ATOM    148  F   UNL A   1      45.884  36.490  27.382  1.00  0.00    -0.200 F 
ATOM    149  F   UNL A   1      47.519  36.805  29.541  1.00  0.00    -0.200 F 
ENDBRANCH 115 139
ENDBRANCH  80  83
ENDBRANCH  70  73
ENDBRANCH  66  69
ENDBRANCH  63  66
ENDBRANCH  60  63
ENDBRANCH  57  60
ENDBRANCH   1  57
TORSDOF 21
ENDMDL
MODEL 3
REMARK VINA RESULT:     -11.8      0.788      7.107
REMARK SMILES CC(C)(C)c1cc(Nc2ccccc2C(=O)NCCCCCCNC(=O)c2ccc(-c3c4nc(c(-c5c(F)c(F)c(F)c(F)c5F)c5ccc([nH]5)c(-c5c(F)c(F)c(F)c(F)c5F)c5nc(c(-c6c(F)c(F)c(F)c(F)c6F)c6ccc3[nH]6)C=C5)C=C4)cc2)cc2c1OCC2(C)C
REMARK SMILES IDX 19 1 18 4 17 7 15 8 16 9 14 11 9 12 10 13 11 14 13 16 12 17
REMARK SMILES IDX 8 21 7 23 5 24 6 25 92 26 91 28 93 29 90 30 95 31 94 32 2 36
REMARK SMILES IDX 1 37 3 41 4 45 96 49 97 53 20 57 21 60 22 63 23 66 24 69
REMARK SMILES IDX 25 70 26 72 27 73 28 74 89 75 29 76 88 78 30 80 31 83 32 84
REMARK SMILES IDX 82 85 33 86 87 87 81 88 83 89 34 90 86 91 80 93 79 95 35 97
REMARK SMILES IDX 67 100 47 101 66 102 48 103 51 104 65 105 84 106 49 107
REMARK SMILES IDX 50 109 64 111 85 112 52 115 36 117 37 118 45 119 38 120
REMARK SMILES IDX 39 121 43 122 46 123 40 124 41 125 44 126 42 127 68 128
REMARK SMILES IDX 69 129 77 130 70 131 71 132 75 133 78 134 72 135 73 136
REMARK SMILES IDX 76 137 74 138 53 139 54 140 62 141 55 142 56 143 60 144
REMARK SMILES IDX 63 145 57 146 58 147 61 148 59 149
REMARK H PARENT 19 2 19 3 18 5 18 6 17 10 10 15 11 18 13 19 12 20 8 22 6 27
REMARK H PARENT 90 33 94 34 94 35 1 38 1 39 1 40 3 42 3 43 3 44 4 46 4 47 4 48
REMARK H PARENT 96 50 96 51 96 52 97 54 97 55 97 56 20 58 20 59 21 61 21 62
REMARK H PARENT 22 64 22 65 23 67 23 68 24 71 28 77 89 79 29 81 88 82 87 92
REMARK H PARENT 81 94 83 96 86 98 80 99 48 108 51 110 84 113 49 114 85 116
REMARK Flexibility Score: inf
ROOT
ATOM      1  C   UNL A   1      34.591  22.952  27.442  1.00  0.00    -0.036 C 
ATOM      2  H   UNL A   1      35.472  22.412  27.719  1.00  0.00     0.028 H 
ATOM      3  H   UNL A   1      34.321  23.795  28.044  1.00  0.00     0.028 H 
ENDROOT
BRANCH   1   4
ATOM      4  C   UNL A   1      33.415  21.999  27.626  1.00  0.00     0.018 C 
ATOM      5  H   UNL A   1      33.391  21.351  26.775  1.00  0.00     0.049 H 
ATOM      6  H   UNL A   1      33.599  21.516  28.563  1.00  0.00     0.049 H 
BRANCH   4   7
ATOM      7  N   UNL A   1      32.107  22.577  27.763  1.00  0.00    -0.352 N 
ATOM      8  C   UNL A   1      31.166  22.895  26.810  1.00  0.00     0.253 C 
ATOM      9  O   UNL A   1      30.098  23.343  27.250  1.00  0.00    -0.269 OA
ATOM     10  H   UNL A   1      31.841  22.780  28.689  1.00  0.00     0.163 HD
BRANCH   8  11
ATOM     11  C   UNL A   1      31.315  22.810  25.311  1.00  0.00     0.063 A 
ATOM     12  C   UNL A   1      30.849  23.678  24.299  1.00  0.00     0.051 A 
ATOM     13  C   UNL A   1      31.259  23.446  22.959  1.00  0.00    -0.038 A 
ATOM     14  C   UNL A   1      32.031  22.348  22.591  1.00  0.00    -0.060 A 
ATOM     15  H   UNL A   1      30.973  24.117  22.229  1.00  0.00     0.064 H 
ATOM     16  C   UNL A   1      32.107  21.703  24.905  1.00  0.00    -0.047 A 
ATOM     17  C   UNL A   1      32.442  21.462  23.568  1.00  0.00    -0.061 A 
ATOM     18  H   UNL A   1      32.292  22.199  21.604  1.00  0.00     0.062 H 
ATOM     19  H   UNL A   1      32.450  21.049  25.627  1.00  0.00     0.063 H 
ATOM     20  H   UNL A   1      32.993  20.627  23.313  1.00  0.00     0.062 H 
BRANCH  12  21
ATOM     21  N   UNL A   1      29.911  24.720  24.472  1.00  0.00    -0.355 N 
ATOM     22  H   UNL A   1      28.959  24.472  24.493  1.00  0.00     0.167 HD
BRANCH  21  23
ATOM     23  C   UNL A   1      30.230  26.096  24.620  1.00  0.00     0.039 A 
ATOM     24  C   UNL A   1      29.917  28.442  23.874  1.00  0.00     0.002 A 
ATOM     25  C   UNL A   1      29.514  27.080  23.902  1.00  0.00    -0.031 A 
ATOM     26  C   UNL A   1      31.027  28.771  24.650  1.00  0.00     0.127 A 
ATOM     27  H   UNL A   1      28.669  26.799  23.380  1.00  0.00     0.065 H 
ATOM     28  C   UNL A   1      31.713  27.834  25.393  1.00  0.00     0.006 A 
ATOM     29  O   UNL A   1      31.594  30.014  24.711  1.00  0.00    -0.492 OA
ATOM     30  C   UNL A   1      31.335  26.505  25.377  1.00  0.00    -0.031 A 
ATOM     31  C   UNL A   1      32.856  28.459  26.113  1.00  0.00     0.028 C 
ATOM     32  C   UNL A   1      32.702  29.914  25.630  1.00  0.00     0.097 C 
ATOM     33  H   UNL A   1      31.868  25.812  25.924  1.00  0.00     0.065 H 
ATOM     34  H   UNL A   1      32.522  30.549  26.472  1.00  0.00     0.072 H 
ATOM     35  H   UNL A   1      33.599  30.215  25.133  1.00  0.00     0.072 H 
BRANCH  24  36
ATOM     36  C   UNL A   1      29.308  29.462  22.903  1.00  0.00    -0.009 C 
BRANCH  36  37
ATOM     37  C   UNL A   1      30.145  29.705  21.627  1.00  0.00    -0.056 C 
ATOM     38  H   UNL A   1      29.612  30.358  20.969  1.00  0.00     0.024 H 
ATOM     39  H   UNL A   1      30.324  28.771  21.135  1.00  0.00     0.024 H 
ATOM     40  H   UNL A   1      31.079  30.153  21.893  1.00  0.00     0.024 H 
ENDBRANCH  36  37
BRANCH  36  41
ATOM     41  C   UNL A   1      29.087  30.850  23.542  1.00  0.00    -0.056 C 
ATOM     42  H   UNL A   1      28.665  31.515  22.817  1.00  0.00     0.024 H 
ATOM     43  H   UNL A   1      30.023  31.240  23.882  1.00  0.00     0.024 H 
ATOM     44  H   UNL A   1      28.417  30.757  24.373  1.00  0.00     0.024 H 
ENDBRANCH  36  41
BRANCH  36  45
ATOM     45  C   UNL A   1      27.956  28.861  22.475  1.00  0.00    -0.056 C 
ATOM     46  H   UNL A   1      27.710  28.043  23.120  1.00  0.00     0.024 H 
ATOM     47  H   UNL A   1      28.025  28.511  21.467  1.00  0.00     0.024 H 
ATOM     48  H   UNL A   1      27.195  29.610  22.543  1.00  0.00     0.024 H 
ENDBRANCH  36  45
ENDBRANCH  24  36
BRANCH  31  49
ATOM     49  C   UNL A   1      32.658  28.343  27.626  1.00  0.00    -0.052 C 
ATOM     50  H   UNL A   1      33.456  27.766  28.047  1.00  0.00     0.024 H 
ATOM     51  H   UNL A   1      31.725  27.861  27.828  1.00  0.00     0.024 H 
ATOM     52  H   UNL A   1      32.657  29.321  28.061  1.00  0.00     0.024 H 
ENDBRANCH  31  49
BRANCH  31  53
ATOM     53  C   UNL A   1      34.206  27.874  25.693  1.00  0.00    -0.052 C 
ATOM     54  H   UNL A   1      34.996  28.442  26.139  1.00  0.00     0.024 H 
ATOM     55  H   UNL A   1      34.297  27.916  24.627  1.00  0.00     0.024 H 
ATOM     56  H   UNL A   1      34.272  26.856  26.016  1.00  0.00     0.024 H 
ENDBRANCH  31  53
ENDBRANCH  21  23
ENDBRANCH  12  21
ENDBRANCH   8  11
ENDBRANCH   4   7
ENDBRANCH   1   4
BRANCH   1  57
ATOM     57  C   UNL A   1      34.866  23.574  26.071  1.00  0.00    -0.052 C 
ATOM     58  H   UNL A   1      35.462  24.447  26.241  1.00  0.00     0.027 H 
ATOM     59  H   UNL A   1      33.887  23.721  25.664  1.00  0.00     0.027 H 
BRANCH  57  60
ATOM     60  C   UNL A   1      35.579  22.753  24.991  1.00  0.00    -0.052 C 
ATOM     61  H   UNL A   1      36.178  23.433  24.423  1.00  0.00     0.027 H 
ATOM     62  H   UNL A   1      34.784  22.270  24.463  1.00  0.00     0.027 H 
BRANCH  60  63
ATOM     63  C   UNL A   1      36.490  21.603  25.425  1.00  0.00    -0.036 C 
ATOM     64  H   UNL A   1      36.002  20.690  25.154  1.00  0.00     0.028 H 
ATOM     65  H   UNL A   1      36.635  21.760  26.475  1.00  0.00     0.028 H 
BRANCH  63  66
ATOM     66  C   UNL A   1      37.908  21.549  24.850  1.00  0.00     0.018 C 
ATOM     67  H   UNL A   1      38.324  22.533  24.917  1.00  0.00     0.049 H 
ATOM     68  H   UNL A   1      37.798  21.184  23.851  1.00  0.00     0.049 H 
BRANCH  66  69
ATOM     69  N   UNL A   1      38.827  20.635  25.501  1.00  0.00    -0.352 N 
ATOM     70  C   UNL A   1      39.757  20.876  26.499  1.00  0.00     0.251 C 
ATOM     71  H   UNL A   1      38.784  19.704  25.186  1.00  0.00     0.163 HD
ATOM     72  O   UNL A   1      40.403  19.951  26.966  1.00  0.00    -0.269 OA
BRANCH  70  73
ATOM     73  C   UNL A   1      40.034  22.261  26.971  1.00  0.00     0.039 A 
ATOM     74  C   UNL A   1      39.297  23.356  26.533  1.00  0.00    -0.049 A 
ATOM     75  C   UNL A   1      41.063  22.465  27.895  1.00  0.00    -0.049 A 
ATOM     76  C   UNL A   1      39.715  24.658  26.849  1.00  0.00    -0.053 A 
ATOM     77  H   UNL A   1      38.441  23.212  25.974  1.00  0.00     0.063 H 
ATOM     78  C   UNL A   1      41.429  23.767  28.273  1.00  0.00    -0.053 A 
ATOM     79  H   UNL A   1      41.555  21.654  28.301  1.00  0.00     0.063 H 
ATOM     80  C   UNL A   1      40.815  24.891  27.695  1.00  0.00    -0.014 A 
ATOM     81  H   UNL A   1      39.204  25.462  26.454  1.00  0.00     0.063 H 
ATOM     82  H   UNL A   1      42.163  23.901  28.987  1.00  0.00     0.063 H 
BRANCH  80  83
ATOM     83  C   UNL A   1      41.366  26.273  27.917  1.00  0.00     0.031 A 
ATOM     84  C   UNL A   1      42.757  26.634  27.430  1.00  0.00     0.074 A 
ATOM     85  C   UNL A   1      40.641  27.240  28.520  1.00  0.00     0.049 A 
ATOM     86  N   UNL A   1      43.464  27.721  27.644  1.00  0.00    -0.248 NA
ATOM     87  C   UNL A   1      43.450  25.638  26.598  1.00  0.00    -0.034 C 
ATOM     88  C   UNL A   1      39.271  27.094  29.005  1.00  0.00    -0.036 A 
ATOM     89  N   UNL A   1      40.958  28.548  28.818  1.00  0.00    -0.354 N 
ATOM     90  C   UNL A   1      44.688  27.518  27.014  1.00  0.00     0.074 A 
ATOM     91  C   UNL A   1      44.641  26.195  26.430  1.00  0.00    -0.034 C 
ATOM     92  H   UNL A   1      43.098  24.737  26.237  1.00  0.00     0.065 H 
ATOM     93  C   UNL A   1      38.846  28.272  29.488  1.00  0.00    -0.036 A 
ATOM     94  H   UNL A   1      38.717  26.224  28.981  1.00  0.00     0.065 H 
ATOM     95  C   UNL A   1      39.940  29.239  29.434  1.00  0.00     0.049 A 
ATOM     96  H   UNL A   1      41.831  28.951  28.610  1.00  0.00     0.167 HD
ATOM     97  C   UNL A   1      45.752  28.354  26.914  1.00  0.00     0.037 A 
ATOM     98  H   UNL A   1      45.432  25.743  25.945  1.00  0.00     0.065 H 
ATOM     99  H   UNL A   1      37.896  28.465  29.842  1.00  0.00     0.065 H 
ATOM    100  C   UNL A   1      39.890  30.492  29.933  1.00  0.00     0.037 A 
ATOM    101  C   UNL A   1      45.801  29.696  27.440  1.00  0.00     0.049 A 
ATOM    102  C   UNL A   1      41.107  31.377  29.877  1.00  0.00     0.074 A 
ATOM    103  C   UNL A   1      46.840  30.610  27.370  1.00  0.00    -0.036 A 
ATOM    104  N   UNL A   1      44.766  30.323  28.115  1.00  0.00    -0.354 N 
ATOM    105  N   UNL A   1      42.272  31.150  29.325  1.00  0.00    -0.248 NA
ATOM    106  C   UNL A   1      41.004  32.690  30.535  1.00  0.00    -0.034 C 
ATOM    107  C   UNL A   1      46.451  31.773  28.042  1.00  0.00    -0.036 A 
ATOM    108  H   UNL A   1      47.747  30.458  26.903  1.00  0.00     0.065 H 
ATOM    109  C   UNL A   1      45.150  31.604  28.483  1.00  0.00     0.049 A 
ATOM    110  H   UNL A   1      43.888  29.919  28.306  1.00  0.00     0.167 HD
ATOM    111  C   UNL A   1      43.031  32.291  29.552  1.00  0.00     0.074 A 
ATOM    112  C   UNL A   1      42.191  33.219  30.275  1.00  0.00    -0.034 C 
ATOM    113  H   UNL A   1      40.213  33.092  31.063  1.00  0.00     0.065 H 
ATOM    114  H   UNL A   1      47.034  32.613  28.184  1.00  0.00     0.065 H 
ATOM    115  C   UNL A   1      44.315  32.537  29.195  1.00  0.00     0.037 A 
ATOM    116  H   UNL A   1      42.479  34.172  30.553  1.00  0.00     0.065 H 
BRANCH  97 117
ATOM    117  C   UNL A   1      46.981  27.851  26.207  1.00  0.00     0.064 A 
ATOM    118  C   UNL A   1      48.061  27.296  26.909  1.00  0.00     0.173 A 
ATOM    119  C   UNL A   1      47.039  27.845  24.803  1.00  0.00     0.173 A 
ATOM    120  F   UNL A   1      48.060  27.283  28.249  1.00  0.00    -0.203 F 
ATOM    121  C   UNL A   1      49.161  26.773  26.232  1.00  0.00     0.198 A 
ATOM    122  C   UNL A   1      48.126  27.293  24.131  1.00  0.00     0.198 A 
ATOM    123  F   UNL A   1      46.027  28.350  24.082  1.00  0.00    -0.203 F 
ATOM    124  F   UNL A   1      50.199  26.282  26.925  1.00  0.00    -0.200 F 
ATOM    125  C   UNL A   1      49.189  26.762  24.846  1.00  0.00     0.200 A 
ATOM    126  F   UNL A   1      48.141  27.265  22.791  1.00  0.00    -0.200 F 
ATOM    127  F   UNL A   1      50.240  26.241  24.199  1.00  0.00    -0.200 F 
ENDBRANCH  97 117
BRANCH 100 128
ATOM    128  C   UNL A   1      38.631  30.988  30.551  1.00  0.00     0.064 A 
ATOM    129  C   UNL A   1      37.610  31.536  29.760  1.00  0.00     0.173 A 
ATOM    130  C   UNL A   1      38.416  30.920  31.935  1.00  0.00     0.173 A 
ATOM    131  F   UNL A   1      37.781  31.656  28.436  1.00  0.00    -0.203 F 
ATOM    132  C   UNL A   1      36.425  31.995  30.331  1.00  0.00     0.198 A 
ATOM    133  C   UNL A   1      37.217  31.348  32.502  1.00  0.00     0.198 A 
ATOM    134  F   UNL A   1      39.364  30.415  32.738  1.00  0.00    -0.203 F 
ATOM    135  F   UNL A   1      35.480  32.547  29.557  1.00  0.00    -0.200 F 
ATOM    136  C   UNL A   1      36.224  31.890  31.699  1.00  0.00     0.200 A 
ATOM    137  F   UNL A   1      37.023  31.232  33.821  1.00  0.00    -0.200 F 
ATOM    138  F   UNL A   1      35.077  32.314  32.246  1.00  0.00    -0.200 F 
ENDBRANCH 100 128
BRANCH 115 139
ATOM    139  C   UNL A   1      44.901  33.875  29.549  1.00  0.00     0.064 A 
ATOM    140  C   UNL A   1      44.769  34.983  28.701  1.00  0.00     0.173 A 
ATOM    141  C   UNL A   1      45.542  34.068  30.783  1.00  0.00     0.173 A 
ATOM    142  F   UNL A   1      44.177  34.850  27.504  1.00  0.00    -0.203 F 
ATOM    143  C   UNL A   1      45.270  36.230  29.066  1.00  0.00     0.198 A 
ATOM    144  C   UNL A   1      46.017  35.323  31.158  1.00  0.00     0.198 A 
ATOM    145  F   UNL A   1      45.689  33.044  31.637  1.00  0.00    -0.203 F 
ATOM    146  F   UNL A   1      45.164  37.267  28.223  1.00  0.00    -0.200 F 
ATOM    147  C   UNL A   1      45.884  36.402  30.297  1.00  0.00     0.200 A 
ATOM    148  F   UNL A   1      46.596  35.489  32.356  1.00  0.00    -0.200 F 
ATOM    149  F   UNL A   1      46.351  37.606  30.654  1.00  0.00    -0.200 F 
ENDBRANCH 115 139
ENDBRANCH  80  83
ENDBRANCH  70  73
ENDBRANCH  66  69
ENDBRANCH  63  66
ENDBRANCH  60  63
ENDBRANCH  57  60
ENDBRANCH   1  57
TORSDOF 21
ENDMDL
MODEL 4
REMARK VINA RESULT:     -11.7      4.455     10.152
REMARK SMILES CC(C)(C)c1cc(Nc2ccccc2C(=O)NCCCCCCNC(=O)c2ccc(-c3c4nc(c(-c5c(F)c(F)c(F)c(F)c5F)c5ccc([nH]5)c(-c5c(F)c(F)c(F)c(F)c5F)c5nc(c(-c6c(F)c(F)c(F)c(F)c6F)c6ccc3[nH]6)C=C5)C=C4)cc2)cc2c1OCC2(C)C
REMARK SMILES IDX 19 1 18 4 17 7 15 8 16 9 14 11 9 12 10 13 11 14 13 16 12 17
REMARK SMILES IDX 8 21 7 23 5 24 6 25 92 26 91 28 93 29 90 30 95 31 94 32 2 36
REMARK SMILES IDX 1 37 3 41 4 45 96 49 97 53 20 57 21 60 22 63 23 66 24 69
REMARK SMILES IDX 25 70 26 72 27 73 28 74 89 75 29 76 88 78 30 80 31 83 32 84
REMARK SMILES IDX 82 85 33 86 87 87 81 88 83 89 34 90 86 91 80 93 79 95 35 97
REMARK SMILES IDX 67 100 47 101 66 102 48 103 51 104 65 105 84 106 49 107
REMARK SMILES IDX 50 109 64 111 85 112 52 115 36 117 37 118 45 119 38 120
REMARK SMILES IDX 39 121 43 122 46 123 40 124 41 125 44 126 42 127 68 128
REMARK SMILES IDX 69 129 77 130 70 131 71 132 75 133 78 134 72 135 73 136
REMARK SMILES IDX 76 137 74 138 53 139 54 140 62 141 55 142 56 143 60 144
REMARK SMILES IDX 63 145 57 146 58 147 61 148 59 149
REMARK H PARENT 19 2 19 3 18 5 18 6 17 10 10 15 11 18 13 19 12 20 8 22 6 27
REMARK H PARENT 90 33 94 34 94 35 1 38 1 39 1 40 3 42 3 43 3 44 4 46 4 47 4 48
REMARK H PARENT 96 50 96 51 96 52 97 54 97 55 97 56 20 58 20 59 21 61 21 62
REMARK H PARENT 22 64 22 65 23 67 23 68 24 71 28 77 89 79 29 81 88 82 87 92
REMARK H PARENT 81 94 83 96 86 98 80 99 48 108 51 110 84 113 49 114 85 116
REMARK Flexibility Score: inf
ROOT
ATOM      1  C   UNL A   1      33.354  29.021  23.342  1.00  0.00    -0.036 C 
ATOM      2  H   UNL A   1      32.393  29.216  22.913  1.00  0.00     0.028 H 
ATOM      3  H   UNL A   1      34.160  29.663  23.056  1.00  0.00     0.028 H 
ENDROOT
BRANCH   1   4
ATOM      4  C   UNL A   1      33.794  27.654  22.828  1.00  0.00     0.018 C 
ATOM      5  H   UNL A   1      34.796  27.755  22.467  1.00  0.00     0.049 H 
ATOM      6  H   UNL A   1      33.674  26.997  23.665  1.00  0.00     0.049 H 
BRANCH   4   7
ATOM      7  N   UNL A   1      33.015  27.057  21.780  1.00  0.00    -0.352 N 
ATOM      8  C   UNL A   1      31.877  26.284  21.840  1.00  0.00     0.253 C 
ATOM      9  O   UNL A   1      31.404  25.953  20.745  1.00  0.00    -0.269 OA
ATOM     10  H   UNL A   1      33.350  27.228  20.870  1.00  0.00     0.163 HD
BRANCH   8  11
ATOM     11  C   UNL A   1      31.191  25.761  23.078  1.00  0.00     0.063 A 
ATOM     12  C   UNL A   1      31.153  24.454  23.614  1.00  0.00     0.051 A 
ATOM     13  C   UNL A   1      30.554  24.257  24.887  1.00  0.00    -0.038 A 
ATOM     14  C   UNL A   1      29.926  25.282  25.587  1.00  0.00    -0.060 A 
ATOM     15  H   UNL A   1      30.583  23.315  25.308  1.00  0.00     0.064 H 
ATOM     16  C   UNL A   1      30.549  26.787  23.820  1.00  0.00    -0.047 A 
ATOM     17  C   UNL A   1      29.908  26.552  25.041  1.00  0.00    -0.061 A 
ATOM     18  H   UNL A   1      29.481  25.097  26.500  1.00  0.00     0.062 H 
ATOM     19  H   UNL A   1      30.554  27.748  23.442  1.00  0.00     0.063 H 
ATOM     20  H   UNL A   1      29.426  27.321  25.532  1.00  0.00     0.062 H 
BRANCH  12  21
ATOM     21  N   UNL A   1      31.570  23.278  22.953  1.00  0.00    -0.355 N 
ATOM     22  H   UNL A   1      31.079  23.019  22.139  1.00  0.00     0.167 HD
BRANCH  21  23
ATOM     23  C   UNL A   1      32.638  22.439  23.365  1.00  0.00     0.039 A 
ATOM     24  C   UNL A   1      33.442  20.180  24.007  1.00  0.00     0.002 A 
ATOM     25  C   UNL A   1      32.469  21.038  23.426  1.00  0.00    -0.031 A 
ATOM     26  C   UNL A   1      34.610  20.793  24.458  1.00  0.00     0.127 A 
ATOM     27  H   UNL A   1      31.609  20.623  23.035  1.00  0.00     0.065 H 
ATOM     28  C   UNL A   1      34.814  22.153  24.368  1.00  0.00     0.006 A 
ATOM     29  O   UNL A   1      35.635  20.144  25.091  1.00  0.00    -0.492 OA
ATOM     30  C   UNL A   1      33.841  22.979  23.838  1.00  0.00    -0.031 A 
ATOM     31  C   UNL A   1      36.137  22.531  24.933  1.00  0.00     0.028 C 
ATOM     32  C   UNL A   1      36.637  21.142  25.374  1.00  0.00     0.097 C 
ATOM     33  H   UNL A   1      34.000  23.997  23.792  1.00  0.00     0.065 H 
ATOM     34  H   UNL A   1      37.535  20.904  24.844  1.00  0.00     0.072 H 
ATOM     35  H   UNL A   1      36.830  21.157  26.426  1.00  0.00     0.072 H 
BRANCH  24  36
ATOM     36  C   UNL A   1      33.162  18.702  24.311  1.00  0.00    -0.009 C 
BRANCH  36  37
ATOM     37  C   UNL A   1      32.528  18.446  25.697  1.00  0.00    -0.056 C 
ATOM     38  H   UNL A   1      32.893  19.170  26.395  1.00  0.00     0.024 H 
ATOM     39  H   UNL A   1      32.790  17.463  26.032  1.00  0.00     0.024 H 
ATOM     40  H   UNL A   1      31.464  18.526  25.623  1.00  0.00     0.024 H 
ENDBRANCH  36  37
BRANCH  36  41
ATOM     41  C   UNL A   1      34.428  17.821  24.248  1.00  0.00    -0.056 C 
ATOM     42  H   UNL A   1      34.830  17.843  23.256  1.00  0.00     0.024 H 
ATOM     43  H   UNL A   1      34.176  16.814  24.509  1.00  0.00     0.024 H 
ATOM     44  H   UNL A   1      35.158  18.195  24.936  1.00  0.00     0.024 H 
ENDBRANCH  36  41
BRANCH  36  45
ATOM     45  C   UNL A   1      32.154  18.250  23.238  1.00  0.00    -0.056 C 
ATOM     46  H   UNL A   1      31.510  17.500  23.647  1.00  0.00     0.024 H 
ATOM     47  H   UNL A   1      32.683  17.847  22.400  1.00  0.00     0.024 H 
ATOM     48  H   UNL A   1      31.570  19.088  22.921  1.00  0.00     0.024 H 
ENDBRANCH  36  45
ENDBRANCH  24  36
BRANCH  31  49
ATOM     49  C   UNL A   1      37.029  23.131  23.843  1.00  0.00    -0.052 C 
ATOM     50  H   UNL A   1      37.047  22.476  22.996  1.00  0.00     0.024 H 
ATOM     51  H   UNL A   1      38.021  23.254  24.222  1.00  0.00     0.024 H 
ATOM     52  H   UNL A   1      36.639  24.083  23.549  1.00  0.00     0.024 H 
ENDBRANCH  31  49
BRANCH  31  53
ATOM     53  C   UNL A   1      36.017  23.483  26.125  1.00  0.00    -0.052 C 
ATOM     54  H   UNL A   1      35.039  23.920  26.137  1.00  0.00     0.024 H 
ATOM     55  H   UNL A   1      36.751  24.257  26.039  1.00  0.00     0.024 H 
ATOM     56  H   UNL A   1      36.176  22.941  27.034  1.00  0.00     0.024 H 
ENDBRANCH  31  53
ENDBRANCH  21  23
ENDBRANCH  12  21
ENDBRANCH   8  11
ENDBRANCH   4   7
ENDBRANCH   1   4
BRANCH   1  57
ATOM     57  C   UNL A   1      33.224  29.268  24.846  1.00  0.00    -0.052 C 
ATOM     58  H   UNL A   1      33.943  30.020  25.100  1.00  0.00     0.027 H 
ATOM     59  H   UNL A   1      33.363  28.296  25.271  1.00  0.00     0.027 H 
BRANCH  57  60
ATOM     60  C   UNL A   1      31.883  29.722  25.432  1.00  0.00    -0.052 C 
ATOM     61  H   UNL A   1      31.290  28.844  25.578  1.00  0.00     0.027 H 
ATOM     62  H   UNL A   1      31.514  30.430  24.721  1.00  0.00     0.027 H 
BRANCH  60  63
ATOM     63  C   UNL A   1      31.884  30.491  26.756  1.00  0.00    -0.036 C 
ATOM     64  H   UNL A   1      31.980  29.771  27.542  1.00  0.00     0.028 H 
ATOM     65  H   UNL A   1      30.968  31.046  26.742  1.00  0.00     0.028 H 
BRANCH  63  66
ATOM     66  C   UNL A   1      32.967  31.550  26.975  1.00  0.00     0.018 C 
ATOM     67  H   UNL A   1      33.569  31.588  26.090  1.00  0.00     0.049 H 
ATOM     68  H   UNL A   1      33.494  31.244  27.854  1.00  0.00     0.049 H 
BRANCH  66  69
ATOM     69  N   UNL A   1      32.499  32.895  27.249  1.00  0.00    -0.352 N 
ATOM     70  C   UNL A   1      33.042  33.871  28.069  1.00  0.00     0.251 C 
ATOM     71  H   UNL A   1      31.671  33.154  26.784  1.00  0.00     0.163 HD
ATOM     72  O   UNL A   1      32.527  34.978  28.122  1.00  0.00    -0.269 OA
BRANCH  70  73
ATOM     73  C   UNL A   1      34.209  33.575  28.945  1.00  0.00     0.039 A 
ATOM     74  C   UNL A   1      35.466  34.126  28.717  1.00  0.00    -0.049 A 
ATOM     75  C   UNL A   1      34.033  32.726  30.040  1.00  0.00    -0.049 A 
ATOM     76  C   UNL A   1      36.577  33.670  29.444  1.00  0.00    -0.053 A 
ATOM     77  H   UNL A   1      35.583  34.870  28.012  1.00  0.00     0.063 H 
ATOM     78  C   UNL A   1      35.134  32.331  30.818  1.00  0.00    -0.053 A 
ATOM     79  H   UNL A   1      33.087  32.386  30.278  1.00  0.00     0.063 H 
ATOM     80  C   UNL A   1      36.438  32.733  30.485  1.00  0.00    -0.014 A 
ATOM     81  H   UNL A   1      37.515  34.030  29.212  1.00  0.00     0.063 H 
ATOM     82  H   UNL A   1      34.982  31.737  31.648  1.00  0.00     0.063 H 
BRANCH  80  83
ATOM     83  C   UNL A   1      37.632  32.122  31.167  1.00  0.00     0.031 A 
ATOM     84  C   UNL A   1      38.460  31.061  30.465  1.00  0.00     0.074 A 
ATOM     85  C   UNL A   1      38.027  32.514  32.398  1.00  0.00     0.049 A 
ATOM     86  N   UNL A   1      39.437  30.317  30.931  1.00  0.00    -0.248 NA
ATOM     87  C   UNL A   1      38.142  30.795  29.054  1.00  0.00    -0.034 C 
ATOM     88  C   UNL A   1      37.389  33.555  33.201  1.00  0.00    -0.036 A 
ATOM     89  N   UNL A   1      39.073  32.086  33.186  1.00  0.00    -0.354 N 
ATOM     90  C   UNL A   1      39.814  29.474  29.890  1.00  0.00     0.074 A 
ATOM     91  C   UNL A   1      38.945  29.779  28.774  1.00  0.00    -0.034 C 
ATOM     92  H   UNL A   1      37.467  31.277  28.439  1.00  0.00     0.065 H 
ATOM     93  C   UNL A   1      38.083  33.723  34.337  1.00  0.00    -0.036 A 
ATOM     94  H   UNL A   1      36.540  34.078  32.937  1.00  0.00     0.065 H 
ATOM     95  C   UNL A   1      39.164  32.741  34.392  1.00  0.00     0.049 A 
ATOM     96  H   UNL A   1      39.698  31.376  32.912  1.00  0.00     0.167 HD
ATOM     97  C   UNL A   1      40.798  28.540  29.853  1.00  0.00     0.037 A 
ATOM     98  H   UNL A   1      38.951  29.271  27.876  1.00  0.00     0.065 H 
ATOM     99  H   UNL A   1      37.884  34.433  35.059  1.00  0.00     0.065 H 
ATOM    100  C   UNL A   1      39.992  32.561  35.442  1.00  0.00     0.037 A 
ATOM    101  C   UNL A   1      41.710  28.258  30.934  1.00  0.00     0.049 A 
ATOM    102  C   UNL A   1      41.029  31.470  35.409  1.00  0.00     0.074 A 
ATOM    103  C   UNL A   1      42.742  27.335  30.970  1.00  0.00    -0.036 A 
ATOM    104  N   UNL A   1      41.715  28.906  32.160  1.00  0.00    -0.354 N 
ATOM    105  N   UNL A   1      41.337  30.648  34.436  1.00  0.00    -0.248 NA
ATOM    106  C   UNL A   1      41.823  31.270  36.632  1.00  0.00    -0.034 C 
ATOM    107  C   UNL A   1      43.341  27.390  32.232  1.00  0.00    -0.036 A 
ATOM    108  H   UNL A   1      43.020  26.710  30.197  1.00  0.00     0.065 H 
ATOM    109  C   UNL A   1      42.719  28.387  32.963  1.00  0.00     0.049 A 
ATOM    110  H   UNL A   1      41.097  29.626  32.421  1.00  0.00     0.167 HD
ATOM    111  C   UNL A   1      42.365  29.850  34.922  1.00  0.00     0.074 A 
ATOM    112  C   UNL A   1      42.646  30.296  36.268  1.00  0.00    -0.034 C 
ATOM    113  H   UNL A   1      41.755  31.761  37.538  1.00  0.00     0.065 H 
ATOM    114  H   UNL A   1      44.116  26.791  32.561  1.00  0.00     0.065 H 
ATOM    115  C   UNL A   1      43.010  28.833  34.301  1.00  0.00     0.037 A 
ATOM    116  H   UNL A   1      43.391  29.907  36.869  1.00  0.00     0.065 H 
BRANCH  97 117
ATOM    117  C   UNL A   1      40.955  27.730  28.596  1.00  0.00     0.064 A 
ATOM    118  C   UNL A   1      40.205  26.567  28.369  1.00  0.00     0.173 A 
ATOM    119  C   UNL A   1      41.805  28.172  27.568  1.00  0.00     0.173 A 
ATOM    120  F   UNL A   1      39.384  26.097  29.320  1.00  0.00    -0.203 F 
ATOM    121  C   UNL A   1      40.314  25.867  27.169  1.00  0.00     0.198 A 
ATOM    122  C   UNL A   1      41.887  27.487  26.358  1.00  0.00     0.198 A 
ATOM    123  F   UNL A   1      42.535  29.287  27.726  1.00  0.00    -0.203 F 
ATOM    124  F   UNL A   1      39.615  24.737  26.990  1.00  0.00    -0.200 F 
ATOM    125  C   UNL A   1      41.146  26.332  26.162  1.00  0.00     0.200 A 
ATOM    126  F   UNL A   1      42.676  27.950  25.379  1.00  0.00    -0.200 F 
ATOM    127  F   UNL A   1      41.233  25.667  25.002  1.00  0.00    -0.200 F 
ENDBRANCH  97 117
BRANCH 100 128
ATOM    128  C   UNL A   1      39.865  33.437  36.638  1.00  0.00     0.064 A 
ATOM    129  C   UNL A   1      40.637  34.602  36.760  1.00  0.00     0.173 A 
ATOM    130  C   UNL A   1      38.971  33.137  37.675  1.00  0.00     0.173 A 
ATOM    131  F   UNL A   1      41.533  34.913  35.812  1.00  0.00    -0.203 F 
ATOM    132  C   UNL A   1      40.517  35.431  37.873  1.00  0.00     0.198 A 
ATOM    133  C   UNL A   1      38.827  33.985  38.772  1.00  0.00     0.198 A 
ATOM    134  F   UNL A   1      38.216  32.030  37.613  1.00  0.00    -0.203 F 
ATOM    135  F   UNL A   1      41.293  36.519  37.983  1.00  0.00    -0.200 F 
ATOM    136  C   UNL A   1      39.604  35.129  38.872  1.00  0.00     0.200 A 
ATOM    137  F   UNL A   1      37.934  33.696  39.727  1.00  0.00    -0.200 F 
ATOM    138  F   UNL A   1      39.475  35.937  39.934  1.00  0.00    -0.200 F 
ENDBRANCH 100 128
BRANCH 115 139
ATOM    139  C   UNL A   1      44.111  28.136  35.050  1.00  0.00     0.064 A 
ATOM    140  C   UNL A   1      43.871  26.974  35.798  1.00  0.00     0.173 A 
ATOM    141  C   UNL A   1      45.435  28.596  34.963  1.00  0.00     0.173 A 
ATOM    142  F   UNL A   1      42.623  26.500  35.925  1.00  0.00    -0.203 F 
ATOM    143  C   UNL A   1      44.910  26.308  36.443  1.00  0.00     0.198 A 
ATOM    144  C   UNL A   1      46.476  27.912  35.585  1.00  0.00     0.198 A 
ATOM    145  F   UNL A   1      45.723  29.698  34.254  1.00  0.00    -0.203 F 
ATOM    146  F   UNL A   1      44.651  25.220  37.182  1.00  0.00    -0.200 F 
ATOM    147  C   UNL A   1      46.213  26.771  36.328  1.00  0.00     0.200 A 
ATOM    148  F   UNL A   1      47.736  28.352  35.460  1.00  0.00    -0.200 F 
ATOM    149  F   UNL A   1      47.213  26.120  36.937  1.00  0.00    -0.200 F 
ENDBRANCH 115 139
ENDBRANCH  80  83
ENDBRANCH  70  73
ENDBRANCH  66  69
ENDBRANCH  63  66
ENDBRANCH  60  63
ENDBRANCH  57  60
ENDBRANCH   1  57
TORSDOF 21
ENDMDL
MODEL 5
REMARK VINA RESULT:     -11.7      5.186      9.652
REMARK SMILES CC(C)(C)c1cc(Nc2ccccc2C(=O)NCCCCCCNC(=O)c2ccc(-c3c4nc(c(-c5c(F)c(F)c(F)c(F)c5F)c5ccc([nH]5)c(-c5c(F)c(F)c(F)c(F)c5F)c5nc(c(-c6c(F)c(F)c(F)c(F)c6F)c6ccc3[nH]6)C=C5)C=C4)cc2)cc2c1OCC2(C)C
REMARK SMILES IDX 19 1 18 4 17 7 15 8 16 9 14 11 9 12 10 13 11 14 13 16 12 17
REMARK SMILES IDX 8 21 7 23 5 24 6 25 92 26 91 28 93 29 90 30 95 31 94 32 2 36
REMARK SMILES IDX 1 37 3 41 4 45 96 49 97 53 20 57 21 60 22 63 23 66 24 69
REMARK SMILES IDX 25 70 26 72 27 73 28 74 89 75 29 76 88 78 30 80 31 83 32 84
REMARK SMILES IDX 82 85 33 86 87 87 81 88 83 89 34 90 86 91 80 93 79 95 35 97
REMARK SMILES IDX 67 100 47 101 66 102 48 103 51 104 65 105 84 106 49 107
REMARK SMILES IDX 50 109 64 111 85 112 52 115 36 117 37 118 45 119 38 120
REMARK SMILES IDX 39 121 43 122 46 123 40 124 41 125 44 126 42 127 68 128
REMARK SMILES IDX 69 129 77 130 70 131 71 132 75 133 78 134 72 135 73 136
REMARK SMILES IDX 76 137 74 138 53 139 54 140 62 141 55 142 56 143 60 144
REMARK SMILES IDX 63 145 57 146 58 147 61 148 59 149
REMARK H PARENT 19 2 19 3 18 5 18 6 17 10 10 15 11 18 13 19 12 20 8 22 6 27
REMARK H PARENT 90 33 94 34 94 35 1 38 1 39 1 40 3 42 3 43 3 44 4 46 4 47 4 48
REMARK H PARENT 96 50 96 51 96 52 97 54 97 55 97 56 20 58 20 59 21 61 21 62
REMARK H PARENT 22 64 22 65 23 67 23 68 24 71 28 77 89 79 29 81 88 82 87 92
REMARK H PARENT 81 94 83 96 86 98 80 99 48 108 51 110 84 113 49 114 85 116
REMARK Flexibility Score: inf
ROOT
ATOM      1  C   UNL A   1      34.977  31.188  28.219  1.00  0.00    -0.036 C 
ATOM      2  H   UNL A   1      35.835  30.589  27.990  1.00  0.00     0.028 H 
ATOM      3  H   UNL A   1      34.534  31.063  29.184  1.00  0.00     0.028 H 
ENDROOT
BRANCH   1   4
ATOM      4  C   UNL A   1      33.870  30.751  27.265  1.00  0.00     0.018 C 
ATOM      5  H   UNL A   1      33.312  31.625  27.001  1.00  0.00     0.049 H 
ATOM      6  H   UNL A   1      34.381  30.273  26.455  1.00  0.00     0.049 H 
BRANCH   4   7
ATOM      7  N   UNL A   1      32.935  29.769  27.739  1.00  0.00    -0.352 N 
ATOM      8  C   UNL A   1      32.172  28.856  27.048  1.00  0.00     0.253 C 
ATOM      9  O   UNL A   1      31.488  28.099  27.750  1.00  0.00    -0.269 OA
ATOM     10  H   UNL A   1      32.822  29.746  28.717  1.00  0.00     0.163 HD
BRANCH   8  11
ATOM     11  C   UNL A   1      32.039  28.718  25.551  1.00  0.00     0.063 A 
ATOM     12  C   UNL A   1      32.704  27.853  24.654  1.00  0.00     0.051 A 
ATOM     13  C   UNL A   1      32.282  27.821  23.298  1.00  0.00    -0.038 A 
ATOM     14  C   UNL A   1      31.299  28.670  22.799  1.00  0.00    -0.060 A 
ATOM     15  H   UNL A   1      32.723  27.143  22.657  1.00  0.00     0.064 H 
ATOM     16  C   UNL A   1      31.036  29.566  25.013  1.00  0.00    -0.047 A 
ATOM     17  C   UNL A   1      30.685  29.560  23.659  1.00  0.00    -0.061 A 
ATOM     18  H   UNL A   1      31.033  28.634  21.802  1.00  0.00     0.062 H 
ATOM     19  H   UNL A   1      30.544  30.215  25.648  1.00  0.00     0.063 H 
ATOM     20  H   UNL A   1      29.971  30.217  23.303  1.00  0.00     0.062 H 
BRANCH  12  21
ATOM     21  N   UNL A   1      33.842  27.070  24.952  1.00  0.00    -0.355 N 
ATOM     22  H   UNL A   1      34.693  27.545  25.091  1.00  0.00     0.167 HD
BRANCH  21  23
ATOM     23  C   UNL A   1      33.858  25.656  25.069  1.00  0.00     0.039 A 
ATOM     24  C   UNL A   1      35.157  23.542  25.135  1.00  0.00     0.002 A 
ATOM     25  C   UNL A   1      35.079  24.959  25.203  1.00  0.00    -0.031 A 
ATOM     26  C   UNL A   1      33.946  22.866  24.992  1.00  0.00     0.127 A 
ATOM     27  H   UNL A   1      35.945  25.499  25.357  1.00  0.00     0.065 H 
ATOM     28  C   UNL A   1      32.738  23.524  24.903  1.00  0.00     0.006 A 
ATOM     29  O   UNL A   1      33.822  21.511  24.856  1.00  0.00    -0.492 OA
ATOM     30  C   UNL A   1      32.683  24.905  24.929  1.00  0.00    -0.031 A 
ATOM     31  C   UNL A   1      31.616  22.560  24.746  1.00  0.00     0.028 C 
ATOM     32  C   UNL A   1      32.409  21.239  24.746  1.00  0.00     0.097 C 
ATOM     33  H   UNL A   1      31.774  25.385  24.844  1.00  0.00     0.065 H 
ATOM     34  H   UNL A   1      32.098  20.639  25.575  1.00  0.00     0.072 H 
ATOM     35  H   UNL A   1      32.222  20.718  23.830  1.00  0.00     0.072 H 
BRANCH  24  36
ATOM     36  C   UNL A   1      36.492  22.794  25.022  1.00  0.00    -0.009 C 
BRANCH  36  37
ATOM     37  C   UNL A   1      36.482  21.377  25.639  1.00  0.00    -0.056 C 
ATOM     38  H   UNL A   1      37.421  20.901  25.455  1.00  0.00     0.024 H 
ATOM     39  H   UNL A   1      35.697  20.800  25.195  1.00  0.00     0.024 H 
ATOM     40  H   UNL A   1      36.318  21.448  26.694  1.00  0.00     0.024 H 
ENDBRANCH  36  37
BRANCH  36  41
ATOM     41  C   UNL A   1      37.665  23.544  25.689  1.00  0.00    -0.056 C 
ATOM     42  H   UNL A   1      37.565  24.594  25.509  1.00  0.00     0.024 H 
ATOM     43  H   UNL A   1      38.590  23.198  25.277  1.00  0.00     0.024 H 
ATOM     44  H   UNL A   1      37.653  23.360  26.743  1.00  0.00     0.024 H 
ENDBRANCH  36  41
BRANCH  36  45
ATOM     45  C   UNL A   1      36.752  22.651  23.511  1.00  0.00    -0.056 C 
ATOM     46  H   UNL A   1      36.328  23.487  22.996  1.00  0.00     0.024 H 
ATOM     47  H   UNL A   1      36.300  21.748  23.156  1.00  0.00     0.024 H 
ATOM     48  H   UNL A   1      37.806  22.617  23.332  1.00  0.00     0.024 H 
ENDBRANCH  36  45
ENDBRANCH  24  36
BRANCH  31  49
ATOM     49  C   UNL A   1      30.668  22.648  25.944  1.00  0.00    -0.052 C 
ATOM     50  H   UNL A   1      31.160  23.150  26.752  1.00  0.00     0.024 H 
ATOM     51  H   UNL A   1      30.390  21.662  26.252  1.00  0.00     0.024 H 
ATOM     52  H   UNL A   1      29.792  23.196  25.665  1.00  0.00     0.024 H 
ENDBRANCH  31  49
BRANCH  31  53
ATOM     53  C   UNL A   1      30.855  22.751  23.432  1.00  0.00    -0.052 C 
ATOM     54  H   UNL A   1      30.901  21.849  22.858  1.00  0.00     0.024 H 
ATOM     55  H   UNL A   1      31.300  23.550  22.876  1.00  0.00     0.024 H 
ATOM     56  H   UNL A   1      29.833  22.990  23.642  1.00  0.00     0.024 H 
ENDBRANCH  31  53
ENDBRANCH  21  23
ENDBRANCH  12  21
ENDBRANCH   8  11
ENDBRANCH   4   7
ENDBRANCH   1   4
BRANCH   1  57
ATOM     57  C   UNL A   1      35.446  32.644  28.232  1.00  0.00    -0.052 C 
ATOM     58  H   UNL A   1      35.216  33.053  27.270  1.00  0.00     0.027 H 
ATOM     59  H   UNL A   1      36.481  32.569  28.497  1.00  0.00     0.027 H 
BRANCH  57  60
ATOM     60  C   UNL A   1      34.884  33.617  29.273  1.00  0.00    -0.052 C 
ATOM     61  H   UNL A   1      35.635  34.358  29.451  1.00  0.00     0.027 H 
ATOM     62  H   UNL A   1      34.630  32.993  30.104  1.00  0.00     0.027 H 
BRANCH  60  63
ATOM     63  C   UNL A   1      33.584  34.360  28.955  1.00  0.00    -0.036 C 
ATOM     64  H   UNL A   1      32.781  33.791  29.374  1.00  0.00     0.028 H 
ATOM     65  H   UNL A   1      33.583  34.452  27.889  1.00  0.00     0.028 H 
BRANCH  63  66
ATOM     66  C   UNL A   1      33.433  35.798  29.460  1.00  0.00     0.018 C 
ATOM     67  H   UNL A   1      33.207  36.417  28.617  1.00  0.00     0.049 H 
ATOM     68  H   UNL A   1      34.359  36.032  29.943  1.00  0.00     0.049 H 
BRANCH  66  69
ATOM     69  N   UNL A   1      32.405  36.019  30.460  1.00  0.00    -0.352 N 
ATOM     70  C   UNL A   1      32.451  35.830  31.832  1.00  0.00     0.251 C 
ATOM     71  H   UNL A   1      31.548  36.353  30.112  1.00  0.00     0.163 HD
ATOM     72  O   UNL A   1      31.489  36.136  32.521  1.00  0.00    -0.269 OA
BRANCH  70  73
ATOM     73  C   UNL A   1      33.631  35.196  32.480  1.00  0.00     0.039 A 
ATOM     74  C   UNL A   1      34.820  35.885  32.695  1.00  0.00    -0.049 A 
ATOM     75  C   UNL A   1      33.537  33.866  32.900  1.00  0.00    -0.049 A 
ATOM     76  C   UNL A   1      35.964  35.197  33.128  1.00  0.00    -0.053 A 
ATOM     77  H   UNL A   1      34.862  36.904  32.535  1.00  0.00     0.063 H 
ATOM     78  C   UNL A   1      34.664  33.200  33.408  1.00  0.00    -0.053 A 
ATOM     79  H   UNL A   1      32.633  33.371  32.835  1.00  0.00     0.063 H 
ATOM     80  C   UNL A   1      35.919  33.830  33.456  1.00  0.00    -0.014 A 
ATOM     81  H   UNL A   1      36.859  35.705  33.207  1.00  0.00     0.063 H 
ATOM     82  H   UNL A   1      34.569  32.231  33.752  1.00  0.00     0.063 H 
BRANCH  80  83
ATOM     83  C   UNL A   1      37.165  33.048  33.771  1.00  0.00     0.031 A 
ATOM     84  C   UNL A   1      37.880  33.240  35.096  1.00  0.00     0.074 A 
ATOM     85  C   UNL A   1      37.667  32.133  32.913  1.00  0.00     0.049 A 
ATOM     86  N   UNL A   1      39.037  32.767  35.500  1.00  0.00    -0.248 NA
ATOM     87  C   UNL A   1      37.208  34.083  36.098  1.00  0.00    -0.034 C 
ATOM     88  C   UNL A   1      37.087  31.775  31.621  1.00  0.00    -0.036 A 
ATOM     89  N   UNL A   1      38.780  31.326  33.009  1.00  0.00    -0.354 N 
ATOM     90  C   UNL A   1      39.246  33.288  36.773  1.00  0.00     0.074 A 
ATOM     91  C   UNL A   1      38.110  34.134  37.068  1.00  0.00    -0.034 C 
ATOM     92  H   UNL A   1      36.274  34.521  36.055  1.00  0.00     0.065 H 
ATOM     93  C   UNL A   1      37.812  30.789  31.070  1.00  0.00    -0.036 A 
ATOM     94  H   UNL A   1      36.253  32.211  31.198  1.00  0.00     0.065 H 
ATOM     95  C   UNL A   1      38.964  30.503  31.923  1.00  0.00     0.049 A 
ATOM     96  H   UNL A   1      39.389  31.338  33.783  1.00  0.00     0.167 HD
ATOM     97  C   UNL A   1      40.277  33.076  37.629  1.00  0.00     0.037 A 
ATOM     98  H   UNL A   1      38.013  34.703  37.923  1.00  0.00     0.065 H 
ATOM     99  H   UNL A   1      37.592  30.309  30.184  1.00  0.00     0.065 H 
ATOM    100  C   UNL A   1      39.954  29.638  31.619  1.00  0.00     0.037 A 
ATOM    101  C   UNL A   1      41.392  32.196  37.379  1.00  0.00     0.049 A 
ATOM    102  C   UNL A   1      41.126  29.474  32.550  1.00  0.00     0.074 A 
ATOM    103  C   UNL A   1      42.471  31.920  38.202  1.00  0.00    -0.036 A 
ATOM    104  N   UNL A   1      41.562  31.436  36.233  1.00  0.00    -0.354 N 
ATOM    105  N   UNL A   1      41.333  30.014  33.725  1.00  0.00    -0.248 NA
ATOM    106  C   UNL A   1      42.215  28.592  32.099  1.00  0.00    -0.034 C 
ATOM    107  C   UNL A   1      43.318  31.029  37.536  1.00  0.00    -0.036 A 
ATOM    108  H   UNL A   1      42.625  32.307  39.146  1.00  0.00     0.065 H 
ATOM    109  C   UNL A   1      42.739  30.707  36.321  1.00  0.00     0.049 A 
ATOM    110  H   UNL A   1      40.941  31.417  35.469  1.00  0.00     0.167 HD
ATOM    111  C   UNL A   1      42.560  29.526  34.159  1.00  0.00     0.074 A 
ATOM    112  C   UNL A   1      43.044  28.631  33.132  1.00  0.00    -0.034 C 
ATOM    113  H   UNL A   1      42.308  28.077  31.209  1.00  0.00     0.065 H 
ATOM    114  H   UNL A   1      44.220  30.672  37.890  1.00  0.00     0.065 H 
ATOM    115  C   UNL A   1      43.223  29.807  35.307  1.00  0.00     0.037 A 
ATOM    116  H   UNL A   1      43.923  28.091  33.196  1.00  0.00     0.065 H 
BRANCH  97 117
ATOM    117  C   UNL A   1      40.269  33.816  38.939  1.00  0.00     0.064 A 
ATOM    118  C   UNL A   1      39.588  33.322  40.061  1.00  0.00     0.173 A 
ATOM    119  C   UNL A   1      41.026  34.989  39.096  1.00  0.00     0.173 A 
ATOM    120  F   UNL A   1      38.846  32.210  39.965  1.00  0.00    -0.203 F 
ATOM    121  C   UNL A   1      39.648  33.985  41.285  1.00  0.00     0.198 A 
ATOM    122  C   UNL A   1      41.109  35.632  40.329  1.00  0.00     0.198 A 
ATOM    123  F   UNL A   1      41.709  35.498  38.060  1.00  0.00    -0.203 F 
ATOM    124  F   UNL A   1      38.958  33.515  42.334  1.00  0.00    -0.200 F 
ATOM    125  C   UNL A   1      40.415  35.133  41.421  1.00  0.00     0.200 A 
ATOM    126  F   UNL A   1      41.867  36.729  40.463  1.00  0.00    -0.200 F 
ATOM    127  F   UNL A   1      40.486  35.757  42.604  1.00  0.00    -0.200 F 
ENDBRANCH  97 117
BRANCH 100 128
ATOM    128  C   UNL A   1      39.889  28.858  30.354  1.00  0.00     0.064 A 
ATOM    129  C   UNL A   1      40.413  29.379  29.162  1.00  0.00     0.173 A 
ATOM    130  C   UNL A   1      39.312  27.581  30.308  1.00  0.00     0.173 A 
ATOM    131  F   UNL A   1      40.942  30.610  29.145  1.00  0.00    -0.203 F 
ATOM    132  C   UNL A   1      40.363  28.650  27.975  1.00  0.00     0.198 A 
ATOM    133  C   UNL A   1      39.294  26.839  29.129  1.00  0.00     0.198 A 
ATOM    134  F   UNL A   1      38.787  27.040  31.418  1.00  0.00    -0.203 F 
ATOM    135  F   UNL A   1      40.839  29.186  26.842  1.00  0.00    -0.200 F 
ATOM    136  C   UNL A   1      39.815  27.377  27.961  1.00  0.00     0.200 A 
ATOM    137  F   UNL A   1      38.775  25.604  29.124  1.00  0.00    -0.200 F 
ATOM    138  F   UNL A   1      39.784  26.669  26.824  1.00  0.00    -0.200 F 
ENDBRANCH 100 128
BRANCH 115 139
ATOM    139  C   UNL A   1      44.540  29.122  35.545  1.00  0.00     0.064 A 
ATOM    140  C   UNL A   1      44.615  27.874  36.180  1.00  0.00     0.173 A 
ATOM    141  C   UNL A   1      45.734  29.689  35.072  1.00  0.00     0.173 A 
ATOM    142  F   UNL A   1      43.505  27.295  36.663  1.00  0.00    -0.203 F 
ATOM    143  C   UNL A   1      45.837  27.226  36.347  1.00  0.00     0.198 A 
ATOM    144  C   UNL A   1      46.950  29.025  35.214  1.00  0.00     0.198 A 
ATOM    145  F   UNL A   1      45.719  30.877  34.450  1.00  0.00    -0.203 F 
ATOM    146  F   UNL A   1      45.888  26.051  36.988  1.00  0.00    -0.200 F 
ATOM    147  C   UNL A   1      47.001  27.797  35.855  1.00  0.00     0.200 A 
ATOM    148  F   UNL A   1      48.072  29.572  34.724  1.00  0.00    -0.200 F 
ATOM    149  F   UNL A   1      48.173  27.164  36.002  1.00  0.00    -0.200 F 
ENDBRANCH 115 139
ENDBRANCH  80  83
ENDBRANCH  70  73
ENDBRANCH  66  69
ENDBRANCH  63  66
ENDBRANCH  60  63
ENDBRANCH  57  60
ENDBRANCH   1  57
TORSDOF 21
ENDMDL
MODEL 6
REMARK VINA RESULT:     -11.6      5.198      9.577
REMARK SMILES CC(C)(C)c1cc(Nc2ccccc2C(=O)NCCCCCCNC(=O)c2ccc(-c3c4nc(c(-c5c(F)c(F)c(F)c(F)c5F)c5ccc([nH]5)c(-c5c(F)c(F)c(F)c(F)c5F)c5nc(c(-c6c(F)c(F)c(F)c(F)c6F)c6ccc3[nH]6)C=C5)C=C4)cc2)cc2c1OCC2(C)C
REMARK SMILES IDX 19 1 18 4 17 7 15 8 16 9 14 11 9 12 10 13 11 14 13 16 12 17
REMARK SMILES IDX 8 21 7 23 5 24 6 25 92 26 91 28 93 29 90 30 95 31 94 32 2 36
REMARK SMILES IDX 1 37 3 41 4 45 96 49 97 53 20 57 21 60 22 63 23 66 24 69
REMARK SMILES IDX 25 70 26 72 27 73 28 74 89 75 29 76 88 78 30 80 31 83 32 84
REMARK SMILES IDX 82 85 33 86 87 87 81 88 83 89 34 90 86 91 80 93 79 95 35 97
REMARK SMILES IDX 67 100 47 101 66 102 48 103 51 104 65 105 84 106 49 107
REMARK SMILES IDX 50 109 64 111 85 112 52 115 36 117 37 118 45 119 38 120
REMARK SMILES IDX 39 121 43 122 46 123 40 124 41 125 44 126 42 127 68 128
REMARK SMILES IDX 69 129 77 130 70 131 71 132 75 133 78 134 72 135 73 136
REMARK SMILES IDX 76 137 74 138 53 139 54 140 62 141 55 142 56 143 60 144
REMARK SMILES IDX 63 145 57 146 58 147 61 148 59 149
REMARK H PARENT 19 2 19 3 18 5 18 6 17 10 10 15 11 18 13 19 12 20 8 22 6 27
REMARK H PARENT 90 33 94 34 94 35 1 38 1 39 1 40 3 42 3 43 3 44 4 46 4 47 4 48
REMARK H PARENT 96 50 96 51 96 52 97 54 97 55 97 56 20 58 20 59 21 61 21 62
REMARK H PARENT 22 64 22 65 23 67 23 68 24 71 28 77 89 79 29 81 88 82 87 92
REMARK H PARENT 81 94 83 96 86 98 80 99 48 108 51 110 84 113 49 114 85 116
REMARK Flexibility Score: inf
ROOT
ATOM      1  C   UNL A   1      35.031  31.093  28.165  1.00  0.00    -0.036 C 
ATOM      2  H   UNL A   1      35.952  30.634  27.873  1.00  0.00     0.028 H 
ATOM      3  H   UNL A   1      34.631  30.830  29.122  1.00  0.00     0.028 H 
ENDROOT
BRANCH   1   4
ATOM      4  C   UNL A   1      33.966  30.600  27.192  1.00  0.00     0.018 C 
ATOM      5  H   UNL A   1      33.415  31.455  26.859  1.00  0.00     0.049 H 
ATOM      6  H   UNL A   1      34.511  30.083  26.430  1.00  0.00     0.049 H 
BRANCH   4   7
ATOM      7  N   UNL A   1      33.016  29.639  27.679  1.00  0.00    -0.352 N 
ATOM      8  C   UNL A   1      32.188  28.776  26.997  1.00  0.00     0.253 C 
ATOM      9  O   UNL A   1      31.508  28.024  27.707  1.00  0.00    -0.269 OA
ATOM     10  H   UNL A   1      32.947  29.589  28.660  1.00  0.00     0.163 HD
BRANCH   8  11
ATOM     11  C   UNL A   1      31.982  28.692  25.505  1.00  0.00     0.063 A 
ATOM     12  C   UNL A   1      32.640  27.898  24.539  1.00  0.00     0.051 A 
ATOM     13  C   UNL A   1      32.148  27.898  23.206  1.00  0.00    -0.038 A 
ATOM     14  C   UNL A   1      31.099  28.714  22.795  1.00  0.00    -0.060 A 
ATOM     15  H   UNL A   1      32.586  27.269  22.515  1.00  0.00     0.064 H 
ATOM     16  C   UNL A   1      30.911  29.508  25.055  1.00  0.00    -0.047 A 
ATOM     17  C   UNL A   1      30.489  29.537  23.722  1.00  0.00    -0.061 A 
ATOM     18  H   UNL A   1      30.782  28.704  21.812  1.00  0.00     0.062 H 
ATOM     19  H   UNL A   1      30.422  30.105  25.742  1.00  0.00     0.063 H 
ATOM     20  H   UNL A   1      29.726  30.170  23.432  1.00  0.00     0.062 H 
BRANCH  12  21
ATOM     21  N   UNL A   1      33.829  27.163  24.745  1.00  0.00    -0.355 N 
ATOM     22  H   UNL A   1      34.669  27.672  24.805  1.00  0.00     0.167 HD
BRANCH  21  23
ATOM     23  C   UNL A   1      33.910  25.752  24.872  1.00  0.00     0.039 A 
ATOM     24  C   UNL A   1      32.896  23.625  25.650  1.00  0.00     0.002 A 
ATOM     25  C   UNL A   1      32.802  25.006  25.331  1.00  0.00    -0.031 A 
ATOM     26  C   UNL A   1      34.133  23.024  25.423  1.00  0.00     0.127 A 
ATOM     27  H   UNL A   1      31.892  25.481  25.439  1.00  0.00     0.065 H 
ATOM     28  C   UNL A   1      35.215  23.723  24.933  1.00  0.00     0.006 A 
ATOM     29  O   UNL A   1      34.432  21.721  25.716  1.00  0.00    -0.492 OA
ATOM     30  C   UNL A   1      35.120  25.076  24.667  1.00  0.00    -0.031 A 
ATOM     31  C   UNL A   1      36.404  22.838  24.798  1.00  0.00     0.028 C 
ATOM     32  C   UNL A   1      35.803  21.517  25.316  1.00  0.00     0.097 C 
ATOM     33  H   UNL A   1      35.943  25.590  24.317  1.00  0.00     0.065 H 
ATOM     34  H   UNL A   1      35.840  20.783  24.538  1.00  0.00     0.072 H 
ATOM     35  H   UNL A   1      36.369  21.182  26.159  1.00  0.00     0.072 H 
BRANCH  24  36
ATOM     36  C   UNL A   1      31.780  22.871  26.387  1.00  0.00    -0.009 C 
BRANCH  36  37
ATOM     37  C   UNL A   1      31.326  21.568  25.691  1.00  0.00    -0.056 C 
ATOM     38  H   UNL A   1      31.338  20.764  26.397  1.00  0.00     0.024 H 
ATOM     39  H   UNL A   1      31.992  21.344  24.884  1.00  0.00     0.024 H 
ATOM     40  H   UNL A   1      30.334  21.694  25.311  1.00  0.00     0.024 H 
ENDBRANCH  36  37
BRANCH  36  41
ATOM     41  C   UNL A   1      30.506  23.719  26.586  1.00  0.00    -0.056 C 
ATOM     42  H   UNL A   1      29.952  23.752  25.671  1.00  0.00     0.024 H 
ATOM     43  H   UNL A   1      30.779  24.712  26.875  1.00  0.00     0.024 H 
ATOM     44  H   UNL A   1      29.901  23.279  27.353  1.00  0.00     0.024 H 
ENDBRANCH  36  41
BRANCH  36  45
ATOM     45  C   UNL A   1      32.379  22.494  27.755  1.00  0.00    -0.056 C 
ATOM     46  H   UNL A   1      33.058  21.676  27.634  1.00  0.00     0.024 H 
ATOM     47  H   UNL A   1      31.592  22.209  28.421  1.00  0.00     0.024 H 
ATOM     48  H   UNL A   1      32.901  23.336  28.159  1.00  0.00     0.024 H 
ENDBRANCH  36  45
ENDBRANCH  24  36
BRANCH  31  49
ATOM     49  C   UNL A   1      36.823  22.730  23.330  1.00  0.00    -0.052 C 
ATOM     50  H   UNL A   1      35.967  22.495  22.731  1.00  0.00     0.024 H 
ATOM     51  H   UNL A   1      37.555  21.959  23.224  1.00  0.00     0.024 H 
ATOM     52  H   UNL A   1      37.237  23.663  23.009  1.00  0.00     0.024 H 
ENDBRANCH  31  49
BRANCH  31  53
ATOM     53  C   UNL A   1      37.578  23.293  25.669  1.00  0.00    -0.052 C 
ATOM     54  H   UNL A   1      38.367  22.572  25.609  1.00  0.00     0.024 H 
ATOM     55  H   UNL A   1      37.254  23.383  26.685  1.00  0.00     0.024 H 
ATOM     56  H   UNL A   1      37.933  24.242  25.322  1.00  0.00     0.024 H 
ENDBRANCH  31  53
ENDBRANCH  21  23
ENDBRANCH  12  21
ENDBRANCH   8  11
ENDBRANCH   4   7
ENDBRANCH   1   4
BRANCH   1  57
ATOM     57  C   UNL A   1      35.309  32.592  28.301  1.00  0.00    -0.052 C 
ATOM     58  H   UNL A   1      35.098  33.034  27.349  1.00  0.00     0.027 H 
ATOM     59  H   UNL A   1      36.323  32.626  28.643  1.00  0.00     0.027 H 
BRANCH  57  60
ATOM     60  C   UNL A   1      34.553  33.416  29.349  1.00  0.00    -0.052 C 
ATOM     61  H   UNL A   1      35.280  34.001  29.873  1.00  0.00     0.027 H 
ATOM     62  H   UNL A   1      34.029  32.685  29.927  1.00  0.00     0.027 H 
BRANCH  60  63
ATOM     63  C   UNL A   1      33.458  34.375  28.877  1.00  0.00    -0.036 C 
ATOM     64  H   UNL A   1      32.516  33.911  29.088  1.00  0.00     0.028 H 
ATOM     65  H   UNL A   1      33.675  34.539  27.842  1.00  0.00     0.028 H 
BRANCH  63  66
ATOM     66  C   UNL A   1      33.417  35.780  29.485  1.00  0.00     0.018 C 
ATOM     67  H   UNL A   1      33.251  36.474  28.688  1.00  0.00     0.049 H 
ATOM     68  H   UNL A   1      34.353  35.902  29.988  1.00  0.00     0.049 H 
BRANCH  66  69
ATOM     69  N   UNL A   1      32.400  36.010  30.493  1.00  0.00    -0.352 N 
ATOM     70  C   UNL A   1      32.458  35.833  31.866  1.00  0.00     0.251 C 
ATOM     71  H   UNL A   1      31.539  36.342  30.151  1.00  0.00     0.163 HD
ATOM     72  O   UNL A   1      31.504  36.145  32.561  1.00  0.00    -0.269 OA
BRANCH  70  73
ATOM     73  C   UNL A   1      33.644  35.203  32.508  1.00  0.00     0.039 A 
ATOM     74  C   UNL A   1      34.842  35.887  32.689  1.00  0.00    -0.049 A 
ATOM     75  C   UNL A   1      33.546  33.883  32.957  1.00  0.00    -0.049 A 
ATOM     76  C   UNL A   1      35.988  35.199  33.117  1.00  0.00    -0.053 A 
ATOM     77  H   UNL A   1      34.889  36.901  32.506  1.00  0.00     0.063 H 
ATOM     78  C   UNL A   1      34.677  33.218  33.461  1.00  0.00    -0.053 A 
ATOM     79  H   UNL A   1      32.638  33.394  32.918  1.00  0.00     0.063 H 
ATOM     80  C   UNL A   1      35.937  33.839  33.474  1.00  0.00    -0.014 A 
ATOM     81  H   UNL A   1      36.887  35.701  33.171  1.00  0.00     0.063 H 
ATOM     82  H   UNL A   1      34.580  32.258  33.826  1.00  0.00     0.063 H 
BRANCH  80  83
ATOM     83  C   UNL A   1      37.182  33.053  33.786  1.00  0.00     0.031 A 
ATOM     84  C   UNL A   1      37.903  33.246  35.107  1.00  0.00     0.074 A 
ATOM     85  C   UNL A   1      37.678  32.135  32.927  1.00  0.00     0.049 A 
ATOM     86  N   UNL A   1      39.061  32.770  35.507  1.00  0.00    -0.248 NA
ATOM     87  C   UNL A   1      37.239  34.092  36.110  1.00  0.00    -0.034 C 
ATOM     88  C   UNL A   1      37.091  31.777  31.638  1.00  0.00    -0.036 A 
ATOM     89  N   UNL A   1      38.789  31.325  33.020  1.00  0.00    -0.354 N 
ATOM     90  C   UNL A   1      39.277  33.292  36.778  1.00  0.00     0.074 A 
ATOM     91  C   UNL A   1      38.145  34.142  37.076  1.00  0.00    -0.034 C 
ATOM     92  H   UNL A   1      36.306  34.534  36.071  1.00  0.00     0.065 H 
ATOM     93  C   UNL A   1      37.811  30.788  31.085  1.00  0.00    -0.036 A 
ATOM     94  H   UNL A   1      36.257  32.215  31.218  1.00  0.00     0.065 H 
ATOM     95  C   UNL A   1      38.965  30.500  31.934  1.00  0.00     0.049 A 
ATOM     96  H   UNL A   1      39.401  31.337  33.791  1.00  0.00     0.167 HD
ATOM     97  C   UNL A   1      40.312  33.079  37.630  1.00  0.00     0.037 A 
ATOM     98  H   UNL A   1      38.054  34.713  37.931  1.00  0.00     0.065 H 
ATOM     99  H   UNL A   1      37.585  30.308  30.201  1.00  0.00     0.065 H 
ATOM    100  C   UNL A   1      39.951  29.631  31.627  1.00  0.00     0.037 A 
ATOM    101  C   UNL A   1      41.422  32.194  37.377  1.00  0.00     0.049 A 
ATOM    102  C   UNL A   1      41.127  29.465  32.553  1.00  0.00     0.074 A 
ATOM    103  C   UNL A   1      42.505  31.916  38.195  1.00  0.00    -0.036 A 
ATOM    104  N   UNL A   1      41.585  31.432  36.231  1.00  0.00    -0.354 N 
ATOM    105  N   UNL A   1      41.341  30.006  33.727  1.00  0.00    -0.248 NA
ATOM    106  C   UNL A   1      42.211  28.579  32.099  1.00  0.00    -0.034 C 
ATOM    107  C   UNL A   1      43.346  31.022  37.527  1.00  0.00    -0.036 A 
ATOM    108  H   UNL A   1      42.663  32.305  39.138  1.00  0.00     0.065 H 
ATOM    109  C   UNL A   1      42.760  30.700  36.315  1.00  0.00     0.049 A 
ATOM    110  H   UNL A   1      40.960  31.414  35.470  1.00  0.00     0.167 HD
ATOM    111  C   UNL A   1      42.568  29.515  34.156  1.00  0.00     0.074 A 
ATOM    112  C   UNL A   1      43.045  28.617  33.129  1.00  0.00    -0.034 C 
ATOM    113  H   UNL A   1      42.298  28.062  31.209  1.00  0.00     0.065 H 
ATOM    114  H   UNL A   1      44.248  30.663  37.878  1.00  0.00     0.065 H 
ATOM    115  C   UNL A   1      43.237  29.796  35.301  1.00  0.00     0.037 A 
ATOM    116  H   UNL A   1      43.922  28.074  33.189  1.00  0.00     0.065 H 
BRANCH  97 117
ATOM    117  C   UNL A   1      40.312  33.820  38.939  1.00  0.00     0.064 A 
ATOM    118  C   UNL A   1      40.992  35.037  39.098  1.00  0.00     0.173 A 
ATOM    119  C   UNL A   1      39.549  33.350  40.021  1.00  0.00     0.173 A 
ATOM    120  F   UNL A   1      41.741  35.527  38.100  1.00  0.00    -0.203 F 
ATOM    121  C   UNL A   1      40.925  35.743  40.297  1.00  0.00     0.198 A 
ATOM    122  C   UNL A   1      39.459  34.076  41.206  1.00  0.00     0.198 A 
ATOM    123  F   UNL A   1      38.866  32.200  39.918  1.00  0.00    -0.203 F 
ATOM    124  F   UNL A   1      41.614  36.885  40.439  1.00  0.00    -0.200 F 
ATOM    125  C   UNL A   1      40.151  35.269  41.346  1.00  0.00     0.200 A 
ATOM    126  F   UNL A   1      38.694  33.625  42.211  1.00  0.00    -0.200 F 
ATOM    127  F   UNL A   1      40.073  35.961  42.490  1.00  0.00    -0.200 F 
ENDBRANCH  97 117
BRANCH 100 128
ATOM    128  C   UNL A   1      39.878  28.849  30.364  1.00  0.00     0.064 A 
ATOM    129  C   UNL A   1      40.396  29.368  29.168  1.00  0.00     0.173 A 
ATOM    130  C   UNL A   1      39.300  27.572  30.323  1.00  0.00     0.173 A 
ATOM    131  F   UNL A   1      40.927  30.598  29.147  1.00  0.00    -0.203 F 
ATOM    132  C   UNL A   1      40.339  28.637  27.983  1.00  0.00     0.198 A 
ATOM    133  C   UNL A   1      39.274  26.829  29.145  1.00  0.00     0.198 A 
ATOM    134  F   UNL A   1      38.780  27.034  31.436  1.00  0.00    -0.203 F 
ATOM    135  F   UNL A   1      40.809  29.170  26.846  1.00  0.00    -0.200 F 
ATOM    136  C   UNL A   1      39.789  27.364  27.974  1.00  0.00     0.200 A 
ATOM    137  F   UNL A   1      38.754  25.595  29.145  1.00  0.00    -0.200 F 
ATOM    138  F   UNL A   1      39.751  26.654  26.838  1.00  0.00    -0.200 F 
ENDBRANCH 100 128
BRANCH 115 139
ATOM    139  C   UNL A   1      44.552  29.108  35.534  1.00  0.00     0.064 A 
ATOM    140  C   UNL A   1      45.766  29.689  35.141  1.00  0.00     0.173 A 
ATOM    141  C   UNL A   1      44.605  27.885  36.222  1.00  0.00     0.173 A 
ATOM    142  F   UNL A   1      45.771  30.850  34.469  1.00  0.00    -0.203 F 
ATOM    143  C   UNL A   1      46.982  29.065  35.411  1.00  0.00     0.198 A 
ATOM    144  C   UNL A   1      45.823  27.277  36.517  1.00  0.00     0.198 A 
ATOM    145  F   UNL A   1      43.474  27.288  36.629  1.00  0.00    -0.203 F 
ATOM    146  F   UNL A   1      48.127  29.622  34.993  1.00  0.00    -0.200 F 
ATOM    147  C   UNL A   1      47.010  27.866  36.108  1.00  0.00     0.200 A 
ATOM    148  F   UNL A   1      45.849  26.127  37.204  1.00  0.00    -0.200 F 
ATOM    149  F   UNL A   1      48.182  27.275  36.381  1.00  0.00    -0.200 F 
ENDBRANCH 115 139
ENDBRANCH  80  83
ENDBRANCH  70  73
ENDBRANCH  66  69
ENDBRANCH  63  66
ENDBRANCH  60  63
ENDBRANCH  57  60
ENDBRANCH   1  57
TORSDOF 21
ENDMDL
MODEL 7
REMARK VINA RESULT:     -11.6      3.958      9.707
REMARK SMILES CC(C)(C)c1cc(Nc2ccccc2C(=O)NCCCCCCNC(=O)c2ccc(-c3c4nc(c(-c5c(F)c(F)c(F)c(F)c5F)c5ccc([nH]5)c(-c5c(F)c(F)c(F)c(F)c5F)c5nc(c(-c6c(F)c(F)c(F)c(F)c6F)c6ccc3[nH]6)C=C5)C=C4)cc2)cc2c1OCC2(C)C
REMARK SMILES IDX 19 1 18 4 17 7 15 8 16 9 14 11 9 12 10 13 11 14 13 16 12 17
REMARK SMILES IDX 8 21 7 23 5 24 6 25 92 26 91 28 93 29 90 30 95 31 94 32 2 36
REMARK SMILES IDX 1 37 3 41 4 45 96 49 97 53 20 57 21 60 22 63 23 66 24 69
REMARK SMILES IDX 25 70 26 72 27 73 28 74 89 75 29 76 88 78 30 80 31 83 32 84
REMARK SMILES IDX 82 85 33 86 87 87 81 88 83 89 34 90 86 91 80 93 79 95 35 97
REMARK SMILES IDX 67 100 47 101 66 102 48 103 51 104 65 105 84 106 49 107
REMARK SMILES IDX 50 109 64 111 85 112 52 115 36 117 37 118 45 119 38 120
REMARK SMILES IDX 39 121 43 122 46 123 40 124 41 125 44 126 42 127 68 128
REMARK SMILES IDX 69 129 77 130 70 131 71 132 75 133 78 134 72 135 73 136
REMARK SMILES IDX 76 137 74 138 53 139 54 140 62 141 55 142 56 143 60 144
REMARK SMILES IDX 63 145 57 146 58 147 61 148 59 149
REMARK H PARENT 19 2 19 3 18 5 18 6 17 10 10 15 11 18 13 19 12 20 8 22 6 27
REMARK H PARENT 90 33 94 34 94 35 1 38 1 39 1 40 3 42 3 43 3 44 4 46 4 47 4 48
REMARK H PARENT 96 50 96 51 96 52 97 54 97 55 97 56 20 58 20 59 21 61 21 62
REMARK H PARENT 22 64 22 65 23 67 23 68 24 71 28 77 89 79 29 81 88 82 87 92
REMARK H PARENT 81 94 83 96 86 98 80 99 48 108 51 110 84 113 49 114 85 116
REMARK Flexibility Score: inf
ROOT
ATOM      1  C   UNL A   1      33.448  28.264  22.752  1.00  0.00    -0.036 C 
ATOM      2  H   UNL A   1      33.795  28.076  21.757  1.00  0.00     0.028 H 
ATOM      3  H   UNL A   1      33.772  29.168  23.223  1.00  0.00     0.028 H 
ENDROOT
BRANCH   1   4
ATOM      4  C   UNL A   1      34.044  27.174  23.637  1.00  0.00     0.018 C 
ATOM      5  H   UNL A   1      35.087  27.387  23.749  1.00  0.00     0.049 H 
ATOM      6  H   UNL A   1      33.470  27.213  24.540  1.00  0.00     0.049 H 
BRANCH   4   7
ATOM      7  N   UNL A   1      33.927  25.816  23.187  1.00  0.00    -0.352 N 
ATOM      8  C   UNL A   1      32.912  24.901  23.357  1.00  0.00     0.253 C 
ATOM      9  O   UNL A   1      33.084  23.809  22.801  1.00  0.00    -0.269 OA
ATOM     10  H   UNL A   1      34.698  25.484  22.672  1.00  0.00     0.163 HD
BRANCH   8  11
ATOM     11  C   UNL A   1      31.660  25.067  24.183  1.00  0.00     0.063 A 
ATOM     12  C   UNL A   1      31.456  24.905  25.571  1.00  0.00     0.051 A 
ATOM     13  C   UNL A   1      30.201  25.272  26.125  1.00  0.00    -0.038 A 
ATOM     14  C   UNL A   1      29.135  25.705  25.342  1.00  0.00    -0.060 A 
ATOM     15  H   UNL A   1      30.073  25.216  27.147  1.00  0.00     0.064 H 
ATOM     16  C   UNL A   1      30.555  25.518  23.412  1.00  0.00    -0.047 A 
ATOM     17  C   UNL A   1      29.308  25.811  23.975  1.00  0.00    -0.061 A 
ATOM     18  H   UNL A   1      28.229  25.943  25.776  1.00  0.00     0.062 H 
ATOM     19  H   UNL A   1      30.677  25.634  22.394  1.00  0.00     0.063 H 
ATOM     20  H   UNL A   1      28.522  26.105  23.374  1.00  0.00     0.062 H 
BRANCH  12  21
ATOM     21  N   UNL A   1      32.362  24.303  26.473  1.00  0.00    -0.355 N 
ATOM     22  H   UNL A   1      32.386  24.656  27.392  1.00  0.00     0.167 HD
BRANCH  21  23
ATOM     23  C   UNL A   1      33.239  23.231  26.163  1.00  0.00     0.039 A 
ATOM     24  C   UNL A   1      35.525  22.452  25.589  1.00  0.00     0.002 A 
ATOM     25  C   UNL A   1      34.633  23.444  26.077  1.00  0.00    -0.031 A 
ATOM     26  C   UNL A   1      34.955  21.223  25.259  1.00  0.00     0.127 A 
ATOM     27  H   UNL A   1      35.017  24.354  26.379  1.00  0.00     0.065 H 
ATOM     28  C   UNL A   1      33.604  20.979  25.377  1.00  0.00     0.006 A 
ATOM     29  O   UNL A   1      35.641  20.165  24.726  1.00  0.00    -0.492 OA
ATOM     30  C   UNL A   1      32.743  21.968  25.813  1.00  0.00    -0.031 A 
ATOM     31  C   UNL A   1      33.274  19.593  24.947  1.00  0.00     0.028 C 
ATOM     32  C   UNL A   1      34.680  19.104  24.549  1.00  0.00     0.097 C 
ATOM     33  H   UNL A   1      31.732  21.777  25.881  1.00  0.00     0.065 H 
ATOM     34  H   UNL A   1      34.952  18.272  25.163  1.00  0.00     0.072 H 
ATOM     35  H   UNL A   1      34.669  18.808  23.521  1.00  0.00     0.072 H 
BRANCH  24  36
ATOM     36  C   UNL A   1      36.991  22.755  25.251  1.00  0.00    -0.009 C 
BRANCH  36  37
ATOM     37  C   UNL A   1      37.945  21.550  25.417  1.00  0.00    -0.056 C 
ATOM     38  H   UNL A   1      38.024  21.027  24.488  1.00  0.00     0.024 H 
ATOM     39  H   UNL A   1      37.557  20.890  26.166  1.00  0.00     0.024 H 
ATOM     40  H   UNL A   1      38.911  21.899  25.714  1.00  0.00     0.024 H 
ENDBRANCH  36  37
BRANCH  36  41
ATOM     41  C   UNL A   1      37.586  23.895  26.104  1.00  0.00    -0.056 C 
ATOM     42  H   UNL A   1      36.899  24.715  26.134  1.00  0.00     0.024 H 
ATOM     43  H   UNL A   1      38.511  24.219  25.673  1.00  0.00     0.024 H 
ATOM     44  H   UNL A   1      37.762  23.541  27.099  1.00  0.00     0.024 H 
ENDBRANCH  36  41
BRANCH  36  45
ATOM     45  C   UNL A   1      36.990  23.157  23.765  1.00  0.00    -0.056 C 
ATOM     46  H   UNL A   1      37.805  22.678  23.265  1.00  0.00     0.024 H 
ATOM     47  H   UNL A   1      37.098  24.219  23.683  1.00  0.00     0.024 H 
ATOM     48  H   UNL A   1      36.068  22.856  23.314  1.00  0.00     0.024 H 
ENDBRANCH  36  45
ENDBRANCH  24  36
BRANCH  31  49
ATOM     49  C   UNL A   1      32.710  18.792  26.122  1.00  0.00    -0.052 C 
ATOM     50  H   UNL A   1      31.643  18.751  26.047  1.00  0.00     0.024 H 
ATOM     51  H   UNL A   1      32.985  19.265  27.041  1.00  0.00     0.024 H 
ATOM     52  H   UNL A   1      33.107  17.798  26.099  1.00  0.00     0.024 H 
ENDBRANCH  31  49
BRANCH  31  53
ATOM     53  C   UNL A   1      32.315  19.560  23.754  1.00  0.00    -0.052 C 
ATOM     54  H   UNL A   1      31.461  20.170  23.966  1.00  0.00     0.024 H 
ATOM     55  H   UNL A   1      31.999  18.553  23.579  1.00  0.00     0.024 H 
ATOM     56  H   UNL A   1      32.814  19.934  22.884  1.00  0.00     0.024 H 
ENDBRANCH  31  53
ENDBRANCH  21  23
ENDBRANCH  12  21
ENDBRANCH   8  11
ENDBRANCH   4   7
ENDBRANCH   1   4
BRANCH   1  57
ATOM     57  C   UNL A   1      31.930  28.435  22.665  1.00  0.00    -0.052 C 
ATOM     58  H   UNL A   1      31.503  27.456  22.739  1.00  0.00     0.027 H 
ATOM     59  H   UNL A   1      31.792  28.961  21.743  1.00  0.00     0.027 H 
BRANCH  57  60
ATOM     60  C   UNL A   1      31.202  29.315  23.688  1.00  0.00    -0.052 C 
ATOM     61  H   UNL A   1      30.157  29.249  23.472  1.00  0.00     0.027 H 
ATOM     62  H   UNL A   1      31.650  30.279  23.568  1.00  0.00     0.027 H 
BRANCH  60  63
ATOM     63  C   UNL A   1      31.376  29.006  25.176  1.00  0.00    -0.036 C 
ATOM     64  H   UNL A   1      31.508  27.948  25.269  1.00  0.00     0.028 H 
ATOM     65  H   UNL A   1      30.497  29.407  25.636  1.00  0.00     0.028 H 
BRANCH  63  66
ATOM     66  C   UNL A   1      32.534  29.675  25.922  1.00  0.00     0.018 C 
ATOM     67  H   UNL A   1      33.352  29.767  25.238  1.00  0.00     0.049 H 
ATOM     68  H   UNL A   1      32.733  29.047  26.765  1.00  0.00     0.049 H 
BRANCH  66  69
ATOM     69  N   UNL A   1      32.265  30.991  26.470  1.00  0.00    -0.352 N 
ATOM     70  C   UNL A   1      33.080  31.818  27.226  1.00  0.00     0.251 C 
ATOM     71  H   UNL A   1      31.369  31.349  26.278  1.00  0.00     0.163 HD
ATOM     72  O   UNL A   1      32.690  32.930  27.546  1.00  0.00    -0.269 OA
BRANCH  70  73
ATOM     73  C   UNL A   1      34.406  31.350  27.716  1.00  0.00     0.039 A 
ATOM     74  C   UNL A   1      34.675  30.007  27.960  1.00  0.00    -0.049 A 
ATOM     75  C   UNL A   1      35.418  32.290  27.925  1.00  0.00    -0.049 A 
ATOM     76  C   UNL A   1      35.865  29.633  28.603  1.00  0.00    -0.053 A 
ATOM     77  H   UNL A   1      33.999  29.284  27.668  1.00  0.00     0.063 H 
ATOM     78  C   UNL A   1      36.641  31.902  28.496  1.00  0.00    -0.053 A 
ATOM     79  H   UNL A   1      35.265  33.276  27.659  1.00  0.00     0.063 H 
ATOM     80  C   UNL A   1      36.856  30.580  28.920  1.00  0.00    -0.014 A 
ATOM     81  H   UNL A   1      36.017  28.643  28.848  1.00  0.00     0.063 H 
ATOM     82  H   UNL A   1      37.394  32.600  28.608  1.00  0.00     0.063 H 
BRANCH  80  83
ATOM     83  C   UNL A   1      38.063  30.220  29.744  1.00  0.00     0.031 A 
ATOM     84  C   UNL A   1      39.152  29.334  29.167  1.00  0.00     0.074 A 
ATOM     85  C   UNL A   1      38.236  30.692  30.998  1.00  0.00     0.049 A 
ATOM     86  N   UNL A   1      40.197  28.799  29.757  1.00  0.00    -0.248 NA
ATOM     87  C   UNL A   1      39.050  28.999  27.738  1.00  0.00    -0.034 C 
ATOM     88  C   UNL A   1      37.324  31.595  31.696  1.00  0.00    -0.036 A 
ATOM     89  N   UNL A   1      39.252  30.483  31.906  1.00  0.00    -0.354 N 
ATOM     90  C   UNL A   1      40.842  28.037  28.788  1.00  0.00     0.074 A 
ATOM     91  C   UNL A   1      40.060  28.157  27.577  1.00  0.00    -0.034 C 
ATOM     92  H   UNL A   1      38.366  29.335  27.041  1.00  0.00     0.065 H 
ATOM     93  C   UNL A   1      37.843  31.906  32.895  1.00  0.00    -0.036 A 
ATOM     94  H   UNL A   1      36.425  31.941  31.327  1.00  0.00     0.065 H 
ATOM     95  C   UNL A   1      39.080  31.154  33.094  1.00  0.00     0.049 A 
ATOM     96  H   UNL A   1      40.028  29.907  31.722  1.00  0.00     0.167 HD
ATOM     97  C   UNL A   1      41.986  27.313  28.885  1.00  0.00     0.037 A 
ATOM     98  H   UNL A   1      40.263  27.652  26.701  1.00  0.00     0.065 H 
ATOM     99  H   UNL A   1      37.432  32.570  33.569  1.00  0.00     0.065 H 
ATOM    100  C   UNL A   1      39.806  31.149  34.232  1.00  0.00     0.037 A 
ATOM    101  C   UNL A   1      42.810  27.224  30.065  1.00  0.00     0.049 A 
ATOM    102  C   UNL A   1      41.031  30.281  34.342  1.00  0.00     0.074 A 
ATOM    103  C   UNL A   1      43.990  26.520  30.239  1.00  0.00    -0.036 A 
ATOM    104  N   UNL A   1      42.554  27.870  31.264  1.00  0.00    -0.354 N 
ATOM    105  N   UNL A   1      41.597  29.526  33.434  1.00  0.00    -0.248 NA
ATOM    106  C   UNL A   1      41.708  30.250  35.649  1.00  0.00    -0.034 C 
ATOM    107  C   UNL A   1      44.424  26.702  31.555  1.00  0.00    -0.036 A 
ATOM    108  H   UNL A   1      44.467  25.955  29.519  1.00  0.00     0.065 H 
ATOM    109  C   UNL A   1      43.544  27.565  32.186  1.00  0.00     0.049 A 
ATOM    110  H   UNL A   1      41.783  28.459  31.436  1.00  0.00     0.167 HD
ATOM    111  C   UNL A   1      42.700  28.948  34.050  1.00  0.00     0.074 A 
ATOM    112  C   UNL A   1      42.738  29.452  35.405  1.00  0.00    -0.034 C 
ATOM    113  H   UNL A   1      41.447  30.726  36.527  1.00  0.00     0.065 H 
ATOM    114  H   UNL A   1      45.258  26.269  31.983  1.00  0.00     0.065 H 
ATOM    115  C   UNL A   1      43.594  28.070  33.533  1.00  0.00     0.037 A 
ATOM    116  H   UNL A   1      43.473  29.221  36.093  1.00  0.00     0.065 H 
BRANCH  97 117
ATOM    117  C   UNL A   1      42.434  26.538  27.677  1.00  0.00     0.064 A 
ATOM    118  C   UNL A   1      43.382  27.052  26.780  1.00  0.00     0.173 A 
ATOM    119  C   UNL A   1      41.973  25.228  27.462  1.00  0.00     0.173 A 
ATOM    120  F   UNL A   1      43.850  28.299  26.934  1.00  0.00    -0.203 F 
ATOM    121  C   UNL A   1      43.836  26.293  25.704  1.00  0.00     0.198 A 
ATOM    122  C   UNL A   1      42.453  24.461  26.404  1.00  0.00     0.198 A 
ATOM    123  F   UNL A   1      41.077  24.682  28.298  1.00  0.00    -0.203 F 
ATOM    124  F   UNL A   1      44.715  26.819  24.838  1.00  0.00    -0.200 F 
ATOM    125  C   UNL A   1      43.380  24.995  25.522  1.00  0.00     0.200 A 
ATOM    126  F   UNL A   1      42.026  23.201  26.243  1.00  0.00    -0.200 F 
ATOM    127  F   UNL A   1      43.833  24.261  24.498  1.00  0.00    -0.200 F 
ENDBRANCH  97 117
BRANCH 100 128
ATOM    128  C   UNL A   1      39.381  31.993  35.380  1.00  0.00     0.064 A 
ATOM    129  C   UNL A   1      39.822  33.320  35.498  1.00  0.00     0.173 A 
ATOM    130  C   UNL A   1      38.524  31.502  36.376  1.00  0.00     0.173 A 
ATOM    131  F   UNL A   1      40.671  33.825  34.592  1.00  0.00    -0.203 F 
ATOM    132  C   UNL A   1      39.421  34.119  36.567  1.00  0.00     0.198 A 
ATOM    133  C   UNL A   1      38.096  32.312  37.425  1.00  0.00     0.198 A 
ATOM    134  F   UNL A   1      38.081  30.237  36.316  1.00  0.00    -0.203 F 
ATOM    135  F   UNL A   1      39.886  35.372  36.675  1.00  0.00    -0.200 F 
ATOM    136  C   UNL A   1      38.549  33.619  37.522  1.00  0.00     0.200 A 
ATOM    137  F   UNL A   1      37.244  31.829  38.338  1.00  0.00    -0.200 F 
ATOM    138  F   UNL A   1      38.149  34.394  38.540  1.00  0.00    -0.200 F 
ENDBRANCH 100 128
BRANCH 115 139
ATOM    139  C   UNL A   1      44.719  27.608  34.416  1.00  0.00     0.064 A 
ATOM    140  C   UNL A   1      45.914  28.333  34.523  1.00  0.00     0.173 A 
ATOM    141  C   UNL A   1      44.573  26.465  35.217  1.00  0.00     0.173 A 
ATOM    142  F   UNL A   1      46.110  29.426  33.770  1.00  0.00    -0.203 F 
ATOM    143  C   UNL A   1      46.928  27.922  35.386  1.00  0.00     0.198 A 
ATOM    144  C   UNL A   1      45.576  26.072  36.100  1.00  0.00     0.198 A 
ATOM    145  F   UNL A   1      43.447  25.738  35.160  1.00  0.00    -0.203 F 
ATOM    146  F   UNL A   1      48.076  28.611  35.445  1.00  0.00    -0.200 F 
ATOM    147  C   UNL A   1      46.754  26.799  36.181  1.00  0.00     0.200 A 
ATOM    148  F   UNL A   1      45.400  24.995  36.878  1.00  0.00    -0.200 F 
ATOM    149  F   UNL A   1      47.724  26.415  37.022  1.00  0.00    -0.200 F 
ENDBRANCH 115 139
ENDBRANCH  80  83
ENDBRANCH  70  73
ENDBRANCH  66  69
ENDBRANCH  63  66
ENDBRANCH  60  63
ENDBRANCH  57  60
ENDBRANCH   1  57
TORSDOF 21
ENDMDL
MODEL 8
REMARK VINA RESULT:     -11.5      4.584     10.369
REMARK SMILES CC(C)(C)c1cc(Nc2ccccc2C(=O)NCCCCCCNC(=O)c2ccc(-c3c4nc(c(-c5c(F)c(F)c(F)c(F)c5F)c5ccc([nH]5)c(-c5c(F)c(F)c(F)c(F)c5F)c5nc(c(-c6c(F)c(F)c(F)c(F)c6F)c6ccc3[nH]6)C=C5)C=C4)cc2)cc2c1OCC2(C)C
REMARK SMILES IDX 19 1 18 4 17 7 15 8 16 9 14 11 9 12 10 13 11 14 13 16 12 17
REMARK SMILES IDX 8 21 7 23 5 24 6 25 92 26 91 28 93 29 90 30 95 31 94 32 2 36
REMARK SMILES IDX 1 37 3 41 4 45 96 49 97 53 20 57 21 60 22 63 23 66 24 69
REMARK SMILES IDX 25 70 26 72 27 73 28 74 89 75 29 76 88 78 30 80 31 83 32 84
REMARK SMILES IDX 82 85 33 86 87 87 81 88 83 89 34 90 86 91 80 93 79 95 35 97
REMARK SMILES IDX 67 100 47 101 66 102 48 103 51 104 65 105 84 106 49 107
REMARK SMILES IDX 50 109 64 111 85 112 52 115 36 117 37 118 45 119 38 120
REMARK SMILES IDX 39 121 43 122 46 123 40 124 41 125 44 126 42 127 68 128
REMARK SMILES IDX 69 129 77 130 70 131 71 132 75 133 78 134 72 135 73 136
REMARK SMILES IDX 76 137 74 138 53 139 54 140 62 141 55 142 56 143 60 144
REMARK SMILES IDX 63 145 57 146 58 147 61 148 59 149
REMARK H PARENT 19 2 19 3 18 5 18 6 17 10 10 15 11 18 13 19 12 20 8 22 6 27
REMARK H PARENT 90 33 94 34 94 35 1 38 1 39 1 40 3 42 3 43 3 44 4 46 4 47 4 48
REMARK H PARENT 96 50 96 51 96 52 97 54 97 55 97 56 20 58 20 59 21 61 21 62
REMARK H PARENT 22 64 22 65 23 67 23 68 24 71 28 77 89 79 29 81 88 82 87 92
REMARK H PARENT 81 94 83 96 86 98 80 99 48 108 51 110 84 113 49 114 85 116
REMARK Flexibility Score: inf
ROOT
ATOM      1  C   UNL A   1      33.396  27.330  26.231  1.00  0.00    -0.036 C 
ATOM      2  H   UNL A   1      34.242  27.150  26.861  1.00  0.00     0.028 H 
ATOM      3  H   UNL A   1      32.441  26.998  26.583  1.00  0.00     0.028 H 
ENDROOT
BRANCH   1   4
ATOM      4  C   UNL A   1      33.608  26.508  24.965  1.00  0.00     0.018 C 
ATOM      5  H   UNL A   1      34.523  26.839  24.518  1.00  0.00     0.049 H 
ATOM      6  H   UNL A   1      33.603  25.491  25.296  1.00  0.00     0.049 H 
BRANCH   4   7
ATOM      7  N   UNL A   1      32.589  26.570  23.955  1.00  0.00    -0.352 N 
ATOM      8  C   UNL A   1      31.351  25.970  23.897  1.00  0.00     0.253 C 
ATOM      9  O   UNL A   1      30.669  26.258  22.904  1.00  0.00    -0.269 OA
ATOM     10  H   UNL A   1      32.812  27.133  23.178  1.00  0.00     0.163 HD
BRANCH   8  11
ATOM     11  C   UNL A   1      30.770  24.973  24.869  1.00  0.00     0.063 A 
ATOM     12  C   UNL A   1      31.007  23.586  25.000  1.00  0.00     0.051 A 
ATOM     13  C   UNL A   1      30.440  22.900  26.107  1.00  0.00    -0.038 A 
ATOM     14  C   UNL A   1      29.590  23.519  27.018  1.00  0.00    -0.060 A 
ATOM     15  H   UNL A   1      30.665  21.901  26.240  1.00  0.00     0.064 H 
ATOM     16  C   UNL A   1      29.905  25.578  25.818  1.00  0.00    -0.047 A 
ATOM     17  C   UNL A   1      29.307  24.863  26.861  1.00  0.00    -0.061 A 
ATOM     18  H   UNL A   1      29.178  22.983  27.798  1.00  0.00     0.062 H 
ATOM     19  H   UNL A   1      29.709  26.588  25.735  1.00  0.00     0.063 H 
ATOM     20  H   UNL A   1      28.658  25.335  27.511  1.00  0.00     0.062 H 
BRANCH  12  21
ATOM     21  N   UNL A   1      31.684  22.772  24.065  1.00  0.00    -0.355 N 
ATOM     22  H   UNL A   1      31.396  22.829  23.125  1.00  0.00     0.167 HD
BRANCH  21  23
ATOM     23  C   UNL A   1      32.744  21.879  24.370  1.00  0.00     0.039 A 
ATOM     24  C   UNL A   1      35.171  21.503  24.730  1.00  0.00     0.002 A 
ATOM     25  C   UNL A   1      34.048  22.366  24.608  1.00  0.00    -0.031 A 
ATOM     26  C   UNL A   1      34.905  20.136  24.667  1.00  0.00     0.127 A 
ATOM     27  H   UNL A   1      34.191  23.384  24.696  1.00  0.00     0.065 H 
ATOM     28  C   UNL A   1      33.634  19.638  24.480  1.00  0.00     0.006 A 
ATOM     29  O   UNL A   1      35.857  19.155  24.712  1.00  0.00    -0.492 OA
ATOM     30  C   UNL A   1      32.558  20.491  24.320  1.00  0.00    -0.031 A 
ATOM     31  C   UNL A   1      33.645  18.151  24.443  1.00  0.00     0.028 C 
ATOM     32  C   UNL A   1      35.153  17.899  24.626  1.00  0.00     0.097 C 
ATOM     33  H   UNL A   1      31.614  20.105  24.164  1.00  0.00     0.065 H 
ATOM     34  H   UNL A   1      35.312  17.341  25.525  1.00  0.00     0.072 H 
ATOM     35  H   UNL A   1      35.521  17.347  23.787  1.00  0.00     0.072 H 
BRANCH  24  36
ATOM     36  C   UNL A   1      36.615  22.024  24.731  1.00  0.00    -0.009 C 
BRANCH  36  37
ATOM     37  C   UNL A   1      37.682  20.939  25.001  1.00  0.00    -0.056 C 
ATOM     38  H   UNL A   1      37.812  20.821  26.056  1.00  0.00     0.024 H 
ATOM     39  H   UNL A   1      38.611  21.235  24.558  1.00  0.00     0.024 H 
ATOM     40  H   UNL A   1      37.363  20.011  24.575  1.00  0.00     0.024 H 
ENDBRANCH  36  37
BRANCH  36  41
ATOM     41  C   UNL A   1      36.858  23.135  25.775  1.00  0.00    -0.056 C 
ATOM     42  H   UNL A   1      37.830  23.013  26.206  1.00  0.00     0.024 H 
ATOM     43  H   UNL A   1      36.116  23.071  26.544  1.00  0.00     0.024 H 
ATOM     44  H   UNL A   1      36.796  24.091  25.299  1.00  0.00     0.024 H 
ENDBRANCH  36  41
BRANCH  36  45
ATOM     45  C   UNL A   1      36.848  22.576  23.313  1.00  0.00    -0.056 C 
ATOM     46  H   UNL A   1      35.951  22.479  22.740  1.00  0.00     0.024 H 
ATOM     47  H   UNL A   1      37.634  22.025  22.841  1.00  0.00     0.024 H 
ATOM     48  H   UNL A   1      37.123  23.609  23.374  1.00  0.00     0.024 H 
ENDBRANCH  36  45
ENDBRANCH  24  36
BRANCH  31  49
ATOM     49  C   UNL A   1      32.832  17.584  25.609  1.00  0.00    -0.052 C 
ATOM     50  H   UNL A   1      32.670  18.352  26.337  1.00  0.00     0.024 H 
ATOM     51  H   UNL A   1      33.368  16.775  26.058  1.00  0.00     0.024 H 
ATOM     52  H   UNL A   1      31.888  17.232  25.247  1.00  0.00     0.024 H 
ENDBRANCH  31  49
BRANCH  31  53
ATOM     53  C   UNL A   1      33.146  17.592  23.108  1.00  0.00    -0.052 C 
ATOM     54  H   UNL A   1      33.741  16.747  22.830  1.00  0.00     0.024 H 
ATOM     55  H   UNL A   1      33.226  18.347  22.353  1.00  0.00     0.024 H 
ATOM     56  H   UNL A   1      32.123  17.292  23.205  1.00  0.00     0.024 H 
ENDBRANCH  31  53
ENDBRANCH  21  23
ENDBRANCH  12  21
ENDBRANCH   8  11
ENDBRANCH   4   7
ENDBRANCH   1   4
BRANCH   1  57
ATOM     57  C   UNL A   1      33.229  28.849  26.140  1.00  0.00    -0.052 C 
ATOM     58  H   UNL A   1      33.114  29.086  25.102  1.00  0.00     0.027 H 
ATOM     59  H   UNL A   1      34.101  29.224  26.634  1.00  0.00     0.027 H 
BRANCH  57  60
ATOM     60  C   UNL A   1      32.077  29.535  26.882  1.00  0.00    -0.052 C 
ATOM     61  H   UNL A   1      32.241  29.382  27.928  1.00  0.00     0.027 H 
ATOM     62  H   UNL A   1      31.198  29.087  26.471  1.00  0.00     0.027 H 
BRANCH  60  63
ATOM     63  C   UNL A   1      31.862  31.036  26.674  1.00  0.00    -0.036 C 
ATOM     64  H   UNL A   1      30.931  31.292  27.136  1.00  0.00     0.028 H 
ATOM     65  H   UNL A   1      31.907  31.167  25.612  1.00  0.00     0.028 H 
BRANCH  63  66
ATOM     66  C   UNL A   1      32.920  31.999  27.220  1.00  0.00     0.018 C 
ATOM     67  H   UNL A   1      33.701  32.072  26.492  1.00  0.00     0.049 H 
ATOM     68  H   UNL A   1      33.228  31.585  28.157  1.00  0.00     0.049 H 
BRANCH  66  69
ATOM     69  N   UNL A   1      32.465  33.344  27.519  1.00  0.00    -0.352 N 
ATOM     70  C   UNL A   1      33.039  34.313  28.327  1.00  0.00     0.251 C 
ATOM     71  H   UNL A   1      31.624  33.608  27.083  1.00  0.00     0.163 HD
ATOM     72  O   UNL A   1      32.530  35.421  28.404  1.00  0.00    -0.269 OA
BRANCH  70  73
ATOM     73  C   UNL A   1      34.233  34.008  29.161  1.00  0.00     0.039 A 
ATOM     74  C   UNL A   1      35.522  34.349  28.764  1.00  0.00    -0.049 A 
ATOM     75  C   UNL A   1      34.052  33.368  30.390  1.00  0.00    -0.049 A 
ATOM     76  C   UNL A   1      36.629  33.871  29.483  1.00  0.00    -0.053 A 
ATOM     77  H   UNL A   1      35.666  34.953  27.940  1.00  0.00     0.063 H 
ATOM     78  C   UNL A   1      35.162  32.960  31.149  1.00  0.00    -0.053 A 
ATOM     79  H   UNL A   1      33.097  33.195  30.742  1.00  0.00     0.063 H 
ATOM     80  C   UNL A   1      36.471  33.133  30.670  1.00  0.00    -0.014 A 
ATOM     81  H   UNL A   1      37.580  34.066  29.134  1.00  0.00     0.063 H 
ATOM     82  H   UNL A   1      35.013  32.526  32.074  1.00  0.00     0.063 H 
BRANCH  80  83
ATOM     83  C   UNL A   1      37.639  32.486  31.364  1.00  0.00     0.031 A 
ATOM     84  C   UNL A   1      38.410  31.365  30.690  1.00  0.00     0.074 A 
ATOM     85  C   UNL A   1      38.060  32.895  32.581  1.00  0.00     0.049 A 
ATOM     86  N   UNL A   1      39.353  30.589  31.174  1.00  0.00    -0.248 NA
ATOM     87  C   UNL A   1      38.071  31.074  29.289  1.00  0.00    -0.034 C 
ATOM     88  C   UNL A   1      37.478  33.988  33.355  1.00  0.00    -0.036 A 
ATOM     89  N   UNL A   1      39.090  32.440  33.376  1.00  0.00    -0.354 N 
ATOM     90  C   UNL A   1      39.682  29.699  30.156  1.00  0.00     0.074 A 
ATOM     91  C   UNL A   1      38.822  30.012  29.036  1.00  0.00    -0.034 C 
ATOM     92  H   UNL A   1      37.415  31.569  28.663  1.00  0.00     0.065 H 
ATOM     93  C   UNL A   1      38.186  34.156  34.483  1.00  0.00    -0.036 A 
ATOM     94  H   UNL A   1      36.653  34.544  33.080  1.00  0.00     0.065 H 
ATOM     95  C   UNL A   1      39.219  33.125  34.561  1.00  0.00     0.049 A 
ATOM     96  H   UNL A   1      39.678  31.693  33.120  1.00  0.00     0.167 HD
ATOM     97  C   UNL A   1      40.621  28.718  30.143  1.00  0.00     0.037 A 
ATOM     98  H   UNL A   1      38.798  29.478  28.154  1.00  0.00     0.065 H 
ATOM     99  H   UNL A   1      38.027  34.896  35.184  1.00  0.00     0.065 H 
ATOM    100  C   UNL A   1      40.045  32.938  35.612  1.00  0.00     0.037 A 
ATOM    101  C   UNL A   1      41.525  28.425  31.227  1.00  0.00     0.049 A 
ATOM    102  C   UNL A   1      41.028  31.798  35.606  1.00  0.00     0.074 A 
ATOM    103  C   UNL A   1      42.512  27.454  31.285  1.00  0.00    -0.036 A 
ATOM    104  N   UNL A   1      41.569  29.107  32.432  1.00  0.00    -0.354 N 
ATOM    105  N   UNL A   1      41.289  30.933  34.657  1.00  0.00    -0.248 NA
ATOM    106  C   UNL A   1      41.819  31.596  36.831  1.00  0.00    -0.034 C 
ATOM    107  C   UNL A   1      43.121  27.518  32.541  1.00  0.00    -0.036 A 
ATOM    108  H   UNL A   1      42.754  26.794  30.529  1.00  0.00     0.065 H 
ATOM    109  C   UNL A   1      42.552  28.565  33.246  1.00  0.00     0.049 A 
ATOM    110  H   UNL A   1      40.988  29.865  32.675  1.00  0.00     0.167 HD
ATOM    111  C   UNL A   1      42.281  30.101  35.161  1.00  0.00     0.074 A 
ATOM    112  C   UNL A   1      42.592  30.573  36.492  1.00  0.00    -0.034 C 
ATOM    113  H   UNL A   1      41.781  32.116  37.722  1.00  0.00     0.065 H 
ATOM    114  H   UNL A   1      43.868  26.893  32.884  1.00  0.00     0.065 H 
ATOM    115  C   UNL A   1      42.873  29.036  34.568  1.00  0.00     0.037 A 
ATOM    116  H   UNL A   1      43.321  30.167  37.100  1.00  0.00     0.065 H 
BRANCH  97 117
ATOM    117  C   UNL A   1      40.730  27.864  28.909  1.00  0.00     0.064 A 
ATOM    118  C   UNL A   1      39.940  26.719  28.732  1.00  0.00     0.173 A 
ATOM    119  C   UNL A   1      41.575  28.247  27.854  1.00  0.00     0.173 A 
ATOM    120  F   UNL A   1      39.122  26.305  29.711  1.00  0.00    -0.203 F 
ATOM    121  C   UNL A   1      40.006  25.978  27.554  1.00  0.00     0.198 A 
ATOM    122  C   UNL A   1      41.614  27.522  26.666  1.00  0.00     0.198 A 
ATOM    123  F   UNL A   1      42.342  29.342  27.964  1.00  0.00    -0.203 F 
ATOM    124  F   UNL A   1      39.270  24.866  27.422  1.00  0.00    -0.200 F 
ATOM    125  C   UNL A   1      40.835  26.385  26.518  1.00  0.00     0.200 A 
ATOM    126  F   UNL A   1      42.400  27.929  25.659  1.00  0.00    -0.200 F 
ATOM    127  F   UNL A   1      40.881  25.682  25.379  1.00  0.00    -0.200 F 
ENDBRANCH  97 117
BRANCH 100 128
ATOM    128  C   UNL A   1      39.968  33.854  36.782  1.00  0.00     0.064 A 
ATOM    129  C   UNL A   1      40.755  35.014  36.838  1.00  0.00     0.173 A 
ATOM    130  C   UNL A   1      39.107  33.598  37.859  1.00  0.00     0.173 A 
ATOM    131  F   UNL A   1      41.619  35.285  35.850  1.00  0.00    -0.203 F 
ATOM    132  C   UNL A   1      40.681  35.880  37.927  1.00  0.00     0.198 A 
ATOM    133  C   UNL A   1      39.009  34.483  38.931  1.00  0.00     0.198 A 
ATOM    134  F   UNL A   1      38.341  32.497  37.860  1.00  0.00    -0.203 F 
ATOM    135  F   UNL A   1      41.470  36.963  37.973  1.00  0.00    -0.200 F 
ATOM    136  C   UNL A   1      39.801  35.621  38.966  1.00  0.00     0.200 A 
ATOM    137  F   UNL A   1      38.148  34.235  39.926  1.00  0.00    -0.200 F 
ATOM    138  F   UNL A   1      39.716  36.465  40.004  1.00  0.00    -0.200 F 
ENDBRANCH 100 128
BRANCH 115 139
ATOM    139  C   UNL A   1      43.944  28.309  35.332  1.00  0.00     0.064 A 
ATOM    140  C   UNL A   1      45.292  28.687  35.248  1.00  0.00     0.173 A 
ATOM    141  C   UNL A   1      43.610  27.268  36.212  1.00  0.00     0.173 A 
ATOM    142  F   UNL A   1      45.667  29.667  34.412  1.00  0.00    -0.203 F 
ATOM    143  C   UNL A   1      46.267  28.039  36.002  1.00  0.00     0.198 A 
ATOM    144  C   UNL A   1      44.584  26.641  36.987  1.00  0.00     0.198 A 
ATOM    145  F   UNL A   1      42.335  26.871  36.339  1.00  0.00    -0.203 F 
ATOM    146  F   UNL A   1      47.554  28.393  35.877  1.00  0.00    -0.200 F 
ATOM    147  C   UNL A   1      45.912  27.025  36.878  1.00  0.00     0.200 A 
ATOM    148  F   UNL A   1      44.235  25.672  37.845  1.00  0.00    -0.200 F 
ATOM    149  F   UNL A   1      46.850  26.414  37.615  1.00  0.00    -0.200 F 
ENDBRANCH 115 139
ENDBRANCH  80  83
ENDBRANCH  70  73
ENDBRANCH  66  69
ENDBRANCH  63  66
ENDBRANCH  60  63
ENDBRANCH  57  60
ENDBRANCH   1  57
TORSDOF 21
ENDMDL
MODEL 9
REMARK VINA RESULT:     -11.4      2.677      7.559
REMARK SMILES CC(C)(C)c1cc(Nc2ccccc2C(=O)NCCCCCCNC(=O)c2ccc(-c3c4nc(c(-c5c(F)c(F)c(F)c(F)c5F)c5ccc([nH]5)c(-c5c(F)c(F)c(F)c(F)c5F)c5nc(c(-c6c(F)c(F)c(F)c(F)c6F)c6ccc3[nH]6)C=C5)C=C4)cc2)cc2c1OCC2(C)C
REMARK SMILES IDX 19 1 18 4 17 7 15 8 16 9 14 11 9 12 10 13 11 14 13 16 12 17
REMARK SMILES IDX 8 21 7 23 5 24 6 25 92 26 91 28 93 29 90 30 95 31 94 32 2 36
REMARK SMILES IDX 1 37 3 41 4 45 96 49 97 53 20 57 21 60 22 63 23 66 24 69
REMARK SMILES IDX 25 70 26 72 27 73 28 74 89 75 29 76 88 78 30 80 31 83 32 84
REMARK SMILES IDX 82 85 33 86 87 87 81 88 83 89 34 90 86 91 80 93 79 95 35 97
REMARK SMILES IDX 67 100 47 101 66 102 48 103 51 104 65 105 84 106 49 107
REMARK SMILES IDX 50 109 64 111 85 112 52 115 36 117 37 118 45 119 38 120
REMARK SMILES IDX 39 121 43 122 46 123 40 124 41 125 44 126 42 127 68 128
REMARK SMILES IDX 69 129 77 130 70 131 71 132 75 133 78 134 72 135 73 136
REMARK SMILES IDX 76 137 74 138 53 139 54 140 62 141 55 142 56 143 60 144
REMARK SMILES IDX 63 145 57 146 58 147 61 148 59 149
REMARK H PARENT 19 2 19 3 18 5 18 6 17 10 10 15 11 18 13 19 12 20 8 22 6 27
REMARK H PARENT 90 33 94 34 94 35 1 38 1 39 1 40 3 42 3 43 3 44 4 46 4 47 4 48
REMARK H PARENT 96 50 96 51 96 52 97 54 97 55 97 56 20 58 20 59 21 61 21 62
REMARK H PARENT 22 64 22 65 23 67 23 68 24 71 28 77 89 79 29 81 88 82 87 92
REMARK H PARENT 81 94 83 96 86 98 80 99 48 108 51 110 84 113 49 114 85 116
REMARK Flexibility Score: inf
ROOT
ATOM      1  C   UNL A   1      31.769  25.272  26.874  1.00  0.00    -0.036 C 
ATOM      2  H   UNL A   1      32.024  24.830  27.814  1.00  0.00     0.028 H 
ATOM      3  H   UNL A   1      31.497  26.307  26.873  1.00  0.00     0.028 H 
ENDROOT
BRANCH   1   4
ATOM      4  C   UNL A   1      30.500  24.577  26.392  1.00  0.00     0.018 C 
ATOM      5  H   UNL A   1      30.787  23.625  25.995  1.00  0.00     0.049 H 
ATOM      6  H   UNL A   1      29.865  24.540  27.253  1.00  0.00     0.049 H 
BRANCH   4   7
ATOM      7  N   UNL A   1      29.717  25.244  25.389  1.00  0.00    -0.352 N 
ATOM      8  C   UNL A   1      29.877  25.303  24.023  1.00  0.00     0.253 C 
ATOM      9  O   UNL A   1      28.998  25.927  23.414  1.00  0.00    -0.269 OA
ATOM     10  H   UNL A   1      28.941  25.741  25.736  1.00  0.00     0.163 HD
BRANCH   8  11
ATOM     11  C   UNL A   1      31.019  24.744  23.210  1.00  0.00     0.063 A 
ATOM     12  C   UNL A   1      31.899  25.390  22.314  1.00  0.00     0.051 A 
ATOM     13  C   UNL A   1      32.995  24.657  21.787  1.00  0.00    -0.038 A 
ATOM     14  C   UNL A   1      33.187  23.304  22.050  1.00  0.00    -0.060 A 
ATOM     15  H   UNL A   1      33.676  25.145  21.184  1.00  0.00     0.064 H 
ATOM     16  C   UNL A   1      31.245  23.366  23.464  1.00  0.00    -0.047 A 
ATOM     17  C   UNL A   1      32.296  22.651  22.880  1.00  0.00    -0.061 A 
ATOM     18  H   UNL A   1      33.983  22.797  21.632  1.00  0.00     0.062 H 
ATOM     19  H   UNL A   1      30.608  22.870  24.107  1.00  0.00     0.063 H 
ATOM     20  H   UNL A   1      32.406  21.641  23.067  1.00  0.00     0.062 H 
BRANCH  12  21
ATOM     21  N   UNL A   1      31.739  26.695  21.795  1.00  0.00    -0.355 N 
ATOM     22  H   UNL A   1      31.822  26.807  20.821  1.00  0.00     0.167 HD
BRANCH  21  23
ATOM     23  C   UNL A   1      31.468  27.856  22.564  1.00  0.00     0.039 A 
ATOM     24  C   UNL A   1      31.877  29.192  24.616  1.00  0.00     0.002 A 
ATOM     25  C   UNL A   1      32.230  28.150  23.717  1.00  0.00    -0.031 A 
ATOM     26  C   UNL A   1      30.766  29.957  24.264  1.00  0.00     0.127 A 
ATOM     27  H   UNL A   1      33.073  27.587  23.913  1.00  0.00     0.065 H 
ATOM     28  C   UNL A   1      30.035  29.716  23.121  1.00  0.00     0.006 A 
ATOM     29  O   UNL A   1      30.243  30.967  25.025  1.00  0.00    -0.492 OA
ATOM     30  C   UNL A   1      30.366  28.673  22.278  1.00  0.00    -0.031 A 
ATOM     31  C   UNL A   1      28.904  30.676  23.000  1.00  0.00     0.028 C 
ATOM     32  C   UNL A   1      29.118  31.491  24.290  1.00  0.00     0.097 C 
ATOM     33  H   UNL A   1      29.799  28.493  21.434  1.00  0.00     0.065 H 
ATOM     34  H   UNL A   1      29.306  32.513  24.035  1.00  0.00     0.072 H 
ATOM     35  H   UNL A   1      28.240  31.424  24.897  1.00  0.00     0.072 H 
BRANCH  24  36
ATOM     36  C   UNL A   1      32.538  29.354  25.992  1.00  0.00    -0.009 C 
BRANCH  36  37
ATOM     37  C   UNL A   1      31.760  28.696  27.153  1.00  0.00    -0.056 C 
ATOM     38  H   UNL A   1      32.411  28.568  27.992  1.00  0.00     0.024 H 
ATOM     39  H   UNL A   1      31.391  27.741  26.840  1.00  0.00     0.024 H 
ATOM     40  H   UNL A   1      30.938  29.322  27.432  1.00  0.00     0.024 H 
ENDBRANCH  36  37
BRANCH  36  41
ATOM     41  C   UNL A   1      32.744  30.830  26.394  1.00  0.00    -0.056 C 
ATOM     42  H   UNL A   1      32.758  31.441  25.516  1.00  0.00     0.024 H 
ATOM     43  H   UNL A   1      33.674  30.932  26.914  1.00  0.00     0.024 H 
ATOM     44  H   UNL A   1      31.943  31.140  27.032  1.00  0.00     0.024 H 
ENDBRANCH  36  41
BRANCH  36  45
ATOM     45  C   UNL A   1      33.901  28.647  25.874  1.00  0.00    -0.056 C 
ATOM     46  H   UNL A   1      34.404  28.987  24.992  1.00  0.00     0.024 H 
ATOM     47  H   UNL A   1      33.750  27.590  25.812  1.00  0.00     0.024 H 
ATOM     48  H   UNL A   1      34.495  28.873  26.734  1.00  0.00     0.024 H 
ENDBRANCH  36  45
ENDBRANCH  24  36
BRANCH  31  49
ATOM     49  C   UNL A   1      29.073  31.542  21.750  1.00  0.00    -0.052 C 
ATOM     50  H   UNL A   1      28.225  32.188  21.646  1.00  0.00     0.024 H 
ATOM     51  H   UNL A   1      29.151  30.914  20.888  1.00  0.00     0.024 H 
ATOM     52  H   UNL A   1      29.960  32.133  21.844  1.00  0.00     0.024 H 
ENDBRANCH  31  49
BRANCH  31  53
ATOM     53  C   UNL A   1      27.540  29.980  23.002  1.00  0.00    -0.052 C 
ATOM     54  H   UNL A   1      27.152  29.953  22.005  1.00  0.00     0.024 H 
ATOM     55  H   UNL A   1      26.865  30.522  23.632  1.00  0.00     0.024 H 
ATOM     56  H   UNL A   1      27.649  28.982  23.372  1.00  0.00     0.024 H 
ENDBRANCH  31  53
ENDBRANCH  21  23
ENDBRANCH  12  21
ENDBRANCH   8  11
ENDBRANCH   4   7
ENDBRANCH   1   4
BRANCH   1  57
ATOM     57  C   UNL A   1      33.033  25.240  26.013  1.00  0.00    -0.052 C 
ATOM     58  H   UNL A   1      33.664  26.033  26.359  1.00  0.00     0.027 H 
ATOM     59  H   UNL A   1      32.656  25.316  25.014  1.00  0.00     0.027 H 
BRANCH  57  60
ATOM     60  C   UNL A   1      33.896  23.974  25.970  1.00  0.00    -0.052 C 
ATOM     61  H   UNL A   1      33.264  23.174  25.646  1.00  0.00     0.027 H 
ATOM     62  H   UNL A   1      34.290  23.893  26.961  1.00  0.00     0.027 H 
BRANCH  60  63
ATOM     63  C   UNL A   1      35.136  23.961  25.074  1.00  0.00    -0.036 C 
ATOM     64  H   UNL A   1      35.008  24.732  24.342  1.00  0.00     0.028 H 
ATOM     65  H   UNL A   1      35.179  22.961  24.693  1.00  0.00     0.028 H 
BRANCH  63  66
ATOM     66  C   UNL A   1      36.502  24.178  25.729  1.00  0.00     0.018 C 
ATOM     67  H   UNL A   1      36.340  24.339  26.774  1.00  0.00     0.049 H 
ATOM     68  H   UNL A   1      36.937  25.011  25.217  1.00  0.00     0.049 H 
BRANCH  66  69
ATOM     69  N   UNL A   1      37.456  23.094  25.591  1.00  0.00    -0.352 N 
ATOM     70  C   UNL A   1      38.745  22.981  26.088  1.00  0.00     0.251 C 
ATOM     71  H   UNL A   1      37.142  22.324  25.065  1.00  0.00     0.163 HD
ATOM     72  O   UNL A   1      39.376  21.949  25.913  1.00  0.00    -0.269 OA
BRANCH  70  73
ATOM     73  C   UNL A   1      39.405  24.123  26.777  1.00  0.00     0.039 A 
ATOM     74  C   UNL A   1      39.311  24.315  28.152  1.00  0.00    -0.049 A 
ATOM     75  C   UNL A   1      40.155  25.026  26.019  1.00  0.00    -0.049 A 
ATOM     76  C   UNL A   1      39.780  25.505  28.730  1.00  0.00    -0.053 A 
ATOM     77  H   UNL A   1      38.894  23.583  28.748  1.00  0.00     0.063 H 
ATOM     78  C   UNL A   1      40.694  26.179  26.615  1.00  0.00    -0.053 A 
ATOM     79  H   UNL A   1      40.314  24.845  25.015  1.00  0.00     0.063 H 
ATOM     80  C   UNL A   1      40.447  26.479  27.965  1.00  0.00    -0.014 A 
ATOM     81  H   UNL A   1      39.634  25.668  29.738  1.00  0.00     0.063 H 
ATOM     82  H   UNL A   1      41.280  26.815  26.052  1.00  0.00     0.063 H 
BRANCH  80  83
ATOM     83  C   UNL A   1      40.817  27.821  28.537  1.00  0.00     0.031 A 
ATOM     84  C   UNL A   1      42.266  28.153  28.846  1.00  0.00     0.074 A 
ATOM     85  C   UNL A   1      39.891  28.778  28.763  1.00  0.00     0.049 A 
ATOM     86  N   UNL A   1      42.773  29.194  29.466  1.00  0.00    -0.248 NA
ATOM     87  C   UNL A   1      43.279  27.182  28.404  1.00  0.00    -0.034 C 
ATOM     88  C   UNL A   1      38.463  28.660  28.480  1.00  0.00    -0.036 A 
ATOM     89  N   UNL A   1      40.021  30.051  29.276  1.00  0.00    -0.354 N 
ATOM     90  C   UNL A   1      44.146  28.979  29.526  1.00  0.00     0.074 A 
ATOM     91  C   UNL A   1      44.394  27.698  28.901  1.00  0.00    -0.034 C 
ATOM     92  H   UNL A   1      43.153  26.320  27.849  1.00  0.00     0.065 H 
ATOM     93  C   UNL A   1      37.858  29.823  28.769  1.00  0.00    -0.036 A 
ATOM     94  H   UNL A   1      37.993  27.817  28.115  1.00  0.00     0.065 H 
ATOM     95  C   UNL A   1      38.835  30.744  29.346  1.00  0.00     0.049 A 
ATOM     96  H   UNL A   1      40.881  30.430  29.567  1.00  0.00     0.167 HD
ATOM     97  C   UNL A   1      45.119  29.775  30.038  1.00  0.00     0.037 A 
ATOM     98  H   UNL A   1      45.319  27.245  28.848  1.00  0.00     0.065 H 
ATOM     99  H   UNL A   1      36.861  30.032  28.610  1.00  0.00     0.065 H 
ATOM    100  C   UNL A   1      38.545  31.965  29.843  1.00  0.00     0.037 A 
ATOM    101  C   UNL A   1      44.902  31.079  30.615  1.00  0.00     0.049 A 
ATOM    102  C   UNL A   1      39.627  32.800  30.474  1.00  0.00     0.074 A 
ATOM    103  C   UNL A   1      45.837  31.951  31.147  1.00  0.00    -0.036 A 
ATOM    104  N   UNL A   1      43.670  31.705  30.722  1.00  0.00    -0.354 N 
ATOM    105  N   UNL A   1      40.911  32.559  30.568  1.00  0.00    -0.248 NA
ATOM    106  C   UNL A   1      39.213  34.073  31.086  1.00  0.00    -0.034 C 
ATOM    107  C   UNL A   1      45.168  33.085  31.616  1.00  0.00    -0.036 A 
ATOM    108  H   UNL A   1      46.856  31.790  31.190  1.00  0.00     0.065 H 
ATOM    109  C   UNL A   1      43.822  32.944  31.327  1.00  0.00     0.049 A 
ATOM    110  H   UNL A   1      42.815  31.327  30.414  1.00  0.00     0.167 HD
ATOM    111  C   UNL A   1      41.457  33.651  31.231  1.00  0.00     0.074 A 
ATOM    112  C   UNL A   1      40.371  34.567  31.500  1.00  0.00    -0.034 C 
ATOM    113  H   UNL A   1      38.266  34.475  31.172  1.00  0.00     0.065 H 
ATOM    114  H   UNL A   1      45.604  33.890  32.094  1.00  0.00     0.065 H 
ATOM    115  C   UNL A   1      42.747  33.865  31.589  1.00  0.00     0.037 A 
ATOM    116  H   UNL A   1      40.483  35.488  31.954  1.00  0.00     0.065 H 
BRANCH  97 117
ATOM    117  C   UNL A   1      46.534  29.266  30.011  1.00  0.00     0.064 A 
ATOM    118  C   UNL A   1      47.394  29.534  28.935  1.00  0.00     0.173 A 
ATOM    119  C   UNL A   1      47.061  28.574  31.114  1.00  0.00     0.173 A 
ATOM    120  F   UNL A   1      46.941  30.184  27.854  1.00  0.00    -0.203 F 
ATOM    121  C   UNL A   1      48.722  29.112  28.958  1.00  0.00     0.198 A 
ATOM    122  C   UNL A   1      48.397  28.183  31.146  1.00  0.00     0.198 A 
ATOM    123  F   UNL A   1      46.287  28.304  32.176  1.00  0.00    -0.203 F 
ATOM    124  F   UNL A   1      49.515  29.347  27.903  1.00  0.00    -0.200 F 
ATOM    125  C   UNL A   1      49.225  28.446  30.066  1.00  0.00     0.200 A 
ATOM    126  F   UNL A   1      48.886  27.558  32.227  1.00  0.00    -0.200 F 
ATOM    127  F   UNL A   1      50.507  28.059  30.093  1.00  0.00    -0.200 F 
ENDBRANCH  97 117
BRANCH 100 128
ATOM    128  C   UNL A   1      37.149  32.474  29.778  1.00  0.00     0.064 A 
ATOM    129  C   UNL A   1      36.696  33.187  28.658  1.00  0.00     0.173 A 
ATOM    130  C   UNL A   1      36.238  32.256  30.822  1.00  0.00     0.173 A 
ATOM    131  F   UNL A   1      37.538  33.453  27.649  1.00  0.00    -0.203 F 
ATOM    132  C   UNL A   1      35.387  33.659  28.586  1.00  0.00     0.198 A 
ATOM    133  C   UNL A   1      34.920  32.699  30.735  1.00  0.00     0.198 A 
ATOM    134  F   UNL A   1      36.623  31.588  31.920  1.00  0.00    -0.203 F 
ATOM    135  F   UNL A   1      34.990  34.369  27.521  1.00  0.00    -0.200 F 
ATOM    136  C   UNL A   1      34.497  33.405  29.619  1.00  0.00     0.200 A 
ATOM    137  F   UNL A   1      34.061  32.438  31.728  1.00  0.00    -0.200 F 
ATOM    138  F   UNL A   1      33.233  33.843  29.541  1.00  0.00    -0.200 F 
ENDBRANCH 100 128
BRANCH 115 139
ATOM    139  C   UNL A   1      43.079  35.153  32.289  1.00  0.00     0.064 A 
ATOM    140  C   UNL A   1      43.573  36.263  31.589  1.00  0.00     0.173 A 
ATOM    141  C   UNL A   1      42.837  35.300  33.664  1.00  0.00     0.173 A 
ATOM    142  F   UNL A   1      43.836  36.171  30.277  1.00  0.00    -0.203 F 
ATOM    143  C   UNL A   1      43.827  37.468  32.242  1.00  0.00     0.198 A 
ATOM    144  C   UNL A   1      43.064  36.515  34.308  1.00  0.00     0.198 A 
ATOM    145  F   UNL A   1      42.357  34.273  34.380  1.00  0.00    -0.203 F 
ATOM    146  F   UNL A   1      44.333  38.504  31.559  1.00  0.00    -0.200 F 
ATOM    147  C   UNL A   1      43.563  37.596  33.597  1.00  0.00     0.200 A 
ATOM    148  F   UNL A   1      42.792  36.640  35.614  1.00  0.00    -0.200 F 
ATOM    149  F   UNL A   1      43.792  38.760  34.219  1.00  0.00    -0.200 F 
ENDBRANCH 115 139
ENDBRANCH  80  83
ENDBRANCH  70  73
ENDBRANCH  66  69
ENDBRANCH  63  66
ENDBRANCH  60  63
ENDBRANCH  57  60
ENDBRANCH   1  57
TORSDOF 21
ENDMDL
MODEL 10
REMARK VINA RESULT:     -11.4      3.095      4.409
REMARK SMILES CC(C)(C)c1cc(Nc2ccccc2C(=O)NCCCCCCNC(=O)c2ccc(-c3c4nc(c(-c5c(F)c(F)c(F)c(F)c5F)c5ccc([nH]5)c(-c5c(F)c(F)c(F)c(F)c5F)c5nc(c(-c6c(F)c(F)c(F)c(F)c6F)c6ccc3[nH]6)C=C5)C=C4)cc2)cc2c1OCC2(C)C
REMARK SMILES IDX 19 1 18 4 17 7 15 8 16 9 14 11 9 12 10 13 11 14 13 16 12 17
REMARK SMILES IDX 8 21 7 23 5 24 6 25 92 26 91 28 93 29 90 30 95 31 94 32 2 36
REMARK SMILES IDX 1 37 3 41 4 45 96 49 97 53 20 57 21 60 22 63 23 66 24 69
REMARK SMILES IDX 25 70 26 72 27 73 28 74 89 75 29 76 88 78 30 80 31 83 32 84
REMARK SMILES IDX 82 85 33 86 87 87 81 88 83 89 34 90 86 91 80 93 79 95 35 97
REMARK SMILES IDX 67 100 47 101 66 102 48 103 51 104 65 105 84 106 49 107
REMARK SMILES IDX 50 109 64 111 85 112 52 115 36 117 37 118 45 119 38 120
REMARK SMILES IDX 39 121 43 122 46 123 40 124 41 125 44 126 42 127 68 128
REMARK SMILES IDX 69 129 77 130 70 131 71 132 75 133 78 134 72 135 73 136
REMARK SMILES IDX 76 137 74 138 53 139 54 140 62 141 55 142 56 143 60 144
REMARK SMILES IDX 63 145 57 146 58 147 61 148 59 149
REMARK H PARENT 19 2 19 3 18 5 18 6 17 10 10 15 11 18 13 19 12 20 8 22 6 27
REMARK H PARENT 90 33 94 34 94 35 1 38 1 39 1 40 3 42 3 43 3 44 4 46 4 47 4 48
REMARK H PARENT 96 50 96 51 96 52 97 54 97 55 97 56 20 58 20 59 21 61 21 62
REMARK H PARENT 22 64 22 65 23 67 23 68 24 71 28 77 89 79 29 81 88 82 87 92
REMARK H PARENT 81 94 83 96 86 98 80 99 48 108 51 110 84 113 49 114 85 116
REMARK Flexibility Score: inf
ROOT
ATOM      1  C   UNL A   1      34.071  23.642  27.077  1.00  0.00    -0.036 C 
ATOM      2  H   UNL A   1      35.018  23.512  27.559  1.00  0.00     0.028 H 
ATOM      3  H   UNL A   1      33.343  24.245  27.578  1.00  0.00     0.028 H 
ENDROOT
BRANCH   1   4
ATOM      4  C   UNL A   1      33.413  22.267  27.027  1.00  0.00     0.018 C 
ATOM      5  H   UNL A   1      33.783  21.766  26.156  1.00  0.00     0.049 H 
ATOM      6  H   UNL A   1      33.667  21.808  27.960  1.00  0.00     0.049 H 
BRANCH   4   7
ATOM      7  N   UNL A   1      31.978  22.220  26.974  1.00  0.00    -0.352 N 
ATOM      8  C   UNL A   1      31.117  22.380  25.912  1.00  0.00     0.253 C 
ATOM      9  O   UNL A   1      29.917  22.233  26.177  1.00  0.00    -0.269 OA
ATOM     10  H   UNL A   1      31.540  22.045  27.838  1.00  0.00     0.163 HD
BRANCH   8  11
ATOM     11  C   UNL A   1      31.471  22.764  24.496  1.00  0.00     0.063 A 
ATOM     12  C   UNL A   1      31.089  23.893  23.737  1.00  0.00     0.051 A 
ATOM     13  C   UNL A   1      31.688  24.093  22.465  1.00  0.00    -0.038 A 
ATOM     14  C   UNL A   1      32.572  23.179  21.900  1.00  0.00    -0.060 A 
ATOM     15  H   UNL A   1      31.459  24.951  21.938  1.00  0.00     0.064 H 
ATOM     16  C   UNL A   1      32.379  21.853  23.896  1.00  0.00    -0.047 A 
ATOM     17  C   UNL A   1      32.905  22.043  22.613  1.00  0.00    -0.061 A 
ATOM     18  H   UNL A   1      32.971  23.347  20.963  1.00  0.00     0.062 H 
ATOM     19  H   UNL A   1      32.664  21.016  24.428  1.00  0.00     0.063 H 
ATOM     20  H   UNL A   1      33.538  21.339  22.201  1.00  0.00     0.062 H 
BRANCH  12  21
ATOM     21  N   UNL A   1      30.071  24.811  24.077  1.00  0.00    -0.355 N 
ATOM     22  H   UNL A   1      29.147  24.471  24.105  1.00  0.00     0.167 HD
BRANCH  21  23
ATOM     23  C   UNL A   1      30.270  26.183  24.383  1.00  0.00     0.039 A 
ATOM     24  C   UNL A   1      29.810  28.566  23.863  1.00  0.00     0.002 A 
ATOM     25  C   UNL A   1      29.517  27.182  23.728  1.00  0.00    -0.031 A 
ATOM     26  C   UNL A   1      30.849  28.891  24.733  1.00  0.00     0.127 A 
ATOM     27  H   UNL A   1      28.724  26.897  23.131  1.00  0.00     0.065 H 
ATOM     28  C   UNL A   1      31.569  27.934  25.416  1.00  0.00     0.006 A 
ATOM     29  O   UNL A   1      31.312  30.160  24.954  1.00  0.00    -0.492 OA
ATOM     30  C   UNL A   1      31.299  26.590  25.242  1.00  0.00    -0.031 A 
ATOM     31  C   UNL A   1      32.619  28.561  26.263  1.00  0.00     0.028 C 
ATOM     32  C   UNL A   1      32.375  30.044  25.922  1.00  0.00     0.097 C 
ATOM     33  H   UNL A   1      31.857  25.884  25.747  1.00  0.00     0.065 H 
ATOM     34  H   UNL A   1      32.103  30.571  26.813  1.00  0.00     0.072 H 
ATOM     35  H   UNL A   1      33.270  30.461  25.512  1.00  0.00     0.072 H 
BRANCH  24  36
ATOM     36  C   UNL A   1      29.172  29.635  22.966  1.00  0.00    -0.009 C 
BRANCH  36  37
ATOM     37  C   UNL A   1      29.968  29.942  21.677  1.00  0.00    -0.056 C 
ATOM     38  H   UNL A   1      29.549  30.801  21.196  1.00  0.00     0.024 H 
ATOM     39  H   UNL A   1      29.914  29.101  21.016  1.00  0.00     0.024 H 
ATOM     40  H   UNL A   1      30.990  30.135  21.926  1.00  0.00     0.024 H 
ENDBRANCH  36  37
BRANCH  36  41
ATOM     41  C   UNL A   1      28.978  30.989  23.683  1.00  0.00    -0.056 C 
ATOM     42  H   UNL A   1      29.380  31.775  23.078  1.00  0.00     0.024 H 
ATOM     43  H   UNL A   1      29.484  30.970  24.626  1.00  0.00     0.024 H 
ATOM     44  H   UNL A   1      27.933  31.160  23.843  1.00  0.00     0.024 H 
ENDBRANCH  36  41
BRANCH  36  45
ATOM     45  C   UNL A   1      27.806  29.059  22.554  1.00  0.00    -0.056 C 
ATOM     46  H   UNL A   1      27.723  28.051  22.905  1.00  0.00     0.024 H 
ATOM     47  H   UNL A   1      27.720  29.072  21.488  1.00  0.00     0.024 H 
ATOM     48  H   UNL A   1      27.025  29.652  22.983  1.00  0.00     0.024 H 
ENDBRANCH  36  45
ENDBRANCH  24  36
BRANCH  31  49
ATOM     49  C   UNL A   1      32.354  28.271  27.741  1.00  0.00    -0.052 C 
ATOM     50  H   UNL A   1      32.527  27.233  27.938  1.00  0.00     0.024 H 
ATOM     51  H   UNL A   1      31.340  28.515  27.977  1.00  0.00     0.024 H 
ATOM     52  H   UNL A   1      33.013  28.861  28.344  1.00  0.00     0.024 H 
ENDBRANCH  31  49
BRANCH  31  53
ATOM     53  C   UNL A   1      34.032  28.126  25.866  1.00  0.00    -0.052 C 
ATOM     54  H   UNL A   1      34.013  27.702  24.883  1.00  0.00     0.024 H 
ATOM     55  H   UNL A   1      34.388  27.395  26.561  1.00  0.00     0.024 H 
ATOM     56  H   UNL A   1      34.684  28.974  25.876  1.00  0.00     0.024 H 
ENDBRANCH  31  53
ENDBRANCH  21  23
ENDBRANCH  12  21
ENDBRANCH   8  11
ENDBRANCH   4   7
ENDBRANCH   1   4
BRANCH   1  57
ATOM     57  C   UNL A   1      34.335  24.412  25.782  1.00  0.00    -0.052 C 
ATOM     58  H   UNL A   1      34.807  25.333  26.060  1.00  0.00     0.027 H 
ATOM     59  H   UNL A   1      33.368  24.476  25.329  1.00  0.00     0.027 H 
BRANCH  57  60
ATOM     60  C   UNL A   1      35.200  23.785  24.684  1.00  0.00    -0.052 C 
ATOM     61  H   UNL A   1      34.969  24.294  23.772  1.00  0.00     0.027 H 
ATOM     62  H   UNL A   1      34.954  22.745  24.720  1.00  0.00     0.027 H 
BRANCH  60  63
ATOM     63  C   UNL A   1      36.722  23.814  24.843  1.00  0.00    -0.036 C 
ATOM     64  H   UNL A   1      37.012  24.838  24.953  1.00  0.00     0.028 H 
ATOM     65  H   UNL A   1      37.091  23.317  23.969  1.00  0.00     0.028 H 
BRANCH  63  66
ATOM     66  C   UNL A   1      37.340  23.039  26.010  1.00  0.00     0.018 C 
ATOM     67  H   UNL A   1      36.696  22.214  26.232  1.00  0.00     0.049 H 
ATOM     68  H   UNL A   1      37.438  23.748  26.805  1.00  0.00     0.049 H 
BRANCH  66  69
ATOM     69  N   UNL A   1      38.674  22.513  25.792  1.00  0.00    -0.352 N 
ATOM     70  C   UNL A   1      39.900  23.008  26.208  1.00  0.00     0.251 C 
ATOM     71  H   UNL A   1      38.715  21.680  25.270  1.00  0.00     0.163 HD
ATOM     72  O   UNL A   1      40.921  22.380  25.974  1.00  0.00    -0.269 OA
BRANCH  70  73
ATOM     73  C   UNL A   1      40.004  24.332  26.880  1.00  0.00     0.039 A 
ATOM     74  C   UNL A   1      40.575  25.438  26.257  1.00  0.00    -0.049 A 
ATOM     75  C   UNL A   1      39.501  24.472  28.176  1.00  0.00    -0.049 A 
ATOM     76  C   UNL A   1      40.830  26.606  26.993  1.00  0.00    -0.053 A 
ATOM     77  H   UNL A   1      40.811  25.399  25.254  1.00  0.00     0.063 H 
ATOM     78  C   UNL A   1      39.687  25.671  28.885  1.00  0.00    -0.053 A 
ATOM     79  H   UNL A   1      38.991  23.689  28.615  1.00  0.00     0.063 H 
ATOM     80  C   UNL A   1      40.426  26.731  28.334  1.00  0.00    -0.014 A 
ATOM     81  H   UNL A   1      41.324  27.389  26.539  1.00  0.00     0.063 H 
ATOM     82  H   UNL A   1      39.274  25.774  29.825  1.00  0.00     0.063 H 
BRANCH  80  83
ATOM     83  C   UNL A   1      40.827  27.912  29.177  1.00  0.00     0.031 A 
ATOM     84  C   UNL A   1      39.834  29.021  29.470  1.00  0.00     0.074 A 
ATOM     85  C   UNL A   1      42.058  28.010  29.723  1.00  0.00     0.049 A 
ATOM     86  N   UNL A   1      40.023  30.182  30.055  1.00  0.00    -0.248 NA
ATOM     87  C   UNL A   1      38.444  28.800  29.042  1.00  0.00    -0.034 C 
ATOM     88  C   UNL A   1      43.124  27.019  29.596  1.00  0.00    -0.036 A 
ATOM     89  N   UNL A   1      42.617  28.995  30.510  1.00  0.00    -0.354 N 
ATOM     90  C   UNL A   1      38.796  30.837  30.024  1.00  0.00     0.074 A 
ATOM     91  C   UNL A   1      37.872  29.958  29.340  1.00  0.00    -0.034 C 
ATOM     92  H   UNL A   1      38.022  27.957  28.618  1.00  0.00     0.065 H 
ATOM     93  C   UNL A   1      44.183  27.415  30.319  1.00  0.00    -0.036 A 
ATOM     94  H   UNL A   1      43.072  26.152  29.039  1.00  0.00     0.065 H 
ATOM     95  C   UNL A   1      43.912  28.732  30.890  1.00  0.00     0.049 A 
ATOM     96  H   UNL A   1      42.134  29.811  30.775  1.00  0.00     0.167 HD
ATOM     97  C   UNL A   1      38.457  32.051  30.526  1.00  0.00     0.037 A 
ATOM     98  H   UNL A   1      36.895  30.200  29.115  1.00  0.00     0.065 H 
ATOM     99  H   UNL A   1      45.052  26.874  30.450  1.00  0.00     0.065 H 
ATOM    100  C   UNL A   1      44.801  29.469  31.589  1.00  0.00     0.037 A 
ATOM    101  C   UNL A   1      39.345  32.920  31.258  1.00  0.00     0.049 A 
ATOM    102  C   UNL A   1      44.427  30.845  32.073  1.00  0.00     0.074 A 
ATOM    103  C   UNL A   1      39.073  34.162  31.809  1.00  0.00    -0.036 A 
ATOM    104  N   UNL A   1      40.668  32.635  31.557  1.00  0.00    -0.354 N 
ATOM    105  N   UNL A   1      43.279  31.470  31.989  1.00  0.00    -0.248 NA
ATOM    106  C   UNL A   1      45.485  31.627  32.735  1.00  0.00    -0.034 C 
ATOM    107  C   UNL A   1      40.242  34.648  32.401  1.00  0.00    -0.036 A 
ATOM    108  H   UNL A   1      38.162  34.646  31.785  1.00  0.00     0.065 H 
ATOM    109  C   UNL A   1      41.228  33.685  32.269  1.00  0.00     0.049 A 
ATOM    110  H   UNL A   1      41.139  31.808  31.303  1.00  0.00     0.167 HD
ATOM    111  C   UNL A   1      43.471  32.704  32.599  1.00  0.00     0.074 A 
ATOM    112  C   UNL A   1      44.838  32.735  33.067  1.00  0.00    -0.034 C 
ATOM    113  H   UNL A   1      46.473  31.376  32.897  1.00  0.00     0.065 H 
ATOM    114  H   UNL A   1      40.351  35.567  32.861  1.00  0.00     0.065 H 
ATOM    115  C   UNL A   1      42.586  33.720  32.746  1.00  0.00     0.037 A 
ATOM    116  H   UNL A   1      45.257  33.520  33.593  1.00  0.00     0.065 H 
BRANCH  97 117
ATOM    117  C   UNL A   1      37.051  32.539  30.304  1.00  0.00     0.064 A 
ATOM    118  C   UNL A   1      36.057  32.397  31.284  1.00  0.00     0.173 A 
ATOM    119  C   UNL A   1      36.719  33.235  29.130  1.00  0.00     0.173 A 
ATOM    120  F   UNL A   1      36.319  31.735  32.420  1.00  0.00    -0.203 F 
ATOM    121  C   UNL A   1      34.779  32.915  31.088  1.00  0.00     0.198 A 
ATOM    122  C   UNL A   1      35.449  33.779  28.952  1.00  0.00     0.198 A 
ATOM    123  F   UNL A   1      37.635  33.413  28.166  1.00  0.00    -0.203 F 
ATOM    124  F   UNL A   1      33.834  32.734  32.022  1.00  0.00    -0.200 F 
ATOM    125  C   UNL A   1      34.479  33.614  29.927  1.00  0.00     0.200 A 
ATOM    126  F   UNL A   1      35.168  34.472  27.839  1.00  0.00    -0.200 F 
ATOM    127  F   UNL A   1      33.254  34.128  29.751  1.00  0.00    -0.200 F 
ENDBRANCH  97 117
BRANCH 100 128
ATOM    128  C   UNL A   1      46.157  28.921  31.864  1.00  0.00     0.064 A 
ATOM    129  C   UNL A   1      46.417  28.207  33.043  1.00  0.00     0.173 A 
ATOM    130  C   UNL A   1      47.215  29.091  30.959  1.00  0.00     0.173 A 
ATOM    131  F   UNL A   1      45.448  28.048  33.956  1.00  0.00    -0.203 F 
ATOM    132  C   UNL A   1      47.682  27.684  33.303  1.00  0.00     0.198 A 
ATOM    133  C   UNL A   1      48.470  28.538  31.204  1.00  0.00     0.198 A 
ATOM    134  F   UNL A   1      47.022  29.775  29.821  1.00  0.00    -0.203 F 
ATOM    135  F   UNL A   1      47.913  27.036  34.453  1.00  0.00    -0.200 F 
ATOM    136  C   UNL A   1      48.704  27.839  32.379  1.00  0.00     0.200 A 
ATOM    137  F   UNL A   1      49.450  28.679  30.302  1.00  0.00    -0.200 F 
ATOM    138  F   UNL A   1      49.915  27.319  32.620  1.00  0.00    -0.200 F 
ENDBRANCH 100 128
BRANCH 115 139
ATOM    139  C   UNL A   1      43.046  34.954  33.469  1.00  0.00     0.064 A 
ATOM    140  C   UNL A   1      43.511  36.081  32.777  1.00  0.00     0.173 A 
ATOM    141  C   UNL A   1      42.955  35.036  34.868  1.00  0.00     0.173 A 
ATOM    142  F   UNL A   1      43.630  36.051  31.441  1.00  0.00    -0.203 F 
ATOM    143  C   UNL A   1      43.883  37.239  33.457  1.00  0.00     0.198 A 
ATOM    144  C   UNL A   1      43.301  36.205  35.543  1.00  0.00     0.198 A 
ATOM    145  F   UNL A   1      42.509  33.991  35.580  1.00  0.00    -0.203 F 
ATOM    146  F   UNL A   1      44.359  38.291  32.777  1.00  0.00    -0.200 F 
ATOM    147  C   UNL A   1      43.768  37.303  34.838  1.00  0.00     0.200 A 
ATOM    148  F   UNL A   1      43.174  36.270  36.876  1.00  0.00    -0.200 F 
ATOM    149  F   UNL A   1      44.112  38.423  35.489  1.00  0.00    -0.200 F 
ENDBRANCH 115 139
ENDBRANCH  80  83
ENDBRANCH  70  73
ENDBRANCH  66  69
ENDBRANCH  63  66
ENDBRANCH  60  63
ENDBRANCH  57  60
ENDBRANCH   1  57
TORSDOF 21
ENDMDL
