MODEL 1
REMARK VINA RESULT:     -11.6      0.000      0.000
REMARK SMILES O=C(/C=C/c1ccc(O)c(O)c1)NCCCCCCNC(=O)c1ccc(-c2c3nc(c(-c4c(F)c(F)c(F)c(F)c4F)c4ccc([nH]4)c(-c4c(F)c(F)c(F)c(F)c4F)c4nc(c(-c5c(F)c(F)c(F)c(F)c5F)c5ccc2[nH]5)C=C4)C=C3)cc1
REMARK SMILES IDX 16 1 15 4 14 7 13 10 1 11 2 12 3 14 4 15 5 18 6 19 12 20
REMARK SMILES IDX 7 21 10 23 8 25 11 27 9 29 17 31 18 34 19 37 20 40 21 41
REMARK SMILES IDX 22 43 23 44 24 45 85 46 25 47 84 49 26 51 27 54 28 55 78 56
REMARK SMILES IDX 29 57 83 58 77 59 79 60 30 61 82 62 76 64 75 66 31 68 63 71
REMARK SMILES IDX 43 72 62 73 44 74 47 75 61 76 80 77 45 78 46 80 60 82 81 83
REMARK SMILES IDX 48 86 32 88 33 89 41 90 34 91 35 92 39 93 42 94 36 95 37 96
REMARK SMILES IDX 40 97 38 98 64 99 65 100 73 101 66 102 67 103 71 104 74 105
REMARK SMILES IDX 68 106 69 107 72 108 70 109 49 110 50 111 58 112 51 113
REMARK SMILES IDX 52 114 56 115 59 116 53 117 54 118 57 119 55 120
REMARK H PARENT 16 2 16 3 15 5 15 6 14 8 14 9 13 13 3 16 4 17 6 22 12 24 7 26
REMARK H PARENT 11 28 9 30 17 32 17 33 18 35 18 36 19 38 19 39 20 42 24 48
REMARK H PARENT 85 50 25 52 84 53 83 63 77 65 79 67 82 69 76 70 44 79 47 81
REMARK H PARENT 80 84 45 85 81 87
REMARK Flexibility Score: inf
ROOT
ATOM      1  C   UNL A   1      32.277  29.708  27.239  1.00  0.00    -0.052 C 
ATOM      2  H   UNL A   1      33.337  29.673  27.092  1.00  0.00     0.027 H 
ATOM      3  H   UNL A   1      31.986  30.137  28.175  1.00  0.00     0.027 H 
ENDROOT
BRANCH   1   4
ATOM      4  C   UNL A   1      31.755  28.264  27.255  1.00  0.00    -0.036 C 
ATOM      5  H   UNL A   1      32.500  27.645  27.712  1.00  0.00     0.028 H 
ATOM      6  H   UNL A   1      30.834  28.282  27.798  1.00  0.00     0.028 H 
BRANCH   4   7
ATOM      7  C   UNL A   1      31.434  27.685  25.877  1.00  0.00     0.018 C 
ATOM      8  H   UNL A   1      30.418  27.350  25.868  1.00  0.00     0.049 H 
ATOM      9  H   UNL A   1      31.588  28.450  25.146  1.00  0.00     0.049 H 
BRANCH   7  10
ATOM     10  N   UNL A   1      32.300  26.569  25.556  1.00  0.00    -0.353 N 
ATOM     11  O   UNL A   1      31.230  25.030  26.877  1.00  0.00    -0.270 OA
ATOM     12  C   UNL A   1      32.157  25.339  26.137  1.00  0.00     0.243 C 
ATOM     13  H   UNL A   1      33.018  26.700  24.895  1.00  0.00     0.163 HD
BRANCH  12  14
ATOM     14  C   UNL A   1      33.204  24.331  25.828  1.00  0.00     0.003 C 
ATOM     15  C   UNL A   1      34.528  24.549  25.779  1.00  0.00    -0.049 C 
ATOM     16  H   UNL A   1      32.882  23.371  25.630  1.00  0.00     0.068 H 
ATOM     17  H   UNL A   1      34.877  25.516  25.872  1.00  0.00     0.063 H 
BRANCH  15  18
ATOM     18  C   UNL A   1      35.499  23.460  25.601  1.00  0.00    -0.022 A 
ATOM     19  C   UNL A   1      36.886  23.686  25.589  1.00  0.00    -0.051 A 
ATOM     20  C   UNL A   1      35.017  22.155  25.452  1.00  0.00    -0.009 A 
ATOM     21  C   UNL A   1      37.781  22.628  25.391  1.00  0.00    -0.016 A 
ATOM     22  H   UNL A   1      37.249  24.642  25.728  1.00  0.00     0.063 H 
ATOM     23  C   UNL A   1      35.911  21.112  25.254  1.00  0.00     0.157 A 
ATOM     24  H   UNL A   1      34.003  21.968  25.489  1.00  0.00     0.067 H 
ATOM     25  C   UNL A   1      37.283  21.344  25.217  1.00  0.00     0.157 A 
ATOM     26  H   UNL A   1      38.799  22.800  25.376  1.00  0.00     0.066 H 
BRANCH  23  27
ATOM     27  O   UNL A   1      35.428  19.845  25.084  1.00  0.00    -0.504 OA
ATOM     28  H   UNL A   1      34.520  19.711  24.896  1.00  0.00     0.293 HD
ENDBRANCH  23  27
BRANCH  25  29
ATOM     29  O   UNL A   1      38.103  20.271  25.001  1.00  0.00    -0.504 OA
ATOM     30  H   UNL A   1      38.181  19.603  25.654  1.00  0.00     0.293 HD
ENDBRANCH  25  29
ENDBRANCH  15  18
ENDBRANCH  12  14
ENDBRANCH   7  10
ENDBRANCH   4   7
ENDBRANCH   1   4
BRANCH   1  31
ATOM     31  C   UNL A   1      31.680  30.611  26.155  1.00  0.00    -0.052 C 
ATOM     32  H   UNL A   1      30.749  30.185  25.845  1.00  0.00     0.027 H 
ATOM     33  H   UNL A   1      32.410  30.658  25.374  1.00  0.00     0.027 H 
BRANCH  31  34
ATOM     34  C   UNL A   1      31.421  32.056  26.582  1.00  0.00    -0.036 C 
ATOM     35  H   UNL A   1      30.592  32.060  27.258  1.00  0.00     0.028 H 
ATOM     36  H   UNL A   1      31.236  32.606  25.683  1.00  0.00     0.028 H 
BRANCH  34  37
ATOM     37  C   UNL A   1      32.597  32.743  27.269  1.00  0.00     0.018 C 
ATOM     38  H   UNL A   1      33.448  32.692  26.623  1.00  0.00     0.049 H 
ATOM     39  H   UNL A   1      32.773  32.235  28.195  1.00  0.00     0.049 H 
BRANCH  37  40
ATOM     40  N   UNL A   1      32.327  34.140  27.577  1.00  0.00    -0.352 N 
ATOM     41  C   UNL A   1      32.920  34.950  28.516  1.00  0.00     0.251 C 
ATOM     42  H   UNL A   1      31.622  34.564  27.038  1.00  0.00     0.163 HD
ATOM     43  O   UNL A   1      32.462  36.064  28.755  1.00  0.00    -0.269 OA
BRANCH  41  44
ATOM     44  C   UNL A   1      34.099  34.464  29.263  1.00  0.00     0.039 A 
ATOM     45  C   UNL A   1      33.914  33.874  30.516  1.00  0.00    -0.049 A 
ATOM     46  C   UNL A   1      35.382  34.578  28.721  1.00  0.00    -0.049 A 
ATOM     47  C   UNL A   1      35.009  33.332  31.194  1.00  0.00    -0.053 A 
ATOM     48  H   UNL A   1      32.974  33.838  30.939  1.00  0.00     0.063 H 
ATOM     49  C   UNL A   1      36.459  33.974  29.364  1.00  0.00    -0.053 A 
ATOM     50  H   UNL A   1      35.531  35.108  27.848  1.00  0.00     0.063 H 
ATOM     51  C   UNL A   1      36.284  33.343  30.607  1.00  0.00    -0.014 A 
ATOM     52  H   UNL A   1      34.880  32.921  32.132  1.00  0.00     0.063 H 
ATOM     53  H   UNL A   1      37.392  33.991  28.925  1.00  0.00     0.063 H 
BRANCH  51  54
ATOM     54  C   UNL A   1      37.454  32.706  31.266  1.00  0.00     0.031 A 
ATOM     55  C   UNL A   1      38.146  31.545  30.605  1.00  0.00     0.074 A 
ATOM     56  C   UNL A   1      37.839  33.113  32.493  1.00  0.00     0.049 A 
ATOM     57  N   UNL A   1      39.094  30.771  31.069  1.00  0.00    -0.248 NA
ATOM     58  C   UNL A   1      37.691  31.187  29.252  1.00  0.00    -0.034 C 
ATOM     59  C   UNL A   1      37.229  34.203  33.255  1.00  0.00    -0.036 A 
ATOM     60  N   UNL A   1      38.824  32.639  33.325  1.00  0.00    -0.354 N 
ATOM     61  C   UNL A   1      39.326  29.823  30.081  1.00  0.00     0.074 A 
ATOM     62  C   UNL A   1      38.398  30.093  29.006  1.00  0.00    -0.034 C 
ATOM     63  H   UNL A   1      37.002  31.664  28.649  1.00  0.00     0.065 H 
ATOM     64  C   UNL A   1      37.857  34.322  34.436  1.00  0.00    -0.036 A 
ATOM     65  H   UNL A   1      36.441  34.788  32.935  1.00  0.00     0.065 H 
ATOM     66  C   UNL A   1      38.882  33.289  34.536  1.00  0.00     0.049 A 
ATOM     67  H   UNL A   1      39.430  31.904  33.079  1.00  0.00     0.167 HD
ATOM     68  C   UNL A   1      40.245  28.828  30.067  1.00  0.00     0.037 A 
ATOM     69  H   UNL A   1      38.298  29.510  28.160  1.00  0.00     0.065 H 
ATOM     70  H   UNL A   1      37.648  35.031  35.156  1.00  0.00     0.065 H 
ATOM     71  C   UNL A   1      39.661  33.060  35.612  1.00  0.00     0.037 A 
ATOM     72  C   UNL A   1      41.198  28.591  31.118  1.00  0.00     0.049 A 
ATOM     73  C   UNL A   1      40.667  31.938  35.567  1.00  0.00     0.074 A 
ATOM     74  C   UNL A   1      42.220  27.659  31.158  1.00  0.00    -0.036 A 
ATOM     75  N   UNL A   1      41.246  29.290  32.315  1.00  0.00    -0.354 N 
ATOM     76  N   UNL A   1      40.930  31.100  34.596  1.00  0.00    -0.248 NA
ATOM     77  C   UNL A   1      41.488  31.733  36.770  1.00  0.00    -0.034 C 
ATOM     78  C   UNL A   1      42.851  27.756  32.401  1.00  0.00    -0.036 A 
ATOM     79  H   UNL A   1      42.473  27.006  30.401  1.00  0.00     0.065 H 
ATOM     80  C   UNL A   1      42.263  28.790  33.111  1.00  0.00     0.049 A 
ATOM     81  H   UNL A   1      40.646  30.030  32.562  1.00  0.00     0.167 HD
ATOM     82  C   UNL A   1      41.971  30.302  35.051  1.00  0.00     0.074 A 
ATOM     83  C   UNL A   1      42.298  30.759  36.383  1.00  0.00    -0.034 C 
ATOM     84  H   UNL A   1      41.443  32.221  37.678  1.00  0.00     0.065 H 
ATOM     85  H   UNL A   1      43.625  27.158  32.734  1.00  0.00     0.065 H 
ATOM     86  C   UNL A   1      42.600  29.280  34.422  1.00  0.00     0.037 A 
ATOM     87  H   UNL A   1      43.065  30.377  36.958  1.00  0.00     0.065 H 
BRANCH  68  88
ATOM     88  C   UNL A   1      40.277  27.912  28.879  1.00  0.00     0.064 A 
ATOM     89  C   UNL A   1      41.022  28.218  27.731  1.00  0.00     0.173 A 
ATOM     90  C   UNL A   1      39.623  26.671  28.926  1.00  0.00     0.173 A 
ATOM     91  F   UNL A   1      41.658  29.395  27.632  1.00  0.00    -0.203 F 
ATOM     92  C   UNL A   1      41.100  27.321  26.669  1.00  0.00     0.198 A 
ATOM     93  C   UNL A   1      39.728  25.764  27.876  1.00  0.00     0.198 A 
ATOM     94  F   UNL A   1      38.902  26.327  30.005  1.00  0.00    -0.203 F 
ATOM     95  F   UNL A   1      41.793  27.647  25.569  1.00  0.00    -0.200 F 
ATOM     96  C   UNL A   1      40.463  26.091  26.747  1.00  0.00     0.200 A 
ATOM     97  F   UNL A   1      39.125  24.571  27.960  1.00  0.00    -0.200 F 
ATOM     98  F   UNL A   1      40.558  25.220  25.733  1.00  0.00    -0.200 F 
ENDBRANCH  68  88
BRANCH  71  99
ATOM     99  C   UNL A   1      39.533  33.903  36.832  1.00  0.00     0.064 A 
ATOM    100  C   UNL A   1      40.248  35.104  36.956  1.00  0.00     0.173 A 
ATOM    101  C   UNL A   1      38.740  33.504  37.919  1.00  0.00     0.173 A 
ATOM    102  F   UNL A   1      41.037  35.519  35.955  1.00  0.00    -0.203 F 
ATOM    103  C   UNL A   1      40.209  35.849  38.134  1.00  0.00     0.198 A 
ATOM    104  C   UNL A   1      38.675  34.268  39.082  1.00  0.00     0.198 A 
ATOM    105  F   UNL A   1      38.032  32.368  37.852  1.00  0.00    -0.203 F 
ATOM    106  F   UNL A   1      40.959  36.953  38.250  1.00  0.00    -0.200 F 
ATOM    107  C   UNL A   1      39.421  35.432  39.196  1.00  0.00     0.200 A 
ATOM    108  F   UNL A   1      37.900  33.869  40.100  1.00  0.00    -0.200 F 
ATOM    109  F   UNL A   1      39.391  36.142  40.330  1.00  0.00    -0.200 F 
ENDBRANCH  71  99
BRANCH  86 110
ATOM    110  C   UNL A   1      43.751  28.627  35.130  1.00  0.00     0.064 A 
ATOM    111  C   UNL A   1      45.061  29.116  35.024  1.00  0.00     0.173 A 
ATOM    112  C   UNL A   1      43.525  27.530  35.977  1.00  0.00     0.173 A 
ATOM    113  F   UNL A   1      45.331  30.152  34.217  1.00  0.00    -0.203 F 
ATOM    114  C   UNL A   1      46.106  28.517  35.722  1.00  0.00     0.198 A 
ATOM    115  C   UNL A   1      44.566  26.955  36.699  1.00  0.00     0.198 A 
ATOM    116  F   UNL A   1      42.289  27.028  36.120  1.00  0.00    -0.203 F 
ATOM    117  F   UNL A   1      47.357  28.972  35.572  1.00  0.00    -0.200 F 
ATOM    118  C   UNL A   1      45.856  27.444  36.566  1.00  0.00     0.200 A 
ATOM    119  F   UNL A   1      44.320  25.930  37.527  1.00  0.00    -0.200 F 
ATOM    120  F   UNL A   1      46.861  26.880  37.250  1.00  0.00    -0.200 F 
ENDBRANCH  86 110
ENDBRANCH  51  54
ENDBRANCH  41  44
ENDBRANCH  37  40
ENDBRANCH  34  37
ENDBRANCH  31  34
ENDBRANCH   1  31
TORSDOF 16
ENDMDL
MODEL 2
REMARK VINA RESULT:     -11.6      4.025      9.093
REMARK SMILES O=C(/C=C/c1ccc(O)c(O)c1)NCCCCCCNC(=O)c1ccc(-c2c3nc(c(-c4c(F)c(F)c(F)c(F)c4F)c4ccc([nH]4)c(-c4c(F)c(F)c(F)c(F)c4F)c4nc(c(-c5c(F)c(F)c(F)c(F)c5F)c5ccc2[nH]5)C=C4)C=C3)cc1
REMARK SMILES IDX 16 1 15 4 14 7 13 10 1 11 2 12 3 14 4 15 5 18 6 19 12 20
REMARK SMILES IDX 7 21 10 23 8 25 11 27 9 29 17 31 18 34 19 37 20 40 21 41
REMARK SMILES IDX 22 43 23 44 24 45 85 46 25 47 84 49 26 51 27 54 28 55 78 56
REMARK SMILES IDX 29 57 83 58 77 59 79 60 30 61 82 62 76 64 75 66 31 68 63 71
REMARK SMILES IDX 43 72 62 73 44 74 47 75 61 76 80 77 45 78 46 80 60 82 81 83
REMARK SMILES IDX 48 86 32 88 33 89 41 90 34 91 35 92 39 93 42 94 36 95 37 96
REMARK SMILES IDX 40 97 38 98 64 99 65 100 73 101 66 102 67 103 71 104 74 105
REMARK SMILES IDX 68 106 69 107 72 108 70 109 49 110 50 111 58 112 51 113
REMARK SMILES IDX 52 114 56 115 59 116 53 117 54 118 57 119 55 120
REMARK H PARENT 16 2 16 3 15 5 15 6 14 8 14 9 13 13 3 16 4 17 6 22 12 24 7 26
REMARK H PARENT 11 28 9 30 17 32 17 33 18 35 18 36 19 38 19 39 20 42 24 48
REMARK H PARENT 85 50 25 52 84 53 83 63 77 65 79 67 82 69 76 70 44 79 47 81
REMARK H PARENT 80 84 45 85 81 87
REMARK Flexibility Score: inf
ROOT
ATOM      1  C   UNL A   1      31.029  27.858  24.843  1.00  0.00    -0.052 C 
ATOM      2  H   UNL A   1      30.096  28.010  25.347  1.00  0.00     0.027 H 
ATOM      3  H   UNL A   1      30.973  27.994  23.784  1.00  0.00     0.027 H 
ENDROOT
BRANCH   1   4
ATOM      4  C   UNL A   1      31.449  26.397  25.059  1.00  0.00    -0.036 C 
ATOM      5  H   UNL A   1      31.841  26.022  24.136  1.00  0.00     0.028 H 
ATOM      6  H   UNL A   1      32.169  26.403  25.850  1.00  0.00     0.028 H 
BRANCH   4   7
ATOM      7  C   UNL A   1      30.321  25.467  25.509  1.00  0.00     0.018 C 
ATOM      8  H   UNL A   1      30.215  25.537  26.572  1.00  0.00     0.049 H 
ATOM      9  H   UNL A   1      29.420  25.768  25.017  1.00  0.00     0.049 H 
BRANCH   7  10
ATOM     10  N   UNL A   1      30.594  24.090  25.153  1.00  0.00    -0.353 N 
ATOM     11  O   UNL A   1      31.292  23.425  27.234  1.00  0.00    -0.270 OA
ATOM     12  C   UNL A   1      31.120  23.194  26.043  1.00  0.00     0.243 C 
ATOM     13  H   UNL A   1      30.395  23.788  24.237  1.00  0.00     0.163 HD
BRANCH  12  14
ATOM     14  C   UNL A   1      31.489  21.859  25.503  1.00  0.00     0.003 C 
ATOM     15  C   UNL A   1      32.446  21.605  24.597  1.00  0.00    -0.049 C 
ATOM     16  H   UNL A   1      30.956  21.050  25.858  1.00  0.00     0.068 H 
ATOM     17  H   UNL A   1      32.928  22.399  24.146  1.00  0.00     0.063 H 
BRANCH  15  18
ATOM     18  C   UNL A   1      32.834  20.237  24.225  1.00  0.00    -0.022 A 
ATOM     19  C   UNL A   1      33.882  19.553  24.865  1.00  0.00    -0.051 A 
ATOM     20  C   UNL A   1      32.122  19.596  23.205  1.00  0.00    -0.009 A 
ATOM     21  C   UNL A   1      34.240  18.259  24.467  1.00  0.00    -0.016 A 
ATOM     22  H   UNL A   1      34.392  20.009  25.637  1.00  0.00     0.063 H 
ATOM     23  C   UNL A   1      32.485  18.315  22.815  1.00  0.00     0.157 A 
ATOM     24  H   UNL A   1      31.329  20.073  22.745  1.00  0.00     0.067 H 
ATOM     25  C   UNL A   1      33.540  17.651  23.434  1.00  0.00     0.157 A 
ATOM     26  H   UNL A   1      35.015  17.765  24.935  1.00  0.00     0.066 H 
BRANCH  23  27
ATOM     27  O   UNL A   1      31.798  17.709  21.801  1.00  0.00    -0.504 OA
ATOM     28  H   UNL A   1      31.844  16.779  21.694  1.00  0.00     0.293 HD
ENDBRANCH  23  27
BRANCH  25  29
ATOM     29  O   UNL A   1      33.852  16.397  22.986  1.00  0.00    -0.504 OA
ATOM     30  H   UNL A   1      33.205  15.884  22.542  1.00  0.00     0.293 HD
ENDBRANCH  25  29
ENDBRANCH  15  18
ENDBRANCH  12  14
ENDBRANCH   7  10
ENDBRANCH   4   7
ENDBRANCH   1   4
BRANCH   1  31
ATOM     31  C   UNL A   1      32.019  28.909  25.353  1.00  0.00    -0.052 C 
ATOM     32  H   UNL A   1      31.578  29.397  26.197  1.00  0.00     0.027 H 
ATOM     33  H   UNL A   1      32.205  29.565  24.528  1.00  0.00     0.027 H 
BRANCH  31  34
ATOM     34  C   UNL A   1      33.383  28.366  25.780  1.00  0.00    -0.036 C 
ATOM     35  H   UNL A   1      34.133  28.848  25.187  1.00  0.00     0.028 H 
ATOM     36  H   UNL A   1      33.344  27.307  25.633  1.00  0.00     0.028 H 
BRANCH  34  37
ATOM     37  C   UNL A   1      33.729  28.582  27.249  1.00  0.00     0.018 C 
ATOM     38  H   UNL A   1      34.714  28.205  27.428  1.00  0.00     0.049 H 
ATOM     39  H   UNL A   1      32.997  28.065  27.834  1.00  0.00     0.049 H 
BRANCH  37  40
ATOM     40  N   UNL A   1      33.689  29.986  27.633  1.00  0.00    -0.352 N 
ATOM     41  C   UNL A   1      34.643  30.734  28.281  1.00  0.00     0.251 C 
ATOM     42  H   UNL A   1      32.863  30.465  27.398  1.00  0.00     0.163 HD
ATOM     43  O   UNL A   1      34.383  31.868  28.672  1.00  0.00    -0.269 OA
BRANCH  41  44
ATOM     44  C   UNL A   1      35.981  30.158  28.530  1.00  0.00     0.039 A 
ATOM     45  C   UNL A   1      36.943  30.210  27.518  1.00  0.00    -0.049 A 
ATOM     46  C   UNL A   1      36.289  29.580  29.764  1.00  0.00    -0.049 A 
ATOM     47  C   UNL A   1      38.237  29.749  27.768  1.00  0.00    -0.053 A 
ATOM     48  H   UNL A   1      36.699  30.588  26.589  1.00  0.00     0.063 H 
ATOM     49  C   UNL A   1      37.597  29.188  30.036  1.00  0.00    -0.053 A 
ATOM     50  H   UNL A   1      35.550  29.445  30.472  1.00  0.00     0.063 H 
ATOM     51  C   UNL A   1      38.586  29.270  29.041  1.00  0.00    -0.014 A 
ATOM     52  H   UNL A   1      38.942  29.760  27.014  1.00  0.00     0.063 H 
ATOM     53  H   UNL A   1      37.842  28.835  30.973  1.00  0.00     0.063 H 
BRANCH  51  54
ATOM     54  C   UNL A   1      39.973  28.844  29.364  1.00  0.00     0.031 A 
ATOM     55  C   UNL A   1      40.880  29.766  30.132  1.00  0.00     0.074 A 
ATOM     56  C   UNL A   1      40.443  27.671  28.894  1.00  0.00     0.049 A 
ATOM     57  N   UNL A   1      42.156  29.642  30.400  1.00  0.00    -0.248 NA
ATOM     58  C   UNL A   1      40.281  31.010  30.642  1.00  0.00    -0.034 C 
ATOM     59  C   UNL A   1      39.676  26.703  28.108  1.00  0.00    -0.036 A 
ATOM     60  N   UNL A   1      41.690  27.102  28.990  1.00  0.00    -0.354 N 
ATOM     61  C   UNL A   1      42.513  30.798  31.081  1.00  0.00     0.074 A 
ATOM     62  C   UNL A   1      41.333  31.630  31.155  1.00  0.00    -0.034 C 
ATOM     63  H   UNL A   1      39.297  31.319  30.609  1.00  0.00     0.065 H 
ATOM     64  C   UNL A   1      40.462  25.659  27.802  1.00  0.00    -0.036 A 
ATOM     65  H   UNL A   1      38.687  26.807  27.832  1.00  0.00     0.065 H 
ATOM     66  C   UNL A   1      41.802  25.901  28.328  1.00  0.00     0.049 A 
ATOM     67  H   UNL A   1      42.434  27.515  29.485  1.00  0.00     0.167 HD
ATOM     68  C   UNL A   1      43.716  31.126  31.611  1.00  0.00     0.037 A 
ATOM     69  H   UNL A   1      41.314  32.582  31.555  1.00  0.00     0.065 H 
ATOM     70  H   UNL A   1      40.167  24.819  27.280  1.00  0.00     0.065 H 
ATOM     71  C   UNL A   1      42.871  25.099  28.150  1.00  0.00     0.037 A 
ATOM     72  C   UNL A   1      44.875  30.275  31.576  1.00  0.00     0.049 A 
ATOM     73  C   UNL A   1      44.197  25.499  28.746  1.00  0.00     0.074 A 
ATOM     74  C   UNL A   1      46.114  30.485  32.155  1.00  0.00    -0.036 A 
ATOM     75  N   UNL A   1      44.940  29.053  30.923  1.00  0.00    -0.354 N 
ATOM     76  N   UNL A   1      44.502  26.557  29.455  1.00  0.00    -0.248 NA
ATOM     77  C   UNL A   1      45.329  24.587  28.517  1.00  0.00    -0.034 C 
ATOM     78  C   UNL A   1      46.946  29.417  31.808  1.00  0.00    -0.036 A 
ATOM     79  H   UNL A   1      46.378  31.291  32.743  1.00  0.00     0.065 H 
ATOM     80  C   UNL A   1      46.208  28.512  31.063  1.00  0.00     0.049 A 
ATOM     81  H   UNL A   1      44.197  28.633  30.433  1.00  0.00     0.167 HD
ATOM     82  C   UNL A   1      45.842  26.417  29.793  1.00  0.00     0.074 A 
ATOM     83  C   UNL A   1      46.291  25.168  29.219  1.00  0.00    -0.034 C 
ATOM     84  H   UNL A   1      45.364  23.722  27.957  1.00  0.00     0.065 H 
ATOM     85  H   UNL A   1      47.942  29.320  32.062  1.00  0.00     0.065 H 
ATOM     86  C   UNL A   1      46.630  27.250  30.516  1.00  0.00     0.037 A 
ATOM     87  H   UNL A   1      47.238  24.779  29.340  1.00  0.00     0.065 H 
BRANCH  68  88
ATOM     88  C   UNL A   1      43.852  32.460  32.283  1.00  0.00     0.064 A 
ATOM     89  C   UNL A   1      44.219  33.611  31.572  1.00  0.00     0.173 A 
ATOM     90  C   UNL A   1      43.526  32.603  33.641  1.00  0.00     0.173 A 
ATOM     91  F   UNL A   1      44.550  33.527  30.275  1.00  0.00    -0.203 F 
ATOM     92  C   UNL A   1      44.268  34.854  32.198  1.00  0.00     0.198 A 
ATOM     93  C   UNL A   1      43.546  33.851  34.256  1.00  0.00     0.198 A 
ATOM     94  F   UNL A   1      43.162  31.533  34.365  1.00  0.00    -0.203 F 
ATOM     95  F   UNL A   1      44.651  35.936  31.507  1.00  0.00    -0.200 F 
ATOM     96  C   UNL A   1      43.920  34.974  33.536  1.00  0.00     0.200 A 
ATOM     97  F   UNL A   1      43.195  33.967  35.544  1.00  0.00    -0.200 F 
ATOM     98  F   UNL A   1      43.945  36.175  34.131  1.00  0.00    -0.200 F 
ENDBRANCH  68  88
BRANCH  71  99
ATOM     99  C   UNL A   1      42.747  23.835  27.376  1.00  0.00     0.064 A 
ATOM    100  C   UNL A   1      42.296  22.656  27.989  1.00  0.00     0.173 A 
ATOM    101  C   UNL A   1      43.127  23.761  26.027  1.00  0.00     0.173 A 
ATOM    102  F   UNL A   1      41.941  22.668  29.281  1.00  0.00    -0.203 F 
ATOM    103  C   UNL A   1      42.270  21.447  27.296  1.00  0.00     0.198 A 
ATOM    104  C   UNL A   1      43.067  22.559  25.326  1.00  0.00     0.198 A 
ATOM    105  F   UNL A   1      43.561  24.858  25.391  1.00  0.00    -0.203 F 
ATOM    106  F   UNL A   1      41.903  20.323  27.928  1.00  0.00    -0.200 F 
ATOM    107  C   UNL A   1      42.654  21.399  25.965  1.00  0.00     0.200 A 
ATOM    108  F   UNL A   1      43.425  22.520  24.036  1.00  0.00    -0.200 F 
ATOM    109  F   UNL A   1      42.638  20.235  25.302  1.00  0.00    -0.200 F 
ENDBRANCH  71  99
BRANCH  86 110
ATOM    110  C   UNL A   1      48.040  26.813  30.789  1.00  0.00     0.064 A 
ATOM    111  C   UNL A   1      48.360  25.969  31.862  1.00  0.00     0.173 A 
ATOM    112  C   UNL A   1      49.076  27.199  29.924  1.00  0.00     0.173 A 
ATOM    113  F   UNL A   1      47.408  25.584  32.725  1.00  0.00    -0.203 F 
ATOM    114  C   UNL A   1      49.669  25.546  32.071  1.00  0.00     0.198 A 
ATOM    115  C   UNL A   1      50.377  26.748  30.118  1.00  0.00     0.198 A 
ATOM    116  F   UNL A   1      48.821  28.001  28.878  1.00  0.00    -0.203 F 
ATOM    117  F   UNL A   1      49.961  24.775  33.128  1.00  0.00    -0.200 F 
ATOM    118  C   UNL A   1      50.674  25.927  31.194  1.00  0.00     0.200 A 
ATOM    119  F   UNL A   1      51.344  27.103  29.259  1.00  0.00    -0.200 F 
ATOM    120  F   UNL A   1      51.931  25.505  31.389  1.00  0.00    -0.200 F 
ENDBRANCH  86 110
ENDBRANCH  51  54
ENDBRANCH  41  44
ENDBRANCH  37  40
ENDBRANCH  34  37
ENDBRANCH  31  34
ENDBRANCH   1  31
TORSDOF 16
ENDMDL
MODEL 3
REMARK VINA RESULT:     -11.6      2.208      8.065
REMARK SMILES O=C(/C=C/c1ccc(O)c(O)c1)NCCCCCCNC(=O)c1ccc(-c2c3nc(c(-c4c(F)c(F)c(F)c(F)c4F)c4ccc([nH]4)c(-c4c(F)c(F)c(F)c(F)c4F)c4nc(c(-c5c(F)c(F)c(F)c(F)c5F)c5ccc2[nH]5)C=C4)C=C3)cc1
REMARK SMILES IDX 16 1 15 4 14 7 13 10 1 11 2 12 3 14 4 15 5 18 6 19 12 20
REMARK SMILES IDX 7 21 10 23 8 25 11 27 9 29 17 31 18 34 19 37 20 40 21 41
REMARK SMILES IDX 22 43 23 44 24 45 85 46 25 47 84 49 26 51 27 54 28 55 78 56
REMARK SMILES IDX 29 57 83 58 77 59 79 60 30 61 82 62 76 64 75 66 31 68 63 71
REMARK SMILES IDX 43 72 62 73 44 74 47 75 61 76 80 77 45 78 46 80 60 82 81 83
REMARK SMILES IDX 48 86 32 88 33 89 41 90 34 91 35 92 39 93 42 94 36 95 37 96
REMARK SMILES IDX 40 97 38 98 64 99 65 100 73 101 66 102 67 103 71 104 74 105
REMARK SMILES IDX 68 106 69 107 72 108 70 109 49 110 50 111 58 112 51 113
REMARK SMILES IDX 52 114 56 115 59 116 53 117 54 118 57 119 55 120
REMARK H PARENT 16 2 16 3 15 5 15 6 14 8 14 9 13 13 3 16 4 17 6 22 12 24 7 26
REMARK H PARENT 11 28 9 30 17 32 17 33 18 35 18 36 19 38 19 39 20 42 24 48
REMARK H PARENT 85 50 25 52 84 53 83 63 77 65 79 67 82 69 76 70 44 79 47 81
REMARK H PARENT 80 84 45 85 81 87
REMARK Flexibility Score: inf
ROOT
ATOM      1  C   UNL A   1      35.487  33.880  28.751  1.00  0.00    -0.052 C 
ATOM      2  H   UNL A   1      36.500  34.168  28.946  1.00  0.00     0.027 H 
ATOM      3  H   UNL A   1      34.899  33.750  29.635  1.00  0.00     0.027 H 
ENDROOT
BRANCH   1   4
ATOM      4  C   UNL A   1      35.512  32.510  28.056  1.00  0.00    -0.036 C 
ATOM      5  H   UNL A   1      35.489  32.673  26.998  1.00  0.00     0.028 H 
ATOM      6  H   UNL A   1      36.403  32.019  28.387  1.00  0.00     0.028 H 
BRANCH   4   7
ATOM      7  C   UNL A   1      34.349  31.587  28.421  1.00  0.00     0.018 C 
ATOM      8  H   UNL A   1      34.508  31.198  29.405  1.00  0.00     0.049 H 
ATOM      9  H   UNL A   1      33.443  32.154  28.378  1.00  0.00     0.049 H 
BRANCH   7  10
ATOM     10  N   UNL A   1      34.236  30.482  27.492  1.00  0.00    -0.353 N 
ATOM     11  O   UNL A   1      32.140  31.008  26.725  1.00  0.00    -0.270 OA
ATOM     12  C   UNL A   1      33.104  30.251  26.760  1.00  0.00     0.243 C 
ATOM     13  H   UNL A   1      35.003  29.874  27.383  1.00  0.00     0.163 HD
BRANCH  12  14
ATOM     14  C   UNL A   1      33.072  28.999  25.961  1.00  0.00     0.003 C 
ATOM     15  C   UNL A   1      33.592  28.825  24.735  1.00  0.00    -0.049 C 
ATOM     16  H   UNL A   1      32.604  28.185  26.388  1.00  0.00     0.068 H 
ATOM     17  H   UNL A   1      33.977  29.643  24.237  1.00  0.00     0.063 H 
BRANCH  15  18
ATOM     18  C   UNL A   1      33.635  27.511  24.078  1.00  0.00    -0.022 A 
ATOM     19  C   UNL A   1      33.920  26.328  24.781  1.00  0.00    -0.051 A 
ATOM     20  C   UNL A   1      33.367  27.443  22.706  1.00  0.00    -0.009 A 
ATOM     21  C   UNL A   1      33.976  25.097  24.117  1.00  0.00    -0.016 A 
ATOM     22  H   UNL A   1      34.088  26.368  25.798  1.00  0.00     0.063 H 
ATOM     23  C   UNL A   1      33.428  26.219  22.055  1.00  0.00     0.157 A 
ATOM     24  H   UNL A   1      33.126  28.298  22.180  1.00  0.00     0.067 H 
ATOM     25  C   UNL A   1      33.736  25.054  22.751  1.00  0.00     0.157 A 
ATOM     26  H   UNL A   1      34.193  24.232  24.638  1.00  0.00     0.066 H 
BRANCH  23  27
ATOM     27  O   UNL A   1      33.190  26.169  20.711  1.00  0.00    -0.504 OA
ATOM     28  H   UNL A   1      33.843  25.829  20.131  1.00  0.00     0.293 HD
ENDBRANCH  23  27
BRANCH  25  29
ATOM     29  O   UNL A   1      33.794  23.887  22.041  1.00  0.00    -0.504 OA
ATOM     30  H   UNL A   1      34.604  23.420  21.972  1.00  0.00     0.293 HD
ENDBRANCH  25  29
ENDBRANCH  15  18
ENDBRANCH  12  14
ENDBRANCH   7  10
ENDBRANCH   4   7
ENDBRANCH   1   4
BRANCH   1  31
ATOM     31  C   UNL A   1      34.818  35.007  27.959  1.00  0.00    -0.052 C 
ATOM     32  H   UNL A   1      34.288  34.567  27.141  1.00  0.00     0.027 H 
ATOM     33  H   UNL A   1      35.607  35.664  27.656  1.00  0.00     0.027 H 
BRANCH  31  34
ATOM     34  C   UNL A   1      33.834  35.866  28.754  1.00  0.00    -0.036 C 
ATOM     35  H   UNL A   1      33.192  36.366  28.059  1.00  0.00     0.028 H 
ATOM     36  H   UNL A   1      34.426  36.536  29.341  1.00  0.00     0.028 H 
BRANCH  34  37
ATOM     37  C   UNL A   1      32.959  35.096  29.737  1.00  0.00     0.018 C 
ATOM     38  H   UNL A   1      33.547  34.324  30.188  1.00  0.00     0.049 H 
ATOM     39  H   UNL A   1      32.133  34.692  29.189  1.00  0.00     0.049 H 
BRANCH  37  40
ATOM     40  N   UNL A   1      32.416  35.944  30.788  1.00  0.00    -0.352 N 
ATOM     41  C   UNL A   1      32.760  36.003  32.118  1.00  0.00     0.251 C 
ATOM     42  H   UNL A   1      31.704  36.561  30.508  1.00  0.00     0.163 HD
ATOM     43  O   UNL A   1      32.090  36.666  32.904  1.00  0.00    -0.269 OA
BRANCH  41  44
ATOM     44  C   UNL A   1      33.927  35.240  32.607  1.00  0.00     0.039 A 
ATOM     45  C   UNL A   1      33.725  33.986  33.189  1.00  0.00    -0.049 A 
ATOM     46  C   UNL A   1      35.220  35.755  32.479  1.00  0.00    -0.049 A 
ATOM     47  C   UNL A   1      34.824  33.216  33.576  1.00  0.00    -0.053 A 
ATOM     48  H   UNL A   1      32.767  33.629  33.332  1.00  0.00     0.063 H 
ATOM     49  C   UNL A   1      36.316  34.958  32.797  1.00  0.00    -0.053 A 
ATOM     50  H   UNL A   1      35.362  36.722  32.149  1.00  0.00     0.063 H 
ATOM     51  C   UNL A   1      36.130  33.679  33.348  1.00  0.00    -0.014 A 
ATOM     52  H   UNL A   1      34.677  32.301  34.032  1.00  0.00     0.063 H 
ATOM     53  H   UNL A   1      37.271  35.309  32.629  1.00  0.00     0.063 H 
BRANCH  51  54
ATOM     54  C   UNL A   1      37.321  32.853  33.676  1.00  0.00     0.031 A 
ATOM     55  C   UNL A   1      38.093  33.121  34.939  1.00  0.00     0.074 A 
ATOM     56  C   UNL A   1      37.759  31.925  32.801  1.00  0.00     0.049 A 
ATOM     57  N   UNL A   1      39.228  32.607  35.343  1.00  0.00    -0.248 NA
ATOM     58  C   UNL A   1      37.530  34.122  35.859  1.00  0.00    -0.034 C 
ATOM     59  C   UNL A   1      37.120  31.594  31.526  1.00  0.00    -0.036 A 
ATOM     60  N   UNL A   1      38.859  31.104  32.841  1.00  0.00    -0.354 N 
ATOM     61  C   UNL A   1      39.524  33.241  36.542  1.00  0.00     0.074 A 
ATOM     62  C   UNL A   1      38.473  34.203  36.786  1.00  0.00    -0.034 C 
ATOM     63  H   UNL A   1      36.633  34.630  35.799  1.00  0.00     0.065 H 
ATOM     64  C   UNL A   1      37.832  30.635  30.911  1.00  0.00    -0.036 A 
ATOM     65  H   UNL A   1      36.259  32.028  31.159  1.00  0.00     0.065 H 
ATOM     66  C   UNL A   1      39.002  30.316  31.723  1.00  0.00     0.049 A 
ATOM     67  H   UNL A   1      39.488  31.082  33.599  1.00  0.00     0.167 HD
ATOM     68  C   UNL A   1      40.573  33.026  37.372  1.00  0.00     0.037 A 
ATOM     69  H   UNL A   1      38.460  34.866  37.578  1.00  0.00     0.065 H 
ATOM     70  H   UNL A   1      37.590  30.195  30.010  1.00  0.00     0.065 H 
ATOM     71  C   UNL A   1      39.978  29.450  31.384  1.00  0.00     0.037 A 
ATOM     72  C   UNL A   1      41.592  32.035  37.150  1.00  0.00     0.049 A 
ATOM     73  C   UNL A   1      41.135  29.241  32.327  1.00  0.00     0.074 A 
ATOM     74  C   UNL A   1      42.648  31.687  37.974  1.00  0.00    -0.036 A 
ATOM     75  N   UNL A   1      41.684  31.235  36.021  1.00  0.00    -0.354 N 
ATOM     76  N   UNL A   1      41.363  29.790  33.494  1.00  0.00    -0.248 NA
ATOM     77  C   UNL A   1      42.172  28.287  31.904  1.00  0.00    -0.034 C 
ATOM     78  C   UNL A   1      43.411  30.716  37.320  1.00  0.00    -0.036 A 
ATOM     79  H   UNL A   1      42.838  32.077  38.910  1.00  0.00     0.065 H 
ATOM     80  C   UNL A   1      42.796  30.414  36.116  1.00  0.00     0.049 A 
ATOM     81  H   UNL A   1      41.054  31.249  35.265  1.00  0.00     0.167 HD
ATOM     82  C   UNL A   1      42.538  29.217  33.963  1.00  0.00     0.074 A 
ATOM     83  C   UNL A   1      42.974  28.273  32.958  1.00  0.00    -0.034 C 
ATOM     84  H   UNL A   1      42.253  27.766  31.017  1.00  0.00     0.065 H 
ATOM     85  H   UNL A   1      44.285  30.296  37.674  1.00  0.00     0.065 H 
ATOM     86  C   UNL A   1      43.198  29.453  35.123  1.00  0.00     0.037 A 
ATOM     87  H   UNL A   1      43.803  27.666  33.050  1.00  0.00     0.065 H 
BRANCH  68  88
ATOM     88  C   UNL A   1      40.681  33.869  38.609  1.00  0.00     0.064 A 
ATOM     89  C   UNL A   1      41.417  35.062  38.627  1.00  0.00     0.173 A 
ATOM     90  C   UNL A   1      39.966  33.522  39.766  1.00  0.00     0.173 A 
ATOM     91  F   UNL A   1      42.126  35.434  37.550  1.00  0.00    -0.203 F 
ATOM     92  C   UNL A   1      41.444  35.869  39.761  1.00  0.00     0.198 A 
ATOM     93  C   UNL A   1      39.970  34.346  40.887  1.00  0.00     0.198 A 
ATOM     94  F   UNL A   1      39.240  32.393  39.798  1.00  0.00    -0.203 F 
ATOM     95  F   UNL A   1      42.180  36.990  39.766  1.00  0.00    -0.200 F 
ATOM     96  C   UNL A   1      40.712  35.517  40.884  1.00  0.00     0.200 A 
ATOM     97  F   UNL A   1      39.249  34.012  41.965  1.00  0.00    -0.200 F 
ATOM     98  F   UNL A   1      40.721  36.307  41.967  1.00  0.00    -0.200 F 
ENDBRANCH  68  88
BRANCH  71  99
ATOM     99  C   UNL A   1      39.917  28.709  30.095  1.00  0.00     0.064 A 
ATOM    100  C   UNL A   1      39.335  27.434  30.024  1.00  0.00     0.173 A 
ATOM    101  C   UNL A   1      40.485  29.230  28.922  1.00  0.00     0.173 A 
ATOM    102  F   UNL A   1      38.798  26.882  31.122  1.00  0.00    -0.203 F 
ATOM    103  C   UNL A   1      39.362  26.693  28.844  1.00  0.00     0.198 A 
ATOM    104  C   UNL A   1      40.480  28.502  27.734  1.00  0.00     0.198 A 
ATOM    105  F   UNL A   1      41.050  30.445  28.932  1.00  0.00    -0.203 F 
ATOM    106  F   UNL A   1      38.863  25.450  28.825  1.00  0.00    -0.200 F 
ATOM    107  C   UNL A   1      39.932  27.228  27.699  1.00  0.00     0.200 A 
ATOM    108  F   UNL A   1      41.018  29.028  26.626  1.00  0.00    -0.200 F 
ATOM    109  F   UNL A   1      39.966  26.512  26.568  1.00  0.00    -0.200 F 
ENDBRANCH  71  99
BRANCH  86 110
ATOM    110  C   UNL A   1      44.423  28.634  35.407  1.00  0.00     0.064 A 
ATOM    111  C   UNL A   1      45.705  29.065  35.039  1.00  0.00     0.173 A 
ATOM    112  C   UNL A   1      44.313  27.425  36.114  1.00  0.00     0.173 A 
ATOM    113  F   UNL A   1      45.862  30.205  34.350  1.00  0.00    -0.203 F 
ATOM    114  C   UNL A   1      46.830  28.306  35.349  1.00  0.00     0.198 A 
ATOM    115  C   UNL A   1      45.442  26.686  36.450  1.00  0.00     0.198 A 
ATOM    116  F   UNL A   1      43.108  26.972  36.495  1.00  0.00    -0.203 F 
ATOM    117  F   UNL A   1      48.042  28.715  34.949  1.00  0.00    -0.200 F 
ATOM    118  C   UNL A   1      46.699  27.123  36.062  1.00  0.00     0.200 A 
ATOM    119  F   UNL A   1      45.315  25.553  37.155  1.00  0.00    -0.200 F 
ATOM    120  F   UNL A   1      47.785  26.402  36.373  1.00  0.00    -0.200 F 
ENDBRANCH  86 110
ENDBRANCH  51  54
ENDBRANCH  41  44
ENDBRANCH  37  40
ENDBRANCH  34  37
ENDBRANCH  31  34
ENDBRANCH   1  31
TORSDOF 16
ENDMDL
MODEL 4
REMARK VINA RESULT:     -11.5      5.490     11.386
REMARK SMILES O=C(/C=C/c1ccc(O)c(O)c1)NCCCCCCNC(=O)c1ccc(-c2c3nc(c(-c4c(F)c(F)c(F)c(F)c4F)c4ccc([nH]4)c(-c4c(F)c(F)c(F)c(F)c4F)c4nc(c(-c5c(F)c(F)c(F)c(F)c5F)c5ccc2[nH]5)C=C4)C=C3)cc1
REMARK SMILES IDX 16 1 15 4 14 7 13 10 1 11 2 12 3 14 4 15 5 18 6 19 12 20
REMARK SMILES IDX 7 21 10 23 8 25 11 27 9 29 17 31 18 34 19 37 20 40 21 41
REMARK SMILES IDX 22 43 23 44 24 45 85 46 25 47 84 49 26 51 27 54 28 55 78 56
REMARK SMILES IDX 29 57 83 58 77 59 79 60 30 61 82 62 76 64 75 66 31 68 63 71
REMARK SMILES IDX 43 72 62 73 44 74 47 75 61 76 80 77 45 78 46 80 60 82 81 83
REMARK SMILES IDX 48 86 32 88 33 89 41 90 34 91 35 92 39 93 42 94 36 95 37 96
REMARK SMILES IDX 40 97 38 98 64 99 65 100 73 101 66 102 67 103 71 104 74 105
REMARK SMILES IDX 68 106 69 107 72 108 70 109 49 110 50 111 58 112 51 113
REMARK SMILES IDX 52 114 56 115 59 116 53 117 54 118 57 119 55 120
REMARK H PARENT 16 2 16 3 15 5 15 6 14 8 14 9 13 13 3 16 4 17 6 22 12 24 7 26
REMARK H PARENT 11 28 9 30 17 32 17 33 18 35 18 36 19 38 19 39 20 42 24 48
REMARK H PARENT 85 50 25 52 84 53 83 63 77 65 79 67 82 69 76 70 44 79 47 81
REMARK H PARENT 80 84 45 85 81 87
REMARK Flexibility Score: inf
ROOT
ATOM      1  C   UNL A   1      37.346  22.245  24.717  1.00  0.00    -0.052 C 
ATOM      2  H   UNL A   1      37.112  22.811  25.596  1.00  0.00     0.027 H 
ATOM      3  H   UNL A   1      38.393  22.194  24.505  1.00  0.00     0.027 H 
ENDROOT
BRANCH   1   4
ATOM      4  C   UNL A   1      36.706  22.954  23.515  1.00  0.00    -0.036 C 
ATOM      5  H   UNL A   1      37.019  23.978  23.525  1.00  0.00     0.028 H 
ATOM      6  H   UNL A   1      37.030  22.424  22.644  1.00  0.00     0.028 H 
BRANCH   4   7
ATOM      7  C   UNL A   1      35.177  22.924  23.495  1.00  0.00     0.018 C 
ATOM      8  H   UNL A   1      34.846  22.677  22.508  1.00  0.00     0.049 H 
ATOM      9  H   UNL A   1      34.845  22.192  24.201  1.00  0.00     0.049 H 
BRANCH   7  10
ATOM     10  N   UNL A   1      34.616  24.205  23.872  1.00  0.00    -0.353 N 
ATOM     11  O   UNL A   1      34.246  23.680  26.074  1.00  0.00    -0.270 OA
ATOM     12  C   UNL A   1      34.138  24.454  25.129  1.00  0.00     0.243 C 
ATOM     13  H   UNL A   1      34.577  24.922  23.199  1.00  0.00     0.163 HD
BRANCH  12  14
ATOM     14  C   UNL A   1      33.455  25.758  25.335  1.00  0.00     0.003 C 
ATOM     15  C   UNL A   1      33.934  26.806  26.024  1.00  0.00    -0.049 C 
ATOM     16  H   UNL A   1      32.522  25.868  24.908  1.00  0.00     0.068 H 
ATOM     17  H   UNL A   1      34.816  26.696  26.548  1.00  0.00     0.063 H 
BRANCH  15  18
ATOM     18  C   UNL A   1      33.248  28.105  26.058  1.00  0.00    -0.022 A 
ATOM     19  C   UNL A   1      33.401  29.008  27.124  1.00  0.00    -0.051 A 
ATOM     20  C   UNL A   1      32.425  28.454  24.980  1.00  0.00    -0.009 A 
ATOM     21  C   UNL A   1      32.712  30.227  27.135  1.00  0.00    -0.016 A 
ATOM     22  H   UNL A   1      34.029  28.770  27.907  1.00  0.00     0.063 H 
ATOM     23  C   UNL A   1      31.744  29.663  24.999  1.00  0.00     0.157 A 
ATOM     24  H   UNL A   1      32.326  27.816  24.174  1.00  0.00     0.067 H 
ATOM     25  C   UNL A   1      31.879  30.542  26.070  1.00  0.00     0.157 A 
ATOM     26  H   UNL A   1      32.822  30.882  27.924  1.00  0.00     0.066 H 
BRANCH  23  27
ATOM     27  O   UNL A   1      30.925  29.981  23.953  1.00  0.00    -0.504 OA
ATOM     28  H   UNL A   1      31.080  29.611  23.107  1.00  0.00     0.293 HD
ENDBRANCH  23  27
BRANCH  25  29
ATOM     29  O   UNL A   1      31.164  31.707  26.028  1.00  0.00    -0.504 OA
ATOM     30  H   UNL A   1      31.281  32.353  26.698  1.00  0.00     0.293 HD
ENDBRANCH  25  29
ENDBRANCH  15  18
ENDBRANCH  12  14
ENDBRANCH   7  10
ENDBRANCH   4   7
ENDBRANCH   1   4
BRANCH   1  31
ATOM     31  C   UNL A   1      36.890  20.801  24.949  1.00  0.00    -0.052 C 
ATOM     32  H   UNL A   1      36.215  20.537  24.163  1.00  0.00     0.027 H 
ATOM     33  H   UNL A   1      36.442  20.785  25.921  1.00  0.00     0.027 H 
BRANCH  31  34
ATOM     34  C   UNL A   1      38.011  19.762  24.982  1.00  0.00    -0.036 C 
ATOM     35  H   UNL A   1      38.311  19.565  23.974  1.00  0.00     0.028 H 
ATOM     36  H   UNL A   1      37.610  18.904  25.479  1.00  0.00     0.028 H 
BRANCH  34  37
ATOM     37  C   UNL A   1      39.247  20.176  25.773  1.00  0.00     0.018 C 
ATOM     38  H   UNL A   1      38.945  20.453  26.761  1.00  0.00     0.049 H 
ATOM     39  H   UNL A   1      39.703  20.995  25.256  1.00  0.00     0.049 H 
BRANCH  37  40
ATOM     40  N   UNL A   1      40.234  19.110  25.868  1.00  0.00    -0.352 N 
ATOM     41  C   UNL A   1      41.585  19.199  26.108  1.00  0.00     0.251 C 
ATOM     42  H   UNL A   1      39.886  18.199  25.743  1.00  0.00     0.163 HD
ATOM     43  O   UNL A   1      42.302  18.209  25.997  1.00  0.00    -0.269 OA
BRANCH  41  44
ATOM     44  C   UNL A   1      42.179  20.501  26.474  1.00  0.00     0.039 A 
ATOM     45  C   UNL A   1      42.727  21.305  25.470  1.00  0.00    -0.049 A 
ATOM     46  C   UNL A   1      42.184  20.934  27.802  1.00  0.00    -0.049 A 
ATOM     47  C   UNL A   1      43.213  22.575  25.788  1.00  0.00    -0.053 A 
ATOM     48  H   UNL A   1      42.771  20.962  24.498  1.00  0.00     0.063 H 
ATOM     49  C   UNL A   1      42.602  22.227  28.106  1.00  0.00    -0.053 A 
ATOM     50  H   UNL A   1      41.879  20.299  28.556  1.00  0.00     0.063 H 
ATOM     51  C   UNL A   1      43.120  23.062  27.101  1.00  0.00    -0.014 A 
ATOM     52  H   UNL A   1      43.644  23.159  25.054  1.00  0.00     0.063 H 
ATOM     53  H   UNL A   1      42.532  22.574  29.074  1.00  0.00     0.063 H 
BRANCH  51  54
ATOM     54  C   UNL A   1      43.556  24.438  27.458  1.00  0.00     0.031 A 
ATOM     55  C   UNL A   1      42.540  25.453  27.908  1.00  0.00     0.074 A 
ATOM     56  C   UNL A   1      44.845  24.798  27.296  1.00  0.00     0.049 A 
ATOM     57  N   UNL A   1      42.692  26.733  28.138  1.00  0.00    -0.248 NA
ATOM     58  C   UNL A   1      41.162  24.971  28.096  1.00  0.00    -0.034 C 
ATOM     59  C   UNL A   1      45.920  23.918  26.834  1.00  0.00    -0.036 A 
ATOM     60  N   UNL A   1      45.467  26.009  27.480  1.00  0.00    -0.354 N 
ATOM     61  C   UNL A   1      41.431  27.210  28.468  1.00  0.00     0.074 A 
ATOM     62  C   UNL A   1      40.516  26.094  28.375  1.00  0.00    -0.034 C 
ATOM     63  H   UNL A   1      40.794  24.009  28.030  1.00  0.00     0.065 H 
ATOM     64  C   UNL A   1      47.068  24.613  26.780  1.00  0.00    -0.036 A 
ATOM     65  H   UNL A   1      45.813  22.921  26.589  1.00  0.00     0.065 H 
ATOM     66  C   UNL A   1      46.804  25.998  27.157  1.00  0.00     0.049 A 
ATOM     67  H   UNL A   1      45.000  26.810  27.810  1.00  0.00     0.167 HD
ATOM     68  C   UNL A   1      41.073  28.464  28.832  1.00  0.00     0.037 A 
ATOM     69  H   UNL A   1      39.494  26.164  28.506  1.00  0.00     0.065 H 
ATOM     70  H   UNL A   1      47.988  24.230  26.515  1.00  0.00     0.065 H 
ATOM     71  C   UNL A   1      47.708  26.998  27.148  1.00  0.00     0.037 A 
ATOM     72  C   UNL A   1      41.994  29.561  28.969  1.00  0.00     0.049 A 
ATOM     73  C   UNL A   1      47.274  28.385  27.550  1.00  0.00     0.074 A 
ATOM     74  C   UNL A   1      41.739  30.848  29.411  1.00  0.00    -0.036 A 
ATOM     75  N   UNL A   1      43.345  29.503  28.663  1.00  0.00    -0.354 N 
ATOM     76  N   UNL A   1      46.095  28.805  27.936  1.00  0.00    -0.248 NA
ATOM     77  C   UNL A   1      48.301  29.437  27.518  1.00  0.00    -0.034 C 
ATOM     78  C   UNL A   1      42.924  31.583  29.320  1.00  0.00    -0.036 A 
ATOM     79  H   UNL A   1      40.831  31.202  29.749  1.00  0.00     0.065 H 
ATOM     80  C   UNL A   1      43.931  30.739  28.881  1.00  0.00     0.049 A 
ATOM     81  H   UNL A   1      43.817  28.702  28.339  1.00  0.00     0.167 HD
ATOM     82  C   UNL A   1      46.248  30.153  28.234  1.00  0.00     0.074 A 
ATOM     83  C   UNL A   1      47.636  30.480  27.992  1.00  0.00    -0.034 C 
ATOM     84  H   UNL A   1      49.283  29.378  27.208  1.00  0.00     0.065 H 
ATOM     85  H   UNL A   1      43.030  32.586  29.543  1.00  0.00     0.065 H 
ATOM     86  C   UNL A   1      45.322  31.041  28.670  1.00  0.00     0.037 A 
ATOM     87  H   UNL A   1      48.055  31.407  28.167  1.00  0.00     0.065 H 
BRANCH  68  88
ATOM     88  C   UNL A   1      39.624  28.732  29.117  1.00  0.00     0.064 A 
ATOM     89  C   UNL A   1      39.079  28.559  30.397  1.00  0.00     0.173 A 
ATOM     90  C   UNL A   1      38.792  29.252  28.113  1.00  0.00     0.173 A 
ATOM     91  F   UNL A   1      39.830  28.055  31.388  1.00  0.00    -0.203 F 
ATOM     92  C   UNL A   1      37.751  28.884  30.659  1.00  0.00     0.198 A 
ATOM     93  C   UNL A   1      37.473  29.605  28.386  1.00  0.00     0.198 A 
ATOM     94  F   UNL A   1      39.267  29.444  26.873  1.00  0.00    -0.203 F 
ATOM     95  F   UNL A   1      37.242  28.681  31.882  1.00  0.00    -0.200 F 
ATOM     96  C   UNL A   1      36.954  29.417  29.657  1.00  0.00     0.200 A 
ATOM     97  F   UNL A   1      36.710  30.135  27.422  1.00  0.00    -0.200 F 
ATOM     98  F   UNL A   1      35.681  29.751  29.918  1.00  0.00    -0.200 F 
ENDBRANCH  68  88
BRANCH  71  99
ATOM     99  C   UNL A   1      49.117  26.741  26.745  1.00  0.00     0.064 A 
ATOM    100  C   UNL A   1      49.515  26.856  25.404  1.00  0.00     0.173 A 
ATOM    101  C   UNL A   1      50.080  26.321  27.675  1.00  0.00     0.173 A 
ATOM    102  F   UNL A   1      48.627  27.233  24.473  1.00  0.00    -0.203 F 
ATOM    103  C   UNL A   1      50.808  26.522  25.004  1.00  0.00     0.198 A 
ATOM    104  C   UNL A   1      51.382  26.020  27.278  1.00  0.00     0.198 A 
ATOM    105  F   UNL A   1      49.755  26.197  28.969  1.00  0.00    -0.203 F 
ATOM    106  F   UNL A   1      51.139  26.574  23.707  1.00  0.00    -0.200 F 
ATOM    107  C   UNL A   1      51.741  26.107  25.941  1.00  0.00     0.200 A 
ATOM    108  F   UNL A   1      52.285  25.634  28.189  1.00  0.00    -0.200 F 
ATOM    109  F   UNL A   1      52.980  25.776  25.555  1.00  0.00    -0.200 F 
ENDBRANCH  71  99
BRANCH  86 110
ATOM    110  C   UNL A   1      45.783  32.435  28.981  1.00  0.00     0.064 A 
ATOM    111  C   UNL A   1      46.272  32.789  30.246  1.00  0.00     0.173 A 
ATOM    112  C   UNL A   1      45.791  33.414  27.975  1.00  0.00     0.173 A 
ATOM    113  F   UNL A   1      46.272  31.893  31.245  1.00  0.00    -0.203 F 
ATOM    114  C   UNL A   1      46.732  34.078  30.499  1.00  0.00     0.198 A 
ATOM    115  C   UNL A   1      46.281  34.692  28.222  1.00  0.00     0.198 A 
ATOM    116  F   UNL A   1      45.340  33.124  26.744  1.00  0.00    -0.203 F 
ATOM    117  F   UNL A   1      47.153  34.408  31.727  1.00  0.00    -0.200 F 
ATOM    118  C   UNL A   1      46.745  35.025  29.485  1.00  0.00     0.200 A 
ATOM    119  F   UNL A   1      46.310  35.601  27.237  1.00  0.00    -0.200 F 
ATOM    120  F   UNL A   1      47.203  36.261  29.727  1.00  0.00    -0.200 F 
ENDBRANCH  86 110
ENDBRANCH  51  54
ENDBRANCH  41  44
ENDBRANCH  37  40
ENDBRANCH  34  37
ENDBRANCH  31  34
ENDBRANCH   1  31
TORSDOF 16
ENDMDL
MODEL 5
REMARK VINA RESULT:     -11.5      4.925     10.185
REMARK SMILES O=C(/C=C/c1ccc(O)c(O)c1)NCCCCCCNC(=O)c1ccc(-c2c3nc(c(-c4c(F)c(F)c(F)c(F)c4F)c4ccc([nH]4)c(-c4c(F)c(F)c(F)c(F)c4F)c4nc(c(-c5c(F)c(F)c(F)c(F)c5F)c5ccc2[nH]5)C=C4)C=C3)cc1
REMARK SMILES IDX 16 1 15 4 14 7 13 10 1 11 2 12 3 14 4 15 5 18 6 19 12 20
REMARK SMILES IDX 7 21 10 23 8 25 11 27 9 29 17 31 18 34 19 37 20 40 21 41
REMARK SMILES IDX 22 43 23 44 24 45 85 46 25 47 84 49 26 51 27 54 28 55 78 56
REMARK SMILES IDX 29 57 83 58 77 59 79 60 30 61 82 62 76 64 75 66 31 68 63 71
REMARK SMILES IDX 43 72 62 73 44 74 47 75 61 76 80 77 45 78 46 80 60 82 81 83
REMARK SMILES IDX 48 86 32 88 33 89 41 90 34 91 35 92 39 93 42 94 36 95 37 96
REMARK SMILES IDX 40 97 38 98 64 99 65 100 73 101 66 102 67 103 71 104 74 105
REMARK SMILES IDX 68 106 69 107 72 108 70 109 49 110 50 111 58 112 51 113
REMARK SMILES IDX 52 114 56 115 59 116 53 117 54 118 57 119 55 120
REMARK H PARENT 16 2 16 3 15 5 15 6 14 8 14 9 13 13 3 16 4 17 6 22 12 24 7 26
REMARK H PARENT 11 28 9 30 17 32 17 33 18 35 18 36 19 38 19 39 20 42 24 48
REMARK H PARENT 85 50 25 52 84 53 83 63 77 65 79 67 82 69 76 70 44 79 47 81
REMARK H PARENT 80 84 45 85 81 87
REMARK Flexibility Score: inf
ROOT
ATOM      1  C   UNL A   1      34.587  25.089  25.755  1.00  0.00    -0.052 C 
ATOM      2  H   UNL A   1      34.344  24.286  26.420  1.00  0.00     0.027 H 
ATOM      3  H   UNL A   1      35.363  25.729  26.119  1.00  0.00     0.027 H 
ENDROOT
BRANCH   1   4
ATOM      4  C   UNL A   1      33.342  25.976  25.610  1.00  0.00    -0.036 C 
ATOM      5  H   UNL A   1      33.397  26.751  26.346  1.00  0.00     0.028 H 
ATOM      6  H   UNL A   1      33.351  26.347  24.606  1.00  0.00     0.028 H 
BRANCH   4   7
ATOM      7  C   UNL A   1      32.011  25.243  25.788  1.00  0.00     0.018 C 
ATOM      8  H   UNL A   1      31.730  25.279  26.820  1.00  0.00     0.049 H 
ATOM      9  H   UNL A   1      31.278  25.725  25.177  1.00  0.00     0.049 H 
BRANCH   7  10
ATOM     10  N   UNL A   1      32.108  23.858  25.375  1.00  0.00    -0.353 N 
ATOM     11  O   UNL A   1      31.678  22.949  27.436  1.00  0.00    -0.270 OA
ATOM     12  C   UNL A   1      31.992  22.820  26.258  1.00  0.00     0.243 C 
ATOM     13  H   UNL A   1      32.265  23.657  24.424  1.00  0.00     0.163 HD
BRANCH  12  14
ATOM     14  C   UNL A   1      32.261  21.460  25.724  1.00  0.00     0.003 C 
ATOM     15  C   UNL A   1      32.553  21.148  24.451  1.00  0.00    -0.049 C 
ATOM     16  H   UNL A   1      32.218  20.678  26.397  1.00  0.00     0.068 H 
ATOM     17  H   UNL A   1      32.504  21.889  23.734  1.00  0.00     0.063 H 
BRANCH  15  18
ATOM     18  C   UNL A   1      32.940  19.791  24.042  1.00  0.00    -0.022 A 
ATOM     19  C   UNL A   1      32.261  19.089  23.031  1.00  0.00    -0.051 A 
ATOM     20  C   UNL A   1      34.032  19.188  24.677  1.00  0.00    -0.009 A 
ATOM     21  C   UNL A   1      32.643  17.787  22.684  1.00  0.00    -0.016 A 
ATOM     22  H   UNL A   1      31.475  19.539  22.538  1.00  0.00     0.063 H 
ATOM     23  C   UNL A   1      34.402  17.897  24.329  1.00  0.00     0.157 A 
ATOM     24  H   UNL A   1      34.561  19.702  25.400  1.00  0.00     0.067 H 
ATOM     25  C   UNL A   1      33.710  17.196  23.345  1.00  0.00     0.157 A 
ATOM     26  H   UNL A   1      32.136  17.274  21.945  1.00  0.00     0.066 H 
BRANCH  23  27
ATOM     27  O   UNL A   1      35.453  17.310  24.974  1.00  0.00    -0.504 OA
ATOM     28  H   UNL A   1      36.279  17.221  24.540  1.00  0.00     0.293 HD
ENDBRANCH  23  27
BRANCH  25  29
ATOM     29  O   UNL A   1      34.120  15.922  23.066  1.00  0.00    -0.504 OA
ATOM     30  H   UNL A   1      34.220  15.646  22.176  1.00  0.00     0.293 HD
ENDBRANCH  25  29
ENDBRANCH  15  18
ENDBRANCH  12  14
ENDBRANCH   7  10
ENDBRANCH   4   7
ENDBRANCH   1   4
BRANCH   1  31
ATOM     31  C   UNL A   1      35.117  24.480  24.453  1.00  0.00    -0.052 C 
ATOM     32  H   UNL A   1      35.950  25.066  24.128  1.00  0.00     0.027 H 
ATOM     33  H   UNL A   1      34.295  24.487  23.768  1.00  0.00     0.027 H 
BRANCH  31  34
ATOM     34  C   UNL A   1      35.572  23.023  24.553  1.00  0.00    -0.036 C 
ATOM     35  H   UNL A   1      36.295  22.848  23.785  1.00  0.00     0.028 H 
ATOM     36  H   UNL A   1      34.691  22.425  24.450  1.00  0.00     0.028 H 
BRANCH  34  37
ATOM     37  C   UNL A   1      36.196  22.637  25.889  1.00  0.00     0.018 C 
ATOM     38  H   UNL A   1      35.415  22.360  26.566  1.00  0.00     0.049 H 
ATOM     39  H   UNL A   1      36.746  23.483  26.247  1.00  0.00     0.049 H 
BRANCH  37  40
ATOM     40  N   UNL A   1      37.129  21.525  25.772  1.00  0.00    -0.352 N 
ATOM     41  C   UNL A   1      38.492  21.514  25.949  1.00  0.00     0.251 C 
ATOM     42  H   UNL A   1      36.726  20.660  25.531  1.00  0.00     0.163 HD
ATOM     43  O   UNL A   1      39.149  20.520  25.653  1.00  0.00    -0.269 OA
BRANCH  41  44
ATOM     44  C   UNL A   1      39.171  22.717  26.472  1.00  0.00     0.039 A 
ATOM     45  C   UNL A   1      40.203  22.564  27.403  1.00  0.00    -0.049 A 
ATOM     46  C   UNL A   1      38.801  23.992  26.036  1.00  0.00    -0.049 A 
ATOM     47  C   UNL A   1      40.913  23.685  27.840  1.00  0.00    -0.053 A 
ATOM     48  H   UNL A   1      40.441  21.627  27.764  1.00  0.00     0.063 H 
ATOM     49  C   UNL A   1      39.555  25.098  26.417  1.00  0.00    -0.053 A 
ATOM     50  H   UNL A   1      37.972  24.113  25.434  1.00  0.00     0.063 H 
ATOM     51  C   UNL A   1      40.621  24.956  27.322  1.00  0.00    -0.014 A 
ATOM     52  H   UNL A   1      41.657  23.578  28.548  1.00  0.00     0.063 H 
ATOM     53  H   UNL A   1      39.330  26.028  26.033  1.00  0.00     0.063 H 
BRANCH  51  54
ATOM     54  C   UNL A   1      41.406  26.158  27.708  1.00  0.00     0.031 A 
ATOM     55  C   UNL A   1      40.746  27.269  28.477  1.00  0.00     0.074 A 
ATOM     56  C   UNL A   1      42.683  26.289  27.293  1.00  0.00     0.049 A 
ATOM     57  N   UNL A   1      41.214  28.451  28.795  1.00  0.00    -0.248 NA
ATOM     58  C   UNL A   1      39.364  27.034  28.925  1.00  0.00    -0.034 C 
ATOM     59  C   UNL A   1      43.426  25.299  26.512  1.00  0.00    -0.036 A 
ATOM     60  N   UNL A   1      43.575  27.321  27.452  1.00  0.00    -0.354 N 
ATOM     61  C   UNL A   1      40.178  29.103  29.450  1.00  0.00     0.074 A 
ATOM     62  C   UNL A   1      39.045  28.205  29.456  1.00  0.00    -0.034 C 
ATOM     63  H   UNL A   1      38.792  26.178  28.848  1.00  0.00     0.065 H 
ATOM     64  C   UNL A   1      44.661  25.766  26.268  1.00  0.00    -0.036 A 
ATOM     65  H   UNL A   1      43.059  24.387  26.198  1.00  0.00     0.065 H 
ATOM     66  C   UNL A   1      44.785  27.105  26.833  1.00  0.00     0.049 A 
ATOM     67  H   UNL A   1      43.368  28.139  27.960  1.00  0.00     0.167 HD
ATOM     68  C   UNL A   1      40.181  30.336  30.011  1.00  0.00     0.037 A 
ATOM     69  H   UNL A   1      38.111  28.446  29.824  1.00  0.00     0.065 H 
ATOM     70  H   UNL A   1      45.405  25.259  25.763  1.00  0.00     0.065 H 
ATOM     71  C   UNL A   1      45.862  27.908  26.720  1.00  0.00     0.037 A 
ATOM     72  C   UNL A   1      41.325  31.208  30.045  1.00  0.00     0.049 A 
ATOM     73  C   UNL A   1      45.828  29.278  27.349  1.00  0.00     0.074 A 
ATOM     74  C   UNL A   1      41.448  32.441  30.662  1.00  0.00    -0.036 A 
ATOM     75  N   UNL A   1      42.541  30.941  29.435  1.00  0.00    -0.354 N 
ATOM     76  N   UNL A   1      44.870  29.852  28.033  1.00  0.00    -0.248 NA
ATOM     77  C   UNL A   1      47.030  30.111  27.190  1.00  0.00    -0.034 C 
ATOM     78  C   UNL A   1      42.720  32.945  30.378  1.00  0.00    -0.036 A 
ATOM     79  H   UNL A   1      40.726  32.907  31.232  1.00  0.00     0.065 H 
ATOM     80  C   UNL A   1      43.411  32.000  29.638  1.00  0.00     0.049 A 
ATOM     81  H   UNL A   1      42.754  30.121  28.933  1.00  0.00     0.167 HD
ATOM     82  C   UNL A   1      45.368  31.088  28.424  1.00  0.00     0.074 A 
ATOM     83  C   UNL A   1      46.715  31.180  27.906  1.00  0.00    -0.034 C 
ATOM     84  H   UNL A   1      47.892  29.914  26.659  1.00  0.00     0.065 H 
ATOM     85  H   UNL A   1      43.083  33.866  30.671  1.00  0.00     0.065 H 
ATOM     86  C   UNL A   1      44.762  32.061  29.146  1.00  0.00     0.037 A 
ATOM     87  H   UNL A   1      47.350  31.975  28.074  1.00  0.00     0.065 H 
BRANCH  68  88
ATOM     88  C   UNL A   1      38.913  30.827  30.645  1.00  0.00     0.064 A 
ATOM     89  C   UNL A   1      37.852  31.331  29.880  1.00  0.00     0.173 A 
ATOM     90  C   UNL A   1      38.725  30.711  32.031  1.00  0.00     0.173 A 
ATOM     91  F   UNL A   1      37.984  31.472  28.552  1.00  0.00    -0.203 F 
ATOM     92  C   UNL A   1      36.654  31.712  30.479  1.00  0.00     0.198 A 
ATOM     93  C   UNL A   1      37.516  31.064  32.624  1.00  0.00     0.198 A 
ATOM     94  F   UNL A   1      39.707  30.228  32.808  1.00  0.00    -0.203 F 
ATOM     95  F   UNL A   1      35.664  32.220  29.732  1.00  0.00    -0.200 F 
ATOM     96  C   UNL A   1      36.484  31.567  31.848  1.00  0.00     0.200 A 
ATOM     97  F   UNL A   1      37.348  30.908  33.944  1.00  0.00    -0.200 F 
ATOM     98  F   UNL A   1      35.322  31.913  32.420  1.00  0.00    -0.200 F 
ENDBRANCH  68  88
BRANCH  71  99
ATOM     99  C   UNL A   1      47.071  27.451  25.982  1.00  0.00     0.064 A 
ATOM    100  C   UNL A   1      48.164  26.895  26.665  1.00  0.00     0.173 A 
ATOM    101  C   UNL A   1      47.185  27.609  24.592  1.00  0.00     0.173 A 
ATOM    102  F   UNL A   1      48.113  26.743  27.996  1.00  0.00    -0.203 F 
ATOM    103  C   UNL A   1      49.337  26.556  25.993  1.00  0.00     0.198 A 
ATOM    104  C   UNL A   1      48.346  27.236  23.918  1.00  0.00     0.198 A 
ATOM    105  F   UNL A   1      46.170  28.130  23.890  1.00  0.00    -0.203 F 
ATOM    106  F   UNL A   1      50.390  26.094  26.682  1.00  0.00    -0.200 F 
ATOM    107  C   UNL A   1      49.427  26.724  24.620  1.00  0.00     0.200 A 
ATOM    108  F   UNL A   1      48.423  27.387  22.589  1.00  0.00    -0.200 F 
ATOM    109  F   UNL A   1      50.558  26.407  23.977  1.00  0.00    -0.200 F 
ENDBRANCH  71  99
BRANCH  86 110
ATOM    110  C   UNL A   1      45.567  33.283  29.483  1.00  0.00     0.064 A 
ATOM    111  C   UNL A   1      46.377  33.345  30.626  1.00  0.00     0.173 A 
ATOM    112  C   UNL A   1      45.570  34.385  28.614  1.00  0.00     0.173 A 
ATOM    113  F   UNL A   1      46.398  32.324  31.495  1.00  0.00    -0.203 F 
ATOM    114  C   UNL A   1      47.145  34.474  30.896  1.00  0.00     0.198 A 
ATOM    115  C   UNL A   1      46.364  35.498  28.871  1.00  0.00     0.198 A 
ATOM    116  F   UNL A   1      44.817  34.373  27.503  1.00  0.00    -0.203 F 
ATOM    117  F   UNL A   1      47.879  34.530  32.016  1.00  0.00    -0.200 F 
ATOM    118  C   UNL A   1      47.145  35.545  30.014  1.00  0.00     0.200 A 
ATOM    119  F   UNL A   1      46.376  36.525  28.008  1.00  0.00    -0.200 F 
ATOM    120  F   UNL A   1      47.898  36.625  30.269  1.00  0.00    -0.200 F 
ENDBRANCH  86 110
ENDBRANCH  51  54
ENDBRANCH  41  44
ENDBRANCH  37  40
ENDBRANCH  34  37
ENDBRANCH  31  34
ENDBRANCH   1  31
TORSDOF 16
ENDMDL
MODEL 6
REMARK VINA RESULT:     -11.4      5.385     10.848
REMARK SMILES O=C(/C=C/c1ccc(O)c(O)c1)NCCCCCCNC(=O)c1ccc(-c2c3nc(c(-c4c(F)c(F)c(F)c(F)c4F)c4ccc([nH]4)c(-c4c(F)c(F)c(F)c(F)c4F)c4nc(c(-c5c(F)c(F)c(F)c(F)c5F)c5ccc2[nH]5)C=C4)C=C3)cc1
REMARK SMILES IDX 16 1 15 4 14 7 13 10 1 11 2 12 3 14 4 15 5 18 6 19 12 20
REMARK SMILES IDX 7 21 10 23 8 25 11 27 9 29 17 31 18 34 19 37 20 40 21 41
REMARK SMILES IDX 22 43 23 44 24 45 85 46 25 47 84 49 26 51 27 54 28 55 78 56
REMARK SMILES IDX 29 57 83 58 77 59 79 60 30 61 82 62 76 64 75 66 31 68 63 71
REMARK SMILES IDX 43 72 62 73 44 74 47 75 61 76 80 77 45 78 46 80 60 82 81 83
REMARK SMILES IDX 48 86 32 88 33 89 41 90 34 91 35 92 39 93 42 94 36 95 37 96
REMARK SMILES IDX 40 97 38 98 64 99 65 100 73 101 66 102 67 103 71 104 74 105
REMARK SMILES IDX 68 106 69 107 72 108 70 109 49 110 50 111 58 112 51 113
REMARK SMILES IDX 52 114 56 115 59 116 53 117 54 118 57 119 55 120
REMARK H PARENT 16 2 16 3 15 5 15 6 14 8 14 9 13 13 3 16 4 17 6 22 12 24 7 26
REMARK H PARENT 11 28 9 30 17 32 17 33 18 35 18 36 19 38 19 39 20 42 24 48
REMARK H PARENT 85 50 25 52 84 53 83 63 77 65 79 67 82 69 76 70 44 79 47 81
REMARK H PARENT 80 84 45 85 81 87
REMARK Flexibility Score: inf
ROOT
ATOM      1  C   UNL A   1      45.107  19.546  23.851  1.00  0.00    -0.052 C 
ATOM      2  H   UNL A   1      46.068  19.292  24.249  1.00  0.00     0.027 H 
ATOM      3  H   UNL A   1      44.980  19.271  22.826  1.00  0.00     0.027 H 
ENDROOT
BRANCH   1   4
ATOM      4  C   UNL A   1      44.964  21.074  23.900  1.00  0.00    -0.036 C 
ATOM      5  H   UNL A   1      45.065  21.450  22.902  1.00  0.00     0.028 H 
ATOM      6  H   UNL A   1      44.005  21.274  24.330  1.00  0.00     0.028 H 
BRANCH   4   7
ATOM      7  C   UNL A   1      45.991  21.784  24.782  1.00  0.00     0.018 C 
ATOM      8  H   UNL A   1      46.095  21.244  25.700  1.00  0.00     0.049 H 
ATOM      9  H   UNL A   1      46.921  21.820  24.255  1.00  0.00     0.049 H 
BRANCH   7  10
ATOM     10  N   UNL A   1      45.585  23.142  25.081  1.00  0.00    -0.353 N 
ATOM     11  O   UNL A   1      47.222  24.172  23.846  1.00  0.00    -0.270 OA
ATOM     12  C   UNL A   1      46.281  24.231  24.631  1.00  0.00     0.243 C 
ATOM     13  H   UNL A   1      44.780  23.287  25.628  1.00  0.00     0.163 HD
BRANCH  12  14
ATOM     14  C   UNL A   1      45.840  25.557  25.135  1.00  0.00     0.003 C 
ATOM     15  C   UNL A   1      44.579  26.017  25.167  1.00  0.00    -0.049 C 
ATOM     16  H   UNL A   1      46.575  26.186  25.495  1.00  0.00     0.068 H 
ATOM     17  H   UNL A   1      43.834  25.457  24.723  1.00  0.00     0.063 H 
BRANCH  15  18
ATOM     18  C   UNL A   1      44.221  27.288  25.812  1.00  0.00    -0.022 A 
ATOM     19  C   UNL A   1      42.918  27.812  25.764  1.00  0.00    -0.051 A 
ATOM     20  C   UNL A   1      45.215  27.988  26.506  1.00  0.00    -0.009 A 
ATOM     21  C   UNL A   1      42.618  29.039  26.369  1.00  0.00    -0.016 A 
ATOM     22  H   UNL A   1      42.174  27.287  25.280  1.00  0.00     0.063 H 
ATOM     23  C   UNL A   1      44.910  29.203  27.101  1.00  0.00     0.157 A 
ATOM     24  H   UNL A   1      46.169  27.601  26.576  1.00  0.00     0.067 H 
ATOM     25  C   UNL A   1      43.624  29.732  27.029  1.00  0.00     0.157 A 
ATOM     26  H   UNL A   1      41.661  29.423  26.325  1.00  0.00     0.066 H 
BRANCH  23  27
ATOM     27  O   UNL A   1      45.894  29.889  27.754  1.00  0.00    -0.504 OA
ATOM     28  H   UNL A   1      46.711  29.471  27.943  1.00  0.00     0.293 HD
ENDBRANCH  23  27
BRANCH  25  29
ATOM     29  O   UNL A   1      43.401  30.943  27.624  1.00  0.00    -0.504 OA
ATOM     30  H   UNL A   1      44.126  31.473  27.894  1.00  0.00     0.293 HD
ENDBRANCH  25  29
ENDBRANCH  15  18
ENDBRANCH  12  14
ENDBRANCH   7  10
ENDBRANCH   4   7
ENDBRANCH   1   4
BRANCH   1  31
ATOM     31  C   UNL A   1      44.050  18.761  24.635  1.00  0.00    -0.052 C 
ATOM     32  H   UNL A   1      44.072  17.747  24.295  1.00  0.00     0.027 H 
ATOM     33  H   UNL A   1      43.119  19.255  24.450  1.00  0.00     0.027 H 
BRANCH  31  34
ATOM     34  C   UNL A   1      44.234  18.757  26.153  1.00  0.00    -0.036 C 
ATOM     35  H   UNL A   1      44.467  19.754  26.462  1.00  0.00     0.028 H 
ATOM     36  H   UNL A   1      45.017  18.057  26.359  1.00  0.00     0.028 H 
BRANCH  34  37
ATOM     37  C   UNL A   1      43.020  18.286  26.945  1.00  0.00     0.018 C 
ATOM     38  H   UNL A   1      42.974  18.835  27.862  1.00  0.00     0.049 H 
ATOM     39  H   UNL A   1      43.133  17.236  27.119  1.00  0.00     0.049 H 
BRANCH  37  40
ATOM     40  N   UNL A   1      41.770  18.480  26.223  1.00  0.00    -0.352 N 
ATOM     41  C   UNL A   1      40.992  19.608  26.126  1.00  0.00     0.251 C 
ATOM     42  H   UNL A   1      41.436  17.692  25.737  1.00  0.00     0.163 HD
ATOM     43  O   UNL A   1      39.882  19.555  25.605  1.00  0.00    -0.269 OA
BRANCH  41  44
ATOM     44  C   UNL A   1      41.485  20.888  26.677  1.00  0.00     0.039 A 
ATOM     45  C   UNL A   1      42.020  21.842  25.807  1.00  0.00    -0.049 A 
ATOM     46  C   UNL A   1      41.408  21.151  28.047  1.00  0.00    -0.049 A 
ATOM     47  C   UNL A   1      42.409  23.089  26.301  1.00  0.00    -0.053 A 
ATOM     48  H   UNL A   1      42.126  21.627  24.803  1.00  0.00     0.063 H 
ATOM     49  C   UNL A   1      41.728  22.418  28.526  1.00  0.00    -0.053 A 
ATOM     50  H   UNL A   1      41.114  20.409  28.701  1.00  0.00     0.063 H 
ATOM     51  C   UNL A   1      42.231  23.401  27.658  1.00  0.00    -0.014 A 
ATOM     52  H   UNL A   1      42.831  23.785  25.666  1.00  0.00     0.063 H 
ATOM     53  H   UNL A   1      41.597  22.636  29.526  1.00  0.00     0.063 H 
BRANCH  51  54
ATOM     54  C   UNL A   1      42.563  24.745  28.202  1.00  0.00     0.031 A 
ATOM     55  C   UNL A   1      43.961  25.037  28.674  1.00  0.00     0.074 A 
ATOM     56  C   UNL A   1      41.592  25.668  28.352  1.00  0.00     0.049 A 
ATOM     57  N   UNL A   1      44.423  26.092  29.297  1.00  0.00    -0.248 NA
ATOM     58  C   UNL A   1      44.971  23.991  28.440  1.00  0.00    -0.034 C 
ATOM     59  C   UNL A   1      40.191  25.496  27.966  1.00  0.00    -0.036 A 
ATOM     60  N   UNL A   1      41.632  26.931  28.891  1.00  0.00    -0.354 N 
ATOM     61  C   UNL A   1      45.761  25.824  29.553  1.00  0.00     0.074 A 
ATOM     62  C   UNL A   1      46.032  24.495  29.052  1.00  0.00    -0.034 C 
ATOM     63  H   UNL A   1      44.877  23.098  27.932  1.00  0.00     0.065 H 
ATOM     64  C   UNL A   1      39.508  26.611  28.271  1.00  0.00    -0.036 A 
ATOM     65  H   UNL A   1      39.791  24.651  27.529  1.00  0.00     0.065 H 
ATOM     66  C   UNL A   1      40.410  27.560  28.916  1.00  0.00     0.049 A 
ATOM     67  H   UNL A   1      42.459  27.347  29.229  1.00  0.00     0.167 HD
ATOM     68  C   UNL A   1      46.683  26.625  30.139  1.00  0.00     0.037 A 
ATOM     69  H   UNL A   1      46.935  24.004  29.158  1.00  0.00     0.065 H 
ATOM     70  H   UNL A   1      38.507  26.772  28.080  1.00  0.00     0.065 H 
ATOM     71  C   UNL A   1      40.055  28.759  29.421  1.00  0.00     0.037 A 
ATOM     72  C   UNL A   1      46.421  27.964  30.594  1.00  0.00     0.049 A 
ATOM     73  C   UNL A   1      41.105  29.620  30.075  1.00  0.00     0.074 A 
ATOM     74  C   UNL A   1      47.311  28.881  31.125  1.00  0.00    -0.036 A 
ATOM     75  N   UNL A   1      45.178  28.577  30.573  1.00  0.00    -0.354 N 
ATOM     76  N   UNL A   1      42.383  29.388  30.240  1.00  0.00    -0.248 NA
ATOM     77  C   UNL A   1      40.660  30.916  30.612  1.00  0.00    -0.034 C 
ATOM     78  C   UNL A   1      46.596  30.029  31.477  1.00  0.00    -0.036 A 
ATOM     79  H   UNL A   1      48.326  28.742  31.241  1.00  0.00     0.065 H 
ATOM     80  C   UNL A   1      45.273  29.851  31.109  1.00  0.00     0.049 A 
ATOM     81  H   UNL A   1      44.351  28.168  30.229  1.00  0.00     0.167 HD
ATOM     82  C   UNL A   1      42.902  30.520  30.855  1.00  0.00     0.074 A 
ATOM     83  C   UNL A   1      41.802  31.444  31.028  1.00  0.00    -0.034 C 
ATOM     84  H   UNL A   1      39.708  31.310  30.653  1.00  0.00     0.065 H 
ATOM     85  H   UNL A   1      46.988  30.867  31.935  1.00  0.00     0.065 H 
ATOM     86  C   UNL A   1      44.176  30.773  31.242  1.00  0.00     0.037 A 
ATOM     87  H   UNL A   1      41.895  32.392  31.424  1.00  0.00     0.065 H 
BRANCH  68  88
ATOM     88  C   UNL A   1      48.072  26.086  30.324  1.00  0.00     0.064 A 
ATOM     89  C   UNL A   1      49.031  26.150  29.303  1.00  0.00     0.173 A 
ATOM     90  C   UNL A   1      48.471  25.578  31.570  1.00  0.00     0.173 A 
ATOM     91  F   UNL A   1      48.697  26.618  28.091  1.00  0.00    -0.203 F 
ATOM     92  C   UNL A   1      50.335  25.713  29.519  1.00  0.00     0.198 A 
ATOM     93  C   UNL A   1      49.784  25.170  31.791  1.00  0.00     0.198 A 
ATOM     94  F   UNL A   1      47.593  25.502  32.582  1.00  0.00    -0.203 F 
ATOM     95  F   UNL A   1      51.227  25.755  28.520  1.00  0.00    -0.200 F 
ATOM     96  C   UNL A   1      50.713  25.235  30.765  1.00  0.00     0.200 A 
ATOM     97  F   UNL A   1      50.150  24.724  33.000  1.00  0.00    -0.200 F 
ATOM     98  F   UNL A   1      51.975  24.836  30.977  1.00  0.00    -0.200 F 
ENDBRANCH  68  88
BRANCH  71  99
ATOM     99  C   UNL A   1      38.645  29.228  29.337  1.00  0.00     0.064 A 
ATOM    100  C   UNL A   1      38.102  29.661  28.118  1.00  0.00     0.173 A 
ATOM    101  C   UNL A   1      37.830  29.306  30.477  1.00  0.00     0.173 A 
ATOM    102  F   UNL A   1      38.847  29.627  27.005  1.00  0.00    -0.203 F 
ATOM    103  C   UNL A   1      36.816  30.193  28.050  1.00  0.00     0.198 A 
ATOM    104  C   UNL A   1      36.531  29.806  30.400  1.00  0.00     0.198 A 
ATOM    105  F   UNL A   1      38.297  28.902  31.666  1.00  0.00    -0.203 F 
ATOM    106  F   UNL A   1      36.350  30.666  26.886  1.00  0.00    -0.200 F 
ATOM    107  C   UNL A   1      36.030  30.263  29.190  1.00  0.00     0.200 A 
ATOM    108  F   UNL A   1      35.770  29.858  31.501  1.00  0.00    -0.200 F 
ATOM    109  F   UNL A   1      34.798  30.784  29.127  1.00  0.00    -0.200 F 
ENDBRANCH  71  99
BRANCH  86 110
ATOM    110  C   UNL A   1      44.472  32.122  31.828  1.00  0.00     0.064 A 
ATOM    111  C   UNL A   1      44.775  33.230  31.024  1.00  0.00     0.173 A 
ATOM    112  C   UNL A   1      44.391  32.320  33.216  1.00  0.00     0.173 A 
ATOM    113  F   UNL A   1      44.878  33.090  29.693  1.00  0.00    -0.203 F 
ATOM    114  C   UNL A   1      45.007  34.481  31.588  1.00  0.00     0.198 A 
ATOM    115  C   UNL A   1      44.592  33.578  33.774  1.00  0.00     0.198 A 
ATOM    116  F   UNL A   1      44.097  31.294  34.030  1.00  0.00    -0.203 F 
ATOM    117  F   UNL A   1      45.339  35.516  30.805  1.00  0.00    -0.200 F 
ATOM    118  C   UNL A   1      44.906  34.656  32.961  1.00  0.00     0.200 A 
ATOM    119  F   UNL A   1      44.476  33.749  35.099  1.00  0.00    -0.200 F 
ATOM    120  F   UNL A   1      45.114  35.865  33.501  1.00  0.00    -0.200 F 
ENDBRANCH  86 110
ENDBRANCH  51  54
ENDBRANCH  41  44
ENDBRANCH  37  40
ENDBRANCH  34  37
ENDBRANCH  31  34
ENDBRANCH   1  31
TORSDOF 16
ENDMDL
MODEL 7
REMARK VINA RESULT:     -11.4      5.266     10.634
REMARK SMILES O=C(/C=C/c1ccc(O)c(O)c1)NCCCCCCNC(=O)c1ccc(-c2c3nc(c(-c4c(F)c(F)c(F)c(F)c4F)c4ccc([nH]4)c(-c4c(F)c(F)c(F)c(F)c4F)c4nc(c(-c5c(F)c(F)c(F)c(F)c5F)c5ccc2[nH]5)C=C4)C=C3)cc1
REMARK SMILES IDX 16 1 15 4 14 7 13 10 1 11 2 12 3 14 4 15 5 18 6 19 12 20
REMARK SMILES IDX 7 21 10 23 8 25 11 27 9 29 17 31 18 34 19 37 20 40 21 41
REMARK SMILES IDX 22 43 23 44 24 45 85 46 25 47 84 49 26 51 27 54 28 55 78 56
REMARK SMILES IDX 29 57 83 58 77 59 79 60 30 61 82 62 76 64 75 66 31 68 63 71
REMARK SMILES IDX 43 72 62 73 44 74 47 75 61 76 80 77 45 78 46 80 60 82 81 83
REMARK SMILES IDX 48 86 32 88 33 89 41 90 34 91 35 92 39 93 42 94 36 95 37 96
REMARK SMILES IDX 40 97 38 98 64 99 65 100 73 101 66 102 67 103 71 104 74 105
REMARK SMILES IDX 68 106 69 107 72 108 70 109 49 110 50 111 58 112 51 113
REMARK SMILES IDX 52 114 56 115 59 116 53 117 54 118 57 119 55 120
REMARK H PARENT 16 2 16 3 15 5 15 6 14 8 14 9 13 13 3 16 4 17 6 22 12 24 7 26
REMARK H PARENT 11 28 9 30 17 32 17 33 18 35 18 36 19 38 19 39 20 42 24 48
REMARK H PARENT 85 50 25 52 84 53 83 63 77 65 79 67 82 69 76 70 44 79 47 81
REMARK H PARENT 80 84 45 85 81 87
REMARK Flexibility Score: inf
ROOT
ATOM      1  C   UNL A   1      35.729  23.946  24.520  1.00  0.00    -0.052 C 
ATOM      2  H   UNL A   1      35.599  23.407  25.436  1.00  0.00     0.027 H 
ATOM      3  H   UNL A   1      36.354  24.809  24.613  1.00  0.00     0.027 H 
ENDROOT
BRANCH   1   4
ATOM      4  C   UNL A   1      34.354  24.466  24.078  1.00  0.00    -0.036 C 
ATOM      5  H   UNL A   1      34.334  25.526  24.228  1.00  0.00     0.028 H 
ATOM      6  H   UNL A   1      34.239  24.184  23.053  1.00  0.00     0.028 H 
BRANCH   4   7
ATOM      7  C   UNL A   1      33.169  23.858  24.830  1.00  0.00     0.018 C 
ATOM      8  H   UNL A   1      33.181  24.208  25.841  1.00  0.00     0.049 H 
ATOM      9  H   UNL A   1      32.268  24.156  24.335  1.00  0.00     0.049 H 
BRANCH   7  10
ATOM     10  N   UNL A   1      33.228  22.411  24.832  1.00  0.00    -0.353 N 
ATOM     11  O   UNL A   1      32.514  22.125  22.672  1.00  0.00    -0.270 OA
ATOM     12  C   UNL A   1      32.833  21.659  23.760  1.00  0.00     0.243 C 
ATOM     13  H   UNL A   1      33.564  21.951  25.635  1.00  0.00     0.163 HD
BRANCH  12  14
ATOM     14  C   UNL A   1      32.806  20.186  23.954  1.00  0.00     0.003 C 
ATOM     15  C   UNL A   1      33.751  19.445  24.554  1.00  0.00    -0.049 C 
ATOM     16  H   UNL A   1      31.981  19.683  23.592  1.00  0.00     0.068 H 
ATOM     17  H   UNL A   1      34.634  19.900  24.836  1.00  0.00     0.063 H 
BRANCH  15  18
ATOM     18  C   UNL A   1      33.575  18.011  24.823  1.00  0.00    -0.022 A 
ATOM     19  C   UNL A   1      32.314  17.445  25.077  1.00  0.00    -0.051 A 
ATOM     20  C   UNL A   1      34.706  17.186  24.812  1.00  0.00    -0.009 A 
ATOM     21  C   UNL A   1      32.187  16.078  25.355  1.00  0.00    -0.016 A 
ATOM     22  H   UNL A   1      31.474  18.042  25.058  1.00  0.00     0.063 H 
ATOM     23  C   UNL A   1      34.571  15.834  25.090  1.00  0.00     0.157 A 
ATOM     24  H   UNL A   1      35.635  17.582  24.597  1.00  0.00     0.067 H 
ATOM     25  C   UNL A   1      33.324  15.282  25.367  1.00  0.00     0.157 A 
ATOM     26  H   UNL A   1      31.260  15.669  25.548  1.00  0.00     0.066 H 
BRANCH  23  27
ATOM     27  O   UNL A   1      35.685  15.043  25.101  1.00  0.00    -0.504 OA
ATOM     28  H   UNL A   1      35.633  14.164  25.419  1.00  0.00     0.293 HD
ENDBRANCH  23  27
BRANCH  25  29
ATOM     29  O   UNL A   1      33.270  13.945  25.649  1.00  0.00    -0.504 OA
ATOM     30  H   UNL A   1      32.446  13.497  25.640  1.00  0.00     0.293 HD
ENDBRANCH  25  29
ENDBRANCH  15  18
ENDBRANCH  12  14
ENDBRANCH   7  10
ENDBRANCH   4   7
ENDBRANCH   1   4
BRANCH   1  31
ATOM     31  C   UNL A   1      36.433  23.019  23.524  1.00  0.00    -0.052 C 
ATOM     32  H   UNL A   1      37.235  23.565  23.074  1.00  0.00     0.027 H 
ATOM     33  H   UNL A   1      35.682  22.709  22.827  1.00  0.00     0.027 H 
BRANCH  31  34
ATOM     34  C   UNL A   1      37.010  21.736  24.123  1.00  0.00    -0.036 C 
ATOM     35  H   UNL A   1      37.813  21.408  23.497  1.00  0.00     0.028 H 
ATOM     36  H   UNL A   1      36.201  21.038  24.174  1.00  0.00     0.028 H 
BRANCH  34  37
ATOM     37  C   UNL A   1      37.544  21.876  25.544  1.00  0.00     0.018 C 
ATOM     38  H   UNL A   1      36.719  21.854  26.225  1.00  0.00     0.049 H 
ATOM     39  H   UNL A   1      38.078  22.803  25.601  1.00  0.00     0.049 H 
BRANCH  37  40
ATOM     40  N   UNL A   1      38.472  20.812  25.901  1.00  0.00    -0.352 N 
ATOM     41  C   UNL A   1      39.744  20.906  26.413  1.00  0.00     0.251 C 
ATOM     42  H   UNL A   1      38.141  19.897  25.755  1.00  0.00     0.163 HD
ATOM     43  O   UNL A   1      40.451  19.908  26.509  1.00  0.00    -0.269 OA
BRANCH  41  44
ATOM     44  C   UNL A   1      40.271  22.224  26.825  1.00  0.00     0.039 A 
ATOM     45  C   UNL A   1      41.181  22.291  27.884  1.00  0.00    -0.049 A 
ATOM     46  C   UNL A   1      39.879  23.388  26.160  1.00  0.00    -0.049 A 
ATOM     47  C   UNL A   1      41.755  23.518  28.227  1.00  0.00    -0.053 A 
ATOM     48  H   UNL A   1      41.430  21.438  28.409  1.00  0.00     0.063 H 
ATOM     49  C   UNL A   1      40.504  24.596  26.455  1.00  0.00    -0.053 A 
ATOM     50  H   UNL A   1      39.129  23.353  25.452  1.00  0.00     0.063 H 
ATOM     51  C   UNL A   1      41.450  24.674  27.491  1.00  0.00    -0.014 A 
ATOM     52  H   UNL A   1      42.405  23.575  29.026  1.00  0.00     0.063 H 
ATOM     53  H   UNL A   1      40.271  25.441  25.911  1.00  0.00     0.063 H 
BRANCH  51  54
ATOM     54  C   UNL A   1      42.101  25.979  27.780  1.00  0.00     0.031 A 
ATOM     55  C   UNL A   1      41.342  27.045  28.524  1.00  0.00     0.074 A 
ATOM     56  C   UNL A   1      43.334  26.237  27.301  1.00  0.00     0.049 A 
ATOM     57  N   UNL A   1      41.677  28.289  28.761  1.00  0.00    -0.248 NA
ATOM     58  C   UNL A   1      40.018  26.672  29.046  1.00  0.00    -0.034 C 
ATOM     59  C   UNL A   1      44.160  25.301  26.536  1.00  0.00    -0.036 A 
ATOM     60  N   UNL A   1      44.101  27.375  27.368  1.00  0.00    -0.354 N 
ATOM     61  C   UNL A   1      40.597  28.849  29.430  1.00  0.00     0.074 A 
ATOM     62  C   UNL A   1      39.582  27.825  29.533  1.00  0.00    -0.034 C 
ATOM     63  H   UNL A   1      39.550  25.752  29.038  1.00  0.00     0.065 H 
ATOM     64  C   UNL A   1      45.319  25.897  26.213  1.00  0.00    -0.036 A 
ATOM     65  H   UNL A   1      43.893  24.336  26.285  1.00  0.00     0.065 H 
ATOM     66  C   UNL A   1      45.302  27.270  26.706  1.00  0.00     0.049 A 
ATOM     67  H   UNL A   1      43.818  28.189  27.844  1.00  0.00     0.167 HD
ATOM     68  C   UNL A   1      40.474  30.102  29.929  1.00  0.00     0.037 A 
ATOM     69  H   UNL A   1      38.640  27.974  29.931  1.00  0.00     0.065 H 
ATOM     70  H   UNL A   1      46.097  25.454  25.700  1.00  0.00     0.065 H 
ATOM     71  C   UNL A   1      46.270  28.187  26.503  1.00  0.00     0.037 A 
ATOM     72  C   UNL A   1      41.505  31.104  29.867  1.00  0.00     0.049 A 
ATOM     73  C   UNL A   1      46.096  29.575  27.064  1.00  0.00     0.074 A 
ATOM     74  C   UNL A   1      41.503  32.374  30.416  1.00  0.00    -0.036 A 
ATOM     75  N   UNL A   1      42.719  30.950  29.216  1.00  0.00    -0.354 N 
ATOM     76  N   UNL A   1      45.104  30.069  27.763  1.00  0.00    -0.248 NA
ATOM     77  C   UNL A   1      47.182  30.535  26.809  1.00  0.00    -0.034 C 
ATOM     78  C   UNL A   1      42.693  33.009  30.050  1.00  0.00    -0.036 A 
ATOM     79  H   UNL A   1      40.753  32.782  30.995  1.00  0.00     0.065 H 
ATOM     80  C   UNL A   1      43.462  32.113  29.326  1.00  0.00     0.049 A 
ATOM     81  H   UNL A   1      43.009  30.135  28.745  1.00  0.00     0.167 HD
ATOM     82  C   UNL A   1      45.465  31.375  28.069  1.00  0.00     0.074 A 
ATOM     83  C   UNL A   1      46.769  31.597  27.486  1.00  0.00    -0.034 C 
ATOM     84  H   UNL A   1      48.039  30.413  26.250  1.00  0.00     0.065 H 
ATOM     85  H   UNL A   1      42.954  33.981  30.280  1.00  0.00     0.065 H 
ATOM     86  C   UNL A   1      44.776  32.307  28.770  1.00  0.00     0.037 A 
ATOM     87  H   UNL A   1      47.310  32.470  27.585  1.00  0.00     0.065 H 
BRANCH  68  88
ATOM     88  C   UNL A   1      39.182  30.474  30.596  1.00  0.00     0.064 A 
ATOM     89  C   UNL A   1      38.077  30.929  29.863  1.00  0.00     0.173 A 
ATOM     90  C   UNL A   1      39.022  30.289  31.978  1.00  0.00     0.173 A 
ATOM     91  F   UNL A   1      38.180  31.131  28.541  1.00  0.00    -0.203 F 
ATOM     92  C   UNL A   1      36.863  31.197  30.490  1.00  0.00     0.198 A 
ATOM     93  C   UNL A   1      37.799  30.529  32.598  1.00  0.00     0.198 A 
ATOM     94  F   UNL A   1      40.046  29.849  32.725  1.00  0.00    -0.203 F 
ATOM     95  F   UNL A   1      35.829  31.660  29.774  1.00  0.00    -0.200 F 
ATOM     96  C   UNL A   1      36.722  30.986  31.854  1.00  0.00     0.200 A 
ATOM     97  F   UNL A   1      37.660  30.309  33.912  1.00  0.00    -0.200 F 
ATOM     98  F   UNL A   1      35.546  31.223  32.452  1.00  0.00    -0.200 F 
ENDBRANCH  68  88
BRANCH  71  99
ATOM     99  C   UNL A   1      47.494  27.837  25.734  1.00  0.00     0.064 A 
ATOM    100  C   UNL A   1      47.471  27.772  24.332  1.00  0.00     0.173 A 
ATOM    101  C   UNL A   1      48.696  27.506  26.379  1.00  0.00     0.173 A 
ATOM    102  F   UNL A   1      46.341  28.057  23.669  1.00  0.00    -0.203 F 
ATOM    103  C   UNL A   1      48.586  27.350  23.610  1.00  0.00     0.198 A 
ATOM    104  C   UNL A   1      49.820  27.118  25.653  1.00  0.00     0.198 A 
ATOM    105  F   UNL A   1      48.776  27.555  27.716  1.00  0.00    -0.203 F 
ATOM    106  F   UNL A   1      48.511  27.229  22.278  1.00  0.00    -0.200 F 
ATOM    107  C   UNL A   1      49.761  27.025  24.271  1.00  0.00     0.200 A 
ATOM    108  F   UNL A   1      50.958  26.819  26.295  1.00  0.00    -0.200 F 
ATOM    109  F   UNL A   1      50.829  26.610  23.578  1.00  0.00    -0.200 F 
ENDBRANCH  71  99
BRANCH  86 110
ATOM    110  C   UNL A   1      45.440  33.632  29.009  1.00  0.00     0.064 A 
ATOM    111  C   UNL A   1      45.257  34.720  28.144  1.00  0.00     0.173 A 
ATOM    112  C   UNL A   1      46.225  33.828  30.157  1.00  0.00     0.173 A 
ATOM    113  F   UNL A   1      44.528  34.579  27.027  1.00  0.00    -0.203 F 
ATOM    114  C   UNL A   1      45.852  35.950  28.408  1.00  0.00     0.198 A 
ATOM    115  C   UNL A   1      46.791  35.068  30.434  1.00  0.00     0.198 A 
ATOM    116  F   UNL A   1      46.426  32.820  31.021  1.00  0.00    -0.203 F 
ATOM    117  F   UNL A   1      45.701  36.964  27.546  1.00  0.00    -0.200 F 
ATOM    118  C   UNL A   1      46.610  36.126  29.558  1.00  0.00     0.200 A 
ATOM    119  F   UNL A   1      47.508  35.241  31.554  1.00  0.00    -0.200 F 
ATOM    120  F   UNL A   1      47.169  37.316  29.818  1.00  0.00    -0.200 F 
ENDBRANCH  86 110
ENDBRANCH  51  54
ENDBRANCH  41  44
ENDBRANCH  37  40
ENDBRANCH  34  37
ENDBRANCH  31  34
ENDBRANCH   1  31
TORSDOF 16
ENDMDL
MODEL 8
REMARK VINA RESULT:     -11.3      5.172      8.873
REMARK SMILES O=C(/C=C/c1ccc(O)c(O)c1)NCCCCCCNC(=O)c1ccc(-c2c3nc(c(-c4c(F)c(F)c(F)c(F)c4F)c4ccc([nH]4)c(-c4c(F)c(F)c(F)c(F)c4F)c4nc(c(-c5c(F)c(F)c(F)c(F)c5F)c5ccc2[nH]5)C=C4)C=C3)cc1
REMARK SMILES IDX 16 1 15 4 14 7 13 10 1 11 2 12 3 14 4 15 5 18 6 19 12 20
REMARK SMILES IDX 7 21 10 23 8 25 11 27 9 29 17 31 18 34 19 37 20 40 21 41
REMARK SMILES IDX 22 43 23 44 24 45 85 46 25 47 84 49 26 51 27 54 28 55 78 56
REMARK SMILES IDX 29 57 83 58 77 59 79 60 30 61 82 62 76 64 75 66 31 68 63 71
REMARK SMILES IDX 43 72 62 73 44 74 47 75 61 76 80 77 45 78 46 80 60 82 81 83
REMARK SMILES IDX 48 86 32 88 33 89 41 90 34 91 35 92 39 93 42 94 36 95 37 96
REMARK SMILES IDX 40 97 38 98 64 99 65 100 73 101 66 102 67 103 71 104 74 105
REMARK SMILES IDX 68 106 69 107 72 108 70 109 49 110 50 111 58 112 51 113
REMARK SMILES IDX 52 114 56 115 59 116 53 117 54 118 57 119 55 120
REMARK H PARENT 16 2 16 3 15 5 15 6 14 8 14 9 13 13 3 16 4 17 6 22 12 24 7 26
REMARK H PARENT 11 28 9 30 17 32 17 33 18 35 18 36 19 38 19 39 20 42 24 48
REMARK H PARENT 85 50 25 52 84 53 83 63 77 65 79 67 82 69 76 70 44 79 47 81
REMARK H PARENT 80 84 45 85 81 87
REMARK Flexibility Score: inf
ROOT
ATOM      1  C   UNL A   1      35.186  24.068  25.099  1.00  0.00    -0.052 C 
ATOM      2  H   UNL A   1      35.793  24.934  24.933  1.00  0.00     0.027 H 
ATOM      3  H   UNL A   1      35.070  23.452  24.233  1.00  0.00     0.027 H 
ENDROOT
BRANCH   1   4
ATOM      4  C   UNL A   1      33.775  24.545  25.472  1.00  0.00    -0.036 C 
ATOM      5  H   UNL A   1      33.628  24.368  26.518  1.00  0.00     0.028 H 
ATOM      6  H   UNL A   1      33.727  25.581  25.210  1.00  0.00     0.028 H 
BRANCH   4   7
ATOM      7  C   UNL A   1      32.645  23.853  24.709  1.00  0.00     0.018 C 
ATOM      8  H   UNL A   1      31.708  24.136  25.142  1.00  0.00     0.049 H 
ATOM      9  H   UNL A   1      32.697  24.153  23.684  1.00  0.00     0.049 H 
BRANCH   7  10
ATOM     10  N   UNL A   1      32.771  22.411  24.766  1.00  0.00    -0.353 N 
ATOM     11  O   UNL A   1      32.533  22.047  22.515  1.00  0.00    -0.270 OA
ATOM     12  C   UNL A   1      32.642  21.619  23.659  1.00  0.00     0.243 C 
ATOM     13  H   UNL A   1      32.955  21.985  25.635  1.00  0.00     0.163 HD
BRANCH  12  14
ATOM     14  C   UNL A   1      32.646  20.151  23.886  1.00  0.00     0.003 C 
ATOM     15  C   UNL A   1      33.628  19.437  24.458  1.00  0.00    -0.049 C 
ATOM     16  H   UNL A   1      31.812  19.629  23.574  1.00  0.00     0.068 H 
ATOM     17  H   UNL A   1      34.516  19.910  24.689  1.00  0.00     0.063 H 
BRANCH  15  18
ATOM     18  C   UNL A   1      33.486  18.007  24.767  1.00  0.00    -0.022 A 
ATOM     19  C   UNL A   1      32.247  17.430  25.094  1.00  0.00    -0.051 A 
ATOM     20  C   UNL A   1      34.626  17.197  24.719  1.00  0.00    -0.009 A 
ATOM     21  C   UNL A   1      32.152  16.069  25.407  1.00  0.00    -0.016 A 
ATOM     22  H   UNL A   1      31.398  18.016  25.102  1.00  0.00     0.063 H 
ATOM     23  C   UNL A   1      34.524  15.850  25.033  1.00  0.00     0.157 A 
ATOM     24  H   UNL A   1      35.538  17.600  24.450  1.00  0.00     0.067 H 
ATOM     25  C   UNL A   1      33.299  15.287  25.382  1.00  0.00     0.157 A 
ATOM     26  H   UNL A   1      31.241  15.651  25.654  1.00  0.00     0.066 H 
BRANCH  23  27
ATOM     27  O   UNL A   1      35.649  15.074  25.007  1.00  0.00    -0.504 OA
ATOM     28  H   UNL A   1      35.788  14.473  24.302  1.00  0.00     0.293 HD
ENDBRANCH  23  27
BRANCH  25  29
ATOM     29  O   UNL A   1      33.278  13.957  25.695  1.00  0.00    -0.504 OA
ATOM     30  H   UNL A   1      32.890  13.342  25.103  1.00  0.00     0.293 HD
ENDBRANCH  25  29
ENDBRANCH  15  18
ENDBRANCH  12  14
ENDBRANCH   7  10
ENDBRANCH   4   7
ENDBRANCH   1   4
BRANCH   1  31
ATOM     31  C   UNL A   1      35.884  23.196  26.148  1.00  0.00    -0.052 C 
ATOM     32  H   UNL A   1      35.204  23.046  26.959  1.00  0.00     0.027 H 
ATOM     33  H   UNL A   1      36.773  23.723  26.426  1.00  0.00     0.027 H 
BRANCH  31  34
ATOM     34  C   UNL A   1      36.341  21.824  25.653  1.00  0.00    -0.036 C 
ATOM     35  H   UNL A   1      35.668  21.506  24.884  1.00  0.00     0.028 H 
ATOM     36  H   UNL A   1      36.340  21.180  26.508  1.00  0.00     0.028 H 
BRANCH  34  37
ATOM     37  C   UNL A   1      37.758  21.784  25.090  1.00  0.00     0.018 C 
ATOM     38  H   UNL A   1      38.202  22.749  25.212  1.00  0.00     0.049 H 
ATOM     39  H   UNL A   1      37.689  21.510  24.058  1.00  0.00     0.049 H 
BRANCH  37  40
ATOM     40  N   UNL A   1      38.597  20.796  25.753  1.00  0.00    -0.352 N 
ATOM     41  C   UNL A   1      39.741  20.986  26.491  1.00  0.00     0.251 C 
ATOM     42  H   UNL A   1      38.305  19.861  25.659  1.00  0.00     0.163 HD
ATOM     43  O   UNL A   1      40.417  20.026  26.848  1.00  0.00    -0.269 OA
BRANCH  41  44
ATOM     44  C   UNL A   1      40.172  22.358  26.833  1.00  0.00     0.039 A 
ATOM     45  C   UNL A   1      41.209  22.535  27.753  1.00  0.00    -0.049 A 
ATOM     46  C   UNL A   1      39.564  23.466  26.236  1.00  0.00    -0.049 A 
ATOM     47  C   UNL A   1      41.686  23.821  28.020  1.00  0.00    -0.053 A 
ATOM     48  H   UNL A   1      41.621  21.720  28.233  1.00  0.00     0.063 H 
ATOM     49  C   UNL A   1      40.088  24.738  26.448  1.00  0.00    -0.053 A 
ATOM     50  H   UNL A   1      38.731  23.341  25.641  1.00  0.00     0.063 H 
ATOM     51  C   UNL A   1      41.156  24.929  27.341  1.00  0.00    -0.014 A 
ATOM     52  H   UNL A   1      42.432  23.957  28.720  1.00  0.00     0.063 H 
ATOM     53  H   UNL A   1      39.689  25.546  25.946  1.00  0.00     0.063 H 
BRANCH  51  54
ATOM     54  C   UNL A   1      41.692  26.300  27.543  1.00  0.00     0.031 A 
ATOM     55  C   UNL A   1      43.077  26.641  27.064  1.00  0.00     0.074 A 
ATOM     56  C   UNL A   1      40.973  27.210  28.232  1.00  0.00     0.049 A 
ATOM     57  N   UNL A   1      43.777  27.731  27.257  1.00  0.00    -0.248 NA
ATOM     58  C   UNL A   1      43.782  25.608  26.288  1.00  0.00    -0.034 C 
ATOM     59  C   UNL A   1      39.633  26.992  28.779  1.00  0.00    -0.036 A 
ATOM     60  N   UNL A   1      41.279  28.494  28.610  1.00  0.00    -0.354 N 
ATOM     61  C   UNL A   1      45.007  27.502  26.654  1.00  0.00     0.074 A 
ATOM     62  C   UNL A   1      44.975  26.159  26.119  1.00  0.00    -0.034 C 
ATOM     63  H   UNL A   1      43.437  24.692  25.959  1.00  0.00     0.065 H 
ATOM     64  C   UNL A   1      39.228  28.105  29.413  1.00  0.00    -0.036 A 
ATOM     65  H   UNL A   1      39.086  26.121  28.693  1.00  0.00     0.065 H 
ATOM     66  C   UNL A   1      40.296  29.099  29.358  1.00  0.00     0.049 A 
ATOM     67  H   UNL A   1      42.123  28.941  28.368  1.00  0.00     0.167 HD
ATOM     68  C   UNL A   1      46.061  28.345  26.543  1.00  0.00     0.037 A 
ATOM     69  H   UNL A   1      45.777  25.691  25.667  1.00  0.00     0.065 H 
ATOM     70  H   UNL A   1      38.310  28.237  29.865  1.00  0.00     0.065 H 
ATOM     71  C   UNL A   1      40.270  30.310  29.950  1.00  0.00     0.037 A 
ATOM     72  C   UNL A   1      46.072  29.697  27.035  1.00  0.00     0.049 A 
ATOM     73  C   UNL A   1      41.464  31.220  29.814  1.00  0.00     0.074 A 
ATOM     74  C   UNL A   1      47.062  30.654  26.898  1.00  0.00    -0.036 A 
ATOM     75  N   UNL A   1      45.046  30.283  27.760  1.00  0.00    -0.354 N 
ATOM     76  N   UNL A   1      42.589  31.021  29.174  1.00  0.00    -0.248 NA
ATOM     77  C   UNL A   1      41.381  32.528  30.483  1.00  0.00    -0.034 C 
ATOM     78  C   UNL A   1      46.659  31.800  27.588  1.00  0.00    -0.036 A 
ATOM     79  H   UNL A   1      47.945  30.540  26.377  1.00  0.00     0.065 H 
ATOM     80  C   UNL A   1      45.392  31.580  28.102  1.00  0.00     0.049 A 
ATOM     81  H   UNL A   1      44.198  29.842  27.997  1.00  0.00     0.167 HD
ATOM     82  C   UNL A   1      43.326  32.189  29.325  1.00  0.00     0.074 A 
ATOM     83  C   UNL A   1      42.518  33.096  30.110  1.00  0.00    -0.034 C 
ATOM     84  H   UNL A   1      40.633  32.904  31.085  1.00  0.00     0.065 H 
ATOM     85  H   UNL A   1      47.213  32.665  27.697  1.00  0.00     0.065 H 
ATOM     86  C   UNL A   1      44.562  32.484  28.854  1.00  0.00     0.037 A 
ATOM     87  H   UNL A   1      42.792  34.061  30.348  1.00  0.00     0.065 H 
BRANCH  68  88
ATOM     88  C   UNL A   1      47.299  27.843  25.859  1.00  0.00     0.064 A 
ATOM     89  C   UNL A   1      48.369  27.294  26.579  1.00  0.00     0.173 A 
ATOM     90  C   UNL A   1      47.376  27.834  24.457  1.00  0.00     0.173 A 
ATOM     91  F   UNL A   1      48.348  27.287  27.920  1.00  0.00    -0.203 F 
ATOM     92  C   UNL A   1      49.477  26.766  25.922  1.00  0.00     0.198 A 
ATOM     93  C   UNL A   1      48.471  27.278  23.803  1.00  0.00     0.198 A 
ATOM     94  F   UNL A   1      46.375  28.342  23.722  1.00  0.00    -0.203 F 
ATOM     95  F   UNL A   1      50.502  26.273  26.631  1.00  0.00    -0.200 F 
ATOM     96  C   UNL A   1      49.522  26.748  24.536  1.00  0.00     0.200 A 
ATOM     97  F   UNL A   1      48.505  27.247  22.464  1.00  0.00    -0.200 F 
ATOM     98  F   UNL A   1      50.579  26.217  23.905  1.00  0.00    -0.200 F 
ENDBRANCH  68  88
BRANCH  71  99
ATOM     99  C   UNL A   1      39.079  30.746  30.728  1.00  0.00     0.064 A 
ATOM    100  C   UNL A   1      39.001  30.521  32.112  1.00  0.00     0.173 A 
ATOM    101  C   UNL A   1      37.973  31.343  30.104  1.00  0.00     0.173 A 
ATOM    102  F   UNL A   1      40.022  29.933  32.752  1.00  0.00    -0.203 F 
ATOM    103  C   UNL A   1      37.850  30.837  32.830  1.00  0.00     0.198 A 
ATOM    104  C   UNL A   1      36.836  31.691  30.831  1.00  0.00     0.198 A 
ATOM    105  F   UNL A   1      37.995  31.585  28.786  1.00  0.00    -0.203 F 
ATOM    106  F   UNL A   1      37.777  30.545  34.136  1.00  0.00    -0.200 F 
ATOM    107  C   UNL A   1      36.769  31.424  32.191  1.00  0.00     0.200 A 
ATOM    108  F   UNL A   1      35.800  32.271  30.212  1.00  0.00    -0.200 F 
ATOM    109  F   UNL A   1      35.659  31.718  32.880  1.00  0.00    -0.200 F 
ENDBRANCH  71  99
BRANCH  86 110
ATOM    110  C   UNL A   1      45.096  33.863  29.111  1.00  0.00     0.064 A 
ATOM    111  C   UNL A   1      45.902  34.150  30.222  1.00  0.00     0.173 A 
ATOM    112  C   UNL A   1      44.843  34.897  28.197  1.00  0.00     0.173 A 
ATOM    113  F   UNL A   1      46.160  33.200  31.133  1.00  0.00    -0.203 F 
ATOM    114  C   UNL A   1      46.418  35.428  30.418  1.00  0.00     0.198 A 
ATOM    115  C   UNL A   1      45.387  36.164  28.379  1.00  0.00     0.198 A 
ATOM    116  F   UNL A   1      44.083  34.672  27.113  1.00  0.00    -0.203 F 
ATOM    117  F   UNL A   1      47.149  35.693  31.509  1.00  0.00    -0.200 F 
ATOM    118  C   UNL A   1      46.168  36.431  29.492  1.00  0.00     0.200 A 
ATOM    119  F   UNL A   1      45.159  37.127  27.473  1.00  0.00    -0.200 F 
ATOM    120  F   UNL A   1      46.679  37.656  29.675  1.00  0.00    -0.200 F 
ENDBRANCH  86 110
ENDBRANCH  51  54
ENDBRANCH  41  44
ENDBRANCH  37  40
ENDBRANCH  34  37
ENDBRANCH  31  34
ENDBRANCH   1  31
TORSDOF 16
ENDMDL
MODEL 9
REMARK VINA RESULT:     -11.3      4.229      9.737
REMARK SMILES O=C(/C=C/c1ccc(O)c(O)c1)NCCCCCCNC(=O)c1ccc(-c2c3nc(c(-c4c(F)c(F)c(F)c(F)c4F)c4ccc([nH]4)c(-c4c(F)c(F)c(F)c(F)c4F)c4nc(c(-c5c(F)c(F)c(F)c(F)c5F)c5ccc2[nH]5)C=C4)C=C3)cc1
REMARK SMILES IDX 16 1 15 4 14 7 13 10 1 11 2 12 3 14 4 15 5 18 6 19 12 20
REMARK SMILES IDX 7 21 10 23 8 25 11 27 9 29 17 31 18 34 19 37 20 40 21 41
REMARK SMILES IDX 22 43 23 44 24 45 85 46 25 47 84 49 26 51 27 54 28 55 78 56
REMARK SMILES IDX 29 57 83 58 77 59 79 60 30 61 82 62 76 64 75 66 31 68 63 71
REMARK SMILES IDX 43 72 62 73 44 74 47 75 61 76 80 77 45 78 46 80 60 82 81 83
REMARK SMILES IDX 48 86 32 88 33 89 41 90 34 91 35 92 39 93 42 94 36 95 37 96
REMARK SMILES IDX 40 97 38 98 64 99 65 100 73 101 66 102 67 103 71 104 74 105
REMARK SMILES IDX 68 106 69 107 72 108 70 109 49 110 50 111 58 112 51 113
REMARK SMILES IDX 52 114 56 115 59 116 53 117 54 118 57 119 55 120
REMARK H PARENT 16 2 16 3 15 5 15 6 14 8 14 9 13 13 3 16 4 17 6 22 12 24 7 26
REMARK H PARENT 11 28 9 30 17 32 17 33 18 35 18 36 19 38 19 39 20 42 24 48
REMARK H PARENT 85 50 25 52 84 53 83 63 77 65 79 67 82 69 76 70 44 79 47 81
REMARK H PARENT 80 84 45 85 81 87
REMARK Flexibility Score: inf
ROOT
ATOM      1  C   UNL A   1      34.055  25.664  25.566  1.00  0.00    -0.052 C 
ATOM      2  H   UNL A   1      34.519  25.586  26.528  1.00  0.00     0.027 H 
ATOM      3  H   UNL A   1      33.017  25.407  25.567  1.00  0.00     0.027 H 
ENDROOT
BRANCH   1   4
ATOM      4  C   UNL A   1      34.739  24.658  24.629  1.00  0.00    -0.036 C 
ATOM      5  H   UNL A   1      35.505  25.174  24.088  1.00  0.00     0.028 H 
ATOM      6  H   UNL A   1      35.118  23.875  25.251  1.00  0.00     0.028 H 
BRANCH   4   7
ATOM      7  C   UNL A   1      33.806  23.992  23.616  1.00  0.00     0.018 C 
ATOM      8  H   UNL A   1      34.354  23.788  22.720  1.00  0.00     0.049 H 
ATOM      9  H   UNL A   1      33.432  23.088  24.048  1.00  0.00     0.049 H 
BRANCH   7  10
ATOM     10  N   UNL A   1      32.678  24.842  23.294  1.00  0.00    -0.353 N 
ATOM     11  O   UNL A   1      33.552  25.696  21.354  1.00  0.00    -0.270 OA
ATOM     12  C   UNL A   1      32.675  25.676  22.210  1.00  0.00     0.243 C 
ATOM     13  H   UNL A   1      31.886  24.820  23.878  1.00  0.00     0.163 HD
BRANCH  12  14
ATOM     14  C   UNL A   1      31.517  26.599  22.085  1.00  0.00     0.003 C 
ATOM     15  C   UNL A   1      30.848  27.178  23.094  1.00  0.00    -0.049 C 
ATOM     16  H   UNL A   1      31.196  26.816  21.128  1.00  0.00     0.068 H 
ATOM     17  H   UNL A   1      31.076  26.904  24.063  1.00  0.00     0.063 H 
BRANCH  15  18
ATOM     18  C   UNL A   1      29.803  28.186  22.871  1.00  0.00    -0.022 A 
ATOM     19  C   UNL A   1      28.452  27.949  23.180  1.00  0.00    -0.051 A 
ATOM     20  C   UNL A   1      30.175  29.428  22.343  1.00  0.00    -0.009 A 
ATOM     21  C   UNL A   1      27.479  28.924  22.930  1.00  0.00    -0.016 A 
ATOM     22  H   UNL A   1      28.175  27.047  23.597  1.00  0.00     0.063 H 
ATOM     23  C   UNL A   1      29.205  30.388  22.096  1.00  0.00     0.157 A 
ATOM     24  H   UNL A   1      31.168  29.629  22.139  1.00  0.00     0.067 H 
ATOM     25  C   UNL A   1      27.865  30.139  22.380  1.00  0.00     0.157 A 
ATOM     26  H   UNL A   1      26.488  28.742  23.153  1.00  0.00     0.066 H 
BRANCH  23  27
ATOM     27  O   UNL A   1      29.577  31.587  21.557  1.00  0.00    -0.504 OA
ATOM     28  H   UNL A   1      29.174  31.892  20.769  1.00  0.00     0.293 HD
ENDBRANCH  23  27
BRANCH  25  29
ATOM     29  O   UNL A   1      26.962  31.126  22.095  1.00  0.00    -0.504 OA
ATOM     30  H   UNL A   1      26.904  31.471  21.225  1.00  0.00     0.293 HD
ENDBRANCH  25  29
ENDBRANCH  15  18
ENDBRANCH  12  14
ENDBRANCH   7  10
ENDBRANCH   4   7
ENDBRANCH   1   4
BRANCH   1  31
ATOM     31  C   UNL A   1      34.127  27.129  25.124  1.00  0.00    -0.052 C 
ATOM     32  H   UNL A   1      33.862  27.176  24.089  1.00  0.00     0.027 H 
ATOM     33  H   UNL A   1      35.129  27.449  25.324  1.00  0.00     0.027 H 
BRANCH  31  34
ATOM     34  C   UNL A   1      33.215  28.087  25.891  1.00  0.00    -0.036 C 
ATOM     35  H   UNL A   1      32.248  27.635  25.967  1.00  0.00     0.028 H 
ATOM     36  H   UNL A   1      33.211  29.004  25.340  1.00  0.00     0.028 H 
BRANCH  34  37
ATOM     37  C   UNL A   1      33.688  28.434  27.298  1.00  0.00     0.018 C 
ATOM     38  H   UNL A   1      34.689  28.079  27.421  1.00  0.00     0.049 H 
ATOM     39  H   UNL A   1      33.017  27.969  27.990  1.00  0.00     0.049 H 
BRANCH  37  40
ATOM     40  N   UNL A   1      33.666  29.867  27.559  1.00  0.00    -0.352 N 
ATOM     41  C   UNL A   1      34.635  30.660  28.125  1.00  0.00     0.251 C 
ATOM     42  H   UNL A   1      32.841  30.332  27.293  1.00  0.00     0.163 HD
ATOM     43  O   UNL A   1      34.391  31.826  28.419  1.00  0.00    -0.269 OA
BRANCH  41  44
ATOM     44  C   UNL A   1      35.971  30.094  28.407  1.00  0.00     0.039 A 
ATOM     45  C   UNL A   1      36.961  30.164  27.422  1.00  0.00    -0.049 A 
ATOM     46  C   UNL A   1      36.251  29.507  29.644  1.00  0.00    -0.049 A 
ATOM     47  C   UNL A   1      38.252  29.713  27.705  1.00  0.00    -0.053 A 
ATOM     48  H   UNL A   1      36.739  30.549  26.490  1.00  0.00     0.063 H 
ATOM     49  C   UNL A   1      37.554  29.125  29.948  1.00  0.00    -0.053 A 
ATOM     50  H   UNL A   1      35.494  29.358  30.329  1.00  0.00     0.063 H 
ATOM     51  C   UNL A   1      38.570  29.225  28.982  1.00  0.00    -0.014 A 
ATOM     52  H   UNL A   1      38.977  29.738  26.970  1.00  0.00     0.063 H 
ATOM     53  H   UNL A   1      37.776  28.765  30.889  1.00  0.00     0.063 H 
BRANCH  51  54
ATOM     54  C   UNL A   1      39.951  28.809  29.340  1.00  0.00     0.031 A 
ATOM     55  C   UNL A   1      40.827  29.733  30.142  1.00  0.00     0.074 A 
ATOM     56  C   UNL A   1      40.446  27.645  28.872  1.00  0.00     0.049 A 
ATOM     57  N   UNL A   1      42.096  29.618  30.445  1.00  0.00    -0.248 NA
ATOM     58  C   UNL A   1      40.202  30.966  30.647  1.00  0.00    -0.034 C 
ATOM     59  C   UNL A   1      39.710  26.679  28.055  1.00  0.00    -0.036 A 
ATOM     60  N   UNL A   1      41.695  27.088  28.998  1.00  0.00    -0.354 N 
ATOM     61  C   UNL A   1      42.423  30.770  31.147  1.00  0.00     0.074 A 
ATOM     62  C   UNL A   1      41.233  31.590  31.196  1.00  0.00    -0.034 C 
ATOM     63  H   UNL A   1      39.216  31.266  30.590  1.00  0.00     0.065 H 
ATOM     64  C   UNL A   1      40.516  25.645  27.762  1.00  0.00    -0.036 A 
ATOM     65  H   UNL A   1      38.729  26.776  27.753  1.00  0.00     0.065 H 
ATOM     66  C   UNL A   1      41.838  25.895  28.328  1.00  0.00     0.049 A 
ATOM     67  H   UNL A   1      42.421  27.503  29.518  1.00  0.00     0.167 HD
ATOM     68  C   UNL A   1      43.607  31.104  31.713  1.00  0.00     0.037 A 
ATOM     69  H   UNL A   1      41.193  32.538  31.604  1.00  0.00     0.065 H 
ATOM     70  H   UNL A   1      40.244  24.808  27.223  1.00  0.00     0.065 H 
ATOM     71  C   UNL A   1      42.919  25.105  28.173  1.00  0.00     0.037 A 
ATOM     72  C   UNL A   1      44.775  30.265  31.703  1.00  0.00     0.049 A 
ATOM     73  C   UNL A   1      44.224  25.512  28.809  1.00  0.00     0.074 A 
ATOM     74  C   UNL A   1      45.995  30.482  32.319  1.00  0.00    -0.036 A 
ATOM     75  N   UNL A   1      44.870  29.051  31.041  1.00  0.00    -0.354 N 
ATOM     76  N   UNL A   1      44.498  26.566  29.536  1.00  0.00    -0.248 NA
ATOM     77  C   UNL A   1      45.370  24.613  28.603  1.00  0.00    -0.034 C 
ATOM     78  C   UNL A   1      46.846  29.425  31.985  1.00  0.00    -0.036 A 
ATOM     79  H   UNL A   1      46.234  31.284  32.922  1.00  0.00     0.065 H 
ATOM     80  C   UNL A   1      46.139  28.520  31.211  1.00  0.00     0.049 A 
ATOM     81  H   UNL A   1      44.145  28.629  30.526  1.00  0.00     0.167 HD
ATOM     82  C   UNL A   1      45.829  26.435  29.911  1.00  0.00     0.074 A 
ATOM     83  C   UNL A   1      46.306  25.196  29.338  1.00  0.00    -0.034 C 
ATOM     84  H   UNL A   1      45.430  23.754  28.036  1.00  0.00     0.065 H 
ATOM     85  H   UNL A   1      47.836  29.335  32.266  1.00  0.00     0.065 H 
ATOM     86  C   UNL A   1      46.589  27.268  30.664  1.00  0.00     0.037 A 
ATOM     87  H   UNL A   1      47.254  24.815  29.482  1.00  0.00     0.065 H 
BRANCH  68  88
ATOM     88  C   UNL A   1      43.711  32.433  32.402  1.00  0.00     0.064 A 
ATOM     89  C   UNL A   1      44.084  33.596  31.713  1.00  0.00     0.173 A 
ATOM     90  C   UNL A   1      43.348  32.559  33.753  1.00  0.00     0.173 A 
ATOM     91  F   UNL A   1      44.449  33.528  30.423  1.00  0.00    -0.203 F 
ATOM     92  C   UNL A   1      44.102  34.832  32.352  1.00  0.00     0.198 A 
ATOM     93  C   UNL A   1      43.339  33.801  34.381  1.00  0.00     0.198 A 
ATOM     94  F   UNL A   1      42.977  31.478  34.456  1.00  0.00    -0.203 F 
ATOM     95  F   UNL A   1      44.491  35.926  31.681  1.00  0.00    -0.200 F 
ATOM     96  C   UNL A   1      43.719  34.935  33.681  1.00  0.00     0.200 A 
ATOM     97  F   UNL A   1      42.952  33.901  35.659  1.00  0.00    -0.200 F 
ATOM     98  F   UNL A   1      43.715  36.131  34.288  1.00  0.00    -0.200 F 
ENDBRANCH  68  88
BRANCH  71  99
ATOM     99  C   UNL A   1      42.829  23.847  27.382  1.00  0.00     0.064 A 
ATOM    100  C   UNL A   1      42.440  22.643  27.988  1.00  0.00     0.173 A 
ATOM    101  C   UNL A   1      43.183  23.808  26.025  1.00  0.00     0.173 A 
ATOM    102  F   UNL A   1      42.113  22.623  29.288  1.00  0.00    -0.203 F 
ATOM    103  C   UNL A   1      42.448  21.443  27.278  1.00  0.00     0.198 A 
ATOM    104  C   UNL A   1      43.156  22.613  25.308  1.00  0.00     0.198 A 
ATOM    105  F   UNL A   1      43.558  24.930  25.396  1.00  0.00    -0.203 F 
ATOM    106  F   UNL A   1      42.140  20.297  27.901  1.00  0.00    -0.200 F 
ATOM    107  C   UNL A   1      42.804  21.429  25.938  1.00  0.00     0.200 A 
ATOM    108  F   UNL A   1      43.487  22.606  24.010  1.00  0.00    -0.200 F 
ATOM    109  F   UNL A   1      42.821  20.275  25.260  1.00  0.00    -0.200 F 
ENDBRANCH  71  99
BRANCH  86 110
ATOM    110  C   UNL A   1      47.994  26.842  30.972  1.00  0.00     0.064 A 
ATOM    111  C   UNL A   1      48.288  25.961  32.022  1.00  0.00     0.173 A 
ATOM    112  C   UNL A   1      49.056  27.278  30.163  1.00  0.00     0.173 A 
ATOM    113  F   UNL A   1      47.312  25.527  32.833  1.00  0.00    -0.203 F 
ATOM    114  C   UNL A   1      49.596  25.549  32.264  1.00  0.00     0.198 A 
ATOM    115  C   UNL A   1      50.356  26.839  30.387  1.00  0.00     0.198 A 
ATOM    116  F   UNL A   1      48.826  28.116  29.140  1.00  0.00    -0.203 F 
ATOM    117  F   UNL A   1      49.861  24.742  33.300  1.00  0.00    -0.200 F 
ATOM    118  C   UNL A   1      50.627  25.980  31.441  1.00  0.00     0.200 A 
ATOM    119  F   UNL A   1      51.348  27.242  29.580  1.00  0.00    -0.200 F 
ATOM    120  F   UNL A   1      51.882  25.570  31.666  1.00  0.00    -0.200 F 
ENDBRANCH  86 110
ENDBRANCH  51  54
ENDBRANCH  41  44
ENDBRANCH  37  40
ENDBRANCH  34  37
ENDBRANCH  31  34
ENDBRANCH   1  31
TORSDOF 16
ENDMDL
MODEL 10
REMARK VINA RESULT:     -11.3      5.674     10.752
REMARK SMILES O=C(/C=C/c1ccc(O)c(O)c1)NCCCCCCNC(=O)c1ccc(-c2c3nc(c(-c4c(F)c(F)c(F)c(F)c4F)c4ccc([nH]4)c(-c4c(F)c(F)c(F)c(F)c4F)c4nc(c(-c5c(F)c(F)c(F)c(F)c5F)c5ccc2[nH]5)C=C4)C=C3)cc1
REMARK SMILES IDX 16 1 15 4 14 7 13 10 1 11 2 12 3 14 4 15 5 18 6 19 12 20
REMARK SMILES IDX 7 21 10 23 8 25 11 27 9 29 17 31 18 34 19 37 20 40 21 41
REMARK SMILES IDX 22 43 23 44 24 45 85 46 25 47 84 49 26 51 27 54 28 55 78 56
REMARK SMILES IDX 29 57 83 58 77 59 79 60 30 61 82 62 76 64 75 66 31 68 63 71
REMARK SMILES IDX 43 72 62 73 44 74 47 75 61 76 80 77 45 78 46 80 60 82 81 83
REMARK SMILES IDX 48 86 32 88 33 89 41 90 34 91 35 92 39 93 42 94 36 95 37 96
REMARK SMILES IDX 40 97 38 98 64 99 65 100 73 101 66 102 67 103 71 104 74 105
REMARK SMILES IDX 68 106 69 107 72 108 70 109 49 110 50 111 58 112 51 113
REMARK SMILES IDX 52 114 56 115 59 116 53 117 54 118 57 119 55 120
REMARK H PARENT 16 2 16 3 15 5 15 6 14 8 14 9 13 13 3 16 4 17 6 22 12 24 7 26
REMARK H PARENT 11 28 9 30 17 32 17 33 18 35 18 36 19 38 19 39 20 42 24 48
REMARK H PARENT 85 50 25 52 84 53 83 63 77 65 79 67 82 69 76 70 44 79 47 81
REMARK H PARENT 80 84 45 85 81 87
REMARK Flexibility Score: inf
ROOT
ATOM      1  C   UNL A   1      38.614  23.844  25.933  1.00  0.00    -0.052 C 
ATOM      2  H   UNL A   1      38.988  24.740  26.385  1.00  0.00     0.027 H 
ATOM      3  H   UNL A   1      38.829  23.767  24.888  1.00  0.00     0.027 H 
ENDROOT
BRANCH   1   4
ATOM      4  C   UNL A   1      37.083  23.861  26.048  1.00  0.00    -0.036 C 
ATOM      5  H   UNL A   1      36.803  23.226  26.864  1.00  0.00     0.028 H 
ATOM      6  H   UNL A   1      36.801  24.882  26.195  1.00  0.00     0.028 H 
BRANCH   4   7
ATOM      7  C   UNL A   1      36.342  23.383  24.799  1.00  0.00     0.018 C 
ATOM      8  H   UNL A   1      35.493  24.012  24.635  1.00  0.00     0.049 H 
ATOM      9  H   UNL A   1      37.016  23.430  23.969  1.00  0.00     0.049 H 
BRANCH   7  10
ATOM     10  N   UNL A   1      35.893  22.013  24.940  1.00  0.00    -0.353 N 
ATOM     11  O   UNL A   1      33.683  22.424  24.481  1.00  0.00    -0.270 OA
ATOM     12  C   UNL A   1      34.576  21.658  24.827  1.00  0.00     0.243 C 
ATOM     13  H   UNL A   1      36.559  21.312  25.125  1.00  0.00     0.163 HD
BRANCH  12  14
ATOM     14  C   UNL A   1      34.239  20.246  25.143  1.00  0.00     0.003 C 
ATOM     15  C   UNL A   1      33.695  19.351  24.303  1.00  0.00    -0.049 C 
ATOM     16  H   UNL A   1      34.441  19.922  26.102  1.00  0.00     0.068 H 
ATOM     17  H   UNL A   1      33.386  19.669  23.370  1.00  0.00     0.063 H 
BRANCH  15  18
ATOM     18  C   UNL A   1      33.524  17.937  24.662  1.00  0.00    -0.022 A 
ATOM     19  C   UNL A   1      32.274  17.397  25.011  1.00  0.00    -0.051 A 
ATOM     20  C   UNL A   1      34.647  17.102  24.640  1.00  0.00    -0.009 A 
ATOM     21  C   UNL A   1      32.152  16.049  25.372  1.00  0.00    -0.016 A 
ATOM     22  H   UNL A   1      31.437  18.000  25.000  1.00  0.00     0.063 H 
ATOM     23  C   UNL A   1      34.518  15.768  25.002  1.00  0.00     0.157 A 
ATOM     24  H   UNL A   1      35.567  17.476  24.356  1.00  0.00     0.067 H 
ATOM     25  C   UNL A   1      33.283  15.244  25.372  1.00  0.00     0.157 A 
ATOM     26  H   UNL A   1      31.233  15.660  25.635  1.00  0.00     0.066 H 
BRANCH  23  27
ATOM     27  O   UNL A   1      35.626  14.970  25.001  1.00  0.00    -0.504 OA
ATOM     28  H   UNL A   1      36.184  14.941  25.753  1.00  0.00     0.293 HD
ENDBRANCH  23  27
BRANCH  25  29
ATOM     29  O   UNL A   1      33.235  13.926  25.732  1.00  0.00    -0.504 OA
ATOM     30  H   UNL A   1      32.459  13.425  25.572  1.00  0.00     0.293 HD
ENDBRANCH  25  29
ENDBRANCH  15  18
ENDBRANCH  12  14
ENDBRANCH   7  10
ENDBRANCH   4   7
ENDBRANCH   1   4
BRANCH   1  31
ATOM     31  C   UNL A   1      39.311  22.653  26.597  1.00  0.00    -0.052 C 
ATOM     32  H   UNL A   1      38.786  22.424  27.500  1.00  0.00     0.027 H 
ATOM     33  H   UNL A   1      40.325  22.956  26.757  1.00  0.00     0.027 H 
BRANCH  31  34
ATOM     34  C   UNL A   1      39.376  21.382  25.751  1.00  0.00    -0.036 C 
ATOM     35  H   UNL A   1      40.177  21.490  25.049  1.00  0.00     0.028 H 
ATOM     36  H   UNL A   1      38.418  21.280  25.287  1.00  0.00     0.028 H 
BRANCH  34  37
ATOM     37  C   UNL A   1      39.609  20.097  26.539  1.00  0.00     0.018 C 
ATOM     38  H   UNL A   1      38.703  19.527  26.540  1.00  0.00     0.049 H 
ATOM     39  H   UNL A   1      39.901  20.374  27.531  1.00  0.00     0.049 H 
BRANCH  37  40
ATOM     40  N   UNL A   1      40.675  19.280  25.978  1.00  0.00    -0.352 N 
ATOM     41  C   UNL A   1      41.994  19.602  25.767  1.00  0.00     0.251 C 
ATOM     42  H   UNL A   1      40.413  18.370  25.711  1.00  0.00     0.163 HD
ATOM     43  O   UNL A   1      42.725  18.846  25.134  1.00  0.00    -0.269 OA
BRANCH  41  44
ATOM     44  C   UNL A   1      42.527  20.880  26.283  1.00  0.00     0.039 A 
ATOM     45  C   UNL A   1      42.932  21.863  25.376  1.00  0.00    -0.049 A 
ATOM     46  C   UNL A   1      42.614  21.113  27.658  1.00  0.00    -0.049 A 
ATOM     47  C   UNL A   1      43.356  23.108  25.848  1.00  0.00    -0.053 A 
ATOM     48  H   UNL A   1      42.918  21.671  24.362  1.00  0.00     0.063 H 
ATOM     49  C   UNL A   1      42.967  22.376  28.124  1.00  0.00    -0.053 A 
ATOM     50  H   UNL A   1      42.418  20.351  28.326  1.00  0.00     0.063 H 
ATOM     51  C   UNL A   1      43.340  23.388  27.223  1.00  0.00    -0.014 A 
ATOM     52  H   UNL A   1      43.682  23.826  25.182  1.00  0.00     0.063 H 
ATOM     53  H   UNL A   1      42.955  22.570  29.137  1.00  0.00     0.063 H 
BRANCH  51  54
ATOM     54  C   UNL A   1      43.711  24.727  27.753  1.00  0.00     0.031 A 
ATOM     55  C   UNL A   1      42.633  25.716  28.108  1.00  0.00     0.074 A 
ATOM     56  C   UNL A   1      45.008  25.084  27.832  1.00  0.00     0.049 A 
ATOM     57  N   UNL A   1      42.744  26.973  28.459  1.00  0.00    -0.248 NA
ATOM     58  C   UNL A   1      41.244  25.237  28.031  1.00  0.00    -0.034 C 
ATOM     59  C   UNL A   1      46.145  24.230  27.486  1.00  0.00    -0.036 A 
ATOM     60  N   UNL A   1      45.590  26.270  28.209  1.00  0.00    -0.354 N 
ATOM     61  C   UNL A   1      41.445  27.437  28.615  1.00  0.00     0.074 A 
ATOM     62  C   UNL A   1      40.559  26.342  28.287  1.00  0.00    -0.034 C 
ATOM     63  H   UNL A   1      40.893  24.287  27.831  1.00  0.00     0.065 H 
ATOM     64  C   UNL A   1      47.285  24.914  27.674  1.00  0.00    -0.036 A 
ATOM     65  H   UNL A   1      46.081  23.256  27.149  1.00  0.00     0.065 H 
ATOM     66  C   UNL A   1      46.962  26.268  28.110  1.00  0.00     0.049 A 
ATOM     67  H   UNL A   1      45.074  27.049  28.521  1.00  0.00     0.167 HD
ATOM     68  C   UNL A   1      41.031  28.664  29.012  1.00  0.00     0.037 A 
ATOM     69  H   UNL A   1      39.529  26.413  28.254  1.00  0.00     0.065 H 
ATOM     70  H   UNL A   1      48.237  24.541  27.534  1.00  0.00     0.065 H 
ATOM     71  C   UNL A   1      47.854  27.256  28.327  1.00  0.00     0.037 A 
ATOM     72  C   UNL A   1      41.915  29.736  29.383  1.00  0.00     0.049 A 
ATOM     73  C   UNL A   1      47.357  28.612  28.760  1.00  0.00     0.074 A 
ATOM     74  C   UNL A   1      41.589  30.988  29.877  1.00  0.00    -0.036 A 
ATOM     75  N   UNL A   1      43.298  29.686  29.299  1.00  0.00    -0.354 N 
ATOM     76  N   UNL A   1      46.131  29.015  28.979  1.00  0.00    -0.248 NA
ATOM     77  C   UNL A   1      48.375  29.652  28.979  1.00  0.00    -0.034 C 
ATOM     78  C   UNL A   1      42.772  31.714  30.039  1.00  0.00    -0.036 A 
ATOM     79  H   UNL A   1      40.638  31.325  30.088  1.00  0.00     0.065 H 
ATOM     80  C   UNL A   1      43.838  30.895  29.706  1.00  0.00     0.049 A 
ATOM     81  H   UNL A   1      43.818  28.907  28.995  1.00  0.00     0.167 HD
ATOM     82  C   UNL A   1      46.232  30.334  29.403  1.00  0.00     0.074 A 
ATOM     83  C   UNL A   1      47.640  30.663  29.418  1.00  0.00    -0.034 C 
ATOM     84  H   UNL A   1      49.394  29.606  28.829  1.00  0.00     0.065 H 
ATOM     85  H   UNL A   1      42.839  32.695  30.353  1.00  0.00     0.065 H 
ATOM     86  C   UNL A   1      45.245  31.196  29.749  1.00  0.00     0.037 A 
ATOM     87  H   UNL A   1      48.023  31.568  29.730  1.00  0.00     0.065 H 
BRANCH  68  88
ATOM     88  C   UNL A   1      39.554  28.925  29.077  1.00  0.00     0.064 A 
ATOM     89  C   UNL A   1      38.847  28.872  30.285  1.00  0.00     0.173 A 
ATOM     90  C   UNL A   1      38.856  29.320  27.924  1.00  0.00     0.173 A 
ATOM     91  F   UNL A   1      39.465  28.490  31.414  1.00  0.00    -0.203 F 
ATOM     92  C   UNL A   1      37.493  29.190  30.337  1.00  0.00     0.198 A 
ATOM     93  C   UNL A   1      37.510  29.668  27.984  1.00  0.00     0.198 A 
ATOM     94  F   UNL A   1      39.489  29.394  26.743  1.00  0.00    -0.203 F 
ATOM     95  F   UNL A   1      36.829  29.103  31.498  1.00  0.00    -0.200 F 
ATOM     96  C   UNL A   1      36.829  29.599  29.190  1.00  0.00     0.200 A 
ATOM     97  F   UNL A   1      36.875  30.078  26.878  1.00  0.00    -0.200 F 
ATOM     98  F   UNL A   1      35.531  29.928  29.246  1.00  0.00    -0.200 F 
ENDBRANCH  68  88
BRANCH  71  99
ATOM     99  C   UNL A   1      49.310  27.014  28.141  1.00  0.00     0.064 A 
ATOM    100  C   UNL A   1      50.114  26.599  29.214  1.00  0.00     0.173 A 
ATOM    101  C   UNL A   1      49.940  27.244  26.908  1.00  0.00     0.173 A 
ATOM    102  F   UNL A   1      49.564  26.386  30.418  1.00  0.00    -0.203 F 
ATOM    103  C   UNL A   1      51.494  26.465  29.072  1.00  0.00     0.198 A 
ATOM    104  C   UNL A   1      51.315  27.076  26.760  1.00  0.00     0.198 A 
ATOM    105  F   UNL A   1      49.220  27.638  25.849  1.00  0.00    -0.203 F 
ATOM    106  F   UNL A   1      52.245  26.136  30.132  1.00  0.00    -0.200 F 
ATOM    107  C   UNL A   1      52.094  26.701  27.845  1.00  0.00     0.200 A 
ATOM    108  F   UNL A   1      51.889  27.291  25.568  1.00  0.00    -0.200 F 
ATOM    109  F   UNL A   1      53.421  26.582  27.711  1.00  0.00    -0.200 F 
ENDBRANCH  71  99
BRANCH  86 110
ATOM    110  C   UNL A   1      45.648  32.556  30.239  1.00  0.00     0.064 A 
ATOM    111  C   UNL A   1      45.764  33.652  29.373  1.00  0.00     0.173 A 
ATOM    112  C   UNL A   1      45.862  32.775  31.609  1.00  0.00     0.173 A 
ATOM    113  F   UNL A   1      45.584  33.492  28.053  1.00  0.00    -0.203 F 
ATOM    114  C   UNL A   1      46.101  34.913  29.857  1.00  0.00     0.198 A 
ATOM    115  C   UNL A   1      46.166  34.043  32.094  1.00  0.00     0.198 A 
ATOM    116  F   UNL A   1      45.756  31.761  32.482  1.00  0.00    -0.203 F 
ATOM    117  F   UNL A   1      46.250  35.937  29.006  1.00  0.00    -0.200 F 
ATOM    118  C   UNL A   1      46.291  35.109  31.218  1.00  0.00     0.200 A 
ATOM    119  F   UNL A   1      46.332  34.235  33.411  1.00  0.00    -0.200 F 
ATOM    120  F   UNL A   1      46.600  36.328  31.683  1.00  0.00    -0.200 F 
ENDBRANCH  86 110
ENDBRANCH  51  54
ENDBRANCH  41  44
ENDBRANCH  37  40
ENDBRANCH  34  37
ENDBRANCH  31  34
ENDBRANCH   1  31
TORSDOF 16
ENDMDL
