MODEL 1
REMARK VINA RESULT:     -12.4      0.000      0.000
REMARK SMILES C[C@@H](C(=O)NCCCCCCNC(=O)c1ccc(-c2c3nc(c(-c4c(F)c(F)c(F)c(F)c4F)c4ccc([nH]4)c(-c4c(F)c(F)c(F)c(F)c4F)c4nc(c(-c5c(F)c(F)c(F)c(F)c5F)c5ccc2[nH]5)C=C4)C=C3)cc1)c1ccccc1-c1ccn(C(F)F)c(=O)c1
REMARK SMILES IDX 8 1 7 4 6 7 5 10 3 11 4 12 2 14 1 16 78 20 79 21 83 22 80 23
REMARK SMILES IDX 82 25 81 26 84 30 85 31 93 32 86 33 91 35 87 37 92 39 88 40
REMARK SMILES IDX 89 41 90 42 9 44 10 47 11 50 12 53 13 54 14 56 15 57 16 58
REMARK SMILES IDX 77 59 17 60 76 62 18 64 19 67 20 68 70 69 21 70 75 71 69 72
REMARK SMILES IDX 71 73 22 74 74 75 68 77 67 79 23 81 55 84 35 85 54 86 36 87
REMARK SMILES IDX 39 88 53 89 72 90 37 91 38 93 52 95 73 96 40 99 24 101
REMARK SMILES IDX 25 102 33 103 26 104 27 105 31 106 34 107 28 108 29 109
REMARK SMILES IDX 32 110 30 111 56 112 57 113 65 114 58 115 59 116 63 117
REMARK SMILES IDX 66 118 60 119 61 120 64 121 62 122 41 123 42 124 50 125
REMARK SMILES IDX 43 126 44 127 48 128 51 129 45 130 46 131 49 132 47 133
REMARK H PARENT 8 2 8 3 7 5 7 6 6 8 6 9 5 13 2 15 1 17 1 18 1 19 79 24 80 27
REMARK H PARENT 82 28 81 29 85 34 93 36 86 38 88 43 9 45 9 46 10 48 10 49
REMARK H PARENT 11 51 11 52 12 55 16 61 77 63 17 65 76 66 75 76 69 78 71 80
REMARK H PARENT 74 82 68 83 36 92 39 94 72 97 37 98 73 100
REMARK Flexibility Score: inf
ROOT
ATOM      1  C   UNL A   1      34.713  32.501  27.923  1.00  0.00    -0.052 C 
ATOM      2  H   UNL A   1      34.311  32.978  27.053  1.00  0.00     0.027 H 
ATOM      3  H   UNL A   1      35.779  32.408  27.897  1.00  0.00     0.027 H 
ENDROOT
BRANCH   1   4
ATOM      4  C   UNL A   1      34.153  31.072  27.987  1.00  0.00    -0.036 C 
ATOM      5  H   UNL A   1      34.935  30.388  27.728  1.00  0.00     0.028 H 
ATOM      6  H   UNL A   1      33.795  30.915  28.984  1.00  0.00     0.028 H 
BRANCH   4   7
ATOM      7  C   UNL A   1      32.972  30.840  27.040  1.00  0.00     0.017 C 
ATOM      8  H   UNL A   1      32.189  30.330  27.560  1.00  0.00     0.049 H 
ATOM      9  H   UNL A   1      32.602  31.779  26.684  1.00  0.00     0.049 H 
BRANCH   7  10
ATOM     10  N   UNL A   1      33.420  30.034  25.923  1.00  0.00    -0.356 N 
ATOM     11  C   UNL A   1      33.104  28.740  25.626  1.00  0.00     0.227 C 
ATOM     12  O   UNL A   1      33.914  28.107  24.946  1.00  0.00    -0.274 OA
ATOM     13  H   UNL A   1      34.035  30.478  25.295  1.00  0.00     0.163 HD
BRANCH  11  14
ATOM     14  C   UNL A   1      31.759  28.165  26.087  1.00  0.00     0.061 C 
ATOM     15  H   UNL A   1      30.942  28.761  25.738  1.00  0.00     0.045 H 
BRANCH  14  16
ATOM     16  C   UNL A   1      31.707  28.204  27.622  1.00  0.00    -0.049 C 
ATOM     17  H   UNL A   1      31.737  29.220  27.954  1.00  0.00     0.024 H 
ATOM     18  H   UNL A   1      32.546  27.673  28.021  1.00  0.00     0.024 H 
ATOM     19  H   UNL A   1      30.801  27.745  27.960  1.00  0.00     0.024 H 
ENDBRANCH  14  16
BRANCH  14  20
ATOM     20  C   UNL A   1      31.519  26.780  25.463  1.00  0.00    -0.028 A 
ATOM     21  C   UNL A   1      32.047  25.624  26.075  1.00  0.00    -0.058 A 
ATOM     22  C   UNL A   1      30.802  26.620  24.247  1.00  0.00    -0.014 A 
ATOM     23  C   UNL A   1      31.888  24.358  25.508  1.00  0.00    -0.062 A 
ATOM     24  H   UNL A   1      32.565  25.715  26.962  1.00  0.00     0.063 H 
ATOM     25  C   UNL A   1      30.674  25.339  23.679  1.00  0.00    -0.054 A 
ATOM     26  C   UNL A   1      31.210  24.216  24.306  1.00  0.00    -0.062 A 
ATOM     27  H   UNL A   1      32.273  23.528  25.984  1.00  0.00     0.062 H 
ATOM     28  H   UNL A   1      30.174  25.228  22.783  1.00  0.00     0.063 H 
ATOM     29  H   UNL A   1      31.105  23.283  23.878  1.00  0.00     0.062 H 
BRANCH  22  30
ATOM     30  C   UNL A   1      30.148  27.737  23.524  1.00  0.00    -0.011 A 
ATOM     31  C   UNL A   1      30.856  28.656  22.652  1.00  0.00    -0.038 A 
ATOM     32  C   UNL A   1      28.818  27.878  23.664  1.00  0.00     0.012 A 
ATOM     33  C   UNL A   1      30.226  29.705  22.109  1.00  0.00     0.013 A 
ATOM     34  H   UNL A   1      31.855  28.498  22.448  1.00  0.00     0.064 H 
ATOM     35  C   UNL A   1      28.087  28.993  23.000  1.00  0.00     0.255 A 
ATOM     36  H   UNL A   1      28.296  27.202  24.242  1.00  0.00     0.069 H 
ATOM     37  N   UNL A   1      28.873  29.899  22.305  1.00  0.00    -0.258 N 
ATOM     38  H   UNL A   1      30.761  30.378  21.537  1.00  0.00     0.082 H 
ATOM     39  O   UNL A   1      26.869  29.053  23.126  1.00  0.00    -0.269 OA
BRANCH  37  40
ATOM     40  C   UNL A   1      28.205  31.036  21.726  1.00  0.00     0.321 C 
ATOM     41  F   UNL A   1      29.062  32.068  21.546  1.00  0.00    -0.185 F 
ATOM     42  F   UNL A   1      27.661  30.724  20.523  1.00  0.00    -0.185 F 
ATOM     43  H   UNL A   1      27.433  31.320  22.411  1.00  0.00     0.131 H 
ENDBRANCH  37  40
ENDBRANCH  22  30
ENDBRANCH  14  20
ENDBRANCH  11  14
ENDBRANCH   7  10
ENDBRANCH   4   7
ENDBRANCH   1   4
BRANCH   1  44
ATOM     44  C   UNL A   1      34.384  33.371  29.140  1.00  0.00    -0.052 C 
ATOM     45  H   UNL A   1      35.267  33.910  29.414  1.00  0.00     0.027 H 
ATOM     46  H   UNL A   1      34.045  32.708  29.908  1.00  0.00     0.027 H 
BRANCH  44  47
ATOM     47  C   UNL A   1      33.261  34.382  28.911  1.00  0.00    -0.036 C 
ATOM     48  H   UNL A   1      32.393  34.047  29.439  1.00  0.00     0.028 H 
ATOM     49  H   UNL A   1      33.105  34.437  27.854  1.00  0.00     0.028 H 
BRANCH  47  50
ATOM     50  C   UNL A   1      33.593  35.793  29.381  1.00  0.00     0.018 C 
ATOM     51  H   UNL A   1      33.540  36.458  28.544  1.00  0.00     0.049 H 
ATOM     52  H   UNL A   1      34.577  35.779  29.801  1.00  0.00     0.049 H 
BRANCH  50  53
ATOM     53  N   UNL A   1      32.673  36.256  30.407  1.00  0.00    -0.352 N 
ATOM     54  C   UNL A   1      32.634  35.917  31.740  1.00  0.00     0.251 C 
ATOM     55  H   UNL A   1      31.987  36.896  30.109  1.00  0.00     0.163 HD
ATOM     56  O   UNL A   1      31.691  36.233  32.444  1.00  0.00    -0.269 OA
BRANCH  54  57
ATOM     57  C   UNL A   1      33.757  35.137  32.301  1.00  0.00     0.039 A 
ATOM     58  C   UNL A   1      33.514  33.860  32.810  1.00  0.00    -0.049 A 
ATOM     59  C   UNL A   1      35.051  35.664  32.283  1.00  0.00    -0.049 A 
ATOM     60  C   UNL A   1      34.587  33.079  33.246  1.00  0.00    -0.053 A 
ATOM     61  H   UNL A   1      32.550  33.495  32.863  1.00  0.00     0.063 H 
ATOM     62  C   UNL A   1      36.122  34.860  32.649  1.00  0.00    -0.053 A 
ATOM     63  H   UNL A   1      35.209  36.643  32.000  1.00  0.00     0.063 H 
ATOM     64  C   UNL A   1      35.900  33.562  33.137  1.00  0.00    -0.014 A 
ATOM     65  H   UNL A   1      34.413  32.145  33.650  1.00  0.00     0.063 H 
ATOM     66  H   UNL A   1      37.087  35.218  32.563  1.00  0.00     0.063 H 
BRANCH  64  67
ATOM     67  C   UNL A   1      37.072  32.745  33.537  1.00  0.00     0.031 A 
ATOM     68  C   UNL A   1      37.789  33.060  34.818  1.00  0.00     0.074 A 
ATOM     69  C   UNL A   1      37.558  31.810  32.699  1.00  0.00     0.049 A 
ATOM     70  N   UNL A   1      38.925  32.594  35.270  1.00  0.00    -0.248 NA
ATOM     71  C   UNL A   1      37.161  34.065  35.687  1.00  0.00    -0.034 C 
ATOM     72  C   UNL A   1      36.974  31.447  31.408  1.00  0.00    -0.036 A 
ATOM     73  N   UNL A   1      38.676  31.019  32.795  1.00  0.00    -0.354 N 
ATOM     74  C   UNL A   1      39.162  33.273  36.457  1.00  0.00     0.074 A 
ATOM     75  C   UNL A   1      38.077  34.215  36.630  1.00  0.00    -0.034 C 
ATOM     76  H   UNL A   1      36.246  34.532  35.588  1.00  0.00     0.065 H 
ATOM     77  C   UNL A   1      37.740  30.509  30.829  1.00  0.00    -0.036 A 
ATOM     78  H   UNL A   1      36.112  31.849  31.006  1.00  0.00     0.065 H 
ATOM     79  C   UNL A   1      38.890  30.237  31.686  1.00  0.00     0.049 A 
ATOM     80  H   UNL A   1      39.266  31.013  33.583  1.00  0.00     0.167 HD
ATOM     81  C   UNL A   1      40.184  33.111  37.331  1.00  0.00     0.037 A 
ATOM     82  H   UNL A   1      38.026  34.913  37.389  1.00  0.00     0.065 H 
ATOM     83  H   UNL A   1      37.547  30.053  29.923  1.00  0.00     0.065 H 
ATOM     84  C   UNL A   1      39.914  29.415  31.384  1.00  0.00     0.037 A 
ATOM     85  C   UNL A   1      41.241  32.151  37.163  1.00  0.00     0.049 A 
ATOM     86  C   UNL A   1      41.036  29.243  32.370  1.00  0.00     0.074 A 
ATOM     87  C   UNL A   1      42.278  31.850  38.027  1.00  0.00    -0.036 A 
ATOM     88  N   UNL A   1      41.397  31.338  36.049  1.00  0.00    -0.354 N 
ATOM     89  N   UNL A   1      41.217  29.836  33.525  1.00  0.00    -0.248 NA
ATOM     90  C   UNL A   1      42.094  28.287  32.016  1.00  0.00    -0.034 C 
ATOM     91  C   UNL A   1      43.093  30.894  37.412  1.00  0.00    -0.036 A 
ATOM     92  H   UNL A   1      42.425  32.259  38.963  1.00  0.00     0.065 H 
ATOM     93  C   UNL A   1      42.531  30.556  36.190  1.00  0.00     0.049 A 
ATOM     94  H   UNL A   1      40.792  31.320  35.272  1.00  0.00     0.167 HD
ATOM     95  C   UNL A   1      42.388  29.306  34.049  1.00  0.00     0.074 A 
ATOM     96  C   UNL A   1      42.877  28.342  33.085  1.00  0.00    -0.034 C 
ATOM     97  H   UNL A   1      42.200  27.719  31.160  1.00  0.00     0.065 H 
ATOM     98  H   UNL A   1      43.966  30.506  37.803  1.00  0.00     0.065 H 
ATOM     99  C   UNL A   1      42.999  29.591  35.226  1.00  0.00     0.037 A 
ATOM    100  H   UNL A   1      43.726  27.770  33.214  1.00  0.00     0.065 H 
BRANCH  81 101
ATOM    101  C   UNL A   1      40.209  34.008  38.536  1.00  0.00     0.064 A 
ATOM    102  C   UNL A   1      39.556  33.666  39.730  1.00  0.00     0.173 A 
ATOM    103  C   UNL A   1      40.895  35.232  38.493  1.00  0.00     0.173 A 
ATOM    104  F   UNL A   1      38.878  32.511  39.822  1.00  0.00    -0.203 F 
ATOM    105  C   UNL A   1      39.549  34.534  40.818  1.00  0.00     0.198 A 
ATOM    106  C   UNL A   1      40.915  36.082  39.596  1.00  0.00     0.198 A 
ATOM    107  F   UNL A   1      41.541  35.608  37.380  1.00  0.00    -0.203 F 
ATOM    108  F   UNL A   1      38.859  34.215  41.922  1.00  0.00    -0.200 F 
ATOM    109  C   UNL A   1      40.231  35.738  40.752  1.00  0.00     0.200 A 
ATOM    110  F   UNL A   1      41.587  37.240  39.536  1.00  0.00    -0.200 F 
ATOM    111  F   UNL A   1      40.218  36.575  41.799  1.00  0.00    -0.200 F 
ENDBRANCH  81 101
BRANCH  84 112
ATOM    112  C   UNL A   1      39.904  28.691  30.087  1.00  0.00     0.064 A 
ATOM    113  C   UNL A   1      40.504  29.244  28.948  1.00  0.00     0.173 A 
ATOM    114  C   UNL A   1      39.337  27.412  29.972  1.00  0.00     0.173 A 
ATOM    115  F   UNL A   1      41.043  30.470  29.004  1.00  0.00    -0.203 F 
ATOM    116  C   UNL A   1      40.532  28.547  27.742  1.00  0.00     0.198 A 
ATOM    117  C   UNL A   1      39.389  26.707  28.772  1.00  0.00     0.198 A 
ATOM    118  F   UNL A   1      38.759  26.837  31.037  1.00  0.00    -0.203 F 
ATOM    119  F   UNL A   1      41.089  29.109  26.660  1.00  0.00    -0.200 F 
ATOM    120  C   UNL A   1      39.983  27.277  27.657  1.00  0.00     0.200 A 
ATOM    121  F   UNL A   1      38.873  25.473  28.701  1.00  0.00    -0.200 F 
ATOM    122  F   UNL A   1      40.027  26.601  26.501  1.00  0.00    -0.200 F 
ENDBRANCH  84 112
BRANCH  99 123
ATOM    123  C   UNL A   1      44.244  28.828  35.568  1.00  0.00     0.064 A 
ATOM    124  C   UNL A   1      45.518  29.304  35.230  1.00  0.00     0.173 A 
ATOM    125  C   UNL A   1      44.161  27.648  36.325  1.00  0.00     0.173 A 
ATOM    126  F   UNL A   1      45.649  30.419  34.496  1.00  0.00    -0.203 F 
ATOM    127  C   UNL A   1      46.664  28.625  35.633  1.00  0.00     0.198 A 
ATOM    128  C   UNL A   1      45.309  26.986  36.749  1.00  0.00     0.198 A 
ATOM    129  F   UNL A   1      42.964  27.155  36.679  1.00  0.00    -0.203 F 
ATOM    130  F   UNL A   1      47.872  29.084  35.278  1.00  0.00    -0.200 F 
ATOM    131  C   UNL A   1      46.560  27.474  36.402  1.00  0.00     0.200 A 
ATOM    132  F   UNL A   1      45.205  25.884  37.504  1.00  0.00    -0.200 F 
ATOM    133  F   UNL A   1      47.665  26.834  36.808  1.00  0.00    -0.200 F 
ENDBRANCH  99 123
ENDBRANCH  64  67
ENDBRANCH  54  57
ENDBRANCH  50  53
ENDBRANCH  47  50
ENDBRANCH  44  47
ENDBRANCH   1  44
TORSDOF 17
ENDMDL
MODEL 2
REMARK VINA RESULT:     -12.4      1.669      7.540
REMARK SMILES C[C@@H](C(=O)NCCCCCCNC(=O)c1ccc(-c2c3nc(c(-c4c(F)c(F)c(F)c(F)c4F)c4ccc([nH]4)c(-c4c(F)c(F)c(F)c(F)c4F)c4nc(c(-c5c(F)c(F)c(F)c(F)c5F)c5ccc2[nH]5)C=C4)C=C3)cc1)c1ccccc1-c1ccn(C(F)F)c(=O)c1
REMARK SMILES IDX 8 1 7 4 6 7 5 10 3 11 4 12 2 14 1 16 78 20 79 21 83 22 80 23
REMARK SMILES IDX 82 25 81 26 84 30 85 31 93 32 86 33 91 35 87 37 92 39 88 40
REMARK SMILES IDX 89 41 90 42 9 44 10 47 11 50 12 53 13 54 14 56 15 57 16 58
REMARK SMILES IDX 77 59 17 60 76 62 18 64 19 67 20 68 70 69 21 70 75 71 69 72
REMARK SMILES IDX 71 73 22 74 74 75 68 77 67 79 23 81 55 84 35 85 54 86 36 87
REMARK SMILES IDX 39 88 53 89 72 90 37 91 38 93 52 95 73 96 40 99 24 101
REMARK SMILES IDX 25 102 33 103 26 104 27 105 31 106 34 107 28 108 29 109
REMARK SMILES IDX 32 110 30 111 56 112 57 113 65 114 58 115 59 116 63 117
REMARK SMILES IDX 66 118 60 119 61 120 64 121 62 122 41 123 42 124 50 125
REMARK SMILES IDX 43 126 44 127 48 128 51 129 45 130 46 131 49 132 47 133
REMARK H PARENT 8 2 8 3 7 5 7 6 6 8 6 9 5 13 2 15 1 17 1 18 1 19 79 24 80 27
REMARK H PARENT 82 28 81 29 85 34 93 36 86 38 88 43 9 45 9 46 10 48 10 49
REMARK H PARENT 11 51 11 52 12 55 16 61 77 63 17 65 76 66 75 76 69 78 71 80
REMARK H PARENT 74 82 68 83 36 92 39 94 72 97 37 98 73 100
REMARK Flexibility Score: inf
ROOT
ATOM      1  C   UNL A   1      33.067  29.857  26.855  1.00  0.00    -0.052 C 
ATOM      2  H   UNL A   1      33.414  30.044  25.861  1.00  0.00     0.027 H 
ATOM      3  H   UNL A   1      33.728  30.234  27.608  1.00  0.00     0.027 H 
ENDROOT
BRANCH   1   4
ATOM      4  C   UNL A   1      32.995  28.336  27.061  1.00  0.00    -0.036 C 
ATOM      5  H   UNL A   1      33.252  27.856  26.139  1.00  0.00     0.028 H 
ATOM      6  H   UNL A   1      33.678  28.089  27.847  1.00  0.00     0.028 H 
BRANCH   4   7
ATOM      7  C   UNL A   1      31.610  27.848  27.494  1.00  0.00     0.017 C 
ATOM      8  H   UNL A   1      31.486  28.004  28.545  1.00  0.00     0.049 H 
ATOM      9  H   UNL A   1      30.852  28.391  26.968  1.00  0.00     0.049 H 
BRANCH   7  10
ATOM     10  N   UNL A   1      31.498  26.435  27.195  1.00  0.00    -0.356 N 
ATOM     11  C   UNL A   1      30.701  25.821  26.273  1.00  0.00     0.227 C 
ATOM     12  O   UNL A   1      30.403  24.644  26.485  1.00  0.00    -0.274 OA
ATOM     13  H   UNL A   1      32.072  25.839  27.728  1.00  0.00     0.163 HD
BRANCH  11  14
ATOM     14  C   UNL A   1      30.276  26.585  25.012  1.00  0.00     0.061 C 
ATOM     15  H   UNL A   1      30.048  27.606  25.235  1.00  0.00     0.045 H 
BRANCH  14  16
ATOM     16  C   UNL A   1      28.985  25.954  24.467  1.00  0.00    -0.049 C 
ATOM     17  H   UNL A   1      28.570  26.589  23.712  1.00  0.00     0.024 H 
ATOM     18  H   UNL A   1      28.280  25.837  25.263  1.00  0.00     0.024 H 
ATOM     19  H   UNL A   1      29.208  24.997  24.044  1.00  0.00     0.024 H 
ENDBRANCH  14  16
BRANCH  14  20
ATOM     20  C   UNL A   1      31.437  26.660  24.007  1.00  0.00    -0.028 A 
ATOM     21  C   UNL A   1      32.393  25.624  23.945  1.00  0.00    -0.058 A 
ATOM     22  C   UNL A   1      31.611  27.776  23.145  1.00  0.00    -0.014 A 
ATOM     23  C   UNL A   1      33.484  25.686  23.077  1.00  0.00    -0.062 A 
ATOM     24  H   UNL A   1      32.283  24.800  24.556  1.00  0.00     0.063 H 
ATOM     25  C   UNL A   1      32.731  27.831  22.295  1.00  0.00    -0.054 A 
ATOM     26  C   UNL A   1      33.659  26.792  22.260  1.00  0.00    -0.062 A 
ATOM     27  H   UNL A   1      34.161  24.908  23.043  1.00  0.00     0.062 H 
ATOM     28  H   UNL A   1      32.868  28.654  21.687  1.00  0.00     0.063 H 
ATOM     29  H   UNL A   1      34.474  26.846  21.629  1.00  0.00     0.062 H 
BRANCH  22  30
ATOM     30  C   UNL A   1      30.658  28.910  23.065  1.00  0.00    -0.011 A 
ATOM     31  C   UNL A   1      30.589  29.975  24.047  1.00  0.00    -0.038 A 
ATOM     32  C   UNL A   1      29.840  28.963  21.999  1.00  0.00     0.012 A 
ATOM     33  C   UNL A   1      29.639  30.914  23.972  1.00  0.00     0.013 A 
ATOM     34  H   UNL A   1      31.281  30.008  24.813  1.00  0.00     0.064 H 
ATOM     35  C   UNL A   1      28.831  30.049  21.857  1.00  0.00     0.255 A 
ATOM     36  H   UNL A   1      29.913  28.240  21.267  1.00  0.00     0.069 H 
ATOM     37  N   UNL A   1      28.746  30.937  22.917  1.00  0.00    -0.258 N 
ATOM     38  H   UNL A   1      29.572  31.630  24.712  1.00  0.00     0.082 H 
ATOM     39  O   UNL A   1      28.136  30.076  20.847  1.00  0.00    -0.269 OA
BRANCH  37  40
ATOM     40  C   UNL A   1      27.720  31.945  22.849  1.00  0.00     0.321 C 
ATOM     41  F   UNL A   1      26.905  31.889  23.928  1.00  0.00    -0.185 F 
ATOM     42  F   UNL A   1      28.259  33.188  22.791  1.00  0.00    -0.185 F 
ATOM     43  H   UNL A   1      27.158  31.751  21.959  1.00  0.00     0.131 H 
ENDBRANCH  37  40
ENDBRANCH  22  30
ENDBRANCH  14  20
ENDBRANCH  11  14
ENDBRANCH   7  10
ENDBRANCH   4   7
ENDBRANCH   1   4
BRANCH   1  44
ATOM     44  C   UNL A   1      31.735  30.590  27.042  1.00  0.00    -0.052 C 
ATOM     45  H   UNL A   1      31.436  30.486  28.065  1.00  0.00     0.027 H 
ATOM     46  H   UNL A   1      31.043  30.147  26.358  1.00  0.00     0.027 H 
BRANCH  44  47
ATOM     47  C   UNL A   1      31.782  32.081  26.710  1.00  0.00    -0.036 C 
ATOM     48  H   UNL A   1      30.861  32.526  27.026  1.00  0.00     0.028 H 
ATOM     49  H   UNL A   1      31.935  32.159  25.654  1.00  0.00     0.028 H 
BRANCH  47  50
ATOM     50  C   UNL A   1      32.929  32.829  27.379  1.00  0.00     0.018 C 
ATOM     51  H   UNL A   1      33.766  32.844  26.712  1.00  0.00     0.049 H 
ATOM     52  H   UNL A   1      33.169  32.320  28.289  1.00  0.00     0.049 H 
BRANCH  50  53
ATOM     53  N   UNL A   1      32.568  34.198  27.710  1.00  0.00    -0.352 N 
ATOM     54  C   UNL A   1      33.056  34.992  28.722  1.00  0.00     0.251 C 
ATOM     55  H   UNL A   1      31.883  34.610  27.135  1.00  0.00     0.163 HD
ATOM     56  O   UNL A   1      32.526  36.053  29.002  1.00  0.00    -0.269 OA
BRANCH  54  57
ATOM     57  C   UNL A   1      34.232  34.521  29.483  1.00  0.00     0.039 A 
ATOM     58  C   UNL A   1      34.039  33.861  30.697  1.00  0.00    -0.049 A 
ATOM     59  C   UNL A   1      35.517  34.704  28.966  1.00  0.00    -0.049 A 
ATOM     60  C   UNL A   1      35.139  33.322  31.368  1.00  0.00    -0.053 A 
ATOM     61  H   UNL A   1      33.091  33.769  31.095  1.00  0.00     0.063 H 
ATOM     62  C   UNL A   1      36.600  34.106  29.597  1.00  0.00    -0.053 A 
ATOM     63  H   UNL A   1      35.660  35.279  28.121  1.00  0.00     0.063 H 
ATOM     64  C   UNL A   1      36.421  33.414  30.806  1.00  0.00    -0.014 A 
ATOM     65  H   UNL A   1      35.008  32.858  32.281  1.00  0.00     0.063 H 
ATOM     66  H   UNL A   1      37.540  34.172  29.177  1.00  0.00     0.063 H 
BRANCH  64  67
ATOM     67  C   UNL A   1      37.609  32.809  31.457  1.00  0.00     0.031 A 
ATOM     68  C   UNL A   1      38.309  31.658  30.794  1.00  0.00     0.074 A 
ATOM     69  C   UNL A   1      37.979  33.210  32.688  1.00  0.00     0.049 A 
ATOM     70  N   UNL A   1      39.247  30.876  31.261  1.00  0.00    -0.248 NA
ATOM     71  C   UNL A   1      37.862  31.319  29.435  1.00  0.00    -0.034 C 
ATOM     72  C   UNL A   1      37.348  34.286  33.451  1.00  0.00    -0.036 A 
ATOM     73  N   UNL A   1      38.957  32.735  33.526  1.00  0.00    -0.354 N 
ATOM     74  C   UNL A   1      39.479  29.935  30.268  1.00  0.00     0.074 A 
ATOM     75  C   UNL A   1      38.550  30.214  29.194  1.00  0.00    -0.034 C 
ATOM     76  H   UNL A   1      37.189  31.812  28.828  1.00  0.00     0.065 H 
ATOM     77  C   UNL A   1      37.949  34.386  34.647  1.00  0.00    -0.036 A 
ATOM     78  H   UNL A   1      36.565  34.874  33.123  1.00  0.00     0.065 H 
ATOM     79  C   UNL A   1      38.977  33.355  34.751  1.00  0.00     0.049 A 
ATOM     80  H   UNL A   1      39.583  32.019  33.272  1.00  0.00     0.167 HD
ATOM     81  C   UNL A   1      40.396  28.938  30.249  1.00  0.00     0.037 A 
ATOM     82  H   UNL A   1      38.439  29.629  28.352  1.00  0.00     0.065 H 
ATOM     83  H   UNL A   1      37.722  35.081  35.376  1.00  0.00     0.065 H 
ATOM     84  C   UNL A   1      39.722  33.101  35.845  1.00  0.00     0.037 A 
ATOM     85  C   UNL A   1      41.334  28.687  31.310  1.00  0.00     0.049 A 
ATOM     86  C   UNL A   1      40.739  31.995  35.802  1.00  0.00     0.074 A 
ATOM     87  C   UNL A   1      42.356  27.757  31.356  1.00  0.00    -0.036 A 
ATOM     88  N   UNL A   1      41.358  29.371  32.518  1.00  0.00    -0.354 N 
ATOM     89  N   UNL A   1      41.002  31.153  34.831  1.00  0.00    -0.248 NA
ATOM     90  C   UNL A   1      41.567  31.803  37.001  1.00  0.00    -0.034 C 
ATOM     91  C   UNL A   1      42.964  27.840  32.612  1.00  0.00    -0.036 A 
ATOM     92  H   UNL A   1      42.623  27.113  30.595  1.00  0.00     0.065 H 
ATOM     93  C   UNL A   1      42.359  28.863  33.328  1.00  0.00     0.049 A 
ATOM     94  H   UNL A   1      40.753  30.108  32.762  1.00  0.00     0.167 HD
ATOM     95  C   UNL A   1      42.041  30.354  35.288  1.00  0.00     0.074 A 
ATOM     96  C   UNL A   1      42.362  30.810  36.625  1.00  0.00    -0.034 C 
ATOM     97  H   UNL A   1      41.538  32.309  37.901  1.00  0.00     0.065 H 
ATOM     98  H   UNL A   1      43.733  27.240  32.950  1.00  0.00     0.065 H 
ATOM     99  C   UNL A   1      42.674  29.337  34.653  1.00  0.00     0.037 A 
ATOM    100  H   UNL A   1      43.115  30.415  37.209  1.00  0.00     0.065 H 
BRANCH  81 101
ATOM    101  C   UNL A   1      40.410  28.038  29.046  1.00  0.00     0.064 A 
ATOM    102  C   UNL A   1      41.172  28.336  27.905  1.00  0.00     0.173 A 
ATOM    103  C   UNL A   1      39.647  26.860  29.034  1.00  0.00     0.173 A 
ATOM    104  F   UNL A   1      41.912  29.454  27.861  1.00  0.00    -0.203 F 
ATOM    105  C   UNL A   1      41.131  27.515  26.782  1.00  0.00     0.198 A 
ATOM    106  C   UNL A   1      39.637  26.023  27.921  1.00  0.00     0.198 A 
ATOM    107  F   UNL A   1      38.905  26.522  30.098  1.00  0.00    -0.203 F 
ATOM    108  F   UNL A   1      41.813  27.859  25.679  1.00  0.00    -0.200 F 
ATOM    109  C   UNL A   1      40.369  26.359  26.791  1.00  0.00     0.200 A 
ATOM    110  F   UNL A   1      38.911  24.897  27.937  1.00  0.00    -0.200 F 
ATOM    111  F   UNL A   1      40.328  25.572  25.706  1.00  0.00    -0.200 F 
ENDBRANCH  81 101
BRANCH  84 112
ATOM    112  C   UNL A   1      39.527  33.927  37.064  1.00  0.00     0.064 A 
ATOM    113  C   UNL A   1      40.101  35.200  37.171  1.00  0.00     0.173 A 
ATOM    114  C   UNL A   1      38.725  33.479  38.125  1.00  0.00     0.173 A 
ATOM    115  F   UNL A   1      40.890  35.663  36.191  1.00  0.00    -0.203 F 
ATOM    116  C   UNL A   1      39.885  35.993  38.297  1.00  0.00     0.198 A 
ATOM    117  C   UNL A   1      38.489  34.284  39.237  1.00  0.00     0.198 A 
ATOM    118  F   UNL A   1      38.145  32.270  38.065  1.00  0.00    -0.203 F 
ATOM    119  F   UNL A   1      40.467  37.197  38.387  1.00  0.00    -0.200 F 
ATOM    120  C   UNL A   1      39.072  35.538  39.324  1.00  0.00     0.200 A 
ATOM    121  F   UNL A   1      37.688  33.847  40.219  1.00  0.00    -0.200 F 
ATOM    122  F   UNL A   1      38.850  36.309  40.398  1.00  0.00    -0.200 F 
ENDBRANCH  84 112
BRANCH  99 123
ATOM    123  C   UNL A   1      43.808  28.665  35.369  1.00  0.00     0.064 A 
ATOM    124  C   UNL A   1      43.603  27.556  36.200  1.00  0.00     0.173 A 
ATOM    125  C   UNL A   1      45.130  29.085  35.146  1.00  0.00     0.173 A 
ATOM    126  F   UNL A   1      42.358  27.125  36.456  1.00  0.00    -0.203 F 
ATOM    127  C   UNL A   1      44.678  26.894  36.786  1.00  0.00     0.198 A 
ATOM    128  C   UNL A   1      46.203  28.405  35.712  1.00  0.00     0.198 A 
ATOM    129  F   UNL A   1      45.379  30.139  34.353  1.00  0.00    -0.203 F 
ATOM    130  F   UNL A   1      44.458  25.850  37.598  1.00  0.00    -0.200 F 
ATOM    131  C   UNL A   1      45.977  27.310  36.532  1.00  0.00     0.200 A 
ATOM    132  F   UNL A   1      47.457  28.801  35.452  1.00  0.00    -0.200 F 
ATOM    133  F   UNL A   1      47.012  26.657  37.079  1.00  0.00    -0.200 F 
ENDBRANCH  99 123
ENDBRANCH  64  67
ENDBRANCH  54  57
ENDBRANCH  50  53
ENDBRANCH  47  50
ENDBRANCH  44  47
ENDBRANCH   1  44
TORSDOF 17
ENDMDL
MODEL 3
REMARK VINA RESULT:     -12.3      2.623      7.967
REMARK SMILES C[C@@H](C(=O)NCCCCCCNC(=O)c1ccc(-c2c3nc(c(-c4c(F)c(F)c(F)c(F)c4F)c4ccc([nH]4)c(-c4c(F)c(F)c(F)c(F)c4F)c4nc(c(-c5c(F)c(F)c(F)c(F)c5F)c5ccc2[nH]5)C=C4)C=C3)cc1)c1ccccc1-c1ccn(C(F)F)c(=O)c1
REMARK SMILES IDX 8 1 7 4 6 7 5 10 3 11 4 12 2 14 1 16 78 20 79 21 83 22 80 23
REMARK SMILES IDX 82 25 81 26 84 30 85 31 93 32 86 33 91 35 87 37 92 39 88 40
REMARK SMILES IDX 89 41 90 42 9 44 10 47 11 50 12 53 13 54 14 56 15 57 16 58
REMARK SMILES IDX 77 59 17 60 76 62 18 64 19 67 20 68 70 69 21 70 75 71 69 72
REMARK SMILES IDX 71 73 22 74 74 75 68 77 67 79 23 81 55 84 35 85 54 86 36 87
REMARK SMILES IDX 39 88 53 89 72 90 37 91 38 93 52 95 73 96 40 99 24 101
REMARK SMILES IDX 25 102 33 103 26 104 27 105 31 106 34 107 28 108 29 109
REMARK SMILES IDX 32 110 30 111 56 112 57 113 65 114 58 115 59 116 63 117
REMARK SMILES IDX 66 118 60 119 61 120 64 121 62 122 41 123 42 124 50 125
REMARK SMILES IDX 43 126 44 127 48 128 51 129 45 130 46 131 49 132 47 133
REMARK H PARENT 8 2 8 3 7 5 7 6 6 8 6 9 5 13 2 15 1 17 1 18 1 19 79 24 80 27
REMARK H PARENT 82 28 81 29 85 34 93 36 86 38 88 43 9 45 9 46 10 48 10 49
REMARK H PARENT 11 51 11 52 12 55 16 61 77 63 17 65 76 66 75 76 69 78 71 80
REMARK H PARENT 74 82 68 83 36 92 39 94 72 97 37 98 73 100
REMARK Flexibility Score: inf
ROOT
ATOM      1  C   UNL A   1      33.076  30.011  27.149  1.00  0.00    -0.052 C 
ATOM      2  H   UNL A   1      33.888  30.342  26.536  1.00  0.00     0.027 H 
ATOM      3  H   UNL A   1      33.126  30.387  28.150  1.00  0.00     0.027 H 
ENDROOT
BRANCH   1   4
ATOM      4  C   UNL A   1      33.148  28.480  27.256  1.00  0.00    -0.036 C 
ATOM      5  H   UNL A   1      33.544  28.224  28.217  1.00  0.00     0.028 H 
ATOM      6  H   UNL A   1      32.155  28.105  27.116  1.00  0.00     0.028 H 
BRANCH   4   7
ATOM      7  C   UNL A   1      34.030  27.838  26.181  1.00  0.00     0.017 C 
ATOM      8  H   UNL A   1      35.051  27.846  26.501  1.00  0.00     0.049 H 
ATOM      9  H   UNL A   1      33.723  26.826  26.015  1.00  0.00     0.049 H 
BRANCH   7  10
ATOM     10  N   UNL A   1      33.899  28.598  24.954  1.00  0.00    -0.356 N 
ATOM     11  C   UNL A   1      33.781  28.136  23.676  1.00  0.00     0.227 C 
ATOM     12  O   UNL A   1      34.148  28.889  22.772  1.00  0.00    -0.274 OA
ATOM     13  H   UNL A   1      33.896  29.577  25.057  1.00  0.00     0.163 HD
BRANCH  11  14
ATOM     14  C   UNL A   1      33.153  26.759  23.424  1.00  0.00     0.061 C 
ATOM     15  H   UNL A   1      33.459  26.051  24.165  1.00  0.00     0.045 H 
BRANCH  14  16
ATOM     16  C   UNL A   1      33.657  26.228  22.073  1.00  0.00    -0.049 C 
ATOM     17  H   UNL A   1      33.679  27.028  21.362  1.00  0.00     0.024 H 
ATOM     18  H   UNL A   1      33.001  25.458  21.724  1.00  0.00     0.024 H 
ATOM     19  H   UNL A   1      34.644  25.831  22.192  1.00  0.00     0.024 H 
ENDBRANCH  14  16
BRANCH  14  20
ATOM     20  C   UNL A   1      31.624  26.827  23.565  1.00  0.00    -0.028 A 
ATOM     21  C   UNL A   1      30.901  27.884  22.972  1.00  0.00    -0.058 A 
ATOM     22  C   UNL A   1      30.897  25.867  24.320  1.00  0.00    -0.014 A 
ATOM     23  C   UNL A   1      29.518  28.000  23.122  1.00  0.00    -0.062 A 
ATOM     24  H   UNL A   1      31.406  28.588  22.414  1.00  0.00     0.063 H 
ATOM     25  C   UNL A   1      29.507  26.016  24.480  1.00  0.00    -0.054 A 
ATOM     26  C   UNL A   1      28.822  27.073  23.884  1.00  0.00    -0.062 A 
ATOM     27  H   UNL A   1      29.013  28.776  22.667  1.00  0.00     0.062 H 
ATOM     28  H   UNL A   1      28.985  25.331  25.048  1.00  0.00     0.063 H 
ATOM     29  H   UNL A   1      27.802  27.166  24.009  1.00  0.00     0.062 H 
BRANCH  22  30
ATOM     30  C   UNL A   1      31.517  24.678  24.953  1.00  0.00    -0.011 A 
ATOM     31  C   UNL A   1      32.078  24.678  26.290  1.00  0.00    -0.038 A 
ATOM     32  C   UNL A   1      31.524  23.530  24.252  1.00  0.00     0.012 A 
ATOM     33  C   UNL A   1      32.714  23.601  26.765  1.00  0.00     0.013 A 
ATOM     34  H   UNL A   1      31.985  25.519  26.883  1.00  0.00     0.064 H 
ATOM     35  C   UNL A   1      32.155  22.297  24.799  1.00  0.00     0.255 A 
ATOM     36  H   UNL A   1      31.083  23.504  23.319  1.00  0.00     0.069 H 
ATOM     37  N   UNL A   1      32.789  22.437  26.024  1.00  0.00    -0.258 N 
ATOM     38  H   UNL A   1      33.156  23.641  27.697  1.00  0.00     0.082 H 
ATOM     39  O   UNL A   1      32.098  21.266  24.138  1.00  0.00    -0.269 OA
BRANCH  37  40
ATOM     40  C   UNL A   1      33.484  21.286  26.537  1.00  0.00     0.321 C 
ATOM     41  F   UNL A   1      34.587  21.011  25.802  1.00  0.00    -0.185 F 
ATOM     42  F   UNL A   1      33.872  21.481  27.822  1.00  0.00    -0.185 F 
ATOM     43  H   UNL A   1      32.799  20.465  26.485  1.00  0.00     0.131 H 
ENDBRANCH  37  40
ENDBRANCH  22  30
ENDBRANCH  14  20
ENDBRANCH  11  14
ENDBRANCH   7  10
ENDBRANCH   4   7
ENDBRANCH   1   4
BRANCH   1  44
ATOM     44  C   UNL A   1      31.773  30.549  26.549  1.00  0.00    -0.052 C 
ATOM     45  H   UNL A   1      30.956  30.024  27.000  1.00  0.00     0.027 H 
ATOM     46  H   UNL A   1      31.836  30.394  25.493  1.00  0.00     0.027 H 
BRANCH  44  47
ATOM     47  C   UNL A   1      31.551  32.046  26.759  1.00  0.00    -0.036 C 
ATOM     48  H   UNL A   1      30.689  32.175  27.380  1.00  0.00     0.028 H 
ATOM     49  H   UNL A   1      31.428  32.480  25.789  1.00  0.00     0.028 H 
BRANCH  47  50
ATOM     50  C   UNL A   1      32.726  32.760  27.415  1.00  0.00     0.018 C 
ATOM     51  H   UNL A   1      33.575  32.696  26.767  1.00  0.00     0.049 H 
ATOM     52  H   UNL A   1      32.920  32.285  28.354  1.00  0.00     0.049 H 
BRANCH  50  53
ATOM     53  N   UNL A   1      32.437  34.162  27.672  1.00  0.00    -0.352 N 
ATOM     54  C   UNL A   1      33.001  34.996  28.611  1.00  0.00     0.251 C 
ATOM     55  H   UNL A   1      31.747  34.568  27.100  1.00  0.00     0.163 HD
ATOM     56  O   UNL A   1      32.528  36.095  28.843  1.00  0.00    -0.269 OA
BRANCH  54  57
ATOM     57  C   UNL A   1      34.186  34.521  29.354  1.00  0.00     0.039 A 
ATOM     58  C   UNL A   1      34.012  33.883  30.583  1.00  0.00    -0.049 A 
ATOM     59  C   UNL A   1      35.462  34.677  28.806  1.00  0.00    -0.049 A 
ATOM     60  C   UNL A   1      35.119  33.340  31.238  1.00  0.00    -0.053 A 
ATOM     61  H   UNL A   1      33.072  33.811  31.003  1.00  0.00     0.063 H 
ATOM     62  C   UNL A   1      36.550  34.074  29.423  1.00  0.00    -0.053 A 
ATOM     63  H   UNL A   1      35.594  35.236  27.949  1.00  0.00     0.063 H 
ATOM     64  C   UNL A   1      36.390  33.404  30.647  1.00  0.00    -0.014 A 
ATOM     65  H   UNL A   1      35.002  32.892  32.162  1.00  0.00     0.063 H 
ATOM     66  H   UNL A   1      37.482  34.121  28.981  1.00  0.00     0.063 H 
BRANCH  64  67
ATOM     67  C   UNL A   1      37.583  32.794  31.282  1.00  0.00     0.031 A 
ATOM     68  C   UNL A   1      38.261  31.631  30.616  1.00  0.00     0.074 A 
ATOM     69  C   UNL A   1      37.979  33.202  32.502  1.00  0.00     0.049 A 
ATOM     70  N   UNL A   1      39.200  30.844  31.073  1.00  0.00    -0.248 NA
ATOM     71  C   UNL A   1      37.786  31.285  29.268  1.00  0.00    -0.034 C 
ATOM     72  C   UNL A   1      37.371  34.290  33.268  1.00  0.00    -0.036 A 
ATOM     73  N   UNL A   1      38.967  32.724  33.327  1.00  0.00    -0.354 N 
ATOM     74  C   UNL A   1      39.405  29.892  30.084  1.00  0.00     0.074 A 
ATOM     75  C   UNL A   1      38.459  30.172  29.024  1.00  0.00    -0.034 C 
ATOM     76  H   UNL A   1      37.107  31.779  28.669  1.00  0.00     0.065 H 
ATOM     77  C   UNL A   1      37.995  34.394  34.451  1.00  0.00    -0.036 A 
ATOM     78  H   UNL A   1      36.588  34.883  32.948  1.00  0.00     0.065 H 
ATOM     79  C   UNL A   1      39.015  33.354  34.546  1.00  0.00     0.049 A 
ATOM     80  H   UNL A   1      39.582  32.000  33.068  1.00  0.00     0.167 HD
ATOM     81  C   UNL A   1      40.312  28.887  30.056  1.00  0.00     0.037 A 
ATOM     82  H   UNL A   1      38.327  29.580  28.189  1.00  0.00     0.065 H 
ATOM     83  H   UNL A   1      37.787  35.097  35.178  1.00  0.00     0.065 H 
ATOM     84  C   UNL A   1      39.777  33.102  35.628  1.00  0.00     0.037 A 
ATOM     85  C   UNL A   1      41.266  28.636  31.102  1.00  0.00     0.049 A 
ATOM     86  C   UNL A   1      40.783  31.986  35.577  1.00  0.00     0.074 A 
ATOM     87  C   UNL A   1      42.280  27.696  31.138  1.00  0.00    -0.036 A 
ATOM     88  N   UNL A   1      41.318  29.330  32.304  1.00  0.00    -0.354 N 
ATOM     89  N   UNL A   1      41.021  31.134  34.609  1.00  0.00    -0.248 NA
ATOM     90  C   UNL A   1      41.630  31.796  36.762  1.00  0.00    -0.034 C 
ATOM     91  C   UNL A   1      42.912  27.784  32.383  1.00  0.00    -0.036 A 
ATOM     92  H   UNL A   1      42.528  27.044  30.379  1.00  0.00     0.065 H 
ATOM     93  C   UNL A   1      42.329  28.818  33.101  1.00  0.00     0.049 A 
ATOM     94  H   UNL A   1      40.725  30.074  32.553  1.00  0.00     0.167 HD
ATOM     95  C   UNL A   1      42.060  30.329  35.053  1.00  0.00     0.074 A 
ATOM     96  C   UNL A   1      42.410  30.793  36.380  1.00  0.00    -0.034 C 
ATOM     97  H   UNL A   1      41.622  32.310  37.658  1.00  0.00     0.065 H 
ATOM     98  H   UNL A   1      43.681  27.180  32.712  1.00  0.00     0.065 H 
ATOM     99  C   UNL A   1      42.672  29.300  34.416  1.00  0.00     0.037 A 
ATOM    100  H   UNL A   1      43.169  30.395  36.954  1.00  0.00     0.065 H 
BRANCH  81 101
ATOM    101  C   UNL A   1      40.296  27.977  28.861  1.00  0.00     0.064 A 
ATOM    102  C   UNL A   1      39.580  26.770  28.857  1.00  0.00     0.173 A 
ATOM    103  C   UNL A   1      41.011  28.318  27.702  1.00  0.00     0.173 A 
ATOM    104  F   UNL A   1      38.887  26.392  29.942  1.00  0.00    -0.203 F 
ATOM    105  C   UNL A   1      39.620  25.916  27.758  1.00  0.00     0.198 A 
ATOM    106  C   UNL A   1      41.019  27.478  26.591  1.00  0.00     0.198 A 
ATOM    107  F   UNL A   1      41.708  29.462  27.648  1.00  0.00    -0.203 F 
ATOM    108  F   UNL A   1      38.985  24.736  27.806  1.00  0.00    -0.200 F 
ATOM    109  C   UNL A   1      40.335  26.272  26.626  1.00  0.00     0.200 A 
ATOM    110  F   UNL A   1      41.699  27.830  25.492  1.00  0.00    -0.200 F 
ATOM    111  F   UNL A   1      40.375  25.446  25.570  1.00  0.00    -0.200 F 
ENDBRANCH  81 101
BRANCH  84 112
ATOM    112  C   UNL A   1      39.611  33.940  36.844  1.00  0.00     0.064 A 
ATOM    113  C   UNL A   1      40.217  35.199  36.939  1.00  0.00     0.173 A 
ATOM    114  C   UNL A   1      38.807  33.518  37.914  1.00  0.00     0.173 A 
ATOM    115  F   UNL A   1      41.010  35.637  35.950  1.00  0.00    -0.203 F 
ATOM    116  C   UNL A   1      40.029  36.004  38.061  1.00  0.00     0.198 A 
ATOM    117  C   UNL A   1      38.599  34.335  39.023  1.00  0.00     0.198 A 
ATOM    118  F   UNL A   1      38.198  32.324  37.865  1.00  0.00    -0.203 F 
ATOM    119  F   UNL A   1      40.641  37.193  38.139  1.00  0.00    -0.200 F 
ATOM    120  C   UNL A   1      39.214  35.575  39.097  1.00  0.00     0.200 A 
ATOM    121  F   UNL A   1      37.795  33.924  40.013  1.00  0.00    -0.200 F 
ATOM    122  F   UNL A   1      39.019  36.357  40.167  1.00  0.00    -0.200 F 
ENDBRANCH  84 112
BRANCH  99 123
ATOM    123  C   UNL A   1      43.813  28.624  35.117  1.00  0.00     0.064 A 
ATOM    124  C   UNL A   1      45.128  29.095  35.010  1.00  0.00     0.173 A 
ATOM    125  C   UNL A   1      43.568  27.545  35.981  1.00  0.00     0.173 A 
ATOM    126  F   UNL A   1      45.416  30.114  34.186  1.00  0.00    -0.203 F 
ATOM    127  C   UNL A   1      46.159  28.506  35.738  1.00  0.00     0.198 A 
ATOM    128  C   UNL A   1      44.595  26.976  36.728  1.00  0.00     0.198 A 
ATOM    129  F   UNL A   1      42.324  27.062  36.123  1.00  0.00    -0.203 F 
ATOM    130  F   UNL A   1      47.414  28.955  35.602  1.00  0.00    -0.200 F 
ATOM    131  C   UNL A   1      45.890  27.457  36.605  1.00  0.00     0.200 A 
ATOM    132  F   UNL A   1      44.330  25.973  37.576  1.00  0.00    -0.200 F 
ATOM    133  F   UNL A   1      46.880  26.906  37.322  1.00  0.00    -0.200 F 
ENDBRANCH  99 123
ENDBRANCH  64  67
ENDBRANCH  54  57
ENDBRANCH  50  53
ENDBRANCH  47  50
ENDBRANCH  44  47
ENDBRANCH   1  44
TORSDOF 17
ENDMDL
MODEL 4
REMARK VINA RESULT:     -12.3      6.302     10.621
REMARK SMILES C[C@@H](C(=O)NCCCCCCNC(=O)c1ccc(-c2c3nc(c(-c4c(F)c(F)c(F)c(F)c4F)c4ccc([nH]4)c(-c4c(F)c(F)c(F)c(F)c4F)c4nc(c(-c5c(F)c(F)c(F)c(F)c5F)c5ccc2[nH]5)C=C4)C=C3)cc1)c1ccccc1-c1ccn(C(F)F)c(=O)c1
REMARK SMILES IDX 8 1 7 4 6 7 5 10 3 11 4 12 2 14 1 16 78 20 79 21 83 22 80 23
REMARK SMILES IDX 82 25 81 26 84 30 85 31 93 32 86 33 91 35 87 37 92 39 88 40
REMARK SMILES IDX 89 41 90 42 9 44 10 47 11 50 12 53 13 54 14 56 15 57 16 58
REMARK SMILES IDX 77 59 17 60 76 62 18 64 19 67 20 68 70 69 21 70 75 71 69 72
REMARK SMILES IDX 71 73 22 74 74 75 68 77 67 79 23 81 55 84 35 85 54 86 36 87
REMARK SMILES IDX 39 88 53 89 72 90 37 91 38 93 52 95 73 96 40 99 24 101
REMARK SMILES IDX 25 102 33 103 26 104 27 105 31 106 34 107 28 108 29 109
REMARK SMILES IDX 32 110 30 111 56 112 57 113 65 114 58 115 59 116 63 117
REMARK SMILES IDX 66 118 60 119 61 120 64 121 62 122 41 123 42 124 50 125
REMARK SMILES IDX 43 126 44 127 48 128 51 129 45 130 46 131 49 132 47 133
REMARK H PARENT 8 2 8 3 7 5 7 6 6 8 6 9 5 13 2 15 1 17 1 18 1 19 79 24 80 27
REMARK H PARENT 82 28 81 29 85 34 93 36 86 38 88 43 9 45 9 46 10 48 10 49
REMARK H PARENT 11 51 11 52 12 55 16 61 77 63 17 65 76 66 75 76 69 78 71 80
REMARK H PARENT 74 82 68 83 36 92 39 94 72 97 37 98 73 100
REMARK Flexibility Score: inf
ROOT
ATOM      1  C   UNL A   1      35.859  21.866  25.099  1.00  0.00    -0.052 C 
ATOM      2  H   UNL A   1      35.030  21.241  24.840  1.00  0.00     0.027 H 
ATOM      3  H   UNL A   1      36.106  21.827  26.139  1.00  0.00     0.027 H 
ENDROOT
BRANCH   1   4
ATOM      4  C   UNL A   1      35.474  23.323  24.798  1.00  0.00    -0.036 C 
ATOM      5  H   UNL A   1      36.365  23.870  24.571  1.00  0.00     0.028 H 
ATOM      6  H   UNL A   1      34.790  23.307  23.975  1.00  0.00     0.028 H 
BRANCH   4   7
ATOM      7  C   UNL A   1      34.763  24.015  25.965  1.00  0.00     0.017 C 
ATOM      8  H   UNL A   1      35.453  24.648  26.482  1.00  0.00     0.049 H 
ATOM      9  H   UNL A   1      33.952  24.608  25.596  1.00  0.00     0.049 H 
BRANCH   7  10
ATOM     10  N   UNL A   1      34.258  23.003  26.871  1.00  0.00    -0.356 N 
ATOM     11  C   UNL A   1      32.967  22.759  27.239  1.00  0.00     0.227 C 
ATOM     12  O   UNL A   1      32.790  22.207  28.327  1.00  0.00    -0.274 OA
ATOM     13  H   UNL A   1      34.936  22.415  27.274  1.00  0.00     0.163 HD
BRANCH  11  14
ATOM     14  C   UNL A   1      31.826  23.116  26.278  1.00  0.00     0.061 C 
ATOM     15  H   UNL A   1      31.883  24.138  25.968  1.00  0.00     0.045 H 
BRANCH  14  16
ATOM     16  C   UNL A   1      30.490  22.954  27.019  1.00  0.00    -0.049 C 
ATOM     17  H   UNL A   1      30.659  22.462  27.954  1.00  0.00     0.024 H 
ATOM     18  H   UNL A   1      29.819  22.370  26.424  1.00  0.00     0.024 H 
ATOM     19  H   UNL A   1      30.062  23.918  27.197  1.00  0.00     0.024 H 
ENDBRANCH  14  16
BRANCH  14  20
ATOM     20  C   UNL A   1      31.946  22.312  24.973  1.00  0.00    -0.028 A 
ATOM     21  C   UNL A   1      32.153  20.917  25.013  1.00  0.00    -0.058 A 
ATOM     22  C   UNL A   1      31.894  22.939  23.699  1.00  0.00    -0.014 A 
ATOM     23  C   UNL A   1      32.314  20.166  23.847  1.00  0.00    -0.062 A 
ATOM     24  H   UNL A   1      32.187  20.439  25.926  1.00  0.00     0.063 H 
ATOM     25  C   UNL A   1      32.083  22.169  22.536  1.00  0.00    -0.054 A 
ATOM     26  C   UNL A   1      32.289  20.792  22.609  1.00  0.00    -0.062 A 
ATOM     27  H   UNL A   1      32.451  19.146  23.905  1.00  0.00     0.062 H 
ATOM     28  H   UNL A   1      32.068  22.630  21.613  1.00  0.00     0.063 H 
ATOM     29  H   UNL A   1      32.423  20.242  21.747  1.00  0.00     0.062 H 
BRANCH  22  30
ATOM     30  C   UNL A   1      31.630  24.385  23.503  1.00  0.00    -0.011 A 
ATOM     31  C   UNL A   1      32.650  25.347  23.131  1.00  0.00    -0.038 A 
ATOM     32  C   UNL A   1      30.363  24.813  23.649  1.00  0.00     0.012 A 
ATOM     33  C   UNL A   1      32.367  26.653  23.071  1.00  0.00     0.013 A 
ATOM     34  H   UNL A   1      33.604  25.019  22.911  1.00  0.00     0.064 H 
ATOM     35  C   UNL A   1      30.016  26.254  23.503  1.00  0.00     0.255 A 
ATOM     36  H   UNL A   1      29.619  24.131  23.864  1.00  0.00     0.069 H 
ATOM     37  N   UNL A   1      31.083  27.113  23.288  1.00  0.00    -0.258 N 
ATOM     38  H   UNL A   1      33.121  27.327  22.860  1.00  0.00     0.082 H 
ATOM     39  O   UNL A   1      28.841  26.588  23.605  1.00  0.00    -0.269 OA
BRANCH  37  40
ATOM     40  C   UNL A   1      30.789  28.521  23.232  1.00  0.00     0.321 C 
ATOM     41  F   UNL A   1      30.659  29.045  24.473  1.00  0.00    -0.185 F 
ATOM     42  F   UNL A   1      31.772  29.200  22.589  1.00  0.00    -0.185 F 
ATOM     43  H   UNL A   1      29.868  28.622  22.696  1.00  0.00     0.131 H 
ENDBRANCH  37  40
ENDBRANCH  22  30
ENDBRANCH  14  20
ENDBRANCH  11  14
ENDBRANCH   7  10
ENDBRANCH   4   7
ENDBRANCH   1   4
BRANCH   1  44
ATOM     44  C   UNL A   1      37.092  21.362  24.342  1.00  0.00    -0.052 C 
ATOM     45  H   UNL A   1      37.791  22.170  24.267  1.00  0.00     0.027 H 
ATOM     46  H   UNL A   1      36.748  21.020  23.389  1.00  0.00     0.027 H 
BRANCH  44  47
ATOM     47  C   UNL A   1      37.799  20.179  25.001  1.00  0.00    -0.036 C 
ATOM     48  H   UNL A   1      38.057  19.474  24.239  1.00  0.00     0.028 H 
ATOM     49  H   UNL A   1      37.121  19.776  25.723  1.00  0.00     0.028 H 
BRANCH  47  50
ATOM     50  C   UNL A   1      39.070  20.558  25.753  1.00  0.00     0.018 C 
ATOM     51  H   UNL A   1      38.802  20.905  26.729  1.00  0.00     0.049 H 
ATOM     52  H   UNL A   1      39.570  21.322  25.195  1.00  0.00     0.049 H 
BRANCH  50  53
ATOM     53  N   UNL A   1      39.979  19.431  25.888  1.00  0.00    -0.352 N 
ATOM     54  C   UNL A   1      41.340  19.448  26.092  1.00  0.00     0.251 C 
ATOM     55  H   UNL A   1      39.567  18.539  25.825  1.00  0.00     0.163 HD
ATOM     56  O   UNL A   1      42.004  18.431  25.995  1.00  0.00    -0.269 OA
BRANCH  54  57
ATOM     57  C   UNL A   1      41.989  20.736  26.413  1.00  0.00     0.039 A 
ATOM     58  C   UNL A   1      42.318  21.611  25.376  1.00  0.00    -0.049 A 
ATOM     59  C   UNL A   1      42.231  21.083  27.744  1.00  0.00    -0.049 A 
ATOM     60  C   UNL A   1      42.835  22.872  25.680  1.00  0.00    -0.053 A 
ATOM     61  H   UNL A   1      42.179  21.329  24.393  1.00  0.00     0.063 H 
ATOM     62  C   UNL A   1      42.677  22.363  28.047  1.00  0.00    -0.053 A 
ATOM     63  H   UNL A   1      42.079  20.394  28.497  1.00  0.00     0.063 H 
ATOM     64  C   UNL A   1      42.987  23.267  27.018  1.00  0.00    -0.014 A 
ATOM     65  H   UNL A   1      43.108  23.514  24.919  1.00  0.00     0.063 H 
ATOM     66  H   UNL A   1      42.783  22.651  29.033  1.00  0.00     0.063 H 
BRANCH  64  67
ATOM     67  C   UNL A   1      43.482  24.617  27.386  1.00  0.00     0.031 A 
ATOM     68  C   UNL A   1      42.518  25.634  27.925  1.00  0.00     0.074 A 
ATOM     69  C   UNL A   1      44.757  24.961  27.126  1.00  0.00     0.049 A 
ATOM     70  N   UNL A   1      42.695  26.911  28.145  1.00  0.00    -0.248 NA
ATOM     71  C   UNL A   1      41.159  25.154  28.217  1.00  0.00    -0.034 C 
ATOM     72  C   UNL A   1      45.773  24.073  26.561  1.00  0.00    -0.036 A 
ATOM     73  N   UNL A   1      45.405  26.162  27.270  1.00  0.00    -0.354 N 
ATOM     74  C   UNL A   1      41.465  27.392  28.570  1.00  0.00     0.074 A 
ATOM     75  C   UNL A   1      40.538  26.281  28.530  1.00  0.00    -0.034 C 
ATOM     76  H   UNL A   1      40.787  24.193  28.187  1.00  0.00     0.065 H 
ATOM     77  C   UNL A   1      46.915  24.760  26.402  1.00  0.00    -0.036 A 
ATOM     78  H   UNL A   1      45.634  23.078  26.323  1.00  0.00     0.065 H 
ATOM     79  C   UNL A   1      46.699  26.145  26.811  1.00  0.00     0.049 A 
ATOM     80  H   UNL A   1      44.982  26.959  27.665  1.00  0.00     0.167 HD
ATOM     81  C   UNL A   1      41.143  28.645  28.972  1.00  0.00     0.037 A 
ATOM     82  H   UNL A   1      39.527  26.357  28.719  1.00  0.00     0.065 H 
ATOM     83  H   UNL A   1      47.803  24.372  26.047  1.00  0.00     0.065 H 
ATOM     84  C   UNL A   1      47.600  27.141  26.706  1.00  0.00     0.037 A 
ATOM     85  C   UNL A   1      42.078  29.735  29.035  1.00  0.00     0.049 A 
ATOM     86  C   UNL A   1      47.227  28.523  27.164  1.00  0.00     0.074 A 
ATOM     87  C   UNL A   1      41.875  31.020  29.504  1.00  0.00    -0.036 A 
ATOM     88  N   UNL A   1      43.398  29.666  28.609  1.00  0.00    -0.354 N 
ATOM     89  N   UNL A   1      46.080  28.956  27.632  1.00  0.00    -0.248 NA
ATOM     90  C   UNL A   1      48.269  29.556  27.085  1.00  0.00    -0.034 C 
ATOM     91  C   UNL A   1      43.056  31.745  29.311  1.00  0.00    -0.036 A 
ATOM     92  H   UNL A   1      41.005  31.382  29.923  1.00  0.00     0.065 H 
ATOM     93  C   UNL A   1      44.013  30.895  28.777  1.00  0.00     0.049 A 
ATOM     94  H   UNL A   1      43.832  28.862  28.241  1.00  0.00     0.167 HD
ATOM     95  C   UNL A   1      46.270  30.298  27.931  1.00  0.00     0.074 A 
ATOM     96  C   UNL A   1      47.643  30.611  27.591  1.00  0.00    -0.034 C 
ATOM     97  H   UNL A   1      49.235  29.481  26.731  1.00  0.00     0.065 H 
ATOM     98  H   UNL A   1      43.191  32.745  29.529  1.00  0.00     0.065 H 
ATOM     99  C   UNL A   1      45.385  31.188  28.444  1.00  0.00     0.037 A 
ATOM    100  H   UNL A   1      48.078  31.536  27.727  1.00  0.00     0.065 H 
BRANCH  81 101
ATOM    101  C   UNL A   1      39.712  28.899  29.356  1.00  0.00     0.064 A 
ATOM    102  C   UNL A   1      39.251  28.705  30.667  1.00  0.00     0.173 A 
ATOM    103  C   UNL A   1      38.789  29.341  28.396  1.00  0.00     0.173 A 
ATOM    104  F   UNL A   1      40.090  28.275  31.622  1.00  0.00    -0.203 F 
ATOM    105  C   UNL A   1      37.911  28.897  30.992  1.00  0.00     0.198 A 
ATOM    106  C   UNL A   1      37.457  29.566  28.733  1.00  0.00     0.198 A 
ATOM    107  F   UNL A   1      39.176  29.549  27.129  1.00  0.00    -0.203 F 
ATOM    108  F   UNL A   1      37.481  28.637  32.235  1.00  0.00    -0.200 F 
ATOM    109  C   UNL A   1      37.016  29.331  30.027  1.00  0.00     0.200 A 
ATOM    110  F   UNL A   1      36.596  30.000  27.802  1.00  0.00    -0.200 F 
ATOM    111  F   UNL A   1      35.725  29.511  30.340  1.00  0.00    -0.200 F 
ENDBRANCH  81 101
BRANCH  84 112
ATOM    112  C   UNL A   1      48.946  26.847  26.149  1.00  0.00     0.064 A 
ATOM    113  C   UNL A   1      49.961  26.320  26.959  1.00  0.00     0.173 A 
ATOM    114  C   UNL A   1      49.229  27.042  24.789  1.00  0.00     0.173 A 
ATOM    115  F   UNL A   1      49.744  26.134  28.268  1.00  0.00    -0.203 F 
ATOM    116  C   UNL A   1      51.211  26.005  26.429  1.00  0.00     0.198 A 
ATOM    117  C   UNL A   1      50.470  26.702  24.256  1.00  0.00     0.198 A 
ATOM    118  F   UNL A   1      48.286  27.535  23.972  1.00  0.00    -0.203 F 
ATOM    119  F   UNL A   1      52.174  25.527  27.229  1.00  0.00    -0.200 F 
ATOM    120  C   UNL A   1      51.461  26.188  25.077  1.00  0.00     0.200 A 
ATOM    121  F   UNL A   1      50.700  26.863  22.946  1.00  0.00    -0.200 F 
ATOM    122  F   UNL A   1      52.657  25.867  24.565  1.00  0.00    -0.200 F 
ENDBRANCH  84 112
BRANCH  99 123
ATOM    123  C   UNL A   1      45.874  32.580  28.715  1.00  0.00     0.064 A 
ATOM    124  C   UNL A   1      46.517  32.917  29.913  1.00  0.00     0.173 A 
ATOM    125  C   UNL A   1      45.776  33.567  27.720  1.00  0.00     0.173 A 
ATOM    126  F   UNL A   1      46.624  32.014  30.900  1.00  0.00    -0.203 F 
ATOM    127  C   UNL A   1      47.041  34.192  30.109  1.00  0.00     0.198 A 
ATOM    128  C   UNL A   1      46.324  34.831  27.908  1.00  0.00     0.198 A 
ATOM    129  F   UNL A   1      45.174  33.291  26.552  1.00  0.00    -0.203 F 
ATOM    130  F   UNL A   1      47.630  34.501  31.272  1.00  0.00    -0.200 F 
ATOM    131  C   UNL A   1      46.955  35.144  29.102  1.00  0.00     0.200 A 
ATOM    132  F   UNL A   1      46.253  35.744  26.929  1.00  0.00    -0.200 F 
ATOM    133  F   UNL A   1      47.480  36.364  29.285  1.00  0.00    -0.200 F 
ENDBRANCH  99 123
ENDBRANCH  64  67
ENDBRANCH  54  57
ENDBRANCH  50  53
ENDBRANCH  47  50
ENDBRANCH  44  47
ENDBRANCH   1  44
TORSDOF 17
ENDMDL
MODEL 5
REMARK VINA RESULT:     -12.1      4.861      7.154
REMARK SMILES C[C@@H](C(=O)NCCCCCCNC(=O)c1ccc(-c2c3nc(c(-c4c(F)c(F)c(F)c(F)c4F)c4ccc([nH]4)c(-c4c(F)c(F)c(F)c(F)c4F)c4nc(c(-c5c(F)c(F)c(F)c(F)c5F)c5ccc2[nH]5)C=C4)C=C3)cc1)c1ccccc1-c1ccn(C(F)F)c(=O)c1
REMARK SMILES IDX 8 1 7 4 6 7 5 10 3 11 4 12 2 14 1 16 78 20 79 21 83 22 80 23
REMARK SMILES IDX 82 25 81 26 84 30 85 31 93 32 86 33 91 35 87 37 92 39 88 40
REMARK SMILES IDX 89 41 90 42 9 44 10 47 11 50 12 53 13 54 14 56 15 57 16 58
REMARK SMILES IDX 77 59 17 60 76 62 18 64 19 67 20 68 70 69 21 70 75 71 69 72
REMARK SMILES IDX 71 73 22 74 74 75 68 77 67 79 23 81 55 84 35 85 54 86 36 87
REMARK SMILES IDX 39 88 53 89 72 90 37 91 38 93 52 95 73 96 40 99 24 101
REMARK SMILES IDX 25 102 33 103 26 104 27 105 31 106 34 107 28 108 29 109
REMARK SMILES IDX 32 110 30 111 56 112 57 113 65 114 58 115 59 116 63 117
REMARK SMILES IDX 66 118 60 119 61 120 64 121 62 122 41 123 42 124 50 125
REMARK SMILES IDX 43 126 44 127 48 128 51 129 45 130 46 131 49 132 47 133
REMARK H PARENT 8 2 8 3 7 5 7 6 6 8 6 9 5 13 2 15 1 17 1 18 1 19 79 24 80 27
REMARK H PARENT 82 28 81 29 85 34 93 36 86 38 88 43 9 45 9 46 10 48 10 49
REMARK H PARENT 11 51 11 52 12 55 16 61 77 63 17 65 76 66 75 76 69 78 71 80
REMARK H PARENT 74 82 68 83 36 92 39 94 72 97 37 98 73 100
REMARK Flexibility Score: inf
ROOT
ATOM      1  C   UNL A   1      31.943  28.636  24.272  1.00  0.00    -0.052 C 
ATOM      2  H   UNL A   1      31.791  27.587  24.126  1.00  0.00     0.027 H 
ATOM      3  H   UNL A   1      31.219  29.239  23.765  1.00  0.00     0.027 H 
ENDROOT
BRANCH   1   4
ATOM      4  C   UNL A   1      33.311  29.009  23.680  1.00  0.00    -0.036 C 
ATOM      5  H   UNL A   1      33.208  29.928  23.140  1.00  0.00     0.028 H 
ATOM      6  H   UNL A   1      33.997  29.097  24.496  1.00  0.00     0.028 H 
BRANCH   4   7
ATOM      7  C   UNL A   1      33.870  27.947  22.730  1.00  0.00     0.017 C 
ATOM      8  H   UNL A   1      34.608  28.387  22.092  1.00  0.00     0.049 H 
ATOM      9  H   UNL A   1      34.322  27.157  23.293  1.00  0.00     0.049 H 
BRANCH   7  10
ATOM     10  N   UNL A   1      32.786  27.420  21.927  1.00  0.00    -0.356 N 
ATOM     11  C   UNL A   1      32.506  26.119  21.624  1.00  0.00     0.227 C 
ATOM     12  O   UNL A   1      31.866  25.909  20.592  1.00  0.00    -0.274 OA
ATOM     13  H   UNL A   1      32.170  28.088  21.550  1.00  0.00     0.163 HD
BRANCH  11  14
ATOM     14  C   UNL A   1      32.934  25.008  22.592  1.00  0.00     0.061 C 
ATOM     15  H   UNL A   1      33.905  25.200  22.999  1.00  0.00     0.045 H 
BRANCH  14  16
ATOM     16  C   UNL A   1      33.036  23.688  21.812  1.00  0.00    -0.049 C 
ATOM     17  H   UNL A   1      33.545  22.960  22.409  1.00  0.00     0.024 H 
ATOM     18  H   UNL A   1      33.580  23.850  20.905  1.00  0.00     0.024 H 
ATOM     19  H   UNL A   1      32.053  23.334  21.581  1.00  0.00     0.024 H 
ENDBRANCH  14  16
BRANCH  14  20
ATOM     20  C   UNL A   1      32.005  24.968  23.817  1.00  0.00    -0.028 A 
ATOM     21  C   UNL A   1      30.689  25.470  23.728  1.00  0.00    -0.058 A 
ATOM     22  C   UNL A   1      32.442  24.471  25.073  1.00  0.00    -0.014 A 
ATOM     23  C   UNL A   1      29.837  25.492  24.833  1.00  0.00    -0.062 A 
ATOM     24  H   UNL A   1      30.348  25.829  22.823  1.00  0.00     0.063 H 
ATOM     25  C   UNL A   1      31.577  24.524  26.183  1.00  0.00    -0.054 A 
ATOM     26  C   UNL A   1      30.284  25.029  26.062  1.00  0.00    -0.062 A 
ATOM     27  H   UNL A   1      28.876  25.852  24.736  1.00  0.00     0.062 H 
ATOM     28  H   UNL A   1      31.905  24.184  27.100  1.00  0.00     0.063 H 
ATOM     29  H   UNL A   1      29.660  25.059  26.884  1.00  0.00     0.062 H 
BRANCH  22  30
ATOM     30  C   UNL A   1      33.778  23.866  25.300  1.00  0.00    -0.011 A 
ATOM     31  C   UNL A   1      34.971  24.637  25.593  1.00  0.00    -0.038 A 
ATOM     32  C   UNL A   1      33.870  22.525  25.263  1.00  0.00     0.012 A 
ATOM     33  C   UNL A   1      36.165  24.040  25.686  1.00  0.00     0.013 A 
ATOM     34  H   UNL A   1      34.898  25.658  25.732  1.00  0.00     0.064 H 
ATOM     35  C   UNL A   1      35.179  21.838  25.447  1.00  0.00     0.255 A 
ATOM     36  H   UNL A   1      33.020  21.963  25.105  1.00  0.00     0.069 H 
ATOM     37  N   UNL A   1      36.282  22.667  25.579  1.00  0.00    -0.258 N 
ATOM     38  H   UNL A   1      37.009  24.613  25.839  1.00  0.00     0.082 H 
ATOM     39  O   UNL A   1      35.203  20.613  25.445  1.00  0.00    -0.269 OA
BRANCH  37  40
ATOM     40  C   UNL A   1      37.571  22.033  25.669  1.00  0.00     0.321 C 
ATOM     41  F   UNL A   1      37.922  21.467  24.491  1.00  0.00    -0.185 F 
ATOM     42  F   UNL A   1      38.533  22.926  26.012  1.00  0.00    -0.185 F 
ATOM     43  H   UNL A   1      37.490  21.279  26.425  1.00  0.00     0.131 H 
ENDBRANCH  37  40
ENDBRANCH  22  30
ENDBRANCH  14  20
ENDBRANCH  11  14
ENDBRANCH   7  10
ENDBRANCH   4   7
ENDBRANCH   1   4
BRANCH   1  44
ATOM     44  C   UNL A   1      31.790  28.938  25.766  1.00  0.00    -0.052 C 
ATOM     45  H   UNL A   1      30.747  28.908  26.008  1.00  0.00     0.027 H 
ATOM     46  H   UNL A   1      32.228  29.899  25.930  1.00  0.00     0.027 H 
BRANCH  44  47
ATOM     47  C   UNL A   1      32.520  27.962  26.687  1.00  0.00    -0.036 C 
ATOM     48  H   UNL A   1      32.715  27.063  26.140  1.00  0.00     0.028 H 
ATOM     49  H   UNL A   1      31.886  27.799  27.533  1.00  0.00     0.028 H 
BRANCH  47  50
ATOM     50  C   UNL A   1      33.844  28.491  27.225  1.00  0.00     0.018 C 
ATOM     51  H   UNL A   1      34.605  28.330  26.490  1.00  0.00     0.049 H 
ATOM     52  H   UNL A   1      34.067  27.967  28.131  1.00  0.00     0.049 H 
BRANCH  50  53
ATOM     53  N   UNL A   1      33.779  29.911  27.531  1.00  0.00    -0.352 N 
ATOM     54  C   UNL A   1      34.707  30.691  28.182  1.00  0.00     0.251 C 
ATOM     55  H   UNL A   1      32.964  30.375  27.235  1.00  0.00     0.163 HD
ATOM     56  O   UNL A   1      34.439  31.825  28.539  1.00  0.00    -0.269 OA
BRANCH  54  57
ATOM     57  C   UNL A   1      36.039  30.116  28.461  1.00  0.00     0.039 A 
ATOM     58  C   UNL A   1      37.028  30.176  27.477  1.00  0.00    -0.049 A 
ATOM     59  C   UNL A   1      36.310  29.557  29.712  1.00  0.00    -0.049 A 
ATOM     60  C   UNL A   1      38.318  29.728  27.772  1.00  0.00    -0.053 A 
ATOM     61  H   UNL A   1      36.809  30.548  26.541  1.00  0.00     0.063 H 
ATOM     62  C   UNL A   1      37.609  29.180  30.027  1.00  0.00    -0.053 A 
ATOM     63  H   UNL A   1      35.550  29.425  30.398  1.00  0.00     0.063 H 
ATOM     64  C   UNL A   1      38.624  29.258  29.059  1.00  0.00    -0.014 A 
ATOM     65  H   UNL A   1      39.047  29.742  27.042  1.00  0.00     0.063 H 
ATOM     66  H   UNL A   1      37.830  28.839  30.976  1.00  0.00     0.063 H 
BRANCH  64  67
ATOM     67  C   UNL A   1      39.993  28.824  29.431  1.00  0.00     0.031 A 
ATOM     68  C   UNL A   1      40.885  29.766  30.187  1.00  0.00     0.074 A 
ATOM     69  C   UNL A   1      40.469  27.645  28.990  1.00  0.00     0.049 A 
ATOM     70  N   UNL A   1      42.160  29.662  30.459  1.00  0.00    -0.248 NA
ATOM     71  C   UNL A   1      40.265  31.010  30.663  1.00  0.00    -0.034 C 
ATOM     72  C   UNL A   1      39.711  26.667  28.209  1.00  0.00    -0.036 A 
ATOM     73  N   UNL A   1      41.717  27.085  29.106  1.00  0.00    -0.354 N 
ATOM     74  C   UNL A   1      42.501  30.840  31.110  1.00  0.00     0.074 A 
ATOM     75  C   UNL A   1      41.311  31.663  31.147  1.00  0.00    -0.034 C 
ATOM     76  H   UNL A   1      39.276  31.301  30.630  1.00  0.00     0.065 H 
ATOM     77  C   UNL A   1      40.510  25.630  27.912  1.00  0.00    -0.036 A 
ATOM     78  H   UNL A   1      38.721  26.760  27.931  1.00  0.00     0.065 H 
ATOM     79  C   UNL A   1      41.845  25.890  28.442  1.00  0.00     0.049 A 
ATOM     80  H   UNL A   1      42.448  27.501  29.617  1.00  0.00     0.167 HD
ATOM     81  C   UNL A   1      43.695  31.194  31.642  1.00  0.00     0.037 A 
ATOM     82  H   UNL A   1      41.282  32.631  31.504  1.00  0.00     0.065 H 
ATOM     83  H   UNL A   1      40.226  24.785  27.392  1.00  0.00     0.065 H 
ATOM     84  C   UNL A   1      42.925  25.107  28.259  1.00  0.00     0.037 A 
ATOM     85  C   UNL A   1      44.863  30.356  31.625  1.00  0.00     0.049 A 
ATOM     86  C   UNL A   1      44.241  25.513  28.863  1.00  0.00     0.074 A 
ATOM     87  C   UNL A   1      46.098  30.585  32.205  1.00  0.00    -0.036 A 
ATOM     88  N   UNL A   1      44.941  29.126  30.986  1.00  0.00    -0.354 N 
ATOM     89  N   UNL A   1      44.539  26.596  29.539  1.00  0.00    -0.248 NA
ATOM     90  C   UNL A   1      45.370  24.590  28.684  1.00  0.00    -0.034 C 
ATOM     91  C   UNL A   1      46.940  29.519  31.872  1.00  0.00    -0.036 A 
ATOM     92  H   UNL A   1      46.353  31.400  32.784  1.00  0.00     0.065 H 
ATOM     93  C   UNL A   1      46.213  28.597  31.133  1.00  0.00     0.049 A 
ATOM     94  H   UNL A   1      44.202  28.694  30.499  1.00  0.00     0.167 HD
ATOM     95  C   UNL A   1      45.875  26.473  29.892  1.00  0.00     0.074 A 
ATOM     96  C   UNL A   1      46.334  25.208  29.355  1.00  0.00    -0.034 C 
ATOM     97  H   UNL A   1      45.405  23.694  28.173  1.00  0.00     0.065 H 
ATOM     98  H   UNL A   1      47.935  29.433  32.131  1.00  0.00     0.065 H 
ATOM     99  C   UNL A   1      46.650  27.330  30.601  1.00  0.00     0.037 A 
ATOM    100  H   UNL A   1      47.288  24.836  29.479  1.00  0.00     0.065 H 
BRANCH  81 101
ATOM    101  C   UNL A   1      43.793  32.555  32.271  1.00  0.00     0.064 A 
ATOM    102  C   UNL A   1      43.501  32.769  33.626  1.00  0.00     0.173 A 
ATOM    103  C   UNL A   1      44.182  33.664  31.502  1.00  0.00     0.173 A 
ATOM    104  F   UNL A   1      43.115  31.746  34.404  1.00  0.00    -0.203 F 
ATOM    105  C   UNL A   1      43.548  34.047  34.177  1.00  0.00     0.198 A 
ATOM    106  C   UNL A   1      44.263  34.934  32.066  1.00  0.00     0.198 A 
ATOM    107  F   UNL A   1      44.479  33.517  30.203  1.00  0.00    -0.203 F 
ATOM    108  F   UNL A   1      43.196  34.236  35.457  1.00  0.00    -0.200 F 
ATOM    109  C   UNL A   1      43.933  35.127  33.399  1.00  0.00     0.200 A 
ATOM    110  F   UNL A   1      44.650  35.975  31.316  1.00  0.00    -0.200 F 
ATOM    111  F   UNL A   1      43.974  36.357  33.931  1.00  0.00    -0.200 F 
ENDBRANCH  81 101
BRANCH  84 112
ATOM    112  C   UNL A   1      42.789  23.854  27.472  1.00  0.00     0.064 A 
ATOM    113  C   UNL A   1      43.103  23.823  26.107  1.00  0.00     0.173 A 
ATOM    114  C   UNL A   1      42.386  22.654  28.078  1.00  0.00     0.173 A 
ATOM    115  F   UNL A   1      43.474  24.948  25.480  1.00  0.00    -0.203 F 
ATOM    116  C   UNL A   1      43.015  22.640  25.376  1.00  0.00     0.198 A 
ATOM    117  C   UNL A   1      42.324  21.467  27.352  1.00  0.00     0.198 A 
ATOM    118  F   UNL A   1      42.083  22.631  29.385  1.00  0.00    -0.203 F 
ATOM    119  F   UNL A   1      43.296  22.642  24.066  1.00  0.00    -0.200 F 
ATOM    120  C   UNL A   1      42.634  21.461  26.001  1.00  0.00     0.200 A 
ATOM    121  F   UNL A   1      41.973  20.328  27.965  1.00  0.00    -0.200 F 
ATOM    122  F   UNL A   1      42.568  20.320  25.302  1.00  0.00    -0.200 F 
ENDBRANCH  84 112
BRANCH  99 123
ATOM    123  C   UNL A   1      48.066  26.922  30.881  1.00  0.00     0.064 A 
ATOM    124  C   UNL A   1      48.392  26.063  31.939  1.00  0.00     0.173 A 
ATOM    125  C   UNL A   1      49.099  27.326  30.019  1.00  0.00     0.173 A 
ATOM    126  F   UNL A   1      47.443  25.660  32.798  1.00  0.00    -0.203 F 
ATOM    127  C   UNL A   1      49.700  25.627  32.129  1.00  0.00     0.198 A 
ATOM    128  C   UNL A   1      50.400  26.868  30.195  1.00  0.00     0.198 A 
ATOM    129  F   UNL A   1      48.837  28.144  28.988  1.00  0.00    -0.203 F 
ATOM    130  F   UNL A   1      49.995  24.826  33.162  1.00  0.00    -0.200 F 
ATOM    131  C   UNL A   1      50.701  26.019  31.250  1.00  0.00     0.200 A 
ATOM    132  F   UNL A   1      51.361  27.235  29.337  1.00  0.00    -0.200 F 
ATOM    133  F   UNL A   1      51.955  25.580  31.421  1.00  0.00    -0.200 F 
ENDBRANCH  99 123
ENDBRANCH  64  67
ENDBRANCH  54  57
ENDBRANCH  50  53
ENDBRANCH  47  50
ENDBRANCH  44  47
ENDBRANCH   1  44
TORSDOF 17
ENDMDL
MODEL 6
REMARK VINA RESULT:     -12.1      1.678      7.383
REMARK SMILES C[C@@H](C(=O)NCCCCCCNC(=O)c1ccc(-c2c3nc(c(-c4c(F)c(F)c(F)c(F)c4F)c4ccc([nH]4)c(-c4c(F)c(F)c(F)c(F)c4F)c4nc(c(-c5c(F)c(F)c(F)c(F)c5F)c5ccc2[nH]5)C=C4)C=C3)cc1)c1ccccc1-c1ccn(C(F)F)c(=O)c1
REMARK SMILES IDX 8 1 7 4 6 7 5 10 3 11 4 12 2 14 1 16 78 20 79 21 83 22 80 23
REMARK SMILES IDX 82 25 81 26 84 30 85 31 93 32 86 33 91 35 87 37 92 39 88 40
REMARK SMILES IDX 89 41 90 42 9 44 10 47 11 50 12 53 13 54 14 56 15 57 16 58
REMARK SMILES IDX 77 59 17 60 76 62 18 64 19 67 20 68 70 69 21 70 75 71 69 72
REMARK SMILES IDX 71 73 22 74 74 75 68 77 67 79 23 81 55 84 35 85 54 86 36 87
REMARK SMILES IDX 39 88 53 89 72 90 37 91 38 93 52 95 73 96 40 99 24 101
REMARK SMILES IDX 25 102 33 103 26 104 27 105 31 106 34 107 28 108 29 109
REMARK SMILES IDX 32 110 30 111 56 112 57 113 65 114 58 115 59 116 63 117
REMARK SMILES IDX 66 118 60 119 61 120 64 121 62 122 41 123 42 124 50 125
REMARK SMILES IDX 43 126 44 127 48 128 51 129 45 130 46 131 49 132 47 133
REMARK H PARENT 8 2 8 3 7 5 7 6 6 8 6 9 5 13 2 15 1 17 1 18 1 19 79 24 80 27
REMARK H PARENT 82 28 81 29 85 34 93 36 86 38 88 43 9 45 9 46 10 48 10 49
REMARK H PARENT 11 51 11 52 12 55 16 61 77 63 17 65 76 66 75 76 69 78 71 80
REMARK H PARENT 74 82 68 83 36 92 39 94 72 97 37 98 73 100
REMARK Flexibility Score: inf
ROOT
ATOM      1  C   UNL A   1      33.237  30.143  26.882  1.00  0.00    -0.052 C 
ATOM      2  H   UNL A   1      33.933  30.246  26.075  1.00  0.00     0.027 H 
ATOM      3  H   UNL A   1      33.518  30.700  27.751  1.00  0.00     0.027 H 
ENDROOT
BRANCH   1   4
ATOM      4  C   UNL A   1      33.205  28.666  27.303  1.00  0.00    -0.036 C 
ATOM      5  H   UNL A   1      33.668  28.083  26.534  1.00  0.00     0.028 H 
ATOM      6  H   UNL A   1      33.726  28.590  28.234  1.00  0.00     0.028 H 
BRANCH   4   7
ATOM      7  C   UNL A   1      31.788  28.132  27.531  1.00  0.00     0.017 C 
ATOM      8  H   UNL A   1      31.487  28.330  28.538  1.00  0.00     0.049 H 
ATOM      9  H   UNL A   1      31.106  28.614  26.861  1.00  0.00     0.049 H 
BRANCH   7  10
ATOM     10  N   UNL A   1      31.783  26.703  27.293  1.00  0.00    -0.356 N 
ATOM     11  C   UNL A   1      31.017  25.989  26.419  1.00  0.00     0.227 C 
ATOM     12  O   UNL A   1      30.820  24.802  26.687  1.00  0.00    -0.274 OA
ATOM     13  H   UNL A   1      32.416  26.179  27.835  1.00  0.00     0.163 HD
BRANCH  11  14
ATOM     14  C   UNL A   1      30.502  26.662  25.140  1.00  0.00     0.061 C 
ATOM     15  H   UNL A   1      30.233  27.682  25.318  1.00  0.00     0.045 H 
BRANCH  14  16
ATOM     16  C   UNL A   1      29.223  25.941  24.686  1.00  0.00    -0.049 C 
ATOM     17  H   UNL A   1      28.485  26.005  25.458  1.00  0.00     0.024 H 
ATOM     18  H   UNL A   1      29.443  24.914  24.486  1.00  0.00     0.024 H 
ATOM     19  H   UNL A   1      28.849  26.406  23.797  1.00  0.00     0.024 H 
ENDBRANCH  14  16
BRANCH  14  20
ATOM     20  C   UNL A   1      31.615  26.738  24.082  1.00  0.00    -0.028 A 
ATOM     21  C   UNL A   1      32.605  25.734  24.017  1.00  0.00    -0.058 A 
ATOM     22  C   UNL A   1      31.711  27.824  23.171  1.00  0.00    -0.014 A 
ATOM     23  C   UNL A   1      33.655  25.799  23.100  1.00  0.00    -0.062 A 
ATOM     24  H   UNL A   1      32.552  24.932  24.664  1.00  0.00     0.063 H 
ATOM     25  C   UNL A   1      32.791  27.884  22.270  1.00  0.00    -0.054 A 
ATOM     26  C   UNL A   1      33.754  26.878  22.233  1.00  0.00    -0.062 A 
ATOM     27  H   UNL A   1      34.357  25.044  23.066  1.00  0.00     0.062 H 
ATOM     28  H   UNL A   1      32.871  28.686  21.626  1.00  0.00     0.063 H 
ATOM     29  H   UNL A   1      34.538  26.935  21.565  1.00  0.00     0.062 H 
BRANCH  22  30
ATOM     30  C   UNL A   1      30.715  28.920  23.089  1.00  0.00    -0.011 A 
ATOM     31  C   UNL A   1      30.578  29.960  24.091  1.00  0.00    -0.038 A 
ATOM     32  C   UNL A   1      29.921  28.962  22.005  1.00  0.00     0.012 A 
ATOM     33  C   UNL A   1      29.592  30.861  24.010  1.00  0.00     0.013 A 
ATOM     34  H   UNL A   1      31.249  30.005  24.874  1.00  0.00     0.064 H 
ATOM     35  C   UNL A   1      28.871  30.009  21.859  1.00  0.00     0.255 A 
ATOM     36  H   UNL A   1      30.041  28.257  21.261  1.00  0.00     0.069 H 
ATOM     37  N   UNL A   1      28.725  30.870  22.935  1.00  0.00    -0.258 N 
ATOM     38  H   UNL A   1      29.478  31.558  24.763  1.00  0.00     0.082 H 
ATOM     39  O   UNL A   1      28.201  30.028  20.833  1.00  0.00    -0.269 OA
BRANCH  37  40
ATOM     40  C   UNL A   1      27.661  31.836  22.861  1.00  0.00     0.321 C 
ATOM     41  F   UNL A   1      26.920  31.838  23.994  1.00  0.00    -0.185 F 
ATOM     42  F   UNL A   1      28.148  33.088  22.674  1.00  0.00    -0.185 F 
ATOM     43  H   UNL A   1      27.049  31.557  22.028  1.00  0.00     0.131 H 
ENDBRANCH  37  40
ENDBRANCH  22  30
ENDBRANCH  14  20
ENDBRANCH  11  14
ENDBRANCH   7  10
ENDBRANCH   4   7
ENDBRANCH   1   4
BRANCH   1  44
ATOM     44  C   UNL A   1      31.888  30.707  26.423  1.00  0.00    -0.052 C 
ATOM     45  H   UNL A   1      31.117  30.050  26.769  1.00  0.00     0.027 H 
ATOM     46  H   UNL A   1      31.932  30.775  25.357  1.00  0.00     0.027 H 
BRANCH  44  47
ATOM     47  C   UNL A   1      31.582  32.113  26.939  1.00  0.00    -0.036 C 
ATOM     48  H   UNL A   1      30.851  32.035  27.716  1.00  0.00     0.028 H 
ATOM     49  H   UNL A   1      31.234  32.681  26.102  1.00  0.00     0.028 H 
BRANCH  47  50
ATOM     50  C   UNL A   1      32.797  32.846  27.495  1.00  0.00     0.018 C 
ATOM     51  H   UNL A   1      33.595  32.781  26.785  1.00  0.00     0.049 H 
ATOM     52  H   UNL A   1      33.066  32.385  28.422  1.00  0.00     0.049 H 
BRANCH  50  53
ATOM     53  N   UNL A   1      32.513  34.249  27.756  1.00  0.00    -0.352 N 
ATOM     54  C   UNL A   1      33.082  35.077  28.696  1.00  0.00     0.251 C 
ATOM     55  H   UNL A   1      31.824  34.659  27.187  1.00  0.00     0.163 HD
ATOM     56  O   UNL A   1      32.614  36.178  28.932  1.00  0.00    -0.269 OA
BRANCH  54  57
ATOM     57  C   UNL A   1      34.268  34.596  29.435  1.00  0.00     0.039 A 
ATOM     58  C   UNL A   1      34.099  34.008  30.690  1.00  0.00    -0.049 A 
ATOM     59  C   UNL A   1      35.537  34.696  28.859  1.00  0.00    -0.049 A 
ATOM     60  C   UNL A   1      35.202  33.459  31.345  1.00  0.00    -0.053 A 
ATOM     61  H   UNL A   1      33.165  33.979  31.129  1.00  0.00     0.063 H 
ATOM     62  C   UNL A   1      36.619  34.085  29.479  1.00  0.00    -0.053 A 
ATOM     63  H   UNL A   1      35.669  35.219  27.980  1.00  0.00     0.063 H 
ATOM     64  C   UNL A   1      36.463  33.465  30.729  1.00  0.00    -0.014 A 
ATOM     65  H   UNL A   1      35.090  33.048  32.286  1.00  0.00     0.063 H 
ATOM     66  H   UNL A   1      37.544  34.089  29.019  1.00  0.00     0.063 H 
BRANCH  64  67
ATOM     67  C   UNL A   1      37.651  32.844  31.365  1.00  0.00     0.031 A 
ATOM     68  C   UNL A   1      38.315  31.672  30.702  1.00  0.00     0.074 A 
ATOM     69  C   UNL A   1      38.052  33.252  32.583  1.00  0.00     0.049 A 
ATOM     70  N   UNL A   1      39.246  30.877  31.161  1.00  0.00    -0.248 NA
ATOM     71  C   UNL A   1      37.836  31.327  29.356  1.00  0.00    -0.034 C 
ATOM     72  C   UNL A   1      37.457  34.349  33.346  1.00  0.00    -0.036 A 
ATOM     73  N   UNL A   1      39.036  32.766  33.409  1.00  0.00    -0.354 N 
ATOM     74  C   UNL A   1      39.440  29.919  30.175  1.00  0.00     0.074 A 
ATOM     75  C   UNL A   1      38.497  30.205  29.115  1.00  0.00    -0.034 C 
ATOM     76  H   UNL A   1      37.161  31.826  28.756  1.00  0.00     0.065 H 
ATOM     77  C   UNL A   1      38.083  34.451  34.529  1.00  0.00    -0.036 A 
ATOM     78  H   UNL A   1      36.679  34.949  33.025  1.00  0.00     0.065 H 
ATOM     79  C   UNL A   1      39.091  33.400  34.626  1.00  0.00     0.049 A 
ATOM     80  H   UNL A   1      39.643  32.035  33.152  1.00  0.00     0.167 HD
ATOM     81  C   UNL A   1      40.337  28.905  30.150  1.00  0.00     0.037 A 
ATOM     82  H   UNL A   1      38.358  29.613  28.282  1.00  0.00     0.065 H 
ATOM     83  H   UNL A   1      37.883  35.158  35.254  1.00  0.00     0.065 H 
ATOM     84  C   UNL A   1      39.852  33.144  35.708  1.00  0.00     0.037 A 
ATOM     85  C   UNL A   1      41.290  28.647  31.196  1.00  0.00     0.049 A 
ATOM     86  C   UNL A   1      40.846  32.017  35.659  1.00  0.00     0.074 A 
ATOM     87  C   UNL A   1      42.294  27.697  31.234  1.00  0.00    -0.036 A 
ATOM     88  N   UNL A   1      41.350  29.344  32.395  1.00  0.00    -0.354 N 
ATOM     89  N   UNL A   1      41.074  31.159  34.694  1.00  0.00    -0.248 NA
ATOM     90  C   UNL A   1      41.692  31.823  36.845  1.00  0.00    -0.034 C 
ATOM     91  C   UNL A   1      42.927  27.782  32.478  1.00  0.00    -0.036 A 
ATOM     92  H   UNL A   1      42.534  27.039  30.476  1.00  0.00     0.065 H 
ATOM     93  C   UNL A   1      42.357  28.825  33.193  1.00  0.00     0.049 A 
ATOM     94  H   UNL A   1      40.765  30.096  32.643  1.00  0.00     0.167 HD
ATOM     95  C   UNL A   1      42.105  30.345  35.140  1.00  0.00     0.074 A 
ATOM     96  C   UNL A   1      42.461  30.810  36.466  1.00  0.00    -0.034 C 
ATOM     97  H   UNL A   1      41.691  32.339  37.739  1.00  0.00     0.065 H 
ATOM     98  H   UNL A   1      43.690  27.171  32.808  1.00  0.00     0.065 H 
ATOM     99  C   UNL A   1      42.706  29.308  34.506  1.00  0.00     0.037 A 
ATOM    100  H   UNL A   1      43.217  30.406  37.040  1.00  0.00     0.065 H 
BRANCH  81 101
ATOM    101  C   UNL A   1      40.310  27.991  28.958  1.00  0.00     0.064 A 
ATOM    102  C   UNL A   1      39.584  26.791  28.959  1.00  0.00     0.173 A 
ATOM    103  C   UNL A   1      41.026  28.321  27.796  1.00  0.00     0.173 A 
ATOM    104  F   UNL A   1      38.890  26.423  30.047  1.00  0.00    -0.203 F 
ATOM    105  C   UNL A   1      39.613  25.933  27.863  1.00  0.00     0.198 A 
ATOM    106  C   UNL A   1      41.024  27.478  26.688  1.00  0.00     0.198 A 
ATOM    107  F   UNL A   1      41.733  29.459  27.736  1.00  0.00    -0.203 F 
ATOM    108  F   UNL A   1      38.968  24.759  27.916  1.00  0.00    -0.200 F 
ATOM    109  C   UNL A   1      40.329  26.278  26.728  1.00  0.00     0.200 A 
ATOM    110  F   UNL A   1      41.705  27.820  25.586  1.00  0.00    -0.200 F 
ATOM    111  F   UNL A   1      40.359  25.449  25.675  1.00  0.00    -0.200 F 
ENDBRANCH  81 101
BRANCH  84 112
ATOM    112  C   UNL A   1      39.696  33.987  36.921  1.00  0.00     0.064 A 
ATOM    113  C   UNL A   1      40.330  35.233  37.019  1.00  0.00     0.173 A 
ATOM    114  C   UNL A   1      38.874  33.586  37.985  1.00  0.00     0.173 A 
ATOM    115  F   UNL A   1      41.140  35.651  36.035  1.00  0.00    -0.203 F 
ATOM    116  C   UNL A   1      40.152  36.043  38.138  1.00  0.00     0.198 A 
ATOM    117  C   UNL A   1      38.677  34.410  39.092  1.00  0.00     0.198 A 
ATOM    118  F   UNL A   1      38.239  32.406  37.935  1.00  0.00    -0.203 F 
ATOM    119  F   UNL A   1      40.790  37.219  38.219  1.00  0.00    -0.200 F 
ATOM    120  C   UNL A   1      39.319  35.636  39.169  1.00  0.00     0.200 A 
ATOM    121  F   UNL A   1      37.857  34.018  40.076  1.00  0.00    -0.200 F 
ATOM    122  F   UNL A   1      39.134  36.424  40.236  1.00  0.00    -0.200 F 
ENDBRANCH  84 112
BRANCH  99 123
ATOM    123  C   UNL A   1      43.840  28.622  35.208  1.00  0.00     0.064 A 
ATOM    124  C   UNL A   1      45.161  29.075  35.092  1.00  0.00     0.173 A 
ATOM    125  C   UNL A   1      43.584  27.553  36.082  1.00  0.00     0.173 A 
ATOM    126  F   UNL A   1      45.460  30.084  34.260  1.00  0.00    -0.203 F 
ATOM    127  C   UNL A   1      46.187  28.478  35.821  1.00  0.00     0.198 A 
ATOM    128  C   UNL A   1      44.606  26.977  36.829  1.00  0.00     0.198 A 
ATOM    129  F   UNL A   1      42.334  27.088  36.232  1.00  0.00    -0.203 F 
ATOM    130  F   UNL A   1      47.447  28.909  35.677  1.00  0.00    -0.200 F 
ATOM    131  C   UNL A   1      45.907  27.439  36.698  1.00  0.00     0.200 A 
ATOM    132  F   UNL A   1      44.331  25.984  37.686  1.00  0.00    -0.200 F 
ATOM    133  F   UNL A   1      46.892  26.881  37.416  1.00  0.00    -0.200 F 
ENDBRANCH  99 123
ENDBRANCH  64  67
ENDBRANCH  54  57
ENDBRANCH  50  53
ENDBRANCH  47  50
ENDBRANCH  44  47
ENDBRANCH   1  44
TORSDOF 17
ENDMDL
MODEL 7
REMARK VINA RESULT:     -12.0      6.849     11.407
REMARK SMILES C[C@@H](C(=O)NCCCCCCNC(=O)c1ccc(-c2c3nc(c(-c4c(F)c(F)c(F)c(F)c4F)c4ccc([nH]4)c(-c4c(F)c(F)c(F)c(F)c4F)c4nc(c(-c5c(F)c(F)c(F)c(F)c5F)c5ccc2[nH]5)C=C4)C=C3)cc1)c1ccccc1-c1ccn(C(F)F)c(=O)c1
REMARK SMILES IDX 8 1 7 4 6 7 5 10 3 11 4 12 2 14 1 16 78 20 79 21 83 22 80 23
REMARK SMILES IDX 82 25 81 26 84 30 85 31 93 32 86 33 91 35 87 37 92 39 88 40
REMARK SMILES IDX 89 41 90 42 9 44 10 47 11 50 12 53 13 54 14 56 15 57 16 58
REMARK SMILES IDX 77 59 17 60 76 62 18 64 19 67 20 68 70 69 21 70 75 71 69 72
REMARK SMILES IDX 71 73 22 74 74 75 68 77 67 79 23 81 55 84 35 85 54 86 36 87
REMARK SMILES IDX 39 88 53 89 72 90 37 91 38 93 52 95 73 96 40 99 24 101
REMARK SMILES IDX 25 102 33 103 26 104 27 105 31 106 34 107 28 108 29 109
REMARK SMILES IDX 32 110 30 111 56 112 57 113 65 114 58 115 59 116 63 117
REMARK SMILES IDX 66 118 60 119 61 120 64 121 62 122 41 123 42 124 50 125
REMARK SMILES IDX 43 126 44 127 48 128 51 129 45 130 46 131 49 132 47 133
REMARK H PARENT 8 2 8 3 7 5 7 6 6 8 6 9 5 13 2 15 1 17 1 18 1 19 79 24 80 27
REMARK H PARENT 82 28 81 29 85 34 93 36 86 38 88 43 9 45 9 46 10 48 10 49
REMARK H PARENT 11 51 11 52 12 55 16 61 77 63 17 65 76 66 75 76 69 78 71 80
REMARK H PARENT 74 82 68 83 36 92 39 94 72 97 37 98 73 100
REMARK Flexibility Score: inf
ROOT
ATOM      1  C   UNL A   1      37.750  22.508  24.898  1.00  0.00    -0.052 C 
ATOM      2  H   UNL A   1      38.724  22.374  25.322  1.00  0.00     0.027 H 
ATOM      3  H   UNL A   1      37.776  22.899  23.903  1.00  0.00     0.027 H 
ENDROOT
BRANCH   1   4
ATOM      4  C   UNL A   1      36.993  23.537  25.751  1.00  0.00    -0.036 C 
ATOM      5  H   UNL A   1      37.240  23.374  26.780  1.00  0.00     0.028 H 
ATOM      6  H   UNL A   1      37.290  24.508  25.415  1.00  0.00     0.028 H 
BRANCH   4   7
ATOM      7  C   UNL A   1      35.472  23.450  25.598  1.00  0.00     0.017 C 
ATOM      8  H   UNL A   1      35.198  22.465  25.282  1.00  0.00     0.049 H 
ATOM      9  H   UNL A   1      34.999  23.661  26.535  1.00  0.00     0.049 H 
BRANCH   7  10
ATOM     10  N   UNL A   1      35.047  24.416  24.605  1.00  0.00    -0.356 N 
ATOM     11  C   UNL A   1      34.406  24.193  23.421  1.00  0.00     0.227 C 
ATOM     12  O   UNL A   1      34.552  25.040  22.537  1.00  0.00    -0.274 OA
ATOM     13  H   UNL A   1      35.247  25.357  24.812  1.00  0.00     0.163 HD
BRANCH  11  14
ATOM     14  C   UNL A   1      33.505  22.961  23.269  1.00  0.00     0.061 C 
ATOM     15  H   UNL A   1      34.042  22.059  23.473  1.00  0.00     0.045 H 
BRANCH  14  16
ATOM     16  C   UNL A   1      33.034  22.874  21.809  1.00  0.00    -0.049 C 
ATOM     17  H   UNL A   1      32.444  21.991  21.677  1.00  0.00     0.024 H 
ATOM     18  H   UNL A   1      33.884  22.835  21.160  1.00  0.00     0.024 H 
ATOM     19  H   UNL A   1      32.443  23.734  21.573  1.00  0.00     0.024 H 
ENDBRANCH  14  16
BRANCH  14  20
ATOM     20  C   UNL A   1      32.378  22.982  24.315  1.00  0.00    -0.028 A 
ATOM     21  C   UNL A   1      31.779  24.203  24.691  1.00  0.00    -0.058 A 
ATOM     22  C   UNL A   1      31.932  21.797  24.960  1.00  0.00    -0.014 A 
ATOM     23  C   UNL A   1      30.788  24.261  25.672  1.00  0.00    -0.062 A 
ATOM     24  H   UNL A   1      32.082  25.075  24.231  1.00  0.00     0.063 H 
ATOM     25  C   UNL A   1      30.948  21.879  25.963  1.00  0.00    -0.054 A 
ATOM     26  C   UNL A   1      30.379  23.102  26.315  1.00  0.00    -0.062 A 
ATOM     27  H   UNL A   1      30.358  25.166  25.918  1.00  0.00     0.062 H 
ATOM     28  H   UNL A   1      30.643  21.021  26.447  1.00  0.00     0.063 H 
ATOM     29  H   UNL A   1      29.657  23.145  27.051  1.00  0.00     0.062 H 
BRANCH  22  30
ATOM     30  C   UNL A   1      32.431  20.441  24.627  1.00  0.00    -0.011 A 
ATOM     31  C   UNL A   1      33.287  19.662  25.502  1.00  0.00    -0.038 A 
ATOM     32  C   UNL A   1      32.036  19.899  23.462  1.00  0.00     0.012 A 
ATOM     33  C   UNL A   1      33.787  18.488  25.100  1.00  0.00     0.013 A 
ATOM     34  H   UNL A   1      33.512  20.017  26.445  1.00  0.00     0.064 H 
ATOM     35  C   UNL A   1      32.518  18.555  23.036  1.00  0.00     0.255 A 
ATOM     36  H   UNL A   1      31.388  20.422  22.854  1.00  0.00     0.069 H 
ATOM     37  N   UNL A   1      33.444  17.953  23.873  1.00  0.00    -0.258 N 
ATOM     38  H   UNL A   1      34.439  17.975  25.715  1.00  0.00     0.082 H 
ATOM     39  O   UNL A   1      32.096  18.088  21.984  1.00  0.00    -0.269 OA
BRANCH  37  40
ATOM     40  C   UNL A   1      33.994  16.694  23.443  1.00  0.00     0.321 C 
ATOM     41  F   UNL A   1      34.712  16.836  22.305  1.00  0.00    -0.185 F 
ATOM     42  F   UNL A   1      34.808  16.166  24.392  1.00  0.00    -0.185 F 
ATOM     43  H   UNL A   1      33.165  16.039  23.271  1.00  0.00     0.131 H 
ENDBRANCH  37  40
ENDBRANCH  22  30
ENDBRANCH  14  20
ENDBRANCH  11  14
ENDBRANCH   7  10
ENDBRANCH   4   7
ENDBRANCH   1   4
BRANCH   1  44
ATOM     44  C   UNL A   1      37.076  21.135  24.806  1.00  0.00    -0.052 C 
ATOM     45  H   UNL A   1      36.646  21.039  23.830  1.00  0.00     0.027 H 
ATOM     46  H   UNL A   1      36.348  21.099  25.588  1.00  0.00     0.027 H 
BRANCH  44  47
ATOM     47  C   UNL A   1      38.017  19.952  25.031  1.00  0.00    -0.036 C 
ATOM     48  H   UNL A   1      38.335  19.588  24.076  1.00  0.00     0.028 H 
ATOM     49  H   UNL A   1      37.469  19.221  25.588  1.00  0.00     0.028 H 
BRANCH  47  50
ATOM     50  C   UNL A   1      39.256  20.293  25.850  1.00  0.00     0.018 C 
ATOM     51  H   UNL A   1      38.953  20.549  26.844  1.00  0.00     0.049 H 
ATOM     52  H   UNL A   1      39.752  21.113  25.374  1.00  0.00     0.049 H 
BRANCH  50  53
ATOM     53  N   UNL A   1      40.189  19.179  25.916  1.00  0.00    -0.352 N 
ATOM     54  C   UNL A   1      41.556  19.214  26.071  1.00  0.00     0.251 C 
ATOM     55  H   UNL A   1      39.790  18.283  25.839  1.00  0.00     0.163 HD
ATOM     56  O   UNL A   1      42.233  18.213  25.918  1.00  0.00    -0.269 OA
BRANCH  54  57
ATOM     57  C   UNL A   1      42.193  20.503  26.410  1.00  0.00     0.039 A 
ATOM     58  C   UNL A   1      42.606  21.352  25.381  1.00  0.00    -0.049 A 
ATOM     59  C   UNL A   1      42.343  20.879  27.747  1.00  0.00    -0.049 A 
ATOM     60  C   UNL A   1      43.113  22.615  25.694  1.00  0.00    -0.053 A 
ATOM     61  H   UNL A   1      42.535  21.049  24.397  1.00  0.00     0.063 H 
ATOM     62  C   UNL A   1      42.780  22.161  28.053  1.00  0.00    -0.053 A 
ATOM     63  H   UNL A   1      42.130  20.208  28.502  1.00  0.00     0.063 H 
ATOM     64  C   UNL A   1      43.173  23.039  27.030  1.00  0.00    -0.014 A 
ATOM     65  H   UNL A   1      43.447  23.236  24.940  1.00  0.00     0.063 H 
ATOM     66  H   UNL A   1      42.818  22.470  29.037  1.00  0.00     0.063 H 
BRANCH  64  67
ATOM     67  C   UNL A   1      43.654  24.392  27.403  1.00  0.00     0.031 A 
ATOM     68  C   UNL A   1      42.671  25.414  27.896  1.00  0.00     0.074 A 
ATOM     69  C   UNL A   1      44.938  24.733  27.186  1.00  0.00     0.049 A 
ATOM     70  N   UNL A   1      42.841  26.693  28.110  1.00  0.00    -0.248 NA
ATOM     71  C   UNL A   1      41.303  24.938  28.142  1.00  0.00    -0.034 C 
ATOM     72  C   UNL A   1      45.974  23.840  26.668  1.00  0.00    -0.036 A 
ATOM     73  N   UNL A   1      45.581  25.936  27.343  1.00  0.00    -0.354 N 
ATOM     74  C   UNL A   1      41.596  27.179  28.484  1.00  0.00     0.074 A 
ATOM     75  C   UNL A   1      40.671  26.067  28.421  1.00  0.00    -0.034 C 
ATOM     76  H   UNL A   1      40.931  23.976  28.108  1.00  0.00     0.065 H 
ATOM     77  C   UNL A   1      47.121  24.525  26.545  1.00  0.00    -0.036 A 
ATOM     78  H   UNL A   1      45.843  22.842  26.435  1.00  0.00     0.065 H 
ATOM     79  C   UNL A   1      46.891  25.914  26.932  1.00  0.00     0.049 A 
ATOM     80  H   UNL A   1      45.144  26.736  27.715  1.00  0.00     0.167 HD
ATOM     81  C   UNL A   1      41.260  28.435  28.862  1.00  0.00     0.037 A 
ATOM     82  H   UNL A   1      39.654  26.146  28.572  1.00  0.00     0.065 H 
ATOM     83  H   UNL A   1      48.022  24.133  26.227  1.00  0.00     0.065 H 
ATOM     84  C   UNL A   1      47.796  26.908  26.851  1.00  0.00     0.037 A 
ATOM     85  C   UNL A   1      42.193  29.526  28.949  1.00  0.00     0.049 A 
ATOM     86  C   UNL A   1      47.407  28.295  27.281  1.00  0.00     0.074 A 
ATOM     87  C   UNL A   1      41.974  30.815  29.398  1.00  0.00    -0.036 A 
ATOM     88  N   UNL A   1      43.528  29.452  28.573  1.00  0.00    -0.354 N 
ATOM     89  N   UNL A   1      46.244  28.732  27.703  1.00  0.00    -0.248 NA
ATOM     90  C   UNL A   1      48.451  29.327  27.231  1.00  0.00    -0.034 C 
ATOM     91  C   UNL A   1      43.161  31.538  29.242  1.00  0.00    -0.036 A 
ATOM     92  H   UNL A   1      41.089  31.181  29.781  1.00  0.00     0.065 H 
ATOM     93  C   UNL A   1      44.137  30.683  28.752  1.00  0.00     0.049 A 
ATOM     94  H   UNL A   1      43.975  28.645  28.229  1.00  0.00     0.167 HD
ATOM     95  C   UNL A   1      46.423  30.077  27.995  1.00  0.00     0.074 A 
ATOM     96  C   UNL A   1      47.808  30.387  27.703  1.00  0.00    -0.034 C 
ATOM     97  H   UNL A   1      49.430  29.249  26.913  1.00  0.00     0.065 H 
ATOM     98  H   UNL A   1      43.289  32.540  29.455  1.00  0.00     0.065 H 
ATOM     99  C   UNL A   1      45.521  30.972  28.467  1.00  0.00     0.037 A 
ATOM    100  H   UNL A   1      48.239  31.314  27.846  1.00  0.00     0.065 H 
BRANCH  81 101
ATOM    101  C   UNL A   1      39.817  28.693  29.191  1.00  0.00     0.064 A 
ATOM    102  C   UNL A   1      38.911  29.169  28.231  1.00  0.00     0.173 A 
ATOM    103  C   UNL A   1      39.334  28.462  30.489  1.00  0.00     0.173 A 
ATOM    104  F   UNL A   1      39.323  29.416  26.978  1.00  0.00    -0.203 F 
ATOM    105  C   UNL A   1      37.590  29.450  28.569  1.00  0.00     0.198 A 
ATOM    106  C   UNL A   1      38.003  28.710  30.813  1.00  0.00     0.198 A 
ATOM    107  F   UNL A   1      40.153  28.000  31.445  1.00  0.00    -0.203 F 
ATOM    108  F   UNL A   1      36.763  29.972  27.651  1.00  0.00    -0.200 F 
ATOM    109  C   UNL A   1      37.136  29.217  29.857  1.00  0.00     0.200 A 
ATOM    110  F   UNL A   1      37.561  28.470  32.055  1.00  0.00    -0.200 F 
ATOM    111  F   UNL A   1      35.864  29.492  30.181  1.00  0.00    -0.200 F 
ENDBRANCH  81 101
BRANCH  84 112
ATOM    112  C   UNL A   1      49.161  26.609  26.347  1.00  0.00     0.064 A 
ATOM    113  C   UNL A   1      49.504  26.849  25.010  1.00  0.00     0.173 A 
ATOM    114  C   UNL A   1      50.161  26.121  27.202  1.00  0.00     0.173 A 
ATOM    115  F   UNL A   1      48.578  27.298  24.152  1.00  0.00    -0.203 F 
ATOM    116  C   UNL A   1      50.796  26.607  24.546  1.00  0.00     0.198 A 
ATOM    117  C   UNL A   1      51.458  25.905  26.742  1.00  0.00     0.198 A 
ATOM    118  F   UNL A   1      49.884  25.884  28.493  1.00  0.00    -0.203 F 
ATOM    119  F   UNL A   1      51.092  26.821  23.257  1.00  0.00    -0.200 F 
ATOM    120  C   UNL A   1      51.773  26.144  25.414  1.00  0.00     0.200 A 
ATOM    121  F   UNL A   1      52.403  25.475  27.589  1.00  0.00    -0.200 F 
ATOM    122  F   UNL A   1      53.019  25.930  24.970  1.00  0.00    -0.200 F 
ENDBRANCH  84 112
BRANCH  99 123
ATOM    123  C   UNL A   1      46.000  32.367  28.742  1.00  0.00     0.064 A 
ATOM    124  C   UNL A   1      45.902  33.383  27.782  1.00  0.00     0.173 A 
ATOM    125  C   UNL A   1      46.479  32.709  30.017  1.00  0.00     0.173 A 
ATOM    126  F   UNL A   1      45.463  33.104  26.545  1.00  0.00    -0.203 F 
ATOM    127  C   UNL A   1      46.271  34.691  28.086  1.00  0.00     0.198 A 
ATOM    128  C   UNL A   1      46.822  34.021  30.326  1.00  0.00     0.198 A 
ATOM    129  F   UNL A   1      46.585  31.773  30.972  1.00  0.00    -0.203 F 
ATOM    130  F   UNL A   1      46.194  35.643  27.146  1.00  0.00    -0.200 F 
ATOM    131  C   UNL A   1      46.719  35.011  29.360  1.00  0.00     0.200 A 
ATOM    132  F   UNL A   1      47.239  34.331  31.561  1.00  0.00    -0.200 F 
ATOM    133  F   UNL A   1      47.052  36.275  29.657  1.00  0.00    -0.200 F 
ENDBRANCH  99 123
ENDBRANCH  64  67
ENDBRANCH  54  57
ENDBRANCH  50  53
ENDBRANCH  47  50
ENDBRANCH  44  47
ENDBRANCH   1  44
TORSDOF 17
ENDMDL
MODEL 8
REMARK VINA RESULT:     -12.0      4.184      9.006
REMARK SMILES C[C@@H](C(=O)NCCCCCCNC(=O)c1ccc(-c2c3nc(c(-c4c(F)c(F)c(F)c(F)c4F)c4ccc([nH]4)c(-c4c(F)c(F)c(F)c(F)c4F)c4nc(c(-c5c(F)c(F)c(F)c(F)c5F)c5ccc2[nH]5)C=C4)C=C3)cc1)c1ccccc1-c1ccn(C(F)F)c(=O)c1
REMARK SMILES IDX 8 1 7 4 6 7 5 10 3 11 4 12 2 14 1 16 78 20 79 21 83 22 80 23
REMARK SMILES IDX 82 25 81 26 84 30 85 31 93 32 86 33 91 35 87 37 92 39 88 40
REMARK SMILES IDX 89 41 90 42 9 44 10 47 11 50 12 53 13 54 14 56 15 57 16 58
REMARK SMILES IDX 77 59 17 60 76 62 18 64 19 67 20 68 70 69 21 70 75 71 69 72
REMARK SMILES IDX 71 73 22 74 74 75 68 77 67 79 23 81 55 84 35 85 54 86 36 87
REMARK SMILES IDX 39 88 53 89 72 90 37 91 38 93 52 95 73 96 40 99 24 101
REMARK SMILES IDX 25 102 33 103 26 104 27 105 31 106 34 107 28 108 29 109
REMARK SMILES IDX 32 110 30 111 56 112 57 113 65 114 58 115 59 116 63 117
REMARK SMILES IDX 66 118 60 119 61 120 64 121 62 122 41 123 42 124 50 125
REMARK SMILES IDX 43 126 44 127 48 128 51 129 45 130 46 131 49 132 47 133
REMARK H PARENT 8 2 8 3 7 5 7 6 6 8 6 9 5 13 2 15 1 17 1 18 1 19 79 24 80 27
REMARK H PARENT 82 28 81 29 85 34 93 36 86 38 88 43 9 45 9 46 10 48 10 49
REMARK H PARENT 11 51 11 52 12 55 16 61 77 63 17 65 76 66 75 76 69 78 71 80
REMARK H PARENT 74 82 68 83 36 92 39 94 72 97 37 98 73 100
REMARK Flexibility Score: inf
ROOT
ATOM      1  C   UNL A   1      34.498  25.084  25.845  1.00  0.00    -0.052 C 
ATOM      2  H   UNL A   1      34.096  24.297  26.448  1.00  0.00     0.027 H 
ATOM      3  H   UNL A   1      35.364  25.543  26.276  1.00  0.00     0.027 H 
ENDROOT
BRANCH   1   4
ATOM      4  C   UNL A   1      33.436  26.187  25.724  1.00  0.00    -0.036 C 
ATOM      5  H   UNL A   1      33.009  26.143  24.744  1.00  0.00     0.028 H 
ATOM      6  H   UNL A   1      32.708  26.011  26.488  1.00  0.00     0.028 H 
BRANCH   4   7
ATOM      7  C   UNL A   1      33.995  27.595  25.947  1.00  0.00     0.017 C 
ATOM      8  H   UNL A   1      34.629  27.598  26.809  1.00  0.00     0.049 H 
ATOM      9  H   UNL A   1      34.565  27.899  25.093  1.00  0.00     0.049 H 
BRANCH   7  10
ATOM     10  N   UNL A   1      32.891  28.510  26.152  1.00  0.00    -0.356 N 
ATOM     11  C   UNL A   1      32.060  29.062  25.221  1.00  0.00     0.227 C 
ATOM     12  O   UNL A   1      31.521  30.131  25.515  1.00  0.00    -0.274 OA
ATOM     13  H   UNL A   1      32.718  28.767  27.086  1.00  0.00     0.163 HD
BRANCH  11  14
ATOM     14  C   UNL A   1      31.790  28.314  23.909  1.00  0.00     0.061 C 
ATOM     15  H   UNL A   1      32.101  27.292  23.973  1.00  0.00     0.045 H 
BRANCH  14  16
ATOM     16  C   UNL A   1      32.625  28.960  22.794  1.00  0.00    -0.049 C 
ATOM     17  H   UNL A   1      33.157  29.801  23.188  1.00  0.00     0.024 H 
ATOM     18  H   UNL A   1      31.979  29.285  22.005  1.00  0.00     0.024 H 
ATOM     19  H   UNL A   1      33.324  28.245  22.412  1.00  0.00     0.024 H 
ENDBRANCH  14  16
BRANCH  14  20
ATOM     20  C   UNL A   1      30.280  28.239  23.629  1.00  0.00    -0.028 A 
ATOM     21  C   UNL A   1      29.583  29.377  23.173  1.00  0.00    -0.058 A 
ATOM     22  C   UNL A   1      29.534  27.050  23.854  1.00  0.00    -0.014 A 
ATOM     23  C   UNL A   1      28.205  29.354  22.956  1.00  0.00    -0.062 A 
ATOM     24  H   UNL A   1      30.105  30.249  22.996  1.00  0.00     0.063 H 
ATOM     25  C   UNL A   1      28.141  27.054  23.653  1.00  0.00    -0.054 A 
ATOM     26  C   UNL A   1      27.482  28.197  23.204  1.00  0.00    -0.062 A 
ATOM     27  H   UNL A   1      27.723  30.198  22.609  1.00  0.00     0.062 H 
ATOM     28  H   UNL A   1      27.599  26.196  23.839  1.00  0.00     0.063 H 
ATOM     29  H   UNL A   1      26.461  28.182  23.059  1.00  0.00     0.062 H 
BRANCH  22  30
ATOM     30  C   UNL A   1      30.141  25.766  24.281  1.00  0.00    -0.011 A 
ATOM     31  C   UNL A   1      30.859  24.878  23.387  1.00  0.00    -0.038 A 
ATOM     32  C   UNL A   1      30.044  25.432  25.580  1.00  0.00     0.012 A 
ATOM     33  C   UNL A   1      31.294  23.686  23.812  1.00  0.00     0.013 A 
ATOM     34  H   UNL A   1      31.036  25.168  22.412  1.00  0.00     0.064 H 
ATOM     35  C   UNL A   1      30.597  24.145  26.087  1.00  0.00     0.255 A 
ATOM     36  H   UNL A   1      29.580  26.078  26.237  1.00  0.00     0.069 H 
ATOM     37  N   UNL A   1      31.137  23.301  25.130  1.00  0.00    -0.258 N 
ATOM     38  H   UNL A   1      31.752  23.044  23.145  1.00  0.00     0.082 H 
ATOM     39  O   UNL A   1      30.519  23.906  27.287  1.00  0.00    -0.269 OA
BRANCH  37  40
ATOM     40  C   UNL A   1      31.598  22.013  25.577  1.00  0.00     0.321 C 
ATOM     41  F   UNL A   1      31.645  21.127  24.554  1.00  0.00    -0.185 F 
ATOM     42  F   UNL A   1      32.839  22.098  26.117  1.00  0.00    -0.185 F 
ATOM     43  H   UNL A   1      30.902  21.676  26.317  1.00  0.00     0.131 H 
ENDBRANCH  37  40
ENDBRANCH  22  30
ENDBRANCH  14  20
ENDBRANCH  11  14
ENDBRANCH   7  10
ENDBRANCH   4   7
ENDBRANCH   1   4
BRANCH   1  44
ATOM     44  C   UNL A   1      34.948  24.482  24.510  1.00  0.00    -0.052 C 
ATOM     45  H   UNL A   1      35.172  25.286  23.839  1.00  0.00     0.027 H 
ATOM     46  H   UNL A   1      34.145  23.864  24.167  1.00  0.00     0.027 H 
BRANCH  44  47
ATOM     47  C   UNL A   1      36.181  23.583  24.604  1.00  0.00    -0.036 C 
ATOM     48  H   UNL A   1      36.936  23.978  23.957  1.00  0.00     0.028 H 
ATOM     49  H   UNL A   1      35.870  22.599  24.321  1.00  0.00     0.028 H 
BRANCH  47  50
ATOM     50  C   UNL A   1      36.761  23.475  26.009  1.00  0.00     0.018 C 
ATOM     51  H   UNL A   1      36.015  23.072  26.661  1.00  0.00     0.049 H 
ATOM     52  H   UNL A   1      37.058  24.454  26.321  1.00  0.00     0.049 H 
BRANCH  50  53
ATOM     53  N   UNL A   1      37.934  22.615  26.049  1.00  0.00    -0.352 N 
ATOM     54  C   UNL A   1      39.228  22.946  26.381  1.00  0.00     0.251 C 
ATOM     55  H   UNL A   1      37.782  21.674  25.806  1.00  0.00     0.163 HD
ATOM     56  O   UNL A   1      40.146  22.168  26.187  1.00  0.00    -0.269 OA
BRANCH  54  57
ATOM     57  C   UNL A   1      39.488  24.279  26.962  1.00  0.00     0.039 A 
ATOM     58  C   UNL A   1      39.146  24.522  28.293  1.00  0.00    -0.049 A 
ATOM     59  C   UNL A   1      40.106  25.267  26.191  1.00  0.00    -0.049 A 
ATOM     60  C   UNL A   1      39.484  25.745  28.876  1.00  0.00    -0.053 A 
ATOM     61  H   UNL A   1      38.648  23.804  28.842  1.00  0.00     0.063 H 
ATOM     62  C   UNL A   1      40.505  26.453  26.793  1.00  0.00    -0.053 A 
ATOM     63  H   UNL A   1      40.265  25.117  25.183  1.00  0.00     0.063 H 
ATOM     64  C   UNL A   1      40.194  26.705  28.139  1.00  0.00    -0.014 A 
ATOM     65  H   UNL A   1      39.208  25.944  29.851  1.00  0.00     0.063 H 
ATOM     66  H   UNL A   1      41.031  27.155  26.248  1.00  0.00     0.063 H 
BRANCH  64  67
ATOM     67  C   UNL A   1      40.621  27.995  28.736  1.00  0.00     0.031 A 
ATOM     68  C   UNL A   1      42.018  28.135  29.268  1.00  0.00     0.074 A 
ATOM     69  C   UNL A   1      39.726  28.986  28.907  1.00  0.00     0.049 A 
ATOM     70  N   UNL A   1      42.543  29.100  29.978  1.00  0.00    -0.248 NA
ATOM     71  C   UNL A   1      42.934  27.018  28.998  1.00  0.00    -0.034 C 
ATOM     72  C   UNL A   1      38.330  28.948  28.472  1.00  0.00    -0.036 A 
ATOM     73  N   UNL A   1      39.852  30.206  29.523  1.00  0.00    -0.354 N 
ATOM     74  C   UNL A   1      43.837  28.692  30.265  1.00  0.00     0.074 A 
ATOM     75  C   UNL A   1      44.002  27.372  29.695  1.00  0.00    -0.034 C 
ATOM     76  H   UNL A   1      42.785  26.178  28.418  1.00  0.00     0.065 H 
ATOM     77  C   UNL A   1      37.727  30.090  28.840  1.00  0.00    -0.036 A 
ATOM     78  H   UNL A   1      37.881  28.169  27.965  1.00  0.00     0.065 H 
ATOM     79  C   UNL A   1      38.679  30.918  29.572  1.00  0.00     0.049 A 
ATOM     80  H   UNL A   1      40.702  30.538  29.893  1.00  0.00     0.167 HD
ATOM     81  C   UNL A   1      44.806  29.366  30.930  1.00  0.00     0.037 A 
ATOM     82  H   UNL A   1      44.841  26.784  29.817  1.00  0.00     0.065 H 
ATOM     83  H   UNL A   1      36.746  30.341  28.636  1.00  0.00     0.065 H 
ATOM     84  C   UNL A   1      38.398  32.095  30.165  1.00  0.00     0.037 A 
ATOM     85  C   UNL A   1      44.640  30.689  31.468  1.00  0.00     0.049 A 
ATOM     86  C   UNL A   1      39.487  32.831  30.894  1.00  0.00     0.074 A 
ATOM     87  C   UNL A   1      45.581  31.493  32.087  1.00  0.00    -0.036 A 
ATOM     88  N   UNL A   1      43.449  31.402  31.454  1.00  0.00    -0.354 N 
ATOM     89  N   UNL A   1      40.731  32.471  31.100  1.00  0.00    -0.248 NA
ATOM     90  C   UNL A   1      39.140  34.139  31.468  1.00  0.00    -0.034 C 
ATOM     91  C   UNL A   1      44.945  32.670  32.496  1.00  0.00    -0.036 A 
ATOM     92  H   UNL A   1      46.577  31.264  32.224  1.00  0.00     0.065 H 
ATOM     93  C   UNL A   1      43.623  32.625  32.080  1.00  0.00     0.049 A 
ATOM     94  H   UNL A   1      42.605  31.085  31.057  1.00  0.00     0.167 HD
ATOM     95  C   UNL A   1      41.322  33.514  31.799  1.00  0.00     0.074 A 
ATOM     96  C   UNL A   1      40.300  34.525  31.983  1.00  0.00    -0.034 C 
ATOM     97  H   UNL A   1      38.231  34.629  31.469  1.00  0.00     0.065 H 
ATOM     98  H   UNL A   1      45.386  33.441  33.021  1.00  0.00     0.065 H 
ATOM     99  C   UNL A   1      42.598  33.626  32.244  1.00  0.00     0.037 A 
ATOM    100  H   UNL A   1      40.455  35.430  32.453  1.00  0.00     0.065 H 
BRANCH  81 101
ATOM    101  C   UNL A   1      46.122  28.668  31.125  1.00  0.00     0.064 A 
ATOM    102  C   UNL A   1      46.391  27.895  32.265  1.00  0.00     0.173 A 
ATOM    103  C   UNL A   1      47.131  28.776  30.155  1.00  0.00     0.173 A 
ATOM    104  F   UNL A   1      45.464  27.767  33.227  1.00  0.00    -0.203 F 
ATOM    105  C   UNL A   1      47.635  27.298  32.451  1.00  0.00     0.198 A 
ATOM    106  C   UNL A   1      48.362  28.147  30.327  1.00  0.00     0.198 A 
ATOM    107  F   UNL A   1      46.927  29.495  29.042  1.00  0.00    -0.203 F 
ATOM    108  F   UNL A   1      47.890  26.625  33.581  1.00  0.00    -0.200 F 
ATOM    109  C   UNL A   1      48.617  27.421  31.481  1.00  0.00     0.200 A 
ATOM    110  F   UNL A   1      49.305  28.254  29.382  1.00  0.00    -0.200 F 
ATOM    111  F   UNL A   1      49.815  26.849  31.663  1.00  0.00    -0.200 F 
ENDBRANCH  81 101
BRANCH  84 112
ATOM    112  C   UNL A   1      37.019  32.640  30.078  1.00  0.00     0.064 A 
ATOM    113  C   UNL A   1      36.094  32.430  31.109  1.00  0.00     0.173 A 
ATOM    114  C   UNL A   1      36.614  33.422  28.985  1.00  0.00     0.173 A 
ATOM    115  F   UNL A   1      36.429  31.675  32.165  1.00  0.00    -0.203 F 
ATOM    116  C   UNL A   1      34.813  32.976  31.047  1.00  0.00     0.198 A 
ATOM    117  C   UNL A   1      35.342  33.988  28.937  1.00  0.00     0.198 A 
ATOM    118  F   UNL A   1      37.467  33.659  27.977  1.00  0.00    -0.203 F 
ATOM    119  F   UNL A   1      33.938  32.738  32.034  1.00  0.00    -0.200 F 
ATOM    120  C   UNL A   1      34.441  33.761  29.966  1.00  0.00     0.200 A 
ATOM    121  F   UNL A   1      34.995  34.761  27.899  1.00  0.00    -0.200 F 
ATOM    122  F   UNL A   1      33.216  34.301  29.917  1.00  0.00    -0.200 F 
ENDBRANCH  84 112
BRANCH  99 123
ATOM    123  C   UNL A   1      42.986  34.897  32.939  1.00  0.00     0.064 A 
ATOM    124  C   UNL A   1      43.463  36.009  32.232  1.00  0.00     0.173 A 
ATOM    125  C   UNL A   1      42.791  35.031  34.323  1.00  0.00     0.173 A 
ATOM    126  F   UNL A   1      43.679  35.927  30.910  1.00  0.00    -0.203 F 
ATOM    127  C   UNL A   1      43.735  37.208  32.885  1.00  0.00     0.198 A 
ATOM    128  C   UNL A   1      43.038  36.238  34.968  1.00  0.00     0.198 A 
ATOM    129  F   UNL A   1      42.331  33.997  35.044  1.00  0.00    -0.203 F 
ATOM    130  F   UNL A   1      44.214  38.252  32.194  1.00  0.00    -0.200 F 
ATOM    131  C   UNL A   1      43.511  37.326  34.249  1.00  0.00     0.200 A 
ATOM    132  F   UNL A   1      42.807  36.354  36.283  1.00  0.00    -0.200 F 
ATOM    133  F   UNL A   1      43.752  38.488  34.872  1.00  0.00    -0.200 F 
ENDBRANCH  99 123
ENDBRANCH  64  67
ENDBRANCH  54  57
ENDBRANCH  50  53
ENDBRANCH  47  50
ENDBRANCH  44  47
ENDBRANCH   1  44
TORSDOF 17
ENDMDL
MODEL 9
REMARK VINA RESULT:     -11.9      1.803      7.661
REMARK SMILES C[C@@H](C(=O)NCCCCCCNC(=O)c1ccc(-c2c3nc(c(-c4c(F)c(F)c(F)c(F)c4F)c4ccc([nH]4)c(-c4c(F)c(F)c(F)c(F)c4F)c4nc(c(-c5c(F)c(F)c(F)c(F)c5F)c5ccc2[nH]5)C=C4)C=C3)cc1)c1ccccc1-c1ccn(C(F)F)c(=O)c1
REMARK SMILES IDX 8 1 7 4 6 7 5 10 3 11 4 12 2 14 1 16 78 20 79 21 83 22 80 23
REMARK SMILES IDX 82 25 81 26 84 30 85 31 93 32 86 33 91 35 87 37 92 39 88 40
REMARK SMILES IDX 89 41 90 42 9 44 10 47 11 50 12 53 13 54 14 56 15 57 16 58
REMARK SMILES IDX 77 59 17 60 76 62 18 64 19 67 20 68 70 69 21 70 75 71 69 72
REMARK SMILES IDX 71 73 22 74 74 75 68 77 67 79 23 81 55 84 35 85 54 86 36 87
REMARK SMILES IDX 39 88 53 89 72 90 37 91 38 93 52 95 73 96 40 99 24 101
REMARK SMILES IDX 25 102 33 103 26 104 27 105 31 106 34 107 28 108 29 109
REMARK SMILES IDX 32 110 30 111 56 112 57 113 65 114 58 115 59 116 63 117
REMARK SMILES IDX 66 118 60 119 61 120 64 121 62 122 41 123 42 124 50 125
REMARK SMILES IDX 43 126 44 127 48 128 51 129 45 130 46 131 49 132 47 133
REMARK H PARENT 8 2 8 3 7 5 7 6 6 8 6 9 5 13 2 15 1 17 1 18 1 19 79 24 80 27
REMARK H PARENT 82 28 81 29 85 34 93 36 86 38 88 43 9 45 9 46 10 48 10 49
REMARK H PARENT 11 51 11 52 12 55 16 61 77 63 17 65 76 66 75 76 69 78 71 80
REMARK H PARENT 74 82 68 83 36 92 39 94 72 97 37 98 73 100
REMARK Flexibility Score: inf
ROOT
ATOM      1  C   UNL A   1      33.191  29.438  26.537  1.00  0.00    -0.052 C 
ATOM      2  H   UNL A   1      33.827  30.225  26.187  1.00  0.00     0.027 H 
ATOM      3  H   UNL A   1      33.500  29.037  27.480  1.00  0.00     0.027 H 
ENDROOT
BRANCH   1   4
ATOM      4  C   UNL A   1      33.258  28.281  25.529  1.00  0.00    -0.036 C 
ATOM      5  H   UNL A   1      32.557  28.474  24.744  1.00  0.00     0.028 H 
ATOM      6  H   UNL A   1      34.264  28.233  25.168  1.00  0.00     0.028 H 
BRANCH   4   7
ATOM      7  C   UNL A   1      32.933  26.919  26.147  1.00  0.00     0.017 C 
ATOM      8  H   UNL A   1      32.964  26.991  27.214  1.00  0.00     0.049 H 
ATOM      9  H   UNL A   1      31.954  26.607  25.846  1.00  0.00     0.049 H 
BRANCH   7  10
ATOM     10  N   UNL A   1      33.916  25.955  25.696  1.00  0.00    -0.356 N 
ATOM     11  C   UNL A   1      33.901  24.597  25.835  1.00  0.00     0.227 C 
ATOM     12  O   UNL A   1      34.991  24.021  25.820  1.00  0.00    -0.274 OA
ATOM     13  H   UNL A   1      34.697  26.328  25.229  1.00  0.00     0.163 HD
BRANCH  11  14
ATOM     14  C   UNL A   1      32.559  23.861  25.937  1.00  0.00     0.061 C 
ATOM     15  H   UNL A   1      31.736  24.542  25.871  1.00  0.00     0.045 H 
BRANCH  14  16
ATOM     16  C   UNL A   1      32.468  23.191  27.317  1.00  0.00    -0.049 C 
ATOM     17  H   UNL A   1      33.368  22.644  27.507  1.00  0.00     0.024 H 
ATOM     18  H   UNL A   1      31.633  22.523  27.336  1.00  0.00     0.024 H 
ATOM     19  H   UNL A   1      32.343  23.942  28.069  1.00  0.00     0.024 H 
ENDBRANCH  14  16
BRANCH  14  20
ATOM     20  C   UNL A   1      32.369  22.913  24.741  1.00  0.00    -0.028 A 
ATOM     21  C   UNL A   1      32.687  21.544  24.861  1.00  0.00    -0.058 A 
ATOM     22  C   UNL A   1      31.912  23.381  23.480  1.00  0.00    -0.014 A 
ATOM     23  C   UNL A   1      32.571  20.668  23.781  1.00  0.00    -0.062 A 
ATOM     24  H   UNL A   1      33.014  21.181  25.770  1.00  0.00     0.063 H 
ATOM     25  C   UNL A   1      31.825  22.486  22.396  1.00  0.00    -0.054 A 
ATOM     26  C   UNL A   1      32.150  21.140  22.546  1.00  0.00    -0.062 A 
ATOM     27  H   UNL A   1      32.798  19.669  23.901  1.00  0.00     0.062 H 
ATOM     28  H   UNL A   1      31.515  22.833  21.475  1.00  0.00     0.063 H 
ATOM     29  H   UNL A   1      32.078  20.496  21.743  1.00  0.00     0.062 H 
BRANCH  22  30
ATOM     30  C   UNL A   1      31.491  24.780  23.223  1.00  0.00    -0.011 A 
ATOM     31  C   UNL A   1      32.290  25.737  22.482  1.00  0.00    -0.038 A 
ATOM     32  C   UNL A   1      30.286  25.162  23.679  1.00  0.00     0.012 A 
ATOM     33  C   UNL A   1      31.901  27.012  22.373  1.00  0.00     0.013 A 
ATOM     34  H   UNL A   1      33.168  25.430  22.033  1.00  0.00     0.064 H 
ATOM     35  C   UNL A   1      29.800  26.558  23.494  1.00  0.00     0.255 A 
ATOM     36  H   UNL A   1      29.686  24.477  24.164  1.00  0.00     0.069 H 
ATOM     37  N   UNL A   1      30.695  27.434  22.900  1.00  0.00    -0.258 N 
ATOM     38  H   UNL A   1      32.511  27.691  21.890  1.00  0.00     0.082 H 
ATOM     39  O   UNL A   1      28.677  26.846  23.891  1.00  0.00    -0.269 OA
BRANCH  37  40
ATOM     40  C   UNL A   1      30.288  28.811  22.787  1.00  0.00     0.321 C 
ATOM     41  F   UNL A   1      29.100  28.920  22.149  1.00  0.00    -0.185 F 
ATOM     42  F   UNL A   1      30.165  29.386  24.010  1.00  0.00    -0.185 F 
ATOM     43  H   UNL A   1      31.050  29.311  22.226  1.00  0.00     0.131 H 
ENDBRANCH  37  40
ENDBRANCH  22  30
ENDBRANCH  14  20
ENDBRANCH  11  14
ENDBRANCH   7  10
ENDBRANCH   4   7
ENDBRANCH   1   4
BRANCH   1  44
ATOM     44  C   UNL A   1      31.789  30.018  26.753  1.00  0.00    -0.052 C 
ATOM     45  H   UNL A   1      31.473  29.767  27.744  1.00  0.00     0.027 H 
ATOM     46  H   UNL A   1      31.164  29.594  25.996  1.00  0.00     0.027 H 
BRANCH  44  47
ATOM     47  C   UNL A   1      31.700  31.535  26.594  1.00  0.00    -0.036 C 
ATOM     48  H   UNL A   1      30.782  31.867  27.032  1.00  0.00     0.028 H 
ATOM     49  H   UNL A   1      31.753  31.741  25.545  1.00  0.00     0.028 H 
BRANCH  47  50
ATOM     50  C   UNL A   1      32.847  32.294  27.250  1.00  0.00     0.018 C 
ATOM     51  H   UNL A   1      33.708  32.234  26.618  1.00  0.00     0.049 H 
ATOM     52  H   UNL A   1      33.037  31.848  28.204  1.00  0.00     0.049 H 
BRANCH  50  53
ATOM     53  N   UNL A   1      32.520  33.695  27.467  1.00  0.00    -0.352 N 
ATOM     54  C   UNL A   1      33.034  34.560  28.405  1.00  0.00     0.251 C 
ATOM     55  H   UNL A   1      31.840  34.073  26.863  1.00  0.00     0.163 HD
ATOM     56  O   UNL A   1      32.531  35.653  28.597  1.00  0.00    -0.269 OA
BRANCH  54  57
ATOM     57  C   UNL A   1      34.205  34.127  29.196  1.00  0.00     0.039 A 
ATOM     58  C   UNL A   1      34.005  33.380  30.358  1.00  0.00    -0.049 A 
ATOM     59  C   UNL A   1      35.495  34.433  28.757  1.00  0.00    -0.049 A 
ATOM     60  C   UNL A   1      35.109  32.881  31.052  1.00  0.00    -0.053 A 
ATOM     61  H   UNL A   1      33.049  33.197  30.701  1.00  0.00     0.063 H 
ATOM     62  C   UNL A   1      36.589  33.876  29.407  1.00  0.00    -0.053 A 
ATOM     63  H   UNL A   1      35.635  35.068  27.956  1.00  0.00     0.063 H 
ATOM     64  C   UNL A   1      36.406  33.098  30.562  1.00  0.00    -0.014 A 
ATOM     65  H   UNL A   1      34.971  32.353  31.928  1.00  0.00     0.063 H 
ATOM     66  H   UNL A   1      37.541  34.035  29.040  1.00  0.00     0.063 H 
BRANCH  64  67
ATOM     67  C   UNL A   1      37.604  32.540  31.237  1.00  0.00     0.031 A 
ATOM     68  C   UNL A   1      38.327  31.380  30.616  1.00  0.00     0.074 A 
ATOM     69  C   UNL A   1      37.963  32.993  32.452  1.00  0.00     0.049 A 
ATOM     70  N   UNL A   1      39.279  30.633  31.113  1.00  0.00    -0.248 NA
ATOM     71  C   UNL A   1      37.890  30.984  29.270  1.00  0.00    -0.034 C 
ATOM     72  C   UNL A   1      37.310  34.084  33.175  1.00  0.00    -0.036 A 
ATOM     73  N   UNL A   1      38.948  32.567  33.309  1.00  0.00    -0.354 N 
ATOM     74  C   UNL A   1      39.530  29.661  30.155  1.00  0.00     0.074 A 
ATOM     75  C   UNL A   1      38.599  29.884  29.070  1.00  0.00    -0.034 C 
ATOM     76  H   UNL A   1      37.209  31.442  28.644  1.00  0.00     0.065 H 
ATOM     77  C   UNL A   1      37.907  34.238  34.367  1.00  0.00    -0.036 A 
ATOM     78  H   UNL A   1      36.517  34.644  32.825  1.00  0.00     0.065 H 
ATOM     79  C   UNL A   1      38.953  33.231  34.511  1.00  0.00     0.049 A 
ATOM     80  H   UNL A   1      39.588  31.854  33.082  1.00  0.00     0.167 HD
ATOM     81  C   UNL A   1      40.466  28.682  30.173  1.00  0.00     0.037 A 
ATOM     82  H   UNL A   1      38.500  29.266  28.250  1.00  0.00     0.065 H 
ATOM     83  H   UNL A   1      37.664  34.955  35.071  1.00  0.00     0.065 H 
ATOM     84  C   UNL A   1      39.700  33.031  35.614  1.00  0.00     0.037 A 
ATOM     85  C   UNL A   1      41.406  28.488  31.244  1.00  0.00     0.049 A 
ATOM     86  C   UNL A   1      40.739  31.943  35.613  1.00  0.00     0.074 A 
ATOM     87  C   UNL A   1      42.446  27.579  31.325  1.00  0.00    -0.036 A 
ATOM     88  N   UNL A   1      41.415  29.215  32.426  1.00  0.00    -0.354 N 
ATOM     89  N   UNL A   1      41.020  31.073  34.674  1.00  0.00    -0.248 NA
ATOM     90  C   UNL A   1      41.567  31.811  36.819  1.00  0.00    -0.034 C 
ATOM     91  C   UNL A   1      43.050  27.719  32.579  1.00  0.00    -0.036 A 
ATOM     92  H   UNL A   1      42.727  26.914  30.589  1.00  0.00     0.065 H 
ATOM     93  C   UNL A   1      42.424  28.756  33.256  1.00  0.00     0.049 A 
ATOM     94  H   UNL A   1      40.795  29.949  32.644  1.00  0.00     0.167 HD
ATOM     95  C   UNL A   1      42.073  30.310  35.160  1.00  0.00     0.074 A 
ATOM     96  C   UNL A   1      42.382  30.821  36.481  1.00  0.00    -0.034 C 
ATOM     97  H   UNL A   1      41.527  32.349  37.700  1.00  0.00     0.065 H 
ATOM     98  H   UNL A   1      43.829  27.147  32.940  1.00  0.00     0.065 H 
ATOM     99  C   UNL A   1      42.727  29.283  34.564  1.00  0.00     0.037 A 
ATOM    100  H   UNL A   1      43.141  30.461  37.080  1.00  0.00     0.065 H 
BRANCH  81 101
ATOM    101  C   UNL A   1      40.500  27.740  29.004  1.00  0.00     0.064 A 
ATOM    102  C   UNL A   1      41.319  27.971  27.888  1.00  0.00     0.173 A 
ATOM    103  C   UNL A   1      39.699  26.588  28.999  1.00  0.00     0.173 A 
ATOM    104  F   UNL A   1      42.098  29.063  27.837  1.00  0.00    -0.203 F 
ATOM    105  C   UNL A   1      41.298  27.113  26.792  1.00  0.00     0.198 A 
ATOM    106  C   UNL A   1      39.707  25.712  27.916  1.00  0.00     0.198 A 
ATOM    107  F   UNL A   1      38.902  26.313  30.042  1.00  0.00    -0.203 F 
ATOM    108  F   UNL A   1      42.036  27.394  25.709  1.00  0.00    -0.200 F 
ATOM    109  C   UNL A   1      40.496  25.983  26.809  1.00  0.00     0.200 A 
ATOM    110  F   UNL A   1      38.943  24.612  27.940  1.00  0.00    -0.200 F 
ATOM    111  F   UNL A   1      40.474  25.160  25.751  1.00  0.00    -0.200 F 
ENDBRANCH  81 101
BRANCH  84 112
ATOM    112  C   UNL A   1      39.487  33.896  36.802  1.00  0.00     0.064 A 
ATOM    113  C   UNL A   1      38.715  33.456  37.885  1.00  0.00     0.173 A 
ATOM    114  C   UNL A   1      40.087  35.161  36.898  1.00  0.00     0.173 A 
ATOM    115  F   UNL A   1      38.107  32.262  37.832  1.00  0.00    -0.203 F 
ATOM    116  C   UNL A   1      38.548  34.249  39.018  1.00  0.00     0.198 A 
ATOM    117  C   UNL A   1      39.940  35.942  38.043  1.00  0.00     0.198 A 
ATOM    118  F   UNL A   1      40.842  35.624  35.891  1.00  0.00    -0.203 F 
ATOM    119  F   UNL A   1      37.784  33.816  40.030  1.00  0.00    -0.200 F 
ATOM    120  C   UNL A   1      39.167  35.487  39.100  1.00  0.00     0.200 A 
ATOM    121  F   UNL A   1      40.555  37.130  38.123  1.00  0.00    -0.200 F 
ATOM    122  F   UNL A   1      39.021  36.242  40.197  1.00  0.00    -0.200 F 
ENDBRANCH  84 112
BRANCH  99 123
ATOM    123  C   UNL A   1      43.872  28.660  35.306  1.00  0.00     0.064 A 
ATOM    124  C   UNL A   1      45.184  29.134  35.171  1.00  0.00     0.173 A 
ATOM    125  C   UNL A   1      43.635  27.633  36.233  1.00  0.00     0.173 A 
ATOM    126  F   UNL A   1      45.464  30.104  34.288  1.00  0.00    -0.203 F 
ATOM    127  C   UNL A   1      46.218  28.599  35.934  1.00  0.00     0.198 A 
ATOM    128  C   UNL A   1      44.665  27.119  37.013  1.00  0.00     0.198 A 
ATOM    129  F   UNL A   1      42.394  27.149  36.403  1.00  0.00    -0.203 F 
ATOM    130  F   UNL A   1      47.470  29.049  35.772  1.00  0.00    -0.200 F 
ATOM    131  C   UNL A   1      45.956  27.601  36.863  1.00  0.00     0.200 A 
ATOM    132  F   UNL A   1      44.407  26.166  37.920  1.00  0.00    -0.200 F 
ATOM    133  F   UNL A   1      46.950  27.103  37.612  1.00  0.00    -0.200 F 
ENDBRANCH  99 123
ENDBRANCH  64  67
ENDBRANCH  54  57
ENDBRANCH  50  53
ENDBRANCH  47  50
ENDBRANCH  44  47
ENDBRANCH   1  44
TORSDOF 17
ENDMDL
MODEL 10
REMARK VINA RESULT:     -11.9      7.312     12.803
REMARK SMILES C[C@@H](C(=O)NCCCCCCNC(=O)c1ccc(-c2c3nc(c(-c4c(F)c(F)c(F)c(F)c4F)c4ccc([nH]4)c(-c4c(F)c(F)c(F)c(F)c4F)c4nc(c(-c5c(F)c(F)c(F)c(F)c5F)c5ccc2[nH]5)C=C4)C=C3)cc1)c1ccccc1-c1ccn(C(F)F)c(=O)c1
REMARK SMILES IDX 8 1 7 4 6 7 5 10 3 11 4 12 2 14 1 16 78 20 79 21 83 22 80 23
REMARK SMILES IDX 82 25 81 26 84 30 85 31 93 32 86 33 91 35 87 37 92 39 88 40
REMARK SMILES IDX 89 41 90 42 9 44 10 47 11 50 12 53 13 54 14 56 15 57 16 58
REMARK SMILES IDX 77 59 17 60 76 62 18 64 19 67 20 68 70 69 21 70 75 71 69 72
REMARK SMILES IDX 71 73 22 74 74 75 68 77 67 79 23 81 55 84 35 85 54 86 36 87
REMARK SMILES IDX 39 88 53 89 72 90 37 91 38 93 52 95 73 96 40 99 24 101
REMARK SMILES IDX 25 102 33 103 26 104 27 105 31 106 34 107 28 108 29 109
REMARK SMILES IDX 32 110 30 111 56 112 57 113 65 114 58 115 59 116 63 117
REMARK SMILES IDX 66 118 60 119 61 120 64 121 62 122 41 123 42 124 50 125
REMARK SMILES IDX 43 126 44 127 48 128 51 129 45 130 46 131 49 132 47 133
REMARK H PARENT 8 2 8 3 7 5 7 6 6 8 6 9 5 13 2 15 1 17 1 18 1 19 79 24 80 27
REMARK H PARENT 82 28 81 29 85 34 93 36 86 38 88 43 9 45 9 46 10 48 10 49
REMARK H PARENT 11 51 11 52 12 55 16 61 77 63 17 65 76 66 75 76 69 78 71 80
REMARK H PARENT 74 82 68 83 36 92 39 94 72 97 37 98 73 100
REMARK Flexibility Score: inf
ROOT
ATOM      1  C   UNL A   1      40.423  21.994  26.064  1.00  0.00    -0.052 C 
ATOM      2  H   UNL A   1      41.132  22.730  26.382  1.00  0.00     0.027 H 
ATOM      3  H   UNL A   1      40.509  21.751  25.025  1.00  0.00     0.027 H 
ENDROOT
BRANCH   1   4
ATOM      4  C   UNL A   1      39.013  22.568  26.262  1.00  0.00    -0.036 C 
ATOM      5  H   UNL A   1      38.809  22.616  27.312  1.00  0.00     0.028 H 
ATOM      6  H   UNL A   1      38.997  23.536  25.805  1.00  0.00     0.028 H 
BRANCH   4   7
ATOM      7  C   UNL A   1      37.918  21.733  25.592  1.00  0.00     0.017 C 
ATOM      8  H   UNL A   1      37.892  21.947  24.545  1.00  0.00     0.049 H 
ATOM      9  H   UNL A   1      38.120  20.690  25.732  1.00  0.00     0.049 H 
BRANCH   7  10
ATOM     10  N   UNL A   1      36.642  22.069  26.190  1.00  0.00    -0.356 N 
ATOM     11  C   UNL A   1      35.549  22.634  25.599  1.00  0.00     0.227 C 
ATOM     12  O   UNL A   1      34.775  23.255  26.330  1.00  0.00    -0.274 OA
ATOM     13  H   UNL A   1      36.552  21.865  27.148  1.00  0.00     0.163 HD
BRANCH  11  14
ATOM     14  C   UNL A   1      35.304  22.420  24.100  1.00  0.00     0.061 C 
ATOM     15  H   UNL A   1      35.225  21.380  23.863  1.00  0.00     0.045 H 
BRANCH  14  16
ATOM     16  C   UNL A   1      36.515  22.958  23.322  1.00  0.00    -0.049 C 
ATOM     17  H   UNL A   1      36.989  22.153  22.800  1.00  0.00     0.024 H 
ATOM     18  H   UNL A   1      37.211  23.400  24.005  1.00  0.00     0.024 H 
ATOM     19  H   UNL A   1      36.188  23.695  22.619  1.00  0.00     0.024 H 
ENDBRANCH  14  16
BRANCH  14  20
ATOM     20  C   UNL A   1      33.948  23.014  23.682  1.00  0.00    -0.028 A 
ATOM     21  C   UNL A   1      33.848  24.374  23.321  1.00  0.00    -0.058 A 
ATOM     22  C   UNL A   1      32.758  22.238  23.683  1.00  0.00    -0.014 A 
ATOM     23  C   UNL A   1      32.624  24.954  22.984  1.00  0.00    -0.062 A 
ATOM     24  H   UNL A   1      34.700  24.955  23.307  1.00  0.00     0.063 H 
ATOM     25  C   UNL A   1      31.530  22.847  23.363  1.00  0.00    -0.054 A 
ATOM     26  C   UNL A   1      31.464  24.194  23.014  1.00  0.00    -0.062 A 
ATOM     27  H   UNL A   1      32.582  25.948  22.711  1.00  0.00     0.062 H 
ATOM     28  H   UNL A   1      30.664  22.287  23.387  1.00  0.00     0.063 H 
ATOM     29  H   UNL A   1      30.556  24.625  22.780  1.00  0.00     0.062 H 
BRANCH  22  30
ATOM     30  C   UNL A   1      32.722  20.787  23.988  1.00  0.00    -0.011 A 
ATOM     31  C   UNL A   1      32.851  20.242  25.326  1.00  0.00    -0.038 A 
ATOM     32  C   UNL A   1      32.524  19.938  22.963  1.00  0.00     0.012 A 
ATOM     33  C   UNL A   1      32.913  18.920  25.522  1.00  0.00     0.013 A 
ATOM     34  H   UNL A   1      32.896  20.882  26.135  1.00  0.00     0.064 H 
ATOM     35  C   UNL A   1      32.507  18.464  23.177  1.00  0.00     0.255 A 
ATOM     36  H   UNL A   1      32.381  20.315  22.014  1.00  0.00     0.069 H 
ATOM     37  N   UNL A   1      32.782  18.038  24.467  1.00  0.00    -0.258 N 
ATOM     38  H   UNL A   1      33.062  18.554  26.476  1.00  0.00     0.082 H 
ATOM     39  O   UNL A   1      32.282  17.735  22.217  1.00  0.00    -0.269 OA
BRANCH  37  40
ATOM     40  C   UNL A   1      32.860  16.618  24.685  1.00  0.00     0.321 C 
ATOM     41  F   UNL A   1      34.094  16.144  24.392  1.00  0.00    -0.185 F 
ATOM     42  F   UNL A   1      32.583  16.305  25.976  1.00  0.00    -0.185 F 
ATOM     43  H   UNL A   1      32.135  16.167  24.039  1.00  0.00     0.131 H 
ENDBRANCH  37  40
ENDBRANCH  22  30
ENDBRANCH  14  20
ENDBRANCH  11  14
ENDBRANCH   7  10
ENDBRANCH   4   7
ENDBRANCH   1   4
BRANCH   1  44
ATOM     44  C   UNL A   1      40.700  20.699  26.835  1.00  0.00    -0.052 C 
ATOM     45  H   UNL A   1      39.765  20.315  27.189  1.00  0.00     0.027 H 
ATOM     46  H   UNL A   1      41.373  20.952  27.627  1.00  0.00     0.027 H 
BRANCH  44  47
ATOM     47  C   UNL A   1      41.384  19.607  26.014  1.00  0.00    -0.036 C 
ATOM     48  H   UNL A   1      41.429  19.930  24.995  1.00  0.00     0.028 H 
ATOM     49  H   UNL A   1      40.804  18.717  26.138  1.00  0.00     0.028 H 
BRANCH  47  50
ATOM     50  C   UNL A   1      42.799  19.279  26.476  1.00  0.00     0.018 C 
ATOM     51  H   UNL A   1      42.746  18.550  27.258  1.00  0.00     0.049 H 
ATOM     52  H   UNL A   1      43.252  20.184  26.823  1.00  0.00     0.049 H 
BRANCH  50  53
ATOM     53  N   UNL A   1      43.616  18.752  25.395  1.00  0.00    -0.352 N 
ATOM     54  C   UNL A   1      44.438  19.436  24.530  1.00  0.00     0.251 C 
ATOM     55  H   UNL A   1      43.576  17.777  25.265  1.00  0.00     0.163 HD
ATOM     56  O   UNL A   1      44.916  18.891  23.550  1.00  0.00    -0.269 OA
BRANCH  54  57
ATOM     57  C   UNL A   1      44.716  20.862  24.801  1.00  0.00     0.039 A 
ATOM     58  C   UNL A   1      44.268  21.828  23.898  1.00  0.00    -0.049 A 
ATOM     59  C   UNL A   1      45.385  21.233  25.970  1.00  0.00    -0.049 A 
ATOM     60  C   UNL A   1      44.437  23.181  24.201  1.00  0.00    -0.053 A 
ATOM     61  H   UNL A   1      43.816  21.545  23.015  1.00  0.00     0.063 H 
ATOM     62  C   UNL A   1      45.486  22.577  26.303  1.00  0.00    -0.053 A 
ATOM     63  H   UNL A   1      45.800  20.513  26.582  1.00  0.00     0.063 H 
ATOM     64  C   UNL A   1      45.017  23.563  25.420  1.00  0.00    -0.014 A 
ATOM     65  H   UNL A   1      44.135  23.901  23.526  1.00  0.00     0.063 H 
ATOM     66  H   UNL A   1      45.910  22.853  27.203  1.00  0.00     0.063 H 
BRANCH  64  67
ATOM     67  C   UNL A   1      45.165  24.988  25.807  1.00  0.00     0.031 A 
ATOM     68  C   UNL A   1      46.522  25.630  25.756  1.00  0.00     0.074 A 
ATOM     69  C   UNL A   1      44.114  25.661  26.311  1.00  0.00     0.049 A 
ATOM     70  N   UNL A   1      46.906  26.795  26.208  1.00  0.00    -0.248 NA
ATOM     71  C   UNL A   1      47.597  24.832  25.150  1.00  0.00    -0.034 C 
ATOM     72  C   UNL A   1      42.759  25.129  26.452  1.00  0.00    -0.036 A 
ATOM     73  N   UNL A   1      44.032  26.928  26.832  1.00  0.00    -0.354 N 
ATOM     74  C   UNL A   1      48.272  26.856  25.970  1.00  0.00     0.074 A 
ATOM     75  C   UNL A   1      48.657  25.592  25.379  1.00  0.00    -0.034 C 
ATOM     76  H   UNL A   1      47.543  23.919  24.672  1.00  0.00     0.065 H 
ATOM     77  C   UNL A   1      41.981  26.060  27.026  1.00  0.00    -0.036 A 
ATOM     78  H   UNL A   1      42.451  24.189  26.158  1.00  0.00     0.065 H 
ATOM     79  C   UNL A   1      42.791  27.235  27.333  1.00  0.00     0.049 A 
ATOM     80  H   UNL A   1      44.790  27.556  26.844  1.00  0.00     0.167 HD
ATOM     81  C   UNL A   1      49.124  27.882  26.209  1.00  0.00     0.037 A 
ATOM     82  H   UNL A   1      49.629  25.320  25.166  1.00  0.00     0.065 H 
ATOM     83  H   UNL A   1      40.971  25.961  27.219  1.00  0.00     0.065 H 
ATOM     84  C   UNL A   1      42.362  28.330  27.990  1.00  0.00     0.037 A 
ATOM     85  C   UNL A   1      48.725  29.145  26.770  1.00  0.00     0.049 A 
ATOM     86  C   UNL A   1      43.321  29.461  28.240  1.00  0.00     0.074 A 
ATOM     87  C   UNL A   1      49.492  30.277  26.977  1.00  0.00    -0.036 A 
ATOM     88  N   UNL A   1      47.445  29.438  27.219  1.00  0.00    -0.354 N 
ATOM     89  N   UNL A   1      44.597  29.541  27.948  1.00  0.00    -0.248 NA
ATOM     90  C   UNL A   1      42.783  30.656  28.906  1.00  0.00    -0.034 C 
ATOM     91  C   UNL A   1      48.689  31.237  27.602  1.00  0.00    -0.036 A 
ATOM     92  H   UNL A   1      50.483  30.393  26.717  1.00  0.00     0.065 H 
ATOM     93  C   UNL A   1      47.407  30.724  27.731  1.00  0.00     0.049 A 
ATOM     94  H   UNL A   1      46.677  28.823  27.181  1.00  0.00     0.167 HD
ATOM     95  C   UNL A   1      45.008  30.799  28.365  1.00  0.00     0.074 A 
ATOM     96  C   UNL A   1      43.845  31.452  28.932  1.00  0.00    -0.034 C 
ATOM     97  H   UNL A   1      41.830  30.832  29.260  1.00  0.00     0.065 H 
ATOM     98  H   UNL A   1      49.000  32.170  27.916  1.00  0.00     0.065 H 
ATOM     99  C   UNL A   1      46.238  31.364  28.280  1.00  0.00     0.037 A 
ATOM    100  H   UNL A   1      43.842  32.413  29.306  1.00  0.00     0.065 H 
BRANCH  81 101
ATOM    101  C   UNL A   1      50.573  27.665  25.877  1.00  0.00     0.064 A 
ATOM    102  C   UNL A   1      51.069  27.830  24.575  1.00  0.00     0.173 A 
ATOM    103  C   UNL A   1      51.480  27.285  26.879  1.00  0.00     0.173 A 
ATOM    104  F   UNL A   1      50.244  28.183  23.578  1.00  0.00    -0.203 F 
ATOM    105  C   UNL A   1      52.405  27.574  24.278  1.00  0.00     0.198 A 
ATOM    106  C   UNL A   1      52.823  27.065  26.585  1.00  0.00     0.198 A 
ATOM    107  F   UNL A   1      51.063  27.120  28.143  1.00  0.00    -0.203 F 
ATOM    108  F   UNL A   1      52.838  27.670  23.013  1.00  0.00    -0.200 F 
ATOM    109  C   UNL A   1      53.281  27.197  25.283  1.00  0.00     0.200 A 
ATOM    110  F   UNL A   1      53.672  26.715  27.561  1.00  0.00    -0.200 F 
ATOM    111  F   UNL A   1      54.566  26.948  24.995  1.00  0.00    -0.200 F 
ENDBRANCH  81 101
BRANCH  84 112
ATOM    112  C   UNL A   1      40.949  28.398  28.444  1.00  0.00     0.064 A 
ATOM    113  C   UNL A   1      40.587  27.989  29.734  1.00  0.00     0.173 A 
ATOM    114  C   UNL A   1      39.943  28.916  27.615  1.00  0.00     0.173 A 
ATOM    115  F   UNL A   1      41.510  27.470  30.556  1.00  0.00    -0.203 F 
ATOM    116  C   UNL A   1      39.269  28.090  30.176  1.00  0.00     0.198 A 
ATOM    117  C   UNL A   1      38.631  29.041  28.068  1.00  0.00     0.198 A 
ATOM    118  F   UNL A   1      40.242  29.330  26.375  1.00  0.00    -0.203 F 
ATOM    119  F   UNL A   1      38.943  27.667  31.405  1.00  0.00    -0.200 F 
ATOM    120  C   UNL A   1      38.295  28.624  29.347  1.00  0.00     0.200 A 
ATOM    121  F   UNL A   1      37.698  29.575  27.269  1.00  0.00    -0.200 F 
ATOM    122  F   UNL A   1      37.032  28.738  29.779  1.00  0.00    -0.200 F 
ENDBRANCH  84 112
BRANCH  99 123
ATOM    123  C   UNL A   1      46.394  32.773  28.772  1.00  0.00     0.064 A 
ATOM    124  C   UNL A   1      46.170  33.875  27.937  1.00  0.00     0.173 A 
ATOM    125  C   UNL A   1      46.684  33.019  30.124  1.00  0.00     0.173 A 
ATOM    126  F   UNL A   1      45.903  33.693  26.634  1.00  0.00    -0.203 F 
ATOM    127  C   UNL A   1      46.235  35.173  28.435  1.00  0.00     0.198 A 
ATOM    128  C   UNL A   1      46.723  34.316  30.624  1.00  0.00     0.198 A 
ATOM    129  F   UNL A   1      46.901  31.996  30.965  1.00  0.00    -0.203 F 
ATOM    130  F   UNL A   1      46.042  36.215  27.614  1.00  0.00    -0.200 F 
ATOM    131  C   UNL A   1      46.499  35.393  29.780  1.00  0.00     0.200 A 
ATOM    132  F   UNL A   1      46.962  34.524  31.926  1.00  0.00    -0.200 F 
ATOM    133  F   UNL A   1      46.539  36.643  30.262  1.00  0.00    -0.200 F 
ENDBRANCH  99 123
ENDBRANCH  64  67
ENDBRANCH  54  57
ENDBRANCH  50  53
ENDBRANCH  47  50
ENDBRANCH  44  47
ENDBRANCH   1  44
TORSDOF 17
ENDMDL
