MODEL 1
REMARK VINA RESULT:     -13.9      0.000      0.000
REMARK SMILES Cc1ccc(-c2nn(-c3ccccc3)cc2[C@@H]2[NH2+][C@H](C(=O)NCCCCCCNC(=O)c3ccc(-c4c5nc(c(-c6c(F)c(F)c(F)c(F)c6F)c6ccc([nH]6)c(-c6c(F)c(F)c(F)c(F)c6F)c6nc(c(-c7c(F)c(F)c(F)c(F)c7F)c7ccc4[nH]7)C=C6)C=C5)cc3)CS2)cc1
REMARK SMILES IDX 25 1 24 4 23 7 22 10 20 11 21 12 19 14 17 15 18 16 96 17
REMARK SMILES IDX 95 21 16 25 6 26 7 27 8 28 15 29 5 31 2 32 3 33 98 34 4 35
REMARK SMILES IDX 97 37 1 41 9 45 10 46 14 47 11 48 13 50 12 52 26 56 27 59
REMARK SMILES IDX 28 62 29 65 30 66 31 68 32 69 33 70 94 71 34 72 93 74 35 76
REMARK SMILES IDX 36 79 37 80 87 81 38 82 92 83 86 84 88 85 39 86 91 87 85 89
REMARK SMILES IDX 84 91 40 93 72 96 52 97 71 98 53 99 56 100 70 101 89 102
REMARK SMILES IDX 54 103 55 105 69 107 90 108 57 111 41 113 42 114 50 115
REMARK SMILES IDX 43 116 44 117 48 118 51 119 45 120 46 121 49 122 47 123
REMARK SMILES IDX 73 124 74 125 82 126 75 127 76 128 80 129 83 130 77 131
REMARK SMILES IDX 78 132 81 133 79 134 58 135 59 136 67 137 60 138 61 139
REMARK SMILES IDX 65 140 68 141 62 142 63 143 66 144 64 145
REMARK H PARENT 25 2 25 3 24 5 24 6 23 8 23 9 22 13 17 18 18 19 18 20 19 22
REMARK H PARENT 95 23 95 24 15 30 3 36 98 38 4 39 97 40 1 42 1 43 1 44 10 49
REMARK H PARENT 14 51 11 53 13 54 12 55 26 57 26 58 27 60 27 61 28 63 28 64
REMARK H PARENT 29 67 33 73 94 75 34 77 93 78 92 88 86 90 88 92 91 94 85 95
REMARK H PARENT 53 104 56 106 89 109 54 110 90 112
REMARK Flexibility Score: inf
ROOT
ATOM      1  C   UNL A   1      33.247  28.890  23.961  1.00  0.00    -0.052 C 
ATOM      2  H   UNL A   1      32.209  28.978  23.719  1.00  0.00     0.027 H 
ATOM      3  H   UNL A   1      33.958  29.645  23.697  1.00  0.00     0.027 H 
ENDROOT
BRANCH   1   4
ATOM      4  C   UNL A   1      33.773  27.707  23.100  1.00  0.00    -0.036 C 
ATOM      5  H   UNL A   1      34.322  28.154  22.297  1.00  0.00     0.028 H 
ATOM      6  H   UNL A   1      34.272  27.120  23.841  1.00  0.00     0.028 H 
BRANCH   4   7
ATOM      7  C   UNL A   1      32.869  26.657  22.452  1.00  0.00     0.018 C 
ATOM      8  H   UNL A   1      32.057  26.472  23.125  1.00  0.00     0.049 H 
ATOM      9  H   UNL A   1      32.590  27.077  21.509  1.00  0.00     0.049 H 
BRANCH   7  10
ATOM     10  N   UNL A   1      33.470  25.372  22.127  1.00  0.00    -0.351 N 
ATOM     11  C   UNL A   1      34.122  24.443  22.892  1.00  0.00     0.279 C 
ATOM     12  O   UNL A   1      34.249  23.327  22.360  1.00  0.00    -0.268 OA
ATOM     13  H   UNL A   1      33.392  25.123  21.178  1.00  0.00     0.163 HD
BRANCH  11  14
ATOM     14  C   UNL A   1      34.756  24.629  24.302  1.00  0.00     0.176 C 
ATOM     15  C   UNL A   1      34.107  23.589  26.394  1.00  0.00     0.163 C 
ATOM     16  N   UNL A   1      33.836  24.689  25.463  1.00  0.00    -0.320 N 
ATOM     17  S   UNL A   1      35.881  23.286  26.300  1.00  0.00    -0.087 SA
ATOM     18  H   UNL A   1      33.858  23.801  27.413  1.00  0.00     0.115 H 
ATOM     19  H   UNL A   1      33.965  25.578  25.948  1.00  0.00     0.348 HD
ATOM     20  H   UNL A   1      32.876  24.608  25.128  1.00  0.00     0.348 HD
ATOM     21  C   UNL A   1      35.924  23.659  24.530  1.00  0.00     0.061 C 
ATOM     22  H   UNL A   1      35.131  25.630  24.264  1.00  0.00     0.108 H 
ATOM     23  H   UNL A   1      36.852  24.118  24.264  1.00  0.00     0.045 H 
ATOM     24  H   UNL A   1      35.836  22.777  23.931  1.00  0.00     0.045 H 
BRANCH  15  25
ATOM     25  C   UNL A   1      33.261  22.421  26.004  1.00  0.00     0.067 A 
ATOM     26  C   UNL A   1      31.945  22.422  25.408  1.00  0.00     0.103 A 
ATOM     27  N   UNL A   1      31.519  21.151  25.205  1.00  0.00    -0.167 NA
ATOM     28  N   UNL A   1      32.603  20.375  25.472  1.00  0.00    -0.240 N 
ATOM     29  C   UNL A   1      33.597  21.084  26.072  1.00  0.00     0.041 A 
ATOM     30  H   UNL A   1      34.449  20.693  26.502  1.00  0.00     0.085 H 
BRANCH  26  31
ATOM     31  C   UNL A   1      31.127  23.593  25.002  1.00  0.00     0.003 A 
ATOM     32  C   UNL A   1      29.642  25.891  24.204  1.00  0.00    -0.051 A 
ATOM     33  C   UNL A   1      30.002  24.924  23.270  1.00  0.00    -0.059 A 
ATOM     34  C   UNL A   1      29.984  25.682  25.545  1.00  0.00    -0.059 A 
ATOM     35  C   UNL A   1      30.732  23.799  23.668  1.00  0.00    -0.052 A 
ATOM     36  H   UNL A   1      29.728  25.036  22.282  1.00  0.00     0.063 H 
ATOM     37  C   UNL A   1      30.711  24.542  25.941  1.00  0.00    -0.052 A 
ATOM     38  H   UNL A   1      29.699  26.373  26.255  1.00  0.00     0.063 H 
ATOM     39  H   UNL A   1      30.990  23.095  22.958  1.00  0.00     0.063 H 
ATOM     40  H   UNL A   1      30.941  24.407  26.938  1.00  0.00     0.063 H 
BRANCH  32  41
ATOM     41  C   UNL A   1      28.904  27.116  23.748  1.00  0.00    -0.040 C 
ATOM     42  H   UNL A   1      28.223  27.427  24.512  1.00  0.00     0.028 H 
ATOM     43  H   UNL A   1      28.360  26.892  22.854  1.00  0.00     0.028 H 
ATOM     44  H   UNL A   1      29.604  27.901  23.552  1.00  0.00     0.028 H 
ENDBRANCH  32  41
ENDBRANCH  26  31
BRANCH  28  45
ATOM     45  C   UNL A   1      32.778  19.072  24.948  1.00  0.00     0.065 A 
ATOM     46  C   UNL A   1      32.773  17.972  25.829  1.00  0.00    -0.036 A 
ATOM     47  C   UNL A   1      32.945  18.877  23.581  1.00  0.00    -0.036 A 
ATOM     48  C   UNL A   1      33.027  16.688  25.347  1.00  0.00    -0.060 A 
ATOM     49  H   UNL A   1      32.579  18.116  26.832  1.00  0.00     0.065 H 
ATOM     50  C   UNL A   1      33.107  17.573  23.098  1.00  0.00    -0.060 A 
ATOM     51  H   UNL A   1      32.947  19.679  22.933  1.00  0.00     0.065 H 
ATOM     52  C   UNL A   1      33.181  16.488  23.979  1.00  0.00    -0.062 A 
ATOM     53  H   UNL A   1      33.100  15.894  26.000  1.00  0.00     0.062 H 
ATOM     54  H   UNL A   1      33.174  17.410  22.081  1.00  0.00     0.062 H 
ATOM     55  H   UNL A   1      33.350  15.538  23.613  1.00  0.00     0.062 H 
ENDBRANCH  28  45
ENDBRANCH  15  25
ENDBRANCH  11  14
ENDBRANCH   7  10
ENDBRANCH   4   7
ENDBRANCH   1   4
BRANCH   1  56
ATOM     56  C   UNL A   1      33.318  28.973  25.495  1.00  0.00    -0.052 C 
ATOM     57  H   UNL A   1      34.294  28.644  25.785  1.00  0.00     0.027 H 
ATOM     58  H   UNL A   1      32.501  28.368  25.829  1.00  0.00     0.027 H 
BRANCH  56  59
ATOM     59  C   UNL A   1      33.079  30.330  26.161  1.00  0.00    -0.036 C 
ATOM     60  H   UNL A   1      32.090  30.643  25.894  1.00  0.00     0.028 H 
ATOM     61  H   UNL A   1      33.879  30.943  25.803  1.00  0.00     0.028 H 
BRANCH  59  62
ATOM     62  C   UNL A   1      33.185  30.423  27.683  1.00  0.00     0.018 C 
ATOM     63  H   UNL A   1      33.589  29.500  28.042  1.00  0.00     0.049 H 
ATOM     64  H   UNL A   1      32.196  30.630  28.034  1.00  0.00     0.049 H 
BRANCH  62  65
ATOM     65  N   UNL A   1      34.030  31.516  28.196  1.00  0.00    -0.352 N 
ATOM     66  C   UNL A   1      35.309  31.430  28.748  1.00  0.00     0.251 C 
ATOM     67  H   UNL A   1      33.644  32.421  28.142  1.00  0.00     0.163 HD
ATOM     68  O   UNL A   1      35.915  32.401  29.154  1.00  0.00    -0.269 OA
BRANCH  66  69
ATOM     69  C   UNL A   1      35.961  30.101  28.718  1.00  0.00     0.039 A 
ATOM     70  C   UNL A   1      36.363  29.576  29.950  1.00  0.00    -0.049 A 
ATOM     71  C   UNL A   1      36.541  29.687  27.522  1.00  0.00    -0.049 A 
ATOM     72  C   UNL A   1      37.565  28.885  30.013  1.00  0.00    -0.053 A 
ATOM     73  H   UNL A   1      35.778  29.698  30.792  1.00  0.00     0.063 H 
ATOM     74  C   UNL A   1      37.780  29.081  27.598  1.00  0.00    -0.053 A 
ATOM     75  H   UNL A   1      36.066  29.827  26.618  1.00  0.00     0.063 H 
ATOM     76  C   UNL A   1      38.330  28.778  28.853  1.00  0.00    -0.014 A 
ATOM     77  H   UNL A   1      37.885  28.461  30.897  1.00  0.00     0.063 H 
ATOM     78  H   UNL A   1      38.297  28.852  26.735  1.00  0.00     0.063 H 
BRANCH  76  79
ATOM     79  C   UNL A   1      39.758  28.482  28.871  1.00  0.00     0.031 A 
ATOM     80  C   UNL A   1      40.223  27.126  28.534  1.00  0.00     0.074 A 
ATOM     81  C   UNL A   1      40.662  29.447  29.158  1.00  0.00     0.049 A 
ATOM     82  N   UNL A   1      41.395  26.671  28.825  1.00  0.00    -0.248 NA
ATOM     83  C   UNL A   1      39.349  26.125  27.934  1.00  0.00    -0.034 C 
ATOM     84  C   UNL A   1      42.105  29.397  28.941  1.00  0.00    -0.036 A 
ATOM     85  N   UNL A   1      40.467  30.612  29.918  1.00  0.00    -0.354 N 
ATOM     86  C   UNL A   1      41.528  25.441  28.229  1.00  0.00     0.074 A 
ATOM     87  C   UNL A   1      40.191  25.095  27.817  1.00  0.00    -0.034 C 
ATOM     88  H   UNL A   1      38.354  26.194  27.671  1.00  0.00     0.065 H 
ATOM     89  C   UNL A   1      42.701  30.268  29.767  1.00  0.00    -0.036 A 
ATOM     90  H   UNL A   1      42.588  28.789  28.260  1.00  0.00     0.065 H 
ATOM     91  C   UNL A   1      41.675  30.813  30.634  1.00  0.00     0.049 A 
ATOM     92  H   UNL A   1      39.659  31.173  29.949  1.00  0.00     0.167 HD
ATOM     93  C   UNL A   1      42.783  24.936  28.060  1.00  0.00     0.037 A 
ATOM     94  H   UNL A   1      39.916  24.161  27.474  1.00  0.00     0.065 H 
ATOM     95  H   UNL A   1      43.705  30.506  29.783  1.00  0.00     0.065 H 
ATOM     96  C   UNL A   1      41.703  30.798  31.997  1.00  0.00     0.037 A 
ATOM     97  C   UNL A   1      43.756  25.677  28.871  1.00  0.00     0.049 A 
ATOM     98  C   UNL A   1      42.561  29.708  32.604  1.00  0.00     0.074 A 
ATOM     99  C   UNL A   1      44.744  26.615  28.617  1.00  0.00    -0.036 A 
ATOM    100  N   UNL A   1      43.604  25.655  30.248  1.00  0.00    -0.354 N 
ATOM    101  N   UNL A   1      43.200  28.807  31.911  1.00  0.00    -0.248 NA
ATOM    102  C   UNL A   1      42.676  29.483  34.047  1.00  0.00    -0.034 C 
ATOM    103  C   UNL A   1      45.158  27.173  29.866  1.00  0.00    -0.036 A 
ATOM    104  H   UNL A   1      45.116  26.867  27.688  1.00  0.00     0.065 H 
ATOM    105  C   UNL A   1      44.431  26.565  30.874  1.00  0.00     0.049 A 
ATOM    106  H   UNL A   1      42.981  25.059  30.725  1.00  0.00     0.167 HD
ATOM    107  C   UNL A   1      43.715  27.867  32.760  1.00  0.00     0.074 A 
ATOM    108  C   UNL A   1      43.379  28.339  34.089  1.00  0.00    -0.034 C 
ATOM    109  H   UNL A   1      42.311  30.053  34.826  1.00  0.00     0.065 H 
ATOM    110  H   UNL A   1      45.875  27.904  29.993  1.00  0.00     0.065 H 
ATOM    111  C   UNL A   1      44.330  26.735  32.314  1.00  0.00     0.037 A 
ATOM    112  H   UNL A   1      43.647  27.856  34.962  1.00  0.00     0.065 H 
BRANCH  93 113
ATOM    113  C   UNL A   1      43.186  23.883  27.039  1.00  0.00     0.064 A 
ATOM    114  C   UNL A   1      42.796  22.538  27.228  1.00  0.00     0.173 A 
ATOM    115  C   UNL A   1      44.035  24.083  25.929  1.00  0.00     0.173 A 
ATOM    116  F   UNL A   1      41.962  22.181  28.215  1.00  0.00    -0.203 F 
ATOM    117  C   UNL A   1      43.265  21.492  26.423  1.00  0.00     0.198 A 
ATOM    118  C   UNL A   1      44.485  23.042  25.112  1.00  0.00     0.198 A 
ATOM    119  F   UNL A   1      44.500  25.279  25.578  1.00  0.00    -0.203 F 
ATOM    120  F   UNL A   1      42.898  20.231  26.691  1.00  0.00    -0.200 F 
ATOM    121  C   UNL A   1      44.115  21.743  25.368  1.00  0.00     0.200 A 
ATOM    122  F   UNL A   1      45.304  23.318  24.086  1.00  0.00    -0.200 F 
ATOM    123  F   UNL A   1      44.581  20.745  24.607  1.00  0.00    -0.200 F 
ENDBRANCH  93 113
BRANCH  96 124
ATOM    124  C   UNL A   1      40.449  31.330  32.590  1.00  0.00     0.064 A 
ATOM    125  C   UNL A   1      40.205  32.713  32.489  1.00  0.00     0.173 A 
ATOM    126  C   UNL A   1      39.361  30.493  32.856  1.00  0.00     0.173 A 
ATOM    127  F   UNL A   1      41.218  33.556  32.234  1.00  0.00    -0.203 F 
ATOM    128  C   UNL A   1      38.909  33.219  32.516  1.00  0.00     0.198 A 
ATOM    129  C   UNL A   1      38.064  31.007  32.898  1.00  0.00     0.198 A 
ATOM    130  F   UNL A   1      39.531  29.166  32.947  1.00  0.00    -0.203 F 
ATOM    131  F   UNL A   1      38.696  34.523  32.292  1.00  0.00    -0.200 F 
ATOM    132  C   UNL A   1      37.837  32.360  32.690  1.00  0.00     0.200 A 
ATOM    133  F   UNL A   1      37.025  30.173  33.045  1.00  0.00    -0.200 F 
ATOM    134  F   UNL A   1      36.583  32.827  32.617  1.00  0.00    -0.200 F 
ENDBRANCH  96 124
BRANCH 111 135
ATOM    135  C   UNL A   1      44.878  25.686  33.231  1.00  0.00     0.064 A 
ATOM    136  C   UNL A   1      46.245  25.372  33.271  1.00  0.00     0.173 A 
ATOM    137  C   UNL A   1      44.024  24.875  34.004  1.00  0.00     0.173 A 
ATOM    138  F   UNL A   1      47.128  26.077  32.548  1.00  0.00    -0.203 F 
ATOM    139  C   UNL A   1      46.727  24.314  34.044  1.00  0.00     0.198 A 
ATOM    140  C   UNL A   1      44.501  23.790  34.736  1.00  0.00     0.198 A 
ATOM    141  F   UNL A   1      42.709  25.132  34.086  1.00  0.00    -0.203 F 
ATOM    142  F   UNL A   1      48.044  24.066  34.085  1.00  0.00    -0.200 F 
ATOM    143  C   UNL A   1      45.854  23.513  34.760  1.00  0.00     0.200 A 
ATOM    144  F   UNL A   1      43.642  23.017  35.417  1.00  0.00    -0.200 F 
ATOM    145  F   UNL A   1      46.315  22.478  35.477  1.00  0.00    -0.200 F 
ENDBRANCH 111 135
ENDBRANCH  76  79
ENDBRANCH  66  69
ENDBRANCH  62  65
ENDBRANCH  59  62
ENDBRANCH  56  59
ENDBRANCH   1  56
TORSDOF 17
ENDMDL
MODEL 2
REMARK VINA RESULT:     -13.8      1.867      3.015
REMARK SMILES Cc1ccc(-c2nn(-c3ccccc3)cc2[C@@H]2[NH2+][C@H](C(=O)NCCCCCCNC(=O)c3ccc(-c4c5nc(c(-c6c(F)c(F)c(F)c(F)c6F)c6ccc([nH]6)c(-c6c(F)c(F)c(F)c(F)c6F)c6nc(c(-c7c(F)c(F)c(F)c(F)c7F)c7ccc4[nH]7)C=C6)C=C5)cc3)CS2)cc1
REMARK SMILES IDX 25 1 24 4 23 7 22 10 20 11 21 12 19 14 17 15 18 16 96 17
REMARK SMILES IDX 95 21 16 25 6 26 7 27 8 28 15 29 5 31 2 32 3 33 98 34 4 35
REMARK SMILES IDX 97 37 1 41 9 45 10 46 14 47 11 48 13 50 12 52 26 56 27 59
REMARK SMILES IDX 28 62 29 65 30 66 31 68 32 69 33 70 94 71 34 72 93 74 35 76
REMARK SMILES IDX 36 79 37 80 87 81 38 82 92 83 86 84 88 85 39 86 91 87 85 89
REMARK SMILES IDX 84 91 40 93 72 96 52 97 71 98 53 99 56 100 70 101 89 102
REMARK SMILES IDX 54 103 55 105 69 107 90 108 57 111 41 113 42 114 50 115
REMARK SMILES IDX 43 116 44 117 48 118 51 119 45 120 46 121 49 122 47 123
REMARK SMILES IDX 73 124 74 125 82 126 75 127 76 128 80 129 83 130 77 131
REMARK SMILES IDX 78 132 81 133 79 134 58 135 59 136 67 137 60 138 61 139
REMARK SMILES IDX 65 140 68 141 62 142 63 143 66 144 64 145
REMARK H PARENT 25 2 25 3 24 5 24 6 23 8 23 9 22 13 17 18 18 19 18 20 19 22
REMARK H PARENT 95 23 95 24 15 30 3 36 98 38 4 39 97 40 1 42 1 43 1 44 10 49
REMARK H PARENT 14 51 11 53 13 54 12 55 26 57 26 58 27 60 27 61 28 63 28 64
REMARK H PARENT 29 67 33 73 94 75 34 77 93 78 92 88 86 90 88 92 91 94 85 95
REMARK H PARENT 53 104 56 106 89 109 54 110 90 112
REMARK Flexibility Score: inf
ROOT
ATOM      1  C   UNL A   1      32.058  28.130  26.969  1.00  0.00    -0.052 C 
ATOM      2  H   UNL A   1      32.957  27.748  26.534  1.00  0.00     0.027 H 
ATOM      3  H   UNL A   1      31.945  28.254  28.026  1.00  0.00     0.027 H 
ENDROOT
BRANCH   1   4
ATOM      4  C   UNL A   1      30.977  27.044  26.703  1.00  0.00    -0.036 C 
ATOM      5  H   UNL A   1      30.546  26.824  27.659  1.00  0.00     0.028 H 
ATOM      6  H   UNL A   1      30.397  27.515  25.938  1.00  0.00     0.028 H 
BRANCH   4   7
ATOM      7  C   UNL A   1      31.271  25.689  26.058  1.00  0.00     0.018 C 
ATOM      8  H   UNL A   1      30.402  25.401  25.504  1.00  0.00     0.049 H 
ATOM      9  H   UNL A   1      32.151  25.848  25.471  1.00  0.00     0.049 H 
BRANCH   7  10
ATOM     10  N   UNL A   1      31.607  24.588  26.948  1.00  0.00    -0.351 N 
ATOM     11  C   UNL A   1      31.801  23.251  26.724  1.00  0.00     0.279 C 
ATOM     12  O   UNL A   1      32.362  22.644  27.651  1.00  0.00    -0.268 OA
ATOM     13  H   UNL A   1      31.716  24.853  27.890  1.00  0.00     0.163 HD
BRANCH  11  14
ATOM     14  C   UNL A   1      31.365  22.408  25.489  1.00  0.00     0.176 C 
ATOM     15  C   UNL A   1      32.403  22.294  23.301  1.00  0.00     0.163 C 
ATOM     16  N   UNL A   1      31.474  23.043  24.154  1.00  0.00    -0.320 N 
ATOM     17  S   UNL A   1      32.234  20.566  23.783  1.00  0.00    -0.087 SA
ATOM     18  H   UNL A   1      32.199  22.371  22.253  1.00  0.00     0.115 H 
ATOM     19  H   UNL A   1      30.553  23.060  23.714  1.00  0.00     0.348 HD
ATOM     20  H   UNL A   1      31.826  23.994  24.268  1.00  0.00     0.348 HD
ATOM     21  C   UNL A   1      31.978  21.001  25.520  1.00  0.00     0.061 C 
ATOM     22  H   UNL A   1      30.306  22.334  25.614  1.00  0.00     0.108 H 
ATOM     23  H   UNL A   1      31.308  20.309  25.986  1.00  0.00     0.045 H 
ATOM     24  H   UNL A   1      32.888  20.971  26.081  1.00  0.00     0.045 H 
BRANCH  15  25
ATOM     25  C   UNL A   1      33.775  22.856  23.489  1.00  0.00     0.067 A 
ATOM     26  C   UNL A   1      34.210  24.229  23.371  1.00  0.00     0.103 A 
ATOM     27  N   UNL A   1      35.538  24.325  23.623  1.00  0.00    -0.167 NA
ATOM     28  N   UNL A   1      35.894  23.096  24.082  1.00  0.00    -0.240 N 
ATOM     29  C   UNL A   1      34.909  22.178  23.886  1.00  0.00     0.041 A 
ATOM     30  H   UNL A   1      34.995  21.157  24.011  1.00  0.00     0.085 H 
BRANCH  26  31
ATOM     31  C   UNL A   1      33.384  25.425  23.070  1.00  0.00     0.003 A 
ATOM     32  C   UNL A   1      31.740  27.699  22.568  1.00  0.00    -0.051 A 
ATOM     33  C   UNL A   1      32.835  27.795  23.421  1.00  0.00    -0.059 A 
ATOM     34  C   UNL A   1      31.498  26.478  21.929  1.00  0.00    -0.059 A 
ATOM     35  C   UNL A   1      33.637  26.674  23.664  1.00  0.00    -0.052 A 
ATOM     36  H   UNL A   1      33.057  28.694  23.875  1.00  0.00     0.063 H 
ATOM     37  C   UNL A   1      32.315  25.356  22.171  1.00  0.00    -0.052 A 
ATOM     38  H   UNL A   1      30.709  26.398  21.270  1.00  0.00     0.063 H 
ATOM     39  H   UNL A   1      34.443  26.767  24.303  1.00  0.00     0.063 H 
ATOM     40  H   UNL A   1      32.121  24.471  21.677  1.00  0.00     0.063 H 
BRANCH  32  41
ATOM     41  C   UNL A   1      30.861  28.898  22.362  1.00  0.00    -0.040 C 
ATOM     42  H   UNL A   1      30.850  29.490  23.253  1.00  0.00     0.028 H 
ATOM     43  H   UNL A   1      29.867  28.576  22.134  1.00  0.00     0.028 H 
ATOM     44  H   UNL A   1      31.241  29.483  21.550  1.00  0.00     0.028 H 
ENDBRANCH  32  41
ENDBRANCH  26  31
BRANCH  28  45
ATOM     45  C   UNL A   1      37.026  22.866  24.899  1.00  0.00     0.065 A 
ATOM     46  C   UNL A   1      37.487  23.898  25.741  1.00  0.00    -0.036 A 
ATOM     47  C   UNL A   1      37.673  21.635  24.880  1.00  0.00    -0.036 A 
ATOM     48  C   UNL A   1      38.649  23.724  26.492  1.00  0.00    -0.060 A 
ATOM     49  H   UNL A   1      36.962  24.785  25.802  1.00  0.00     0.065 H 
ATOM     50  C   UNL A   1      38.785  21.441  25.708  1.00  0.00    -0.060 A 
ATOM     51  H   UNL A   1      37.338  20.876  24.267  1.00  0.00     0.065 H 
ATOM     52  C   UNL A   1      39.290  22.490  26.485  1.00  0.00    -0.062 A 
ATOM     53  H   UNL A   1      39.030  24.505  27.047  1.00  0.00     0.062 H 
ATOM     54  H   UNL A   1      39.237  20.514  25.746  1.00  0.00     0.062 H 
ATOM     55  H   UNL A   1      40.140  22.347  27.052  1.00  0.00     0.062 H 
ENDBRANCH  28  45
ENDBRANCH  15  25
ENDBRANCH  11  14
ENDBRANCH   7  10
ENDBRANCH   4   7
ENDBRANCH   1   4
BRANCH   1  56
ATOM     56  C   UNL A   1      31.975  29.596  26.513  1.00  0.00    -0.052 C 
ATOM     57  H   UNL A   1      30.956  29.905  26.622  1.00  0.00     0.027 H 
ATOM     58  H   UNL A   1      32.356  29.583  25.513  1.00  0.00     0.027 H 
BRANCH  56  59
ATOM     59  C   UNL A   1      32.843  30.631  27.233  1.00  0.00    -0.036 C 
ATOM     60  H   UNL A   1      32.318  30.921  28.120  1.00  0.00     0.028 H 
ATOM     61  H   UNL A   1      32.995  31.399  26.503  1.00  0.00     0.028 H 
BRANCH  59  62
ATOM     62  C   UNL A   1      34.256  30.230  27.657  1.00  0.00     0.018 C 
ATOM     63  H   UNL A   1      34.855  30.153  26.774  1.00  0.00     0.049 H 
ATOM     64  H   UNL A   1      34.151  29.310  28.192  1.00  0.00     0.049 H 
BRANCH  62  65
ATOM     65  N   UNL A   1      34.930  31.159  28.581  1.00  0.00    -0.352 N 
ATOM     66  C   UNL A   1      36.149  30.988  29.238  1.00  0.00     0.251 C 
ATOM     67  H   UNL A   1      34.461  32.007  28.758  1.00  0.00     0.163 HD
ATOM     68  O   UNL A   1      36.609  31.819  29.994  1.00  0.00    -0.269 OA
BRANCH  66  69
ATOM     69  C   UNL A   1      36.933  29.782  28.886  1.00  0.00     0.039 A 
ATOM     70  C   UNL A   1      37.186  28.878  29.923  1.00  0.00    -0.049 A 
ATOM     71  C   UNL A   1      37.737  29.836  27.750  1.00  0.00    -0.049 A 
ATOM     72  C   UNL A   1      38.429  28.262  29.972  1.00  0.00    -0.053 A 
ATOM     73  H   UNL A   1      36.466  28.675  30.633  1.00  0.00     0.063 H 
ATOM     74  C   UNL A   1      39.004  29.296  27.847  1.00  0.00    -0.053 A 
ATOM     75  H   UNL A   1      37.399  30.261  26.874  1.00  0.00     0.063 H 
ATOM     76  C   UNL A   1      39.376  28.599  29.007  1.00  0.00    -0.014 A 
ATOM     77  H   UNL A   1      38.647  27.570  30.706  1.00  0.00     0.063 H 
ATOM     78  H   UNL A   1      39.673  29.405  27.069  1.00  0.00     0.063 H 
BRANCH  76  79
ATOM     79  C   UNL A   1      40.806  28.378  29.189  1.00  0.00     0.031 A 
ATOM     80  C   UNL A   1      41.431  27.168  28.627  1.00  0.00     0.074 A 
ATOM     81  C   UNL A   1      41.571  29.287  29.836  1.00  0.00     0.049 A 
ATOM     82  N   UNL A   1      42.582  26.714  28.993  1.00  0.00    -0.248 NA
ATOM     83  C   UNL A   1      40.745  26.301  27.678  1.00  0.00    -0.034 C 
ATOM     84  C   UNL A   1      43.029  29.362  29.852  1.00  0.00    -0.036 A 
ATOM     85  N   UNL A   1      41.166  30.222  30.803  1.00  0.00    -0.354 N 
ATOM     86  C   UNL A   1      42.908  25.673  28.158  1.00  0.00     0.074 A 
ATOM     87  C   UNL A   1      41.680  25.373  27.465  1.00  0.00    -0.034 C 
ATOM     88  H   UNL A   1      39.797  26.384  27.278  1.00  0.00     0.065 H 
ATOM     89  C   UNL A   1      43.420  30.034  30.944  1.00  0.00    -0.036 A 
ATOM     90  H   UNL A   1      43.658  28.961  29.138  1.00  0.00     0.065 H 
ATOM     91  C   UNL A   1      42.234  30.302  31.733  1.00  0.00     0.049 A 
ATOM     92  H   UNL A   1      40.316  30.718  30.830  1.00  0.00     0.167 HD
ATOM     93  C   UNL A   1      44.213  25.286  28.085  1.00  0.00     0.037 A 
ATOM     94  H   UNL A   1      41.541  24.537  26.874  1.00  0.00     0.065 H 
ATOM     95  H   UNL A   1      44.386  30.310  31.179  1.00  0.00     0.065 H 
ATOM     96  C   UNL A   1      42.061  29.958  33.042  1.00  0.00     0.037 A 
ATOM     97  C   UNL A   1      44.988  25.855  29.194  1.00  0.00     0.049 A 
ATOM     98  C   UNL A   1      42.912  28.797  33.511  1.00  0.00     0.074 A 
ATOM     99  C   UNL A   1      45.918  26.874  29.329  1.00  0.00    -0.036 A 
ATOM    100  N   UNL A   1      44.637  25.492  30.484  1.00  0.00    -0.354 N 
ATOM    101  N   UNL A   1      43.722  28.123  32.743  1.00  0.00    -0.248 NA
ATOM    102  C   UNL A   1      42.832  28.235  34.862  1.00  0.00    -0.034 C 
ATOM    103  C   UNL A   1      46.093  27.132  30.724  1.00  0.00    -0.036 A 
ATOM    104  H   UNL A   1      46.399  27.361  28.558  1.00  0.00     0.065 H 
ATOM    105  C   UNL A   1      45.281  26.262  31.430  1.00  0.00     0.049 A 
ATOM    106  H   UNL A   1      44.005  24.769  30.701  1.00  0.00     0.167 HD
ATOM    107  C   UNL A   1      44.185  27.031  33.423  1.00  0.00     0.074 A 
ATOM    108  C   UNL A   1      43.618  27.150  34.753  1.00  0.00    -0.034 C 
ATOM    109  H   UNL A   1      42.309  28.580  35.681  1.00  0.00     0.065 H 
ATOM    110  H   UNL A   1      46.717  27.843  31.132  1.00  0.00     0.065 H 
ATOM    111  C   UNL A   1      44.955  26.073  32.834  1.00  0.00     0.037 A 
ATOM    112  H   UNL A   1      43.795  26.483  35.521  1.00  0.00     0.065 H 
BRANCH  93 113
ATOM    113  C   UNL A   1      44.851  24.533  26.928  1.00  0.00     0.064 A 
ATOM    114  C   UNL A   1      44.563  23.162  26.739  1.00  0.00     0.173 A 
ATOM    115  C   UNL A   1      45.827  25.040  26.043  1.00  0.00     0.173 A 
ATOM    116  F   UNL A   1      43.634  22.534  27.472  1.00  0.00    -0.203 F 
ATOM    117  C   UNL A   1      45.235  22.368  25.801  1.00  0.00     0.198 A 
ATOM    118  C   UNL A   1      46.482  24.252  25.092  1.00  0.00     0.198 A 
ATOM    119  F   UNL A   1      46.226  26.310  26.054  1.00  0.00    -0.203 F 
ATOM    120  F   UNL A   1      44.951  21.061  25.712  1.00  0.00    -0.200 F 
ATOM    121  C   UNL A   1      46.200  22.912  24.981  1.00  0.00     0.200 A 
ATOM    122  F   UNL A   1      47.410  24.812  24.301  1.00  0.00    -0.200 F 
ATOM    123  F   UNL A   1      46.859  22.153  24.096  1.00  0.00    -0.200 F 
ENDBRANCH  93 113
BRANCH  96 124
ATOM    124  C   UNL A   1      40.693  30.269  33.529  1.00  0.00     0.064 A 
ATOM    125  C   UNL A   1      40.358  31.620  33.742  1.00  0.00     0.173 A 
ATOM    126  C   UNL A   1      39.646  29.351  33.384  1.00  0.00     0.173 A 
ATOM    127  F   UNL A   1      41.328  32.537  33.885  1.00  0.00    -0.203 F 
ATOM    128  C   UNL A   1      39.036  32.052  33.676  1.00  0.00     0.198 A 
ATOM    129  C   UNL A   1      38.322  29.788  33.335  1.00  0.00     0.198 A 
ATOM    130  F   UNL A   1      39.907  28.055  33.163  1.00  0.00    -0.203 F 
ATOM    131  F   UNL A   1      38.757  33.361  33.757  1.00  0.00    -0.200 F 
ATOM    132  C   UNL A   1      38.022  31.138  33.442  1.00  0.00     0.200 A 
ATOM    133  F   UNL A   1      37.343  28.907  33.086  1.00  0.00    -0.200 F 
ATOM    134  F   UNL A   1      36.762  31.562  33.277  1.00  0.00    -0.200 F 
ENDBRANCH  96 124
BRANCH 111 135
ATOM    135  C   UNL A   1      45.451  24.861  33.560  1.00  0.00     0.064 A 
ATOM    136  C   UNL A   1      46.799  24.704  33.913  1.00  0.00     0.173 A 
ATOM    137  C   UNL A   1      44.604  23.761  33.806  1.00  0.00     0.173 A 
ATOM    138  F   UNL A   1      47.681  25.691  33.695  1.00  0.00    -0.203 F 
ATOM    139  C   UNL A   1      47.270  23.520  34.486  1.00  0.00     0.198 A 
ATOM    140  C   UNL A   1      45.085  22.564  34.331  1.00  0.00     0.198 A 
ATOM    141  F   UNL A   1      43.286  23.833  33.564  1.00  0.00    -0.203 F 
ATOM    142  F   UNL A   1      48.558  23.420  34.843  1.00  0.00    -0.200 F 
ATOM    143  C   UNL A   1      46.417  22.446  34.676  1.00  0.00     0.200 A 
ATOM    144  F   UNL A   1      44.250  21.529  34.502  1.00  0.00    -0.200 F 
ATOM    145  F   UNL A   1      46.877  21.299  35.196  1.00  0.00    -0.200 F 
ENDBRANCH 111 135
ENDBRANCH  76  79
ENDBRANCH  66  69
ENDBRANCH  62  65
ENDBRANCH  59  62
ENDBRANCH  56  59
ENDBRANCH   1  56
TORSDOF 17
ENDMDL
MODEL 3
REMARK VINA RESULT:     -13.3      3.837      9.327
REMARK SMILES Cc1ccc(-c2nn(-c3ccccc3)cc2[C@@H]2[NH2+][C@H](C(=O)NCCCCCCNC(=O)c3ccc(-c4c5nc(c(-c6c(F)c(F)c(F)c(F)c6F)c6ccc([nH]6)c(-c6c(F)c(F)c(F)c(F)c6F)c6nc(c(-c7c(F)c(F)c(F)c(F)c7F)c7ccc4[nH]7)C=C6)C=C5)cc3)CS2)cc1
REMARK SMILES IDX 25 1 24 4 23 7 22 10 20 11 21 12 19 14 17 15 18 16 96 17
REMARK SMILES IDX 95 21 16 25 6 26 7 27 8 28 15 29 5 31 2 32 3 33 98 34 4 35
REMARK SMILES IDX 97 37 1 41 9 45 10 46 14 47 11 48 13 50 12 52 26 56 27 59
REMARK SMILES IDX 28 62 29 65 30 66 31 68 32 69 33 70 94 71 34 72 93 74 35 76
REMARK SMILES IDX 36 79 37 80 87 81 38 82 92 83 86 84 88 85 39 86 91 87 85 89
REMARK SMILES IDX 84 91 40 93 72 96 52 97 71 98 53 99 56 100 70 101 89 102
REMARK SMILES IDX 54 103 55 105 69 107 90 108 57 111 41 113 42 114 50 115
REMARK SMILES IDX 43 116 44 117 48 118 51 119 45 120 46 121 49 122 47 123
REMARK SMILES IDX 73 124 74 125 82 126 75 127 76 128 80 129 83 130 77 131
REMARK SMILES IDX 78 132 81 133 79 134 58 135 59 136 67 137 60 138 61 139
REMARK SMILES IDX 65 140 68 141 62 142 63 143 66 144 64 145
REMARK H PARENT 25 2 25 3 24 5 24 6 23 8 23 9 22 13 17 18 18 19 18 20 19 22
REMARK H PARENT 95 23 95 24 15 30 3 36 98 38 4 39 97 40 1 42 1 43 1 44 10 49
REMARK H PARENT 14 51 11 53 13 54 12 55 26 57 26 58 27 60 27 61 28 63 28 64
REMARK H PARENT 29 67 33 73 94 75 34 77 93 78 92 88 86 90 88 92 91 94 85 95
REMARK H PARENT 53 104 56 106 89 109 54 110 90 112
REMARK Flexibility Score: inf
ROOT
ATOM      1  C   UNL A   1      42.200  20.181  26.428  1.00  0.00    -0.052 C 
ATOM      2  H   UNL A   1      41.343  19.627  26.751  1.00  0.00     0.027 H 
ATOM      3  H   UNL A   1      42.996  20.437  27.096  1.00  0.00     0.027 H 
ENDROOT
BRANCH   1   4
ATOM      4  C   UNL A   1      41.667  21.599  26.081  1.00  0.00    -0.036 C 
ATOM      5  H   UNL A   1      42.325  22.285  26.573  1.00  0.00     0.028 H 
ATOM      6  H   UNL A   1      41.630  21.549  25.013  1.00  0.00     0.028 H 
BRANCH   4   7
ATOM      7  C   UNL A   1      40.251  22.080  26.402  1.00  0.00     0.018 C 
ATOM      8  H   UNL A   1      40.205  22.266  27.455  1.00  0.00     0.049 H 
ATOM      9  H   UNL A   1      40.104  22.939  25.783  1.00  0.00     0.049 H 
BRANCH   7  10
ATOM     10  N   UNL A   1      39.153  21.184  26.069  1.00  0.00    -0.351 N 
ATOM     11  C   UNL A   1      38.068  21.327  25.248  1.00  0.00     0.279 C 
ATOM     12  O   UNL A   1      37.486  20.265  24.965  1.00  0.00    -0.268 OA
ATOM     13  H   UNL A   1      39.199  20.310  26.520  1.00  0.00     0.163 HD
BRANCH  11  14
ATOM     14  C   UNL A   1      37.457  22.641  24.677  1.00  0.00     0.176 C 
ATOM     15  C   UNL A   1      35.191  23.040  23.911  1.00  0.00     0.163 C 
ATOM     16  N   UNL A   1      36.512  22.519  23.542  1.00  0.00    -0.320 N 
ATOM     17  S   UNL A   1      35.497  24.393  25.062  1.00  0.00    -0.087 SA
ATOM     18  H   UNL A   1      34.622  23.421  23.090  1.00  0.00     0.115 H 
ATOM     19  H   UNL A   1      36.871  23.050  22.747  1.00  0.00     0.348 HD
ATOM     20  H   UNL A   1      36.419  21.534  23.293  1.00  0.00     0.348 HD
ATOM     21  C   UNL A   1      36.917  23.545  25.794  1.00  0.00     0.061 C 
ATOM     22  H   UNL A   1      38.298  23.114  24.217  1.00  0.00     0.108 H 
ATOM     23  H   UNL A   1      37.660  24.251  26.099  1.00  0.00     0.045 H 
ATOM     24  H   UNL A   1      36.648  22.989  26.667  1.00  0.00     0.045 H 
BRANCH  15  25
ATOM     25  C   UNL A   1      34.383  21.918  24.479  1.00  0.00     0.067 A 
ATOM     26  C   UNL A   1      32.987  21.911  24.848  1.00  0.00     0.103 A 
ATOM     27  N   UNL A   1      32.632  20.693  25.325  1.00  0.00    -0.167 NA
ATOM     28  N   UNL A   1      33.706  19.898  25.079  1.00  0.00    -0.240 N 
ATOM     29  C   UNL A   1      34.797  20.621  24.707  1.00  0.00     0.041 A 
ATOM     30  H   UNL A   1      35.760  20.265  24.613  1.00  0.00     0.085 H 
BRANCH  26  31
ATOM     31  C   UNL A   1      32.002  23.014  24.715  1.00  0.00     0.003 A 
ATOM     32  C   UNL A   1      30.186  25.194  24.442  1.00  0.00    -0.051 A 
ATOM     33  C   UNL A   1      30.559  24.443  23.331  1.00  0.00    -0.059 A 
ATOM     34  C   UNL A   1      30.684  24.822  25.695  1.00  0.00    -0.059 A 
ATOM     35  C   UNL A   1      31.452  23.376  23.472  1.00  0.00    -0.052 A 
ATOM     36  H   UNL A   1      30.175  24.674  22.402  1.00  0.00     0.063 H 
ATOM     37  C   UNL A   1      31.576  23.739  25.832  1.00  0.00    -0.052 A 
ATOM     38  H   UNL A   1      30.394  25.348  26.534  1.00  0.00     0.063 H 
ATOM     39  H   UNL A   1      31.717  22.834  22.634  1.00  0.00     0.063 H 
ATOM     40  H   UNL A   1      31.919  23.479  26.769  1.00  0.00     0.063 H 
BRANCH  32  41
ATOM     41  C   UNL A   1      29.268  26.368  24.262  1.00  0.00    -0.040 C 
ATOM     42  H   UNL A   1      28.385  26.055  23.746  1.00  0.00     0.028 H 
ATOM     43  H   UNL A   1      29.765  27.124  23.691  1.00  0.00     0.028 H 
ATOM     44  H   UNL A   1      29.002  26.763  25.220  1.00  0.00     0.028 H 
ENDBRANCH  32  41
ENDBRANCH  26  31
BRANCH  28  45
ATOM     45  C   UNL A   1      33.624  18.490  24.961  1.00  0.00     0.065 A 
ATOM     46  C   UNL A   1      32.657  17.793  25.712  1.00  0.00    -0.036 A 
ATOM     47  C   UNL A   1      34.482  17.801  24.108  1.00  0.00    -0.036 A 
ATOM     48  C   UNL A   1      32.612  16.400  25.675  1.00  0.00    -0.060 A 
ATOM     49  H   UNL A   1      31.979  18.315  26.288  1.00  0.00     0.065 H 
ATOM     50  C   UNL A   1      34.367  16.409  24.011  1.00  0.00    -0.060 A 
ATOM     51  H   UNL A   1      35.190  18.308  23.556  1.00  0.00     0.065 H 
ATOM     52  C   UNL A   1      33.460  15.709  24.814  1.00  0.00    -0.062 A 
ATOM     53  H   UNL A   1      31.957  15.885  26.283  1.00  0.00     0.062 H 
ATOM     54  H   UNL A   1      34.957  15.895  23.340  1.00  0.00     0.062 H 
ATOM     55  H   UNL A   1      33.419  14.679  24.768  1.00  0.00     0.062 H 
ENDBRANCH  28  45
ENDBRANCH  15  25
ENDBRANCH  11  14
ENDBRANCH   7  10
ENDBRANCH   4   7
ENDBRANCH   1   4
BRANCH   1  56
ATOM     56  C   UNL A   1      42.947  19.250  25.459  1.00  0.00    -0.052 C 
ATOM     57  H   UNL A   1      42.819  19.649  24.474  1.00  0.00     0.027 H 
ATOM     58  H   UNL A   1      42.514  18.287  25.633  1.00  0.00     0.027 H 
BRANCH  56  59
ATOM     59  C   UNL A   1      44.447  19.033  25.670  1.00  0.00    -0.036 C 
ATOM     60  H   UNL A   1      44.671  18.037  25.345  1.00  0.00     0.028 H 
ATOM     61  H   UNL A   1      44.597  19.233  26.710  1.00  0.00     0.028 H 
BRANCH  59  62
ATOM     62  C   UNL A   1      45.425  19.969  24.960  1.00  0.00     0.018 C 
ATOM     63  H   UNL A   1      46.153  19.365  24.459  1.00  0.00     0.049 H 
ATOM     64  H   UNL A   1      45.834  20.599  25.723  1.00  0.00     0.049 H 
BRANCH  62  65
ATOM     65  N   UNL A   1      44.829  20.877  23.965  1.00  0.00    -0.352 N 
ATOM     66  C   UNL A   1      44.837  22.272  23.958  1.00  0.00     0.251 C 
ATOM     67  H   UNL A   1      44.365  20.445  23.211  1.00  0.00     0.163 HD
ATOM     68  O   UNL A   1      44.298  22.927  23.088  1.00  0.00    -0.269 OA
BRANCH  66  69
ATOM     69  C   UNL A   1      45.638  22.941  25.009  1.00  0.00     0.039 A 
ATOM     70  C   UNL A   1      45.404  22.532  26.326  1.00  0.00    -0.049 A 
ATOM     71  C   UNL A   1      46.187  24.186  24.716  1.00  0.00    -0.049 A 
ATOM     72  C   UNL A   1      45.411  23.494  27.327  1.00  0.00    -0.053 A 
ATOM     73  H   UNL A   1      45.231  21.539  26.547  1.00  0.00     0.063 H 
ATOM     74  C   UNL A   1      46.105  25.158  25.693  1.00  0.00    -0.053 A 
ATOM     75  H   UNL A   1      46.636  24.374  23.807  1.00  0.00     0.063 H 
ATOM     76  C   UNL A   1      45.617  24.825  26.966  1.00  0.00    -0.014 A 
ATOM     77  H   UNL A   1      45.268  23.231  28.314  1.00  0.00     0.063 H 
ATOM     78  H   UNL A   1      46.401  26.125  25.488  1.00  0.00     0.063 H 
BRANCH  76  79
ATOM     79  C   UNL A   1      45.224  25.944  27.814  1.00  0.00     0.031 A 
ATOM     80  C   UNL A   1      43.866  26.503  27.696  1.00  0.00     0.074 A 
ATOM     81  C   UNL A   1      46.079  26.451  28.732  1.00  0.00     0.049 A 
ATOM     82  N   UNL A   1      43.521  27.663  28.143  1.00  0.00    -0.248 NA
ATOM     83  C   UNL A   1      42.806  25.833  26.955  1.00  0.00    -0.034 C 
ATOM     84  C   UNL A   1      45.757  27.354  29.834  1.00  0.00    -0.036 A 
ATOM     85  N   UNL A   1      47.483  26.411  28.718  1.00  0.00    -0.354 N 
ATOM     86  C   UNL A   1      42.162  27.784  27.995  1.00  0.00     0.074 A 
ATOM     87  C   UNL A   1      41.797  26.691  27.129  1.00  0.00    -0.034 C 
ATOM     88  H   UNL A   1      42.828  24.940  26.437  1.00  0.00     0.065 H 
ATOM     89  C   UNL A   1      46.867  28.012  30.198  1.00  0.00    -0.036 A 
ATOM     90  H   UNL A   1      44.824  27.468  30.263  1.00  0.00     0.065 H 
ATOM     91  C   UNL A   1      47.911  27.650  29.260  1.00  0.00     0.049 A 
ATOM     92  H   UNL A   1      48.052  25.675  28.396  1.00  0.00     0.167 HD
ATOM     93  C   UNL A   1      41.512  28.731  28.729  1.00  0.00     0.037 A 
ATOM     94  H   UNL A   1      40.867  26.585  26.694  1.00  0.00     0.065 H 
ATOM     95  H   UNL A   1      46.960  28.656  30.998  1.00  0.00     0.065 H 
ATOM     96  C   UNL A   1      48.650  28.529  28.524  1.00  0.00     0.037 A 
ATOM     97  C   UNL A   1      42.465  29.689  29.304  1.00  0.00     0.049 A 
ATOM     98  C   UNL A   1      47.991  29.870  28.285  1.00  0.00     0.074 A 
ATOM     99  C   UNL A   1      42.988  29.925  30.565  1.00  0.00    -0.036 A 
ATOM    100  N   UNL A   1      43.225  30.451  28.432  1.00  0.00    -0.354 N 
ATOM    101  N   UNL A   1      46.793  30.182  28.695  1.00  0.00    -0.248 NA
ATOM    102  C   UNL A   1      48.591  30.929  27.469  1.00  0.00    -0.034 C 
ATOM    103  C   UNL A   1      44.094  30.819  30.425  1.00  0.00    -0.036 A 
ATOM    104  H   UNL A   1      42.640  29.525  31.450  1.00  0.00     0.065 H 
ATOM    105  C   UNL A   1      44.231  31.133  29.085  1.00  0.00     0.049 A 
ATOM    106  H   UNL A   1      43.067  30.501  27.461  1.00  0.00     0.167 HD
ATOM    107  C   UNL A   1      46.429  31.384  28.152  1.00  0.00     0.074 A 
ATOM    108  C   UNL A   1      47.592  31.826  27.407  1.00  0.00    -0.034 C 
ATOM    109  H   UNL A   1      49.534  30.973  27.051  1.00  0.00     0.065 H 
ATOM    110  H   UNL A   1      44.687  31.170  31.193  1.00  0.00     0.065 H 
ATOM    111  C   UNL A   1      45.180  31.908  28.303  1.00  0.00     0.037 A 
ATOM    112  H   UNL A   1      47.647  32.719  26.892  1.00  0.00     0.065 H 
BRANCH  93 113
ATOM    113  C   UNL A   1      40.033  28.719  29.083  1.00  0.00     0.064 A 
ATOM    114  C   UNL A   1      39.080  29.146  28.130  1.00  0.00     0.173 A 
ATOM    115  C   UNL A   1      39.483  28.420  30.348  1.00  0.00     0.173 A 
ATOM    116  F   UNL A   1      39.430  29.435  26.869  1.00  0.00    -0.203 F 
ATOM    117  C   UNL A   1      37.724  29.317  28.437  1.00  0.00     0.198 A 
ATOM    118  C   UNL A   1      38.126  28.570  30.648  1.00  0.00     0.198 A 
ATOM    119  F   UNL A   1      40.215  27.992  31.374  1.00  0.00    -0.203 F 
ATOM    120  F   UNL A   1      36.883  29.777  27.501  1.00  0.00    -0.200 F 
ATOM    121  C   UNL A   1      37.248  29.035  29.700  1.00  0.00     0.200 A 
ATOM    122  F   UNL A   1      37.690  28.278  31.883  1.00  0.00    -0.200 F 
ATOM    123  F   UNL A   1      35.956  29.215  30.003  1.00  0.00    -0.200 F 
ENDBRANCH  93 113
BRANCH  96 124
ATOM    124  C   UNL A   1      49.557  27.839  27.570  1.00  0.00     0.064 A 
ATOM    125  C   UNL A   1      50.776  27.336  28.065  1.00  0.00     0.173 A 
ATOM    126  C   UNL A   1      49.081  27.324  26.360  1.00  0.00     0.173 A 
ATOM    127  F   UNL A   1      51.272  27.799  29.223  1.00  0.00    -0.203 F 
ATOM    128  C   UNL A   1      51.418  26.269  27.443  1.00  0.00     0.198 A 
ATOM    129  C   UNL A   1      49.737  26.265  25.733  1.00  0.00     0.198 A 
ATOM    130  F   UNL A   1      47.917  27.754  25.851  1.00  0.00    -0.203 F 
ATOM    131  F   UNL A   1      52.509  25.728  28.004  1.00  0.00    -0.200 F 
ATOM    132  C   UNL A   1      50.880  25.715  26.294  1.00  0.00     0.200 A 
ATOM    133  F   UNL A   1      49.205  25.714  24.633  1.00  0.00    -0.200 F 
ATOM    134  F   UNL A   1      51.439  24.625  25.750  1.00  0.00    -0.200 F 
ENDBRANCH  96 124
BRANCH 111 135
ATOM    135  C   UNL A   1      44.761  33.212  27.697  1.00  0.00     0.064 A 
ATOM    136  C   UNL A   1      44.787  34.413  28.421  1.00  0.00     0.173 A 
ATOM    137  C   UNL A   1      44.197  33.268  26.407  1.00  0.00     0.173 A 
ATOM    138  F   UNL A   1      45.286  34.448  29.666  1.00  0.00    -0.203 F 
ATOM    139  C   UNL A   1      44.285  35.600  27.884  1.00  0.00     0.198 A 
ATOM    140  C   UNL A   1      43.652  34.442  25.891  1.00  0.00     0.198 A 
ATOM    141  F   UNL A   1      44.183  32.190  25.608  1.00  0.00    -0.203 F 
ATOM    142  F   UNL A   1      44.359  36.735  28.592  1.00  0.00    -0.200 F 
ATOM    143  C   UNL A   1      43.701  35.609  26.628  1.00  0.00     0.200 A 
ATOM    144  F   UNL A   1      43.081  34.434  24.678  1.00  0.00    -0.200 F 
ATOM    145  F   UNL A   1      43.191  36.743  26.126  1.00  0.00    -0.200 F 
ENDBRANCH 111 135
ENDBRANCH  76  79
ENDBRANCH  66  69
ENDBRANCH  62  65
ENDBRANCH  59  62
ENDBRANCH  56  59
ENDBRANCH   1  56
TORSDOF 17
ENDMDL
MODEL 4
REMARK VINA RESULT:     -13.3      1.155      3.398
REMARK SMILES Cc1ccc(-c2nn(-c3ccccc3)cc2[C@@H]2[NH2+][C@H](C(=O)NCCCCCCNC(=O)c3ccc(-c4c5nc(c(-c6c(F)c(F)c(F)c(F)c6F)c6ccc([nH]6)c(-c6c(F)c(F)c(F)c(F)c6F)c6nc(c(-c7c(F)c(F)c(F)c(F)c7F)c7ccc4[nH]7)C=C6)C=C5)cc3)CS2)cc1
REMARK SMILES IDX 25 1 24 4 23 7 22 10 20 11 21 12 19 14 17 15 18 16 96 17
REMARK SMILES IDX 95 21 16 25 6 26 7 27 8 28 15 29 5 31 2 32 3 33 98 34 4 35
REMARK SMILES IDX 97 37 1 41 9 45 10 46 14 47 11 48 13 50 12 52 26 56 27 59
REMARK SMILES IDX 28 62 29 65 30 66 31 68 32 69 33 70 94 71 34 72 93 74 35 76
REMARK SMILES IDX 36 79 37 80 87 81 38 82 92 83 86 84 88 85 39 86 91 87 85 89
REMARK SMILES IDX 84 91 40 93 72 96 52 97 71 98 53 99 56 100 70 101 89 102
REMARK SMILES IDX 54 103 55 105 69 107 90 108 57 111 41 113 42 114 50 115
REMARK SMILES IDX 43 116 44 117 48 118 51 119 45 120 46 121 49 122 47 123
REMARK SMILES IDX 73 124 74 125 82 126 75 127 76 128 80 129 83 130 77 131
REMARK SMILES IDX 78 132 81 133 79 134 58 135 59 136 67 137 60 138 61 139
REMARK SMILES IDX 65 140 68 141 62 142 63 143 66 144 64 145
REMARK H PARENT 25 2 25 3 24 5 24 6 23 8 23 9 22 13 17 18 18 19 18 20 19 22
REMARK H PARENT 95 23 95 24 15 30 3 36 98 38 4 39 97 40 1 42 1 43 1 44 10 49
REMARK H PARENT 14 51 11 53 13 54 12 55 26 57 26 58 27 60 27 61 28 63 28 64
REMARK H PARENT 29 67 33 73 94 75 34 77 93 78 92 88 86 90 88 92 91 94 85 95
REMARK H PARENT 53 104 56 106 89 109 54 110 90 112
REMARK Flexibility Score: inf
ROOT
ATOM      1  C   UNL A   1      32.575  27.681  26.965  1.00  0.00    -0.052 C 
ATOM      2  H   UNL A   1      33.575  27.842  26.622  1.00  0.00     0.027 H 
ATOM      3  H   UNL A   1      32.333  27.624  28.007  1.00  0.00     0.027 H 
ENDROOT
BRANCH   1   4
ATOM      4  C   UNL A   1      32.215  26.235  26.522  1.00  0.00    -0.036 C 
ATOM      5  H   UNL A   1      31.678  25.805  27.343  1.00  0.00     0.028 H 
ATOM      6  H   UNL A   1      31.727  26.422  25.589  1.00  0.00     0.028 H 
BRANCH   4   7
ATOM      7  C   UNL A   1      33.250  25.188  26.108  1.00  0.00     0.018 C 
ATOM      8  H   UNL A   1      32.962  24.813  25.147  1.00  0.00     0.049 H 
ATOM      9  H   UNL A   1      34.188  25.702  26.132  1.00  0.00     0.049 H 
BRANCH   7  10
ATOM     10  N   UNL A   1      33.427  24.043  26.989  1.00  0.00    -0.351 N 
ATOM     11  C   UNL A   1      34.443  23.135  27.123  1.00  0.00     0.279 C 
ATOM     12  O   UNL A   1      34.405  22.463  28.167  1.00  0.00    -0.268 OA
ATOM     13  H   UNL A   1      32.674  23.892  27.605  1.00  0.00     0.163 HD
BRANCH  11  14
ATOM     14  C   UNL A   1      35.589  22.816  26.118  1.00  0.00     0.176 C 
ATOM     15  C   UNL A   1      35.414  22.218  23.775  1.00  0.00     0.163 C 
ATOM     16  N   UNL A   1      35.365  21.715  25.151  1.00  0.00    -0.320 N 
ATOM     17  S   UNL A   1      36.612  23.565  23.782  1.00  0.00    -0.087 SA
ATOM     18  H   UNL A   1      35.728  21.495  23.052  1.00  0.00     0.115 H 
ATOM     19  H   UNL A   1      36.088  21.006  25.276  1.00  0.00     0.348 HD
ATOM     20  H   UNL A   1      34.444  21.310  25.321  1.00  0.00     0.348 HD
ATOM     21  C   UNL A   1      36.120  24.089  25.443  1.00  0.00     0.061 C 
ATOM     22  H   UNL A   1      36.351  22.408  26.748  1.00  0.00     0.108 H 
ATOM     23  H   UNL A   1      36.960  24.477  25.979  1.00  0.00     0.045 H 
ATOM     24  H   UNL A   1      35.386  24.867  25.418  1.00  0.00     0.045 H 
BRANCH  15  25
ATOM     25  C   UNL A   1      34.034  22.623  23.370  1.00  0.00     0.067 A 
ATOM     26  C   UNL A   1      32.829  21.826  23.357  1.00  0.00     0.103 A 
ATOM     27  N   UNL A   1      31.779  22.567  22.924  1.00  0.00    -0.167 NA
ATOM     28  N   UNL A   1      32.255  23.838  22.859  1.00  0.00    -0.240 N 
ATOM     29  C   UNL A   1      33.609  23.879  22.985  1.00  0.00     0.041 A 
ATOM     30  H   UNL A   1      34.211  24.700  22.820  1.00  0.00     0.085 H 
BRANCH  26  31
ATOM     31  C   UNL A   1      32.664  20.414  23.783  1.00  0.00     0.003 A 
ATOM     32  C   UNL A   1      32.447  17.692  24.602  1.00  0.00    -0.051 A 
ATOM     33  C   UNL A   1      32.529  18.709  25.548  1.00  0.00    -0.059 A 
ATOM     34  C   UNL A   1      32.425  18.043  23.247  1.00  0.00    -0.059 A 
ATOM     35  C   UNL A   1      32.637  20.043  25.140  1.00  0.00    -0.052 A 
ATOM     36  H   UNL A   1      32.509  18.479  26.554  1.00  0.00     0.063 H 
ATOM     37  C   UNL A   1      32.524  19.388  22.843  1.00  0.00    -0.052 A 
ATOM     38  H   UNL A   1      32.334  17.304  22.533  1.00  0.00     0.063 H 
ATOM     39  H   UNL A   1      32.699  20.781  25.859  1.00  0.00     0.063 H 
ATOM     40  H   UNL A   1      32.494  19.620  21.838  1.00  0.00     0.063 H 
BRANCH  32  41
ATOM     41  C   UNL A   1      32.385  16.264  25.060  1.00  0.00    -0.040 C 
ATOM     42  H   UNL A   1      33.331  15.980  25.472  1.00  0.00     0.028 H 
ATOM     43  H   UNL A   1      32.154  15.632  24.228  1.00  0.00     0.028 H 
ATOM     44  H   UNL A   1      31.626  16.162  25.807  1.00  0.00     0.028 H 
ENDBRANCH  32  41
ENDBRANCH  26  31
BRANCH  28  45
ATOM     45  C   UNL A   1      31.429  24.985  22.925  1.00  0.00     0.065 A 
ATOM     46  C   UNL A   1      31.829  26.160  22.257  1.00  0.00    -0.036 A 
ATOM     47  C   UNL A   1      30.232  24.954  23.634  1.00  0.00    -0.036 A 
ATOM     48  C   UNL A   1      31.074  27.326  22.377  1.00  0.00    -0.060 A 
ATOM     49  H   UNL A   1      32.682  26.156  21.676  1.00  0.00     0.065 H 
ATOM     50  C   UNL A   1      29.436  26.105  23.671  1.00  0.00    -0.060 A 
ATOM     51  H   UNL A   1      29.934  24.096  24.122  1.00  0.00     0.065 H 
ATOM     52  C   UNL A   1      29.871  27.294  23.074  1.00  0.00    -0.062 A 
ATOM     53  H   UNL A   1      31.407  28.205  21.953  1.00  0.00     0.062 H 
ATOM     54  H   UNL A   1      28.520  26.076  24.144  1.00  0.00     0.062 H 
ATOM     55  H   UNL A   1      29.298  28.148  23.151  1.00  0.00     0.062 H 
ENDBRANCH  28  45
ENDBRANCH  15  25
ENDBRANCH  11  14
ENDBRANCH   7  10
ENDBRANCH   4   7
ENDBRANCH   1   4
BRANCH   1  56
ATOM     56  C   UNL A   1      31.798  28.949  26.575  1.00  0.00    -0.052 C 
ATOM     57  H   UNL A   1      30.774  28.789  26.842  1.00  0.00     0.027 H 
ATOM     58  H   UNL A   1      31.996  29.067  25.530  1.00  0.00     0.027 H 
BRANCH  56  59
ATOM     59  C   UNL A   1      32.226  30.283  27.192  1.00  0.00    -0.036 C 
ATOM     60  H   UNL A   1      32.161  30.173  28.256  1.00  0.00     0.028 H 
ATOM     61  H   UNL A   1      31.565  30.999  26.752  1.00  0.00     0.028 H 
BRANCH  59  62
ATOM     62  C   UNL A   1      33.624  30.816  26.879  1.00  0.00     0.018 C 
ATOM     63  H   UNL A   1      33.579  31.325  25.938  1.00  0.00     0.049 H 
ATOM     64  H   UNL A   1      34.270  29.963  26.881  1.00  0.00     0.049 H 
BRANCH  62  65
ATOM     65  N   UNL A   1      34.185  31.749  27.871  1.00  0.00    -0.352 N 
ATOM     66  C   UNL A   1      35.167  31.498  28.831  1.00  0.00     0.251 C 
ATOM     67  H   UNL A   1      33.822  32.665  27.856  1.00  0.00     0.163 HD
ATOM     68  O   UNL A   1      35.550  32.344  29.614  1.00  0.00    -0.269 OA
BRANCH  66  69
ATOM     69  C   UNL A   1      35.820  30.170  28.787  1.00  0.00     0.039 A 
ATOM     70  C   UNL A   1      36.239  29.641  30.011  1.00  0.00    -0.049 A 
ATOM     71  C   UNL A   1      36.384  29.761  27.582  1.00  0.00    -0.049 A 
ATOM     72  C   UNL A   1      37.443  28.951  30.055  1.00  0.00    -0.053 A 
ATOM     73  H   UNL A   1      35.666  29.759  30.861  1.00  0.00     0.063 H 
ATOM     74  C   UNL A   1      37.624  29.157  27.637  1.00  0.00    -0.053 A 
ATOM     75  H   UNL A   1      35.896  29.904  26.685  1.00  0.00     0.063 H 
ATOM     76  C   UNL A   1      38.192  28.850  28.884  1.00  0.00    -0.014 A 
ATOM     77  H   UNL A   1      37.776  28.523  30.933  1.00  0.00     0.063 H 
ATOM     78  H   UNL A   1      38.130  28.932  26.767  1.00  0.00     0.063 H 
BRANCH  76  79
ATOM     79  C   UNL A   1      39.620  28.555  28.881  1.00  0.00     0.031 A 
ATOM     80  C   UNL A   1      40.081  27.195  28.551  1.00  0.00     0.074 A 
ATOM     81  C   UNL A   1      40.528  29.524  29.142  1.00  0.00     0.049 A 
ATOM     82  N   UNL A   1      41.258  26.745  28.827  1.00  0.00    -0.248 NA
ATOM     83  C   UNL A   1      39.198  26.188  27.977  1.00  0.00    -0.034 C 
ATOM     84  C   UNL A   1      41.968  29.473  28.901  1.00  0.00    -0.036 A 
ATOM     85  N   UNL A   1      40.345  30.697  29.893  1.00  0.00    -0.354 N 
ATOM     86  C   UNL A   1      41.383  25.509  28.242  1.00  0.00     0.074 A 
ATOM     87  C   UNL A   1      40.039  25.157  27.857  1.00  0.00    -0.034 C 
ATOM     88  H   UNL A   1      38.198  26.253  27.730  1.00  0.00     0.065 H 
ATOM     89  C   UNL A   1      42.577  30.353  29.708  1.00  0.00    -0.036 A 
ATOM     90  H   UNL A   1      42.440  28.858  28.219  1.00  0.00     0.065 H 
ATOM     91  C   UNL A   1      41.565  30.907  30.586  1.00  0.00     0.049 A 
ATOM     92  H   UNL A   1      39.536  31.257  29.931  1.00  0.00     0.167 HD
ATOM     93  C   UNL A   1      42.635  25.003  28.057  1.00  0.00     0.037 A 
ATOM     94  H   UNL A   1      39.760  24.219  27.529  1.00  0.00     0.065 H 
ATOM     95  H   UNL A   1      43.580  30.592  29.705  1.00  0.00     0.065 H 
ATOM     96  C   UNL A   1      41.615  30.907  31.949  1.00  0.00     0.037 A 
ATOM     97  C   UNL A   1      43.621  25.754  28.844  1.00  0.00     0.049 A 
ATOM     98  C   UNL A   1      42.484  29.824  32.552  1.00  0.00     0.074 A 
ATOM     99  C   UNL A   1      44.603  26.689  28.563  1.00  0.00    -0.036 A 
ATOM    100  N   UNL A   1      43.492  25.746  30.224  1.00  0.00    -0.354 N 
ATOM    101  N   UNL A   1      43.113  28.916  31.859  1.00  0.00    -0.248 NA
ATOM    102  C   UNL A   1      42.624  29.615  33.996  1.00  0.00    -0.034 C 
ATOM    103  C   UNL A   1      45.037  27.261  29.799  1.00  0.00    -0.036 A 
ATOM    104  H   UNL A   1      44.959  26.931  27.626  1.00  0.00     0.065 H 
ATOM    105  C   UNL A   1      44.329  26.663  30.825  1.00  0.00     0.049 A 
ATOM    106  H   UNL A   1      42.878  25.155  30.717  1.00  0.00     0.167 HD
ATOM    107  C   UNL A   1      43.643  27.985  32.709  1.00  0.00     0.074 A 
ATOM    108  C   UNL A   1      43.329  28.472  34.039  1.00  0.00    -0.034 C 
ATOM    109  H   UNL A   1      42.272  30.193  34.774  1.00  0.00     0.065 H 
ATOM    110  H   UNL A   1      45.756  27.994  29.906  1.00  0.00     0.065 H 
ATOM    111  C   UNL A   1      44.252  26.849  32.265  1.00  0.00     0.037 A 
ATOM    112  H   UNL A   1      43.613  27.998  34.912  1.00  0.00     0.065 H 
BRANCH  93 113
ATOM    113  C   UNL A   1      43.022  23.939  27.042  1.00  0.00     0.064 A 
ATOM    114  C   UNL A   1      42.606  22.602  27.233  1.00  0.00     0.173 A 
ATOM    115  C   UNL A   1      43.879  24.119  25.935  1.00  0.00     0.173 A 
ATOM    116  F   UNL A   1      41.761  22.265  28.218  1.00  0.00    -0.203 F 
ATOM    117  C   UNL A   1      43.057  21.545  26.433  1.00  0.00     0.198 A 
ATOM    118  C   UNL A   1      44.312  23.067  25.123  1.00  0.00     0.198 A 
ATOM    119  F   UNL A   1      44.368  25.305  25.581  1.00  0.00    -0.203 F 
ATOM    120  F   UNL A   1      42.666  20.292  26.704  1.00  0.00    -0.200 F 
ATOM    121  C   UNL A   1      43.917  21.776  25.380  1.00  0.00     0.200 A 
ATOM    122  F   UNL A   1      45.140  23.324  24.099  1.00  0.00    -0.200 F 
ATOM    123  F   UNL A   1      44.366  20.767  24.625  1.00  0.00    -0.200 F 
ENDBRANCH  93 113
BRANCH  96 124
ATOM    124  C   UNL A   1      40.371  31.444  32.557  1.00  0.00     0.064 A 
ATOM    125  C   UNL A   1      40.136  32.829  32.466  1.00  0.00     0.173 A 
ATOM    126  C   UNL A   1      39.279  30.613  32.828  1.00  0.00     0.173 A 
ATOM    127  F   UNL A   1      41.153  33.666  32.207  1.00  0.00    -0.203 F 
ATOM    128  C   UNL A   1      38.844  33.344  32.509  1.00  0.00     0.198 A 
ATOM    129  C   UNL A   1      37.987  31.135  32.886  1.00  0.00     0.198 A 
ATOM    130  F   UNL A   1      39.441  29.284  32.909  1.00  0.00    -0.203 F 
ATOM    131  F   UNL A   1      38.638  34.651  32.295  1.00  0.00    -0.200 F 
ATOM    132  C   UNL A   1      37.767  32.491  32.688  1.00  0.00     0.200 A 
ATOM    133  F   UNL A   1      36.943  30.308  33.037  1.00  0.00    -0.200 F 
ATOM    134  F   UNL A   1      36.517  32.969  32.630  1.00  0.00    -0.200 F 
ENDBRANCH  96 124
BRANCH 111 135
ATOM    135  C   UNL A   1      44.816  25.811  33.184  1.00  0.00     0.064 A 
ATOM    136  C   UNL A   1      46.187  25.514  33.220  1.00  0.00     0.173 A 
ATOM    137  C   UNL A   1      43.975  24.992  33.963  1.00  0.00     0.173 A 
ATOM    138  F   UNL A   1      47.059  26.228  32.492  1.00  0.00    -0.203 F 
ATOM    139  C   UNL A   1      46.686  24.465  33.996  1.00  0.00     0.198 A 
ATOM    140  C   UNL A   1      44.468  23.915  34.697  1.00  0.00     0.198 A 
ATOM    141  F   UNL A   1      42.657  25.233  34.048  1.00  0.00    -0.203 F 
ATOM    142  F   UNL A   1      48.005  24.234  34.033  1.00  0.00    -0.200 F 
ATOM    143  C   UNL A   1      45.825  23.656  34.717  1.00  0.00     0.200 A 
ATOM    144  F   UNL A   1      43.622  23.135  35.384  1.00  0.00    -0.200 F 
ATOM    145  F   UNL A   1      46.302  22.629  35.437  1.00  0.00    -0.200 F 
ENDBRANCH 111 135
ENDBRANCH  76  79
ENDBRANCH  66  69
ENDBRANCH  62  65
ENDBRANCH  59  62
ENDBRANCH  56  59
ENDBRANCH   1  56
TORSDOF 17
ENDMDL
MODEL 5
REMARK VINA RESULT:     -12.9      1.976      3.183
REMARK SMILES Cc1ccc(-c2nn(-c3ccccc3)cc2[C@@H]2[NH2+][C@H](C(=O)NCCCCCCNC(=O)c3ccc(-c4c5nc(c(-c6c(F)c(F)c(F)c(F)c6F)c6ccc([nH]6)c(-c6c(F)c(F)c(F)c(F)c6F)c6nc(c(-c7c(F)c(F)c(F)c(F)c7F)c7ccc4[nH]7)C=C6)C=C5)cc3)CS2)cc1
REMARK SMILES IDX 25 1 24 4 23 7 22 10 20 11 21 12 19 14 17 15 18 16 96 17
REMARK SMILES IDX 95 21 16 25 6 26 7 27 8 28 15 29 5 31 2 32 3 33 98 34 4 35
REMARK SMILES IDX 97 37 1 41 9 45 10 46 14 47 11 48 13 50 12 52 26 56 27 59
REMARK SMILES IDX 28 62 29 65 30 66 31 68 32 69 33 70 94 71 34 72 93 74 35 76
REMARK SMILES IDX 36 79 37 80 87 81 38 82 92 83 86 84 88 85 39 86 91 87 85 89
REMARK SMILES IDX 84 91 40 93 72 96 52 97 71 98 53 99 56 100 70 101 89 102
REMARK SMILES IDX 54 103 55 105 69 107 90 108 57 111 41 113 42 114 50 115
REMARK SMILES IDX 43 116 44 117 48 118 51 119 45 120 46 121 49 122 47 123
REMARK SMILES IDX 73 124 74 125 82 126 75 127 76 128 80 129 83 130 77 131
REMARK SMILES IDX 78 132 81 133 79 134 58 135 59 136 67 137 60 138 61 139
REMARK SMILES IDX 65 140 68 141 62 142 63 143 66 144 64 145
REMARK H PARENT 25 2 25 3 24 5 24 6 23 8 23 9 22 13 17 18 18 19 18 20 19 22
REMARK H PARENT 95 23 95 24 15 30 3 36 98 38 4 39 97 40 1 42 1 43 1 44 10 49
REMARK H PARENT 14 51 11 53 13 54 12 55 26 57 26 58 27 60 27 61 28 63 28 64
REMARK H PARENT 29 67 33 73 94 75 34 77 93 78 92 88 86 90 88 92 91 94 85 95
REMARK H PARENT 53 104 56 106 89 109 54 110 90 112
REMARK Flexibility Score: inf
ROOT
ATOM      1  C   UNL A   1      31.731  27.827  26.577  1.00  0.00    -0.052 C 
ATOM      2  H   UNL A   1      32.730  27.544  26.322  1.00  0.00     0.027 H 
ATOM      3  H   UNL A   1      31.482  28.235  27.535  1.00  0.00     0.027 H 
ENDROOT
BRANCH   1   4
ATOM      4  C   UNL A   1      30.926  26.498  26.629  1.00  0.00    -0.036 C 
ATOM      5  H   UNL A   1      30.716  26.326  27.664  1.00  0.00     0.028 H 
ATOM      6  H   UNL A   1      30.137  26.709  25.939  1.00  0.00     0.028 H 
BRANCH   4   7
ATOM      7  C   UNL A   1      31.444  25.166  26.084  1.00  0.00     0.018 C 
ATOM      8  H   UNL A   1      30.646  24.710  25.536  1.00  0.00     0.049 H 
ATOM      9  H   UNL A   1      32.305  25.421  25.503  1.00  0.00     0.049 H 
BRANCH   7  10
ATOM     10  N   UNL A   1      31.921  24.191  27.054  1.00  0.00    -0.351 N 
ATOM     11  C   UNL A   1      32.260  22.870  26.938  1.00  0.00     0.279 C 
ATOM     12  O   UNL A   1      32.905  22.412  27.896  1.00  0.00    -0.268 OA
ATOM     13  H   UNL A   1      32.019  24.549  27.965  1.00  0.00     0.163 HD
BRANCH  11  14
ATOM     14  C   UNL A   1      31.895  21.878  25.794  1.00  0.00     0.176 C 
ATOM     15  C   UNL A   1      33.007  21.563  23.662  1.00  0.00     0.163 C 
ATOM     16  N   UNL A   1      32.024  22.365  24.400  1.00  0.00    -0.320 N 
ATOM     17  S   UNL A   1      32.885  19.894  24.331  1.00  0.00    -0.087 SA
ATOM     18  H   UNL A   1      32.834  21.515  22.608  1.00  0.00     0.115 H 
ATOM     19  H   UNL A   1      31.118  22.296  23.935  1.00  0.00     0.348 HD
ATOM     20  H   UNL A   1      32.337  23.335  24.417  1.00  0.00     0.348 HD
ATOM     21  C   UNL A   1      32.557  20.508  26.000  1.00  0.00     0.061 C 
ATOM     22  H   UNL A   1      30.835  21.776  25.897  1.00  0.00     0.108 H 
ATOM     23  H   UNL A   1      31.898  19.847  26.522  1.00  0.00     0.045 H 
ATOM     24  H   UNL A   1      33.449  20.577  26.587  1.00  0.00     0.045 H 
BRANCH  15  25
ATOM     25  C   UNL A   1      34.350  22.196  23.825  1.00  0.00     0.067 A 
ATOM     26  C   UNL A   1      34.721  23.581  23.647  1.00  0.00     0.103 A 
ATOM     27  N   UNL A   1      36.043  23.750  23.894  1.00  0.00    -0.167 NA
ATOM     28  N   UNL A   1      36.455  22.561  24.406  1.00  0.00    -0.240 N 
ATOM     29  C   UNL A   1      35.515  21.590  24.252  1.00  0.00     0.041 A 
ATOM     30  H   UNL A   1      35.648  20.581  24.422  1.00  0.00     0.085 H 
BRANCH  26  31
ATOM     31  C   UNL A   1      33.841  24.723  23.294  1.00  0.00     0.003 A 
ATOM     32  C   UNL A   1      32.211  26.937  22.540  1.00  0.00    -0.051 A 
ATOM     33  C   UNL A   1      31.980  25.675  22.001  1.00  0.00    -0.059 A 
ATOM     34  C   UNL A   1      33.227  27.079  23.493  1.00  0.00    -0.059 A 
ATOM     35  C   UNL A   1      32.784  24.593  22.374  1.00  0.00    -0.052 A 
ATOM     36  H   UNL A   1      31.212  25.537  21.326  1.00  0.00     0.063 H 
ATOM     37  C   UNL A   1      34.027  25.983  23.871  1.00  0.00    -0.052 A 
ATOM     38  H   UNL A   1      33.392  28.000  23.925  1.00  0.00     0.063 H 
ATOM     39  H   UNL A   1      32.596  23.666  21.960  1.00  0.00     0.063 H 
ATOM     40  H   UNL A   1      34.761  26.112  24.584  1.00  0.00     0.063 H 
BRANCH  32  41
ATOM     41  C   UNL A   1      31.371  28.096  22.088  1.00  0.00    -0.040 C 
ATOM     42  H   UNL A   1      31.867  28.605  21.288  1.00  0.00     0.028 H 
ATOM     43  H   UNL A   1      31.226  28.771  22.905  1.00  0.00     0.028 H 
ATOM     44  H   UNL A   1      30.422  27.737  21.749  1.00  0.00     0.028 H 
ENDBRANCH  32  41
ENDBRANCH  26  31
BRANCH  28  45
ATOM     45  C   UNL A   1      37.596  22.420  25.232  1.00  0.00     0.065 A 
ATOM     46  C   UNL A   1      38.034  23.524  25.991  1.00  0.00    -0.036 A 
ATOM     47  C   UNL A   1      38.272  21.207  25.302  1.00  0.00    -0.036 A 
ATOM     48  C   UNL A   1      39.202  23.435  26.747  1.00  0.00    -0.060 A 
ATOM     49  H   UNL A   1      37.488  24.400  25.989  1.00  0.00     0.065 H 
ATOM     50  C   UNL A   1      39.392  21.103  26.136  1.00  0.00    -0.060 A 
ATOM     51  H   UNL A   1      37.954  20.396  24.750  1.00  0.00     0.065 H 
ATOM     52  C   UNL A   1      39.874  22.219  26.829  1.00  0.00    -0.062 A 
ATOM     53  H   UNL A   1      39.566  24.264  27.240  1.00  0.00     0.062 H 
ATOM     54  H   UNL A   1      39.867  20.193  26.241  1.00  0.00     0.062 H 
ATOM     55  H   UNL A   1      40.729  22.140  27.402  1.00  0.00     0.062 H 
ENDBRANCH  28  45
ENDBRANCH  15  25
ENDBRANCH  11  14
ENDBRANCH   7  10
ENDBRANCH   4   7
ENDBRANCH   1   4
BRANCH   1  56
ATOM     56  C   UNL A   1      31.404  29.029  25.677  1.00  0.00    -0.052 C 
ATOM     57  H   UNL A   1      30.379  29.285  25.850  1.00  0.00     0.027 H 
ATOM     58  H   UNL A   1      31.641  28.691  24.689  1.00  0.00     0.027 H 
BRANCH  56  59
ATOM     59  C   UNL A   1      32.227  30.309  25.844  1.00  0.00    -0.036 C 
ATOM     60  H   UNL A   1      31.642  31.114  25.450  1.00  0.00     0.028 H 
ATOM     61  H   UNL A   1      33.144  30.100  25.335  1.00  0.00     0.028 H 
BRANCH  59  62
ATOM     62  C   UNL A   1      32.663  30.715  27.252  1.00  0.00     0.018 C 
ATOM     63  H   UNL A   1      33.222  29.905  27.670  1.00  0.00     0.049 H 
ATOM     64  H   UNL A   1      31.762  30.942  27.784  1.00  0.00     0.049 H 
BRANCH  62  65
ATOM     65  N   UNL A   1      33.495  31.929  27.334  1.00  0.00    -0.352 N 
ATOM     66  C   UNL A   1      34.803  32.047  27.805  1.00  0.00     0.251 C 
ATOM     67  H   UNL A   1      33.074  32.762  27.017  1.00  0.00     0.163 HD
ATOM     68  O   UNL A   1      35.394  33.107  27.840  1.00  0.00    -0.269 OA
BRANCH  66  69
ATOM     69  C   UNL A   1      35.499  30.790  28.162  1.00  0.00     0.039 A 
ATOM     70  C   UNL A   1      35.681  30.545  29.527  1.00  0.00    -0.049 A 
ATOM     71  C   UNL A   1      36.310  30.198  27.198  1.00  0.00    -0.049 A 
ATOM     72  C   UNL A   1      36.876  29.972  29.942  1.00  0.00    -0.053 A 
ATOM     73  H   UNL A   1      34.945  30.783  30.209  1.00  0.00     0.063 H 
ATOM     74  C   UNL A   1      37.535  29.713  27.614  1.00  0.00    -0.053 A 
ATOM     75  H   UNL A   1      36.009  30.124  26.215  1.00  0.00     0.063 H 
ATOM     76  C   UNL A   1      37.850  29.701  28.981  1.00  0.00    -0.014 A 
ATOM     77  H   UNL A   1      37.040  29.752  30.936  1.00  0.00     0.063 H 
ATOM     78  H   UNL A   1      38.214  29.362  26.921  1.00  0.00     0.063 H 
BRANCH  76  79
ATOM     79  C   UNL A   1      39.259  29.523  29.312  1.00  0.00     0.031 A 
ATOM     80  C   UNL A   1      39.905  28.224  29.058  1.00  0.00     0.074 A 
ATOM     81  C   UNL A   1      39.987  30.546  29.815  1.00  0.00     0.049 A 
ATOM     82  N   UNL A   1      41.020  27.855  29.594  1.00  0.00    -0.248 NA
ATOM     83  C   UNL A   1      39.279  27.181  28.257  1.00  0.00    -0.034 C 
ATOM     84  C   UNL A   1      41.442  30.623  29.925  1.00  0.00    -0.036 A 
ATOM     85  N   UNL A   1      39.526  31.659  30.538  1.00  0.00    -0.354 N 
ATOM     86  C   UNL A   1      41.391  26.666  29.016  1.00  0.00     0.074 A 
ATOM     87  C   UNL A   1      40.213  26.229  28.309  1.00  0.00    -0.034 C 
ATOM     88  H   UNL A   1      38.364  27.178  27.779  1.00  0.00     0.065 H 
ATOM     89  C   UNL A   1      41.760  31.506  30.882  1.00  0.00    -0.036 A 
ATOM     90  H   UNL A   1      42.115  30.085  29.357  1.00  0.00     0.065 H 
ATOM     91  C   UNL A   1      40.524  31.929  31.509  1.00  0.00     0.049 A 
ATOM     92  H   UNL A   1      38.684  32.149  30.399  1.00  0.00     0.167 HD
ATOM     93  C   UNL A   1      42.692  26.273  29.121  1.00  0.00     0.037 A 
ATOM     94  H   UNL A   1      40.106  25.290  27.893  1.00  0.00     0.065 H 
ATOM     95  H   UNL A   1      42.710  31.824  31.128  1.00  0.00     0.065 H 
ATOM     96  C   UNL A   1      40.250  31.860  32.844  1.00  0.00     0.037 A 
ATOM     97  C   UNL A   1      43.392  27.057  30.146  1.00  0.00     0.049 A 
ATOM     98  C   UNL A   1      41.047  30.820  33.603  1.00  0.00     0.074 A 
ATOM     99  C   UNL A   1      44.324  28.082  30.139  1.00  0.00    -0.036 A 
ATOM    100  N   UNL A   1      42.942  26.966  31.453  1.00  0.00    -0.354 N 
ATOM    101  N   UNL A   1      41.901  30.004  33.051  1.00  0.00    -0.248 NA
ATOM    102  C   UNL A   1      40.859  30.546  35.030  1.00  0.00    -0.034 C 
ATOM    103  C   UNL A   1      44.400  28.621  31.461  1.00  0.00    -0.036 A 
ATOM    104  H   UNL A   1      44.867  28.402  29.323  1.00  0.00     0.065 H 
ATOM    105  C   UNL A   1      43.525  27.914  32.267  1.00  0.00     0.049 A 
ATOM    106  H   UNL A   1      42.284  26.302  31.765  1.00  0.00     0.167 HD
ATOM    107  C   UNL A   1      42.297  29.074  33.973  1.00  0.00     0.074 A 
ATOM    108  C   UNL A   1      41.635  29.463  35.204  1.00  0.00    -0.034 C 
ATOM    109  H   UNL A   1      40.283  31.052  35.720  1.00  0.00     0.065 H 
ATOM    110  H   UNL A   1      45.003  29.402  31.761  1.00  0.00     0.065 H 
ATOM    111  C   UNL A   1      43.094  28.016  33.652  1.00  0.00     0.037 A 
ATOM    112  H   UNL A   1      41.746  28.968  36.103  1.00  0.00     0.065 H 
BRANCH  93 113
ATOM    113  C   UNL A   1      43.402  25.299  28.194  1.00  0.00     0.064 A 
ATOM    114  C   UNL A   1      43.037  23.934  28.197  1.00  0.00     0.173 A 
ATOM    115  C   UNL A   1      44.510  25.593  27.370  1.00  0.00     0.173 A 
ATOM    116  F   UNL A   1      41.984  23.491  28.899  1.00  0.00    -0.203 F 
ATOM    117  C   UNL A   1      43.752  22.955  27.495  1.00  0.00     0.198 A 
ATOM    118  C   UNL A   1      45.210  24.620  26.652  1.00  0.00     0.198 A 
ATOM    119  F   UNL A   1      44.999  26.823  27.223  1.00  0.00    -0.203 F 
ATOM    120  F   UNL A   1      43.384  21.670  27.585  1.00  0.00    -0.200 F 
ATOM    121  C   UNL A   1      44.844  23.297  26.727  1.00  0.00     0.200 A 
ATOM    122  F   UNL A   1      46.263  24.984  25.904  1.00  0.00    -0.200 F 
ATOM    123  F   UNL A   1      45.542  22.363  26.069  1.00  0.00    -0.200 F 
ENDBRANCH  93 113
BRANCH  96 124
ATOM    124  C   UNL A   1      38.854  32.262  33.153  1.00  0.00     0.064 A 
ATOM    125  C   UNL A   1      38.523  33.627  33.051  1.00  0.00     0.173 A 
ATOM    126  C   UNL A   1      37.809  31.333  33.128  1.00  0.00     0.173 A 
ATOM    127  F   UNL A   1      39.491  34.556  33.069  1.00  0.00    -0.203 F 
ATOM    128  C   UNL A   1      37.215  34.033  32.800  1.00  0.00     0.198 A 
ATOM    129  C   UNL A   1      36.498  31.746  32.891  1.00  0.00     0.198 A 
ATOM    130  F   UNL A   1      38.068  30.019  33.204  1.00  0.00    -0.203 F 
ATOM    131  F   UNL A   1      36.948  35.328  32.583  1.00  0.00    -0.200 F 
ATOM    132  C   UNL A   1      36.209  33.088  32.689  1.00  0.00     0.200 A 
ATOM    133  F   UNL A   1      35.528  30.830  32.762  1.00  0.00    -0.200 F 
ATOM    134  F   UNL A   1      34.970  33.465  32.347  1.00  0.00    -0.200 F 
ENDBRANCH  96 124
BRANCH 111 135
ATOM    135  C   UNL A   1      43.517  26.979  34.645  1.00  0.00     0.064 A 
ATOM    136  C   UNL A   1      44.842  26.874  35.094  1.00  0.00     0.173 A 
ATOM    137  C   UNL A   1      42.626  25.976  35.077  1.00  0.00     0.173 A 
ATOM    138  F   UNL A   1      45.764  27.773  34.715  1.00  0.00    -0.203 F 
ATOM    139  C   UNL A   1      45.248  25.832  35.930  1.00  0.00     0.198 A 
ATOM    140  C   UNL A   1      43.044  24.911  35.870  1.00  0.00     0.198 A 
ATOM    141  F   UNL A   1      41.323  26.021  34.756  1.00  0.00    -0.203 F 
ATOM    142  F   UNL A   1      46.514  25.784  36.367  1.00  0.00    -0.200 F 
ATOM    143  C   UNL A   1      44.355  24.841  36.301  1.00  0.00     0.200 A 
ATOM    144  F   UNL A   1      42.170  23.954  36.214  1.00  0.00    -0.200 F 
ATOM    145  F   UNL A   1      44.754  23.824  37.078  1.00  0.00    -0.200 F 
ENDBRANCH 111 135
ENDBRANCH  76  79
ENDBRANCH  66  69
ENDBRANCH  62  65
ENDBRANCH  59  62
ENDBRANCH  56  59
ENDBRANCH   1  56
TORSDOF 17
ENDMDL
MODEL 6
REMARK VINA RESULT:     -12.5      3.332      6.451
REMARK SMILES Cc1ccc(-c2nn(-c3ccccc3)cc2[C@@H]2[NH2+][C@H](C(=O)NCCCCCCNC(=O)c3ccc(-c4c5nc(c(-c6c(F)c(F)c(F)c(F)c6F)c6ccc([nH]6)c(-c6c(F)c(F)c(F)c(F)c6F)c6nc(c(-c7c(F)c(F)c(F)c(F)c7F)c7ccc4[nH]7)C=C6)C=C5)cc3)CS2)cc1
REMARK SMILES IDX 25 1 24 4 23 7 22 10 20 11 21 12 19 14 17 15 18 16 96 17
REMARK SMILES IDX 95 21 16 25 6 26 7 27 8 28 15 29 5 31 2 32 3 33 98 34 4 35
REMARK SMILES IDX 97 37 1 41 9 45 10 46 14 47 11 48 13 50 12 52 26 56 27 59
REMARK SMILES IDX 28 62 29 65 30 66 31 68 32 69 33 70 94 71 34 72 93 74 35 76
REMARK SMILES IDX 36 79 37 80 87 81 38 82 92 83 86 84 88 85 39 86 91 87 85 89
REMARK SMILES IDX 84 91 40 93 72 96 52 97 71 98 53 99 56 100 70 101 89 102
REMARK SMILES IDX 54 103 55 105 69 107 90 108 57 111 41 113 42 114 50 115
REMARK SMILES IDX 43 116 44 117 48 118 51 119 45 120 46 121 49 122 47 123
REMARK SMILES IDX 73 124 74 125 82 126 75 127 76 128 80 129 83 130 77 131
REMARK SMILES IDX 78 132 81 133 79 134 58 135 59 136 67 137 60 138 61 139
REMARK SMILES IDX 65 140 68 141 62 142 63 143 66 144 64 145
REMARK H PARENT 25 2 25 3 24 5 24 6 23 8 23 9 22 13 17 18 18 19 18 20 19 22
REMARK H PARENT 95 23 95 24 15 30 3 36 98 38 4 39 97 40 1 42 1 43 1 44 10 49
REMARK H PARENT 14 51 11 53 13 54 12 55 26 57 26 58 27 60 27 61 28 63 28 64
REMARK H PARENT 29 67 33 73 94 75 34 77 93 78 92 88 86 90 88 92 91 94 85 95
REMARK H PARENT 53 104 56 106 89 109 54 110 90 112
REMARK Flexibility Score: inf
ROOT
ATOM      1  C   UNL A   1      34.505  35.231  28.400  1.00  0.00    -0.052 C 
ATOM      2  H   UNL A   1      34.458  35.691  27.435  1.00  0.00     0.027 H 
ATOM      3  H   UNL A   1      35.197  35.552  29.151  1.00  0.00     0.027 H 
ENDROOT
BRANCH   1   4
ATOM      4  C   UNL A   1      35.028  33.789  28.145  1.00  0.00    -0.036 C 
ATOM      5  H   UNL A   1      35.352  33.774  27.125  1.00  0.00     0.028 H 
ATOM      6  H   UNL A   1      35.732  33.682  28.943  1.00  0.00     0.028 H 
BRANCH   4   7
ATOM      7  C   UNL A   1      34.179  32.530  28.330  1.00  0.00     0.018 C 
ATOM      8  H   UNL A   1      34.840  31.689  28.292  1.00  0.00     0.049 H 
ATOM      9  H   UNL A   1      33.676  32.671  29.263  1.00  0.00     0.049 H 
BRANCH   7  10
ATOM     10  N   UNL A   1      33.117  32.296  27.362  1.00  0.00    -0.351 N 
ATOM     11  C   UNL A   1      32.397  31.178  27.041  1.00  0.00     0.279 C 
ATOM     12  O   UNL A   1      31.368  31.394  26.378  1.00  0.00    -0.268 OA
ATOM     13  H   UNL A   1      32.870  33.093  26.839  1.00  0.00     0.163 HD
BRANCH  11  14
ATOM     14  C   UNL A   1      32.733  29.691  27.359  1.00  0.00     0.176 C 
ATOM     15  C   UNL A   1      31.979  27.696  26.205  1.00  0.00     0.163 C 
ATOM     16  N   UNL A   1      31.641  28.698  27.221  1.00  0.00    -0.320 N 
ATOM     17  S   UNL A   1      33.768  27.490  26.288  1.00  0.00    -0.087 SA
ATOM     18  H   UNL A   1      31.524  26.740  26.359  1.00  0.00     0.115 H 
ATOM     19  H   UNL A   1      31.497  28.231  28.117  1.00  0.00     0.348 HD
ATOM     20  H   UNL A   1      30.789  29.181  26.937  1.00  0.00     0.348 HD
ATOM     21  C   UNL A   1      34.025  29.241  26.662  1.00  0.00     0.061 C 
ATOM     22  H   UNL A   1      32.890  29.703  28.417  1.00  0.00     0.108 H 
ATOM     23  H   UNL A   1      34.866  29.368  27.309  1.00  0.00     0.045 H 
ATOM     24  H   UNL A   1      34.227  29.815  25.782  1.00  0.00     0.045 H 
BRANCH  15  25
ATOM     25  C   UNL A   1      31.475  28.177  24.882  1.00  0.00     0.067 A 
ATOM     26  C   UNL A   1      31.305  27.430  23.658  1.00  0.00     0.103 A 
ATOM     27  N   UNL A   1      30.819  28.233  22.680  1.00  0.00    -0.167 NA
ATOM     28  N   UNL A   1      30.500  29.394  23.311  1.00  0.00    -0.240 N 
ATOM     29  C   UNL A   1      30.999  29.436  24.576  1.00  0.00     0.041 A 
ATOM     30  H   UNL A   1      31.020  30.261  25.195  1.00  0.00     0.085 H 
BRANCH  26  31
ATOM     31  C   UNL A   1      31.555  25.985  23.428  1.00  0.00     0.003 A 
ATOM     32  C   UNL A   1      32.073  23.204  23.079  1.00  0.00    -0.051 A 
ATOM     33  C   UNL A   1      30.857  23.635  23.600  1.00  0.00    -0.059 A 
ATOM     34  C   UNL A   1      33.009  24.167  22.687  1.00  0.00    -0.059 A 
ATOM     35  C   UNL A   1      30.610  25.001  23.770  1.00  0.00    -0.052 A 
ATOM     36  H   UNL A   1      30.135  22.945  23.860  1.00  0.00     0.063 H 
ATOM     37  C   UNL A   1      32.751  25.542  22.853  1.00  0.00    -0.052 A 
ATOM     38  H   UNL A   1      33.904  23.866  22.271  1.00  0.00     0.063 H 
ATOM     39  H   UNL A   1      29.702  25.298  24.161  1.00  0.00     0.063 H 
ATOM     40  H   UNL A   1      33.454  26.232  22.545  1.00  0.00     0.063 H 
BRANCH  32  41
ATOM     41  C   UNL A   1      32.340  21.732  22.953  1.00  0.00    -0.040 C 
ATOM     42  H   UNL A   1      32.317  21.281  23.923  1.00  0.00     0.028 H 
ATOM     43  H   UNL A   1      33.302  21.580  22.511  1.00  0.00     0.028 H 
ATOM     44  H   UNL A   1      31.589  21.285  22.335  1.00  0.00     0.028 H 
ENDBRANCH  32  41
ENDBRANCH  26  31
BRANCH  28  45
ATOM     45  C   UNL A   1      29.547  30.315  22.816  1.00  0.00     0.065 A 
ATOM     46  C   UNL A   1      29.214  30.290  21.447  1.00  0.00    -0.036 A 
ATOM     47  C   UNL A   1      28.938  31.230  23.669  1.00  0.00    -0.036 A 
ATOM     48  C   UNL A   1      28.342  31.241  20.920  1.00  0.00    -0.060 A 
ATOM     49  H   UNL A   1      29.617  29.565  20.833  1.00  0.00     0.065 H 
ATOM     50  C   UNL A   1      27.994  32.121  23.146  1.00  0.00    -0.060 A 
ATOM     51  H   UNL A   1      29.177  31.250  24.673  1.00  0.00     0.065 H 
ATOM     52  C   UNL A   1      27.721  32.148  21.773  1.00  0.00    -0.062 A 
ATOM     53  H   UNL A   1      28.158  31.272  19.906  1.00  0.00     0.062 H 
ATOM     54  H   UNL A   1      27.494  32.764  23.779  1.00  0.00     0.062 H 
ATOM     55  H   UNL A   1      27.060  32.843  21.393  1.00  0.00     0.062 H 
ENDBRANCH  28  45
ENDBRANCH  15  25
ENDBRANCH  11  14
ENDBRANCH   7  10
ENDBRANCH   4   7
ENDBRANCH   1   4
BRANCH   1  56
ATOM     56  C   UNL A   1      33.176  35.586  29.086  1.00  0.00    -0.052 C 
ATOM     57  H   UNL A   1      32.761  34.674  29.463  1.00  0.00     0.027 H 
ATOM     58  H   UNL A   1      32.609  36.077  28.324  1.00  0.00     0.027 H 
BRANCH  56  59
ATOM     59  C   UNL A   1      33.199  36.587  30.244  1.00  0.00    -0.036 C 
ATOM     60  H   UNL A   1      32.214  37.000  30.324  1.00  0.00     0.028 H 
ATOM     61  H   UNL A   1      33.977  37.273  29.981  1.00  0.00     0.028 H 
BRANCH  59  62
ATOM     62  C   UNL A   1      33.592  36.086  31.633  1.00  0.00     0.018 C 
ATOM     63  H   UNL A   1      33.056  36.665  32.356  1.00  0.00     0.049 H 
ATOM     64  H   UNL A   1      34.655  36.192  31.694  1.00  0.00     0.049 H 
BRANCH  62  65
ATOM     65  N   UNL A   1      33.314  34.663  31.898  1.00  0.00    -0.352 N 
ATOM     66  C   UNL A   1      34.214  33.664  32.269  1.00  0.00     0.251 C 
ATOM     67  H   UNL A   1      32.375  34.382  31.800  1.00  0.00     0.163 HD
ATOM     68  O   UNL A   1      33.877  32.511  32.451  1.00  0.00    -0.269 OA
BRANCH  66  69
ATOM     69  C   UNL A   1      35.605  34.089  32.550  1.00  0.00     0.039 A 
ATOM     70  C   UNL A   1      36.312  34.652  31.483  1.00  0.00    -0.049 A 
ATOM     71  C   UNL A   1      36.257  33.509  33.634  1.00  0.00    -0.049 A 
ATOM     72  C   UNL A   1      37.658  34.341  31.345  1.00  0.00    -0.053 A 
ATOM     73  H   UNL A   1      35.844  35.284  30.815  1.00  0.00     0.063 H 
ATOM     74  C   UNL A   1      37.570  33.123  33.449  1.00  0.00    -0.053 A 
ATOM     75  H   UNL A   1      35.779  33.372  34.537  1.00  0.00     0.063 H 
ATOM     76  C   UNL A   1      38.230  33.455  32.256  1.00  0.00    -0.014 A 
ATOM     77  H   UNL A   1      38.221  34.755  30.586  1.00  0.00     0.063 H 
ATOM     78  H   UNL A   1      38.063  32.595  34.186  1.00  0.00     0.063 H 
BRANCH  76  79
ATOM     79  C   UNL A   1      39.462  32.723  31.981  1.00  0.00     0.031 A 
ATOM     80  C   UNL A   1      39.406  31.476  31.200  1.00  0.00     0.074 A 
ATOM     81  C   UNL A   1      40.657  33.195  32.405  1.00  0.00     0.049 A 
ATOM     82  N   UNL A   1      40.351  30.597  31.174  1.00  0.00    -0.248 NA
ATOM     83  C   UNL A   1      38.216  31.064  30.466  1.00  0.00    -0.034 C 
ATOM     84  C   UNL A   1      41.982  32.753  31.978  1.00  0.00    -0.036 A 
ATOM     85  N   UNL A   1      40.911  34.047  33.492  1.00  0.00    -0.354 N 
ATOM     86  C   UNL A   1      40.022  29.654  30.232  1.00  0.00     0.074 A 
ATOM     87  C   UNL A   1      38.636  29.913  29.934  1.00  0.00    -0.034 C 
ATOM     88  H   UNL A   1      37.301  31.533  30.380  1.00  0.00     0.065 H 
ATOM     89  C   UNL A   1      42.874  33.066  32.928  1.00  0.00    -0.036 A 
ATOM     90  H   UNL A   1      42.196  32.276  31.087  1.00  0.00     0.065 H 
ATOM     91  C   UNL A   1      42.135  33.603  34.054  1.00  0.00     0.049 A 
ATOM     92  H   UNL A   1      40.354  34.797  33.801  1.00  0.00     0.167 HD
ATOM     93  C   UNL A   1      41.012  28.853  29.744  1.00  0.00     0.037 A 
ATOM     94  H   UNL A   1      38.038  29.283  29.376  1.00  0.00     0.065 H 
ATOM     95  H   UNL A   1      43.897  32.947  32.869  1.00  0.00     0.065 H 
ATOM     96  C   UNL A   1      42.201  33.139  35.335  1.00  0.00     0.037 A 
ATOM     97  C   UNL A   1      42.210  28.934  30.588  1.00  0.00     0.049 A 
ATOM     98  C   UNL A   1      42.638  31.695  35.467  1.00  0.00     0.074 A 
ATOM     99  C   UNL A   1      43.456  29.529  30.480  1.00  0.00    -0.036 A 
ATOM    100  N   UNL A   1      42.106  28.517  31.905  1.00  0.00    -0.354 N 
ATOM    101  N   UNL A   1      42.895  30.912  34.457  1.00  0.00    -0.248 NA
ATOM    102  C   UNL A   1      42.714  30.991  36.749  1.00  0.00    -0.034 C 
ATOM    103  C   UNL A   1      44.081  29.487  31.764  1.00  0.00    -0.036 A 
ATOM    104  H   UNL A   1      43.862  29.933  29.622  1.00  0.00     0.065 H 
ATOM    105  C   UNL A   1      43.220  28.855  32.644  1.00  0.00     0.049 A 
ATOM    106  H   UNL A   1      41.329  28.035  32.271  1.00  0.00     0.167 HD
ATOM    107  C   UNL A   1      43.073  29.634  34.911  1.00  0.00     0.074 A 
ATOM    108  C   UNL A   1      42.969  29.732  36.354  1.00  0.00    -0.034 C 
ATOM    109  H   UNL A   1      42.600  31.363  37.704  1.00  0.00     0.065 H 
ATOM    110  H   UNL A   1      45.014  29.863  31.995  1.00  0.00     0.065 H 
ATOM    111  C   UNL A   1      43.234  28.573  34.070  1.00  0.00     0.037 A 
ATOM    112  H   UNL A   1      43.078  28.933  36.999  1.00  0.00     0.065 H 
BRANCH  93 113
ATOM    113  C   UNL A   1      40.983  28.117  28.414  1.00  0.00     0.064 A 
ATOM    114  C   UNL A   1      40.333  26.866  28.318  1.00  0.00     0.173 A 
ATOM    115  C   UNL A   1      41.654  28.505  27.234  1.00  0.00     0.173 A 
ATOM    116  F   UNL A   1      39.619  26.367  29.337  1.00  0.00    -0.203 F 
ATOM    117  C   UNL A   1      40.405  26.058  27.176  1.00  0.00     0.198 A 
ATOM    118  C   UNL A   1      41.708  27.709  26.087  1.00  0.00     0.198 A 
ATOM    119  F   UNL A   1      42.315  29.655  27.120  1.00  0.00    -0.203 F 
ATOM    120  F   UNL A   1      39.810  24.858  27.172  1.00  0.00    -0.200 F 
ATOM    121  C   UNL A   1      41.099  26.477  26.061  1.00  0.00     0.200 A 
ATOM    122  F   UNL A   1      42.382  28.147  25.013  1.00  0.00    -0.200 F 
ATOM    123  F   UNL A   1      41.187  25.701  24.974  1.00  0.00    -0.200 F 
ENDBRANCH  93 113
BRANCH  96 124
ATOM    124  C   UNL A   1      41.236  33.826  36.231  1.00  0.00     0.064 A 
ATOM    125  C   UNL A   1      40.037  33.157  36.547  1.00  0.00     0.173 A 
ATOM    126  C   UNL A   1      41.640  34.871  37.068  1.00  0.00     0.173 A 
ATOM    127  F   UNL A   1      39.609  32.147  35.774  1.00  0.00    -0.203 F 
ATOM    128  C   UNL A   1      39.348  33.435  37.724  1.00  0.00     0.198 A 
ATOM    129  C   UNL A   1      40.937  35.156  38.238  1.00  0.00     0.198 A 
ATOM    130  F   UNL A   1      42.782  35.531  36.825  1.00  0.00    -0.203 F 
ATOM    131  F   UNL A   1      38.280  32.698  38.062  1.00  0.00    -0.200 F 
ATOM    132  C   UNL A   1      39.817  34.413  38.584  1.00  0.00     0.200 A 
ATOM    133  F   UNL A   1      41.404  36.087  39.081  1.00  0.00    -0.200 F 
ATOM    134  F   UNL A   1      39.215  34.614  39.764  1.00  0.00    -0.200 F 
ENDBRANCH  96 124
BRANCH 111 135
ATOM    135  C   UNL A   1      43.406  27.166  34.552  1.00  0.00     0.064 A 
ATOM    136  C   UNL A   1      42.312  26.330  34.819  1.00  0.00     0.173 A 
ATOM    137  C   UNL A   1      44.680  26.660  34.882  1.00  0.00     0.173 A 
ATOM    138  F   UNL A   1      41.062  26.739  34.557  1.00  0.00    -0.203 F 
ATOM    139  C   UNL A   1      42.483  25.061  35.377  1.00  0.00     0.198 A 
ATOM    140  C   UNL A   1      44.844  25.414  35.484  1.00  0.00     0.198 A 
ATOM    141  F   UNL A   1      45.795  27.354  34.606  1.00  0.00    -0.203 F 
ATOM    142  F   UNL A   1      41.416  24.277  35.586  1.00  0.00    -0.200 F 
ATOM    143  C   UNL A   1      43.746  24.613  35.727  1.00  0.00     0.200 A 
ATOM    144  F   UNL A   1      46.072  24.997  35.825  1.00  0.00    -0.200 F 
ATOM    145  F   UNL A   1      43.905  23.408  36.292  1.00  0.00    -0.200 F 
ENDBRANCH 111 135
ENDBRANCH  76  79
ENDBRANCH  66  69
ENDBRANCH  62  65
ENDBRANCH  59  62
ENDBRANCH  56  59
ENDBRANCH   1  56
TORSDOF 17
ENDMDL
MODEL 7
REMARK VINA RESULT:     -12.1      6.281     12.069
REMARK SMILES Cc1ccc(-c2nn(-c3ccccc3)cc2[C@@H]2[NH2+][C@H](C(=O)NCCCCCCNC(=O)c3ccc(-c4c5nc(c(-c6c(F)c(F)c(F)c(F)c6F)c6ccc([nH]6)c(-c6c(F)c(F)c(F)c(F)c6F)c6nc(c(-c7c(F)c(F)c(F)c(F)c7F)c7ccc4[nH]7)C=C6)C=C5)cc3)CS2)cc1
REMARK SMILES IDX 25 1 24 4 23 7 22 10 20 11 21 12 19 14 17 15 18 16 96 17
REMARK SMILES IDX 95 21 16 25 6 26 7 27 8 28 15 29 5 31 2 32 3 33 98 34 4 35
REMARK SMILES IDX 97 37 1 41 9 45 10 46 14 47 11 48 13 50 12 52 26 56 27 59
REMARK SMILES IDX 28 62 29 65 30 66 31 68 32 69 33 70 94 71 34 72 93 74 35 76
REMARK SMILES IDX 36 79 37 80 87 81 38 82 92 83 86 84 88 85 39 86 91 87 85 89
REMARK SMILES IDX 84 91 40 93 72 96 52 97 71 98 53 99 56 100 70 101 89 102
REMARK SMILES IDX 54 103 55 105 69 107 90 108 57 111 41 113 42 114 50 115
REMARK SMILES IDX 43 116 44 117 48 118 51 119 45 120 46 121 49 122 47 123
REMARK SMILES IDX 73 124 74 125 82 126 75 127 76 128 80 129 83 130 77 131
REMARK SMILES IDX 78 132 81 133 79 134 58 135 59 136 67 137 60 138 61 139
REMARK SMILES IDX 65 140 68 141 62 142 63 143 66 144 64 145
REMARK H PARENT 25 2 25 3 24 5 24 6 23 8 23 9 22 13 17 18 18 19 18 20 19 22
REMARK H PARENT 95 23 95 24 15 30 3 36 98 38 4 39 97 40 1 42 1 43 1 44 10 49
REMARK H PARENT 14 51 11 53 13 54 12 55 26 57 26 58 27 60 27 61 28 63 28 64
REMARK H PARENT 29 67 33 73 94 75 34 77 93 78 92 88 86 90 88 92 91 94 85 95
REMARK H PARENT 53 104 56 106 89 109 54 110 90 112
REMARK Flexibility Score: inf
ROOT
ATOM      1  C   UNL A   1      41.113  34.936  29.530  1.00  0.00    -0.052 C 
ATOM      2  H   UNL A   1      41.397  35.881  29.944  1.00  0.00     0.027 H 
ATOM      3  H   UNL A   1      41.676  34.044  29.710  1.00  0.00     0.027 H 
ENDROOT
BRANCH   1   4
ATOM      4  C   UNL A   1      41.313  35.081  27.995  1.00  0.00    -0.036 C 
ATOM      5  H   UNL A   1      41.605  34.111  27.648  1.00  0.00     0.028 H 
ATOM      6  H   UNL A   1      40.375  35.505  27.705  1.00  0.00     0.028 H 
BRANCH   4   7
ATOM      7  C   UNL A   1      42.292  36.065  27.353  1.00  0.00     0.018 C 
ATOM      8  H   UNL A   1      43.031  36.309  28.087  1.00  0.00     0.049 H 
ATOM      9  H   UNL A   1      42.663  35.559  26.487  1.00  0.00     0.049 H 
BRANCH   7  10
ATOM     10  N   UNL A   1      41.745  37.316  26.851  1.00  0.00    -0.351 N 
ATOM     11  C   UNL A   1      42.038  38.624  27.127  1.00  0.00     0.279 C 
ATOM     12  O   UNL A   1      41.586  39.443  26.309  1.00  0.00    -0.268 OA
ATOM     13  H   UNL A   1      41.027  37.201  26.187  1.00  0.00     0.163 HD
BRANCH  11  14
ATOM     14  C   UNL A   1      42.814  39.201  28.348  1.00  0.00     0.176 C 
ATOM     15  C   UNL A   1      44.819  40.565  28.352  1.00  0.00     0.163 C 
ATOM     16  N   UNL A   1      44.295  39.196  28.282  1.00  0.00    -0.320 N 
ATOM     17  S   UNL A   1      43.680  41.478  29.409  1.00  0.00    -0.087 SA
ATOM     18  H   UNL A   1      45.799  40.641  28.772  1.00  0.00     0.115 H 
ATOM     19  H   UNL A   1      44.664  38.656  29.065  1.00  0.00     0.348 HD
ATOM     20  H   UNL A   1      44.584  38.777  27.398  1.00  0.00     0.348 HD
ATOM     21  C   UNL A   1      42.251  40.561  28.785  1.00  0.00     0.061 C 
ATOM     22  H   UNL A   1      42.623  38.479  29.113  1.00  0.00     0.108 H 
ATOM     23  H   UNL A   1      41.519  40.436  29.554  1.00  0.00     0.045 H 
ATOM     24  H   UNL A   1      41.765  41.072  27.980  1.00  0.00     0.045 H 
BRANCH  15  25
ATOM     25  C   UNL A   1      44.930  41.099  26.960  1.00  0.00     0.067 A 
ATOM     26  C   UNL A   1      45.913  40.782  25.951  1.00  0.00     0.103 A 
ATOM     27  N   UNL A   1      45.664  41.480  24.815  1.00  0.00    -0.167 NA
ATOM     28  N   UNL A   1      44.455  42.062  25.025  1.00  0.00    -0.240 N 
ATOM     29  C   UNL A   1      44.065  41.965  26.325  1.00  0.00     0.041 A 
ATOM     30  H   UNL A   1      43.265  42.453  26.758  1.00  0.00     0.085 H 
BRANCH  26  31
ATOM     31  C   UNL A   1      47.035  39.813  26.041  1.00  0.00     0.003 A 
ATOM     32  C   UNL A   1      49.132  37.897  26.275  1.00  0.00    -0.051 A 
ATOM     33  C   UNL A   1      48.169  37.770  25.279  1.00  0.00    -0.059 A 
ATOM     34  C   UNL A   1      49.073  39.010  27.121  1.00  0.00    -0.059 A 
ATOM     35  C   UNL A   1      47.141  38.713  25.171  1.00  0.00    -0.052 A 
ATOM     36  H   UNL A   1      48.213  36.979  24.618  1.00  0.00     0.063 H 
ATOM     37  C   UNL A   1      48.040  39.961  27.001  1.00  0.00    -0.052 A 
ATOM     38  H   UNL A   1      49.796  39.136  27.845  1.00  0.00     0.063 H 
ATOM     39  H   UNL A   1      46.435  38.597  24.426  1.00  0.00     0.063 H 
ATOM     40  H   UNL A   1      48.027  40.778  27.631  1.00  0.00     0.063 H 
BRANCH  32  41
ATOM     41  C   UNL A   1      50.196  36.846  26.408  1.00  0.00    -0.040 C 
ATOM     42  H   UNL A   1      50.441  36.715  27.441  1.00  0.00     0.028 H 
ATOM     43  H   UNL A   1      51.069  37.153  25.870  1.00  0.00     0.028 H 
ATOM     44  H   UNL A   1      49.836  35.922  26.006  1.00  0.00     0.028 H 
ENDBRANCH  32  41
ENDBRANCH  26  31
BRANCH  28  45
ATOM     45  C   UNL A   1      43.594  42.472  23.979  1.00  0.00     0.065 A 
ATOM     46  C   UNL A   1      42.226  42.142  24.046  1.00  0.00    -0.036 A 
ATOM     47  C   UNL A   1      44.089  43.199  22.901  1.00  0.00    -0.036 A 
ATOM     48  C   UNL A   1      41.376  42.462  22.988  1.00  0.00    -0.060 A 
ATOM     49  H   UNL A   1      41.852  41.664  24.880  1.00  0.00     0.065 H 
ATOM     50  C   UNL A   1      43.207  43.594  21.888  1.00  0.00    -0.060 A 
ATOM     51  H   UNL A   1      45.090  43.444  22.849  1.00  0.00     0.065 H 
ATOM     52  C   UNL A   1      41.865  43.200  21.915  1.00  0.00    -0.062 A 
ATOM     53  H   UNL A   1      40.392  42.153  23.001  1.00  0.00     0.062 H 
ATOM     54  H   UNL A   1      43.551  44.183  21.113  1.00  0.00     0.062 H 
ATOM     55  H   UNL A   1      41.237  43.457  21.137  1.00  0.00     0.062 H 
ENDBRANCH  28  45
ENDBRANCH  15  25
ENDBRANCH  11  14
ENDBRANCH   7  10
ENDBRANCH   4   7
ENDBRANCH   1   4
BRANCH   1  56
ATOM     56  C   UNL A   1      39.791  34.567  30.223  1.00  0.00    -0.052 C 
ATOM     57  H   UNL A   1      39.318  35.483  30.512  1.00  0.00     0.027 H 
ATOM     58  H   UNL A   1      40.085  33.920  31.023  1.00  0.00     0.027 H 
BRANCH  56  59
ATOM     59  C   UNL A   1      38.761  33.752  29.438  1.00  0.00    -0.036 C 
ATOM     60  H   UNL A   1      39.290  33.242  28.658  1.00  0.00     0.028 H 
ATOM     61  H   UNL A   1      38.040  34.476  29.121  1.00  0.00     0.028 H 
BRANCH  59  62
ATOM     62  C   UNL A   1      37.938  32.703  30.185  1.00  0.00     0.018 C 
ATOM     63  H   UNL A   1      38.156  32.796  31.228  1.00  0.00     0.049 H 
ATOM     64  H   UNL A   1      38.216  31.759  29.765  1.00  0.00     0.049 H 
BRANCH  62  65
ATOM     65  N   UNL A   1      36.477  32.803  30.017  1.00  0.00    -0.352 N 
ATOM     66  C   UNL A   1      35.604  31.855  29.483  1.00  0.00     0.251 C 
ATOM     67  H   UNL A   1      36.065  33.645  30.320  1.00  0.00     0.163 HD
ATOM     68  O   UNL A   1      34.410  32.047  29.379  1.00  0.00    -0.269 OA
BRANCH  66  69
ATOM     69  C   UNL A   1      36.181  30.533  29.144  1.00  0.00     0.039 A 
ATOM     70  C   UNL A   1      36.510  29.703  30.219  1.00  0.00    -0.049 A 
ATOM     71  C   UNL A   1      36.777  30.383  27.895  1.00  0.00    -0.049 A 
ATOM     72  C   UNL A   1      37.668  28.942  30.136  1.00  0.00    -0.053 A 
ATOM     73  H   UNL A   1      35.905  29.656  31.054  1.00  0.00     0.063 H 
ATOM     74  C   UNL A   1      37.976  29.700  27.845  1.00  0.00    -0.053 A 
ATOM     75  H   UNL A   1      36.341  30.767  27.043  1.00  0.00     0.063 H 
ATOM     76  C   UNL A   1      38.465  29.070  28.999  1.00  0.00    -0.014 A 
ATOM     77  H   UNL A   1      37.934  28.298  30.897  1.00  0.00     0.063 H 
ATOM     78  H   UNL A   1      38.508  29.653  26.962  1.00  0.00     0.063 H 
BRANCH  76  79
ATOM     79  C   UNL A   1      39.872  28.688  28.972  1.00  0.00     0.031 A 
ATOM     80  C   UNL A   1      40.242  27.299  28.649  1.00  0.00     0.074 A 
ATOM     81  C   UNL A   1      40.842  29.602  29.205  1.00  0.00     0.049 A 
ATOM     82  N   UNL A   1      41.394  26.780  28.908  1.00  0.00    -0.248 NA
ATOM     83  C   UNL A   1      39.288  26.342  28.105  1.00  0.00    -0.034 C 
ATOM     84  C   UNL A   1      42.271  29.460  28.936  1.00  0.00    -0.036 A 
ATOM     85  N   UNL A   1      40.746  30.792  29.945  1.00  0.00    -0.354 N 
ATOM     86  C   UNL A   1      41.432  25.533  28.336  1.00  0.00     0.074 A 
ATOM     87  C   UNL A   1      40.061  25.260  27.981  1.00  0.00    -0.034 C 
ATOM     88  H   UNL A   1      38.289  26.466  27.876  1.00  0.00     0.065 H 
ATOM     89  C   UNL A   1      42.949  30.310  29.721  1.00  0.00    -0.036 A 
ATOM     90  H   UNL A   1      42.691  28.810  28.253  1.00  0.00     0.065 H 
ATOM     91  C   UNL A   1      41.990  30.934  30.611  1.00  0.00     0.049 A 
ATOM     92  H   UNL A   1      39.974  31.401  29.992  1.00  0.00     0.167 HD
ATOM     93  C   UNL A   1      42.647  24.949  28.133  1.00  0.00     0.037 A 
ATOM     94  H   UNL A   1      39.719  24.337  27.669  1.00  0.00     0.065 H 
ATOM     95  H   UNL A   1      43.965  30.487  29.696  1.00  0.00     0.065 H 
ATOM     96  C   UNL A   1      42.068  30.945  31.973  1.00  0.00     0.037 A 
ATOM     97  C   UNL A   1      43.693  25.646  28.892  1.00  0.00     0.049 A 
ATOM     98  C   UNL A   1      42.881  29.818  32.573  1.00  0.00     0.074 A 
ATOM     99  C   UNL A   1      44.724  26.517  28.580  1.00  0.00    -0.036 A 
ATOM    100  N   UNL A   1      43.591  25.661  30.273  1.00  0.00    -0.354 N 
ATOM    101  N   UNL A   1      43.439  28.866  31.878  1.00  0.00    -0.248 NA
ATOM    102  C   UNL A   1      43.036  29.616  34.016  1.00  0.00    -0.034 C 
ATOM    103  C   UNL A   1      45.217  27.074  29.801  1.00  0.00    -0.036 A 
ATOM    104  H   UNL A   1      45.075  26.727  27.634  1.00  0.00     0.065 H 
ATOM    105  C   UNL A   1      44.494  26.532  30.848  1.00  0.00     0.049 A 
ATOM    106  H   UNL A   1      42.952  25.114  30.785  1.00  0.00     0.167 HD
ATOM    107  C   UNL A   1      43.928  27.913  32.729  1.00  0.00     0.074 A 
ATOM    108  C   UNL A   1      43.671  28.432  34.058  1.00  0.00    -0.034 C 
ATOM    109  H   UNL A   1      42.736  30.222  34.794  1.00  0.00     0.065 H 
ATOM    110  H   UNL A   1      45.981  27.762  29.885  1.00  0.00     0.065 H 
ATOM    111  C   UNL A   1      44.457  26.737  32.287  1.00  0.00     0.037 A 
ATOM    112  H   UNL A   1      43.942  27.951  34.931  1.00  0.00     0.065 H 
BRANCH  93 113
ATOM    113  C   UNL A   1      42.947  23.853  27.122  1.00  0.00     0.064 A 
ATOM    114  C   UNL A   1      42.574  22.519  27.403  1.00  0.00     0.173 A 
ATOM    115  C   UNL A   1      43.687  24.002  25.929  1.00  0.00     0.173 A 
ATOM    116  F   UNL A   1      41.837  22.208  28.478  1.00  0.00    -0.203 F 
ATOM    117  C   UNL A   1      42.960  21.438  26.599  1.00  0.00     0.198 A 
ATOM    118  C   UNL A   1      44.054  22.926  25.116  1.00  0.00     0.198 A 
ATOM    119  F   UNL A   1      44.120  25.180  25.486  1.00  0.00    -0.203 F 
ATOM    120  F   UNL A   1      42.618  20.192  26.953  1.00  0.00    -0.200 F 
ATOM    121  C   UNL A   1      43.707  21.641  25.459  1.00  0.00     0.200 A 
ATOM    122  F   UNL A   1      44.772  23.155  24.006  1.00  0.00    -0.200 F 
ATOM    123  F   UNL A   1      44.095  20.610  24.698  1.00  0.00    -0.200 F 
ENDBRANCH  93 113
BRANCH  96 124
ATOM    124  C   UNL A   1      40.871  31.564  32.599  1.00  0.00     0.064 A 
ATOM    125  C   UNL A   1      39.859  30.709  33.077  1.00  0.00     0.173 A 
ATOM    126  C   UNL A   1      40.904  32.874  33.088  1.00  0.00     0.173 A 
ATOM    127  F   UNL A   1      39.788  29.443  32.637  1.00  0.00    -0.203 F 
ATOM    128  C   UNL A   1      39.004  31.108  34.100  1.00  0.00     0.198 A 
ATOM    129  C   UNL A   1      40.035  33.274  34.103  1.00  0.00     0.198 A 
ATOM    130  F   UNL A   1      41.856  33.726  32.681  1.00  0.00    -0.203 F 
ATOM    131  F   UNL A   1      38.133  30.233  34.622  1.00  0.00    -0.200 F 
ATOM    132  C   UNL A   1      39.114  32.382  34.633  1.00  0.00     0.200 A 
ATOM    133  F   UNL A   1      40.156  34.499  34.634  1.00  0.00    -0.200 F 
ATOM    134  F   UNL A   1      38.363  32.735  35.685  1.00  0.00    -0.200 F 
ENDBRANCH  96 124
BRANCH 111 135
ATOM    135  C   UNL A   1      44.976  25.676  33.206  1.00  0.00     0.064 A 
ATOM    136  C   UNL A   1      46.332  25.320  33.244  1.00  0.00     0.173 A 
ATOM    137  C   UNL A   1      44.099  24.894  33.986  1.00  0.00     0.173 A 
ATOM    138  F   UNL A   1      47.235  25.995  32.516  1.00  0.00    -0.203 F 
ATOM    139  C   UNL A   1      46.784  24.251  34.021  1.00  0.00     0.198 A 
ATOM    140  C   UNL A   1      44.544  23.798  34.721  1.00  0.00     0.198 A 
ATOM    141  F   UNL A   1      42.793  25.192  34.069  1.00  0.00    -0.203 F 
ATOM    142  F   UNL A   1      48.092  23.963  34.059  1.00  0.00    -0.200 F 
ATOM    143  C   UNL A   1      45.888  23.480  34.742  1.00  0.00     0.200 A 
ATOM    144  F   UNL A   1      43.664  23.055  35.407  1.00  0.00    -0.200 F 
ATOM    145  F   UNL A   1      46.320  22.434  35.462  1.00  0.00    -0.200 F 
ENDBRANCH 111 135
ENDBRANCH  76  79
ENDBRANCH  66  69
ENDBRANCH  62  65
ENDBRANCH  59  62
ENDBRANCH  56  59
ENDBRANCH   1  56
TORSDOF 17
ENDMDL
MODEL 8
REMARK VINA RESULT:     -12.1      3.542      8.894
REMARK SMILES Cc1ccc(-c2nn(-c3ccccc3)cc2[C@@H]2[NH2+][C@H](C(=O)NCCCCCCNC(=O)c3ccc(-c4c5nc(c(-c6c(F)c(F)c(F)c(F)c6F)c6ccc([nH]6)c(-c6c(F)c(F)c(F)c(F)c6F)c6nc(c(-c7c(F)c(F)c(F)c(F)c7F)c7ccc4[nH]7)C=C6)C=C5)cc3)CS2)cc1
REMARK SMILES IDX 25 1 24 4 23 7 22 10 20 11 21 12 19 14 17 15 18 16 96 17
REMARK SMILES IDX 95 21 16 25 6 26 7 27 8 28 15 29 5 31 2 32 3 33 98 34 4 35
REMARK SMILES IDX 97 37 1 41 9 45 10 46 14 47 11 48 13 50 12 52 26 56 27 59
REMARK SMILES IDX 28 62 29 65 30 66 31 68 32 69 33 70 94 71 34 72 93 74 35 76
REMARK SMILES IDX 36 79 37 80 87 81 38 82 92 83 86 84 88 85 39 86 91 87 85 89
REMARK SMILES IDX 84 91 40 93 72 96 52 97 71 98 53 99 56 100 70 101 89 102
REMARK SMILES IDX 54 103 55 105 69 107 90 108 57 111 41 113 42 114 50 115
REMARK SMILES IDX 43 116 44 117 48 118 51 119 45 120 46 121 49 122 47 123
REMARK SMILES IDX 73 124 74 125 82 126 75 127 76 128 80 129 83 130 77 131
REMARK SMILES IDX 78 132 81 133 79 134 58 135 59 136 67 137 60 138 61 139
REMARK SMILES IDX 65 140 68 141 62 142 63 143 66 144 64 145
REMARK H PARENT 25 2 25 3 24 5 24 6 23 8 23 9 22 13 17 18 18 19 18 20 19 22
REMARK H PARENT 95 23 95 24 15 30 3 36 98 38 4 39 97 40 1 42 1 43 1 44 10 49
REMARK H PARENT 14 51 11 53 13 54 12 55 26 57 26 58 27 60 27 61 28 63 28 64
REMARK H PARENT 29 67 33 73 94 75 34 77 93 78 92 88 86 90 88 92 91 94 85 95
REMARK H PARENT 53 104 56 106 89 109 54 110 90 112
REMARK Flexibility Score: inf
ROOT
ATOM      1  C   UNL A   1      40.169  24.241  27.424  1.00  0.00    -0.052 C 
ATOM      2  H   UNL A   1      41.055  24.490  27.968  1.00  0.00     0.027 H 
ATOM      3  H   UNL A   1      39.192  24.501  27.777  1.00  0.00     0.027 H 
ENDROOT
BRANCH   1   4
ATOM      4  C   UNL A   1      40.074  22.690  27.474  1.00  0.00    -0.036 C 
ATOM      5  H   UNL A   1      40.862  22.372  28.125  1.00  0.00     0.028 H 
ATOM      6  H   UNL A   1      39.050  22.556  27.750  1.00  0.00     0.028 H 
BRANCH   4   7
ATOM      7  C   UNL A   1      40.167  21.791  26.240  1.00  0.00     0.018 C 
ATOM      8  H   UNL A   1      40.338  22.422  25.394  1.00  0.00     0.049 H 
ATOM      9  H   UNL A   1      40.955  21.101  26.460  1.00  0.00     0.049 H 
BRANCH   7  10
ATOM     10  N   UNL A   1      39.013  20.957  25.937  1.00  0.00    -0.351 N 
ATOM     11  C   UNL A   1      37.899  21.173  25.171  1.00  0.00     0.279 C 
ATOM     12  O   UNL A   1      37.254  20.149  24.889  1.00  0.00    -0.268 OA
ATOM     13  H   UNL A   1      39.037  20.070  26.363  1.00  0.00     0.163 HD
BRANCH  11  14
ATOM     14  C   UNL A   1      37.328  22.529  24.662  1.00  0.00     0.176 C 
ATOM     15  C   UNL A   1      35.072  23.034  23.930  1.00  0.00     0.163 C 
ATOM     16  N   UNL A   1      36.373  22.488  23.529  1.00  0.00    -0.320 N 
ATOM     17  S   UNL A   1      35.427  24.325  25.136  1.00  0.00    -0.087 SA
ATOM     18  H   UNL A   1      34.511  23.468  23.130  1.00  0.00     0.115 H 
ATOM     19  H   UNL A   1      36.745  23.041  22.756  1.00  0.00     0.348 HD
ATOM     20  H   UNL A   1      36.248  21.518  23.238  1.00  0.00     0.348 HD
ATOM     21  C   UNL A   1      36.823  23.401  25.821  1.00  0.00     0.061 C 
ATOM     22  H   UNL A   1      38.181  22.995  24.217  1.00  0.00     0.108 H 
ATOM     23  H   UNL A   1      37.590  24.069  26.151  1.00  0.00     0.045 H 
ATOM     24  H   UNL A   1      36.541  22.816  26.671  1.00  0.00     0.045 H 
BRANCH  15  25
ATOM     25  C   UNL A   1      34.232  21.914  24.454  1.00  0.00     0.067 A 
ATOM     26  C   UNL A   1      32.826  21.923  24.787  1.00  0.00     0.103 A 
ATOM     27  N   UNL A   1      32.439  20.701  25.229  1.00  0.00    -0.167 NA
ATOM     28  N   UNL A   1      33.507  19.894  24.995  1.00  0.00    -0.240 N 
ATOM     29  C   UNL A   1      34.618  20.606  24.665  1.00  0.00     0.041 A 
ATOM     30  H   UNL A   1      35.578  20.236  24.589  1.00  0.00     0.085 H 
BRANCH  26  31
ATOM     31  C   UNL A   1      31.863  23.044  24.651  1.00  0.00     0.003 A 
ATOM     32  C   UNL A   1      30.089  25.258  24.369  1.00  0.00    -0.051 A 
ATOM     33  C   UNL A   1      30.412  24.468  23.270  1.00  0.00    -0.059 A 
ATOM     34  C   UNL A   1      30.616  24.909  25.617  1.00  0.00    -0.059 A 
ATOM     35  C   UNL A   1      31.285  23.384  23.414  1.00  0.00    -0.052 A 
ATOM     36  H   UNL A   1      30.007  24.682  22.345  1.00  0.00     0.063 H 
ATOM     37  C   UNL A   1      31.486  23.810  25.759  1.00  0.00    -0.052 A 
ATOM     38  H   UNL A   1      30.362  25.465  26.448  1.00  0.00     0.063 H 
ATOM     39  H   UNL A   1      31.513  22.813  22.585  1.00  0.00     0.063 H 
ATOM     40  H   UNL A   1      31.851  23.568  26.693  1.00  0.00     0.063 H 
BRANCH  32  41
ATOM     41  C   UNL A   1      29.194  26.448  24.182  1.00  0.00    -0.040 C 
ATOM     42  H   UNL A   1      29.768  27.345  24.278  1.00  0.00     0.028 H 
ATOM     43  H   UNL A   1      28.425  26.435  24.927  1.00  0.00     0.028 H 
ATOM     44  H   UNL A   1      28.749  26.410  23.210  1.00  0.00     0.028 H 
ENDBRANCH  32  41
ENDBRANCH  26  31
BRANCH  28  45
ATOM     45  C   UNL A   1      33.406  18.490  24.846  1.00  0.00     0.065 A 
ATOM     46  C   UNL A   1      32.637  17.755  25.770  1.00  0.00    -0.036 A 
ATOM     47  C   UNL A   1      34.049  17.842  23.796  1.00  0.00    -0.036 A 
ATOM     48  C   UNL A   1      32.591  16.363  25.693  1.00  0.00    -0.060 A 
ATOM     49  H   UNL A   1      32.106  18.248  26.505  1.00  0.00     0.065 H 
ATOM     50  C   UNL A   1      33.920  16.454  23.675  1.00  0.00    -0.060 A 
ATOM     51  H   UNL A   1      34.611  18.377  23.116  1.00  0.00     0.065 H 
ATOM     52  C   UNL A   1      33.222  15.714  24.637  1.00  0.00    -0.062 A 
ATOM     53  H   UNL A   1      32.093  15.820  26.414  1.00  0.00     0.062 H 
ATOM     54  H   UNL A   1      34.344  15.970  22.868  1.00  0.00     0.062 H 
ATOM     55  H   UNL A   1      33.177  14.686  24.563  1.00  0.00     0.062 H 
ENDBRANCH  28  45
ENDBRANCH  15  25
ENDBRANCH  11  14
ENDBRANCH   7  10
ENDBRANCH   4   7
ENDBRANCH   1   4
BRANCH   1  56
ATOM     56  C   UNL A   1      40.227  25.087  26.141  1.00  0.00    -0.052 C 
ATOM     57  H   UNL A   1      39.321  25.656  26.095  1.00  0.00     0.027 H 
ATOM     58  H   UNL A   1      40.368  24.370  25.359  1.00  0.00     0.027 H 
BRANCH  56  59
ATOM     59  C   UNL A   1      41.389  26.067  25.968  1.00  0.00    -0.036 C 
ATOM     60  H   UNL A   1      41.630  26.445  26.941  1.00  0.00     0.028 H 
ATOM     61  H   UNL A   1      41.025  26.783  25.262  1.00  0.00     0.028 H 
BRANCH  59  62
ATOM     62  C   UNL A   1      42.689  25.555  25.349  1.00  0.00     0.018 C 
ATOM     63  H   UNL A   1      43.497  25.858  25.982  1.00  0.00     0.049 H 
ATOM     64  H   UNL A   1      42.729  25.971  24.364  1.00  0.00     0.049 H 
BRANCH  62  65
ATOM     65  N   UNL A   1      42.777  24.094  25.173  1.00  0.00    -0.352 N 
ATOM     66  C   UNL A   1      43.531  23.181  25.911  1.00  0.00     0.251 C 
ATOM     67  H   UNL A   1      42.236  23.715  24.442  1.00  0.00     0.163 HD
ATOM     68  O   UNL A   1      43.540  21.991  25.670  1.00  0.00    -0.269 OA
BRANCH  66  69
ATOM     69  C   UNL A   1      44.248  23.709  27.095  1.00  0.00     0.039 A 
ATOM     70  C   UNL A   1      43.626  23.523  28.334  1.00  0.00    -0.049 A 
ATOM     71  C   UNL A   1      45.187  24.716  26.892  1.00  0.00    -0.049 A 
ATOM     72  C   UNL A   1      43.700  24.545  29.270  1.00  0.00    -0.053 A 
ATOM     73  H   UNL A   1      43.127  22.645  28.547  1.00  0.00     0.063 H 
ATOM     74  C   UNL A   1      45.185  25.771  27.784  1.00  0.00    -0.053 A 
ATOM     75  H   UNL A   1      45.856  24.676  26.109  1.00  0.00     0.063 H 
ATOM     76  C   UNL A   1      44.359  25.722  28.917  1.00  0.00    -0.014 A 
ATOM     77  H   UNL A   1      43.276  24.437  30.205  1.00  0.00     0.063 H 
ATOM     78  H   UNL A   1      45.789  26.591  27.616  1.00  0.00     0.063 H 
BRANCH  76  79
ATOM     79  C   UNL A   1      44.138  26.989  29.604  1.00  0.00     0.031 A 
ATOM     80  C   UNL A   1      42.825  27.649  29.506  1.00  0.00     0.074 A 
ATOM     81  C   UNL A   1      45.113  27.546  30.358  1.00  0.00     0.049 A 
ATOM     82  N   UNL A   1      42.618  28.891  29.788  1.00  0.00    -0.248 NA
ATOM     83  C   UNL A   1      41.649  26.977  28.968  1.00  0.00    -0.034 C 
ATOM     84  C   UNL A   1      44.969  28.633  31.324  1.00  0.00    -0.036 A 
ATOM     85  N   UNL A   1      46.502  27.373  30.239  1.00  0.00    -0.354 N 
ATOM     86  C   UNL A   1      41.265  29.115  29.731  1.00  0.00     0.074 A 
ATOM     87  C   UNL A   1      40.734  27.942  29.082  1.00  0.00    -0.034 C 
ATOM     88  H   UNL A   1      41.551  26.018  28.600  1.00  0.00     0.065 H 
ATOM     89  C   UNL A   1      46.157  29.230  31.489  1.00  0.00    -0.036 A 
ATOM     90  H   UNL A   1      44.093  28.898  31.802  1.00  0.00     0.065 H 
ATOM     91  C   UNL A   1      47.077  28.634  30.541  1.00  0.00     0.049 A 
ATOM     92  H   UNL A   1      46.978  26.546  29.995  1.00  0.00     0.167 HD
ATOM     93  C   UNL A   1      40.765  30.220  30.353  1.00  0.00     0.037 A 
ATOM     94  H   UNL A   1      39.762  27.860  28.745  1.00  0.00     0.065 H 
ATOM     95  H   UNL A   1      46.377  29.977  32.166  1.00  0.00     0.065 H 
ATOM     96  C   UNL A   1      47.813  29.316  29.617  1.00  0.00     0.037 A 
ATOM     97  C   UNL A   1      41.841  31.160  30.690  1.00  0.00     0.049 A 
ATOM     98  C   UNL A   1      47.245  30.662  29.221  1.00  0.00     0.074 A 
ATOM     99  C   UNL A   1      42.497  31.535  31.852  1.00  0.00    -0.036 A 
ATOM    100  N   UNL A   1      42.576  31.705  29.650  1.00  0.00    -0.354 N 
ATOM    101  N   UNL A   1      46.119  31.144  29.669  1.00  0.00    -0.248 NA
ATOM    102  C   UNL A   1      47.851  31.523  28.201  1.00  0.00    -0.034 C 
ATOM    103  C   UNL A   1      43.654  32.289  31.484  1.00  0.00    -0.036 A 
ATOM    104  H   UNL A   1      42.202  31.309  32.814  1.00  0.00     0.065 H 
ATOM    105  C   UNL A   1      43.690  32.381  30.104  1.00  0.00     0.049 A 
ATOM    106  H   UNL A   1      42.333  31.622  28.700  1.00  0.00     0.167 HD
ATOM    107  C   UNL A   1      45.805  32.279  28.972  1.00  0.00     0.074 A 
ATOM    108  C   UNL A   1      46.926  32.490  28.076  1.00  0.00    -0.034 C 
ATOM    109  H   UNL A   1      48.750  31.414  27.708  1.00  0.00     0.065 H 
ATOM    110  H   UNL A   1      44.343  32.694  32.136  1.00  0.00     0.065 H 
ATOM    111  C   UNL A   1      44.622  32.935  29.135  1.00  0.00     0.037 A 
ATOM    112  H   UNL A   1      47.004  33.285  27.422  1.00  0.00     0.065 H 
BRANCH  93 113
ATOM    113  C   UNL A   1      39.329  30.402  30.821  1.00  0.00     0.064 A 
ATOM    114  C   UNL A   1      38.308  30.644  29.874  1.00  0.00     0.173 A 
ATOM    115  C   UNL A   1      38.893  30.468  32.161  1.00  0.00     0.173 A 
ATOM    116  F   UNL A   1      38.545  30.584  28.556  1.00  0.00    -0.203 F 
ATOM    117  C   UNL A   1      36.999  30.982  30.239  1.00  0.00     0.198 A 
ATOM    118  C   UNL A   1      37.582  30.784  32.526  1.00  0.00     0.198 A 
ATOM    119  F   UNL A   1      39.702  30.258  33.198  1.00  0.00    -0.203 F 
ATOM    120  F   UNL A   1      36.093  31.253  29.290  1.00  0.00    -0.200 F 
ATOM    121  C   UNL A   1      36.636  31.058  31.567  1.00  0.00     0.200 A 
ATOM    122  F   UNL A   1      37.256  30.840  33.826  1.00  0.00    -0.200 F 
ATOM    123  F   UNL A   1      35.392  31.399  31.922  1.00  0.00    -0.200 F 
ENDBRANCH  93 113
BRANCH  96 124
ATOM    124  C   UNL A   1      48.568  28.407  28.718  1.00  0.00     0.064 A 
ATOM    125  C   UNL A   1      49.648  27.685  29.262  1.00  0.00     0.173 A 
ATOM    126  C   UNL A   1      48.012  27.945  27.520  1.00  0.00     0.173 A 
ATOM    127  F   UNL A   1      50.214  28.090  30.410  1.00  0.00    -0.203 F 
ATOM    128  C   UNL A   1      50.061  26.479  28.705  1.00  0.00     0.198 A 
ATOM    129  C   UNL A   1      48.440  26.743  26.957  1.00  0.00     0.198 A 
ATOM    130  F   UNL A   1      46.971  28.583  26.965  1.00  0.00    -0.203 F 
ATOM    131  F   UNL A   1      51.007  25.751  29.315  1.00  0.00    -0.200 F 
ATOM    132  C   UNL A   1      49.435  25.994  27.569  1.00  0.00     0.200 A 
ATOM    133  F   UNL A   1      47.820  26.262  25.870  1.00  0.00    -0.200 F 
ATOM    134  F   UNL A   1      49.760  24.787  27.088  1.00  0.00    -0.200 F 
ENDBRANCH  96 124
BRANCH 111 135
ATOM    135  C   UNL A   1      44.255  34.165  28.365  1.00  0.00     0.064 A 
ATOM    136  C   UNL A   1      44.209  35.433  28.962  1.00  0.00     0.173 A 
ATOM    137  C   UNL A   1      43.812  34.083  27.029  1.00  0.00     0.173 A 
ATOM    138  F   UNL A   1      44.591  35.600  30.237  1.00  0.00    -0.203 F 
ATOM    139  C   UNL A   1      43.754  36.553  28.263  1.00  0.00     0.198 A 
ATOM    140  C   UNL A   1      43.312  35.191  26.349  1.00  0.00     0.198 A 
ATOM    141  F   UNL A   1      43.876  32.929  26.347  1.00  0.00    -0.203 F 
ATOM    142  F   UNL A   1      43.758  37.755  28.856  1.00  0.00    -0.200 F 
ATOM    143  C   UNL A   1      43.288  36.428  26.965  1.00  0.00     0.200 A 
ATOM    144  F   UNL A   1      42.856  35.053  25.096  1.00  0.00    -0.200 F 
ATOM    145  F   UNL A   1      42.822  37.498  26.305  1.00  0.00    -0.200 F 
ENDBRANCH 111 135
ENDBRANCH  76  79
ENDBRANCH  66  69
ENDBRANCH  62  65
ENDBRANCH  59  62
ENDBRANCH  56  59
ENDBRANCH   1  56
TORSDOF 17
ENDMDL
MODEL 9
REMARK VINA RESULT:     -12.1      2.901      5.479
REMARK SMILES Cc1ccc(-c2nn(-c3ccccc3)cc2[C@@H]2[NH2+][C@H](C(=O)NCCCCCCNC(=O)c3ccc(-c4c5nc(c(-c6c(F)c(F)c(F)c(F)c6F)c6ccc([nH]6)c(-c6c(F)c(F)c(F)c(F)c6F)c6nc(c(-c7c(F)c(F)c(F)c(F)c7F)c7ccc4[nH]7)C=C6)C=C5)cc3)CS2)cc1
REMARK SMILES IDX 25 1 24 4 23 7 22 10 20 11 21 12 19 14 17 15 18 16 96 17
REMARK SMILES IDX 95 21 16 25 6 26 7 27 8 28 15 29 5 31 2 32 3 33 98 34 4 35
REMARK SMILES IDX 97 37 1 41 9 45 10 46 14 47 11 48 13 50 12 52 26 56 27 59
REMARK SMILES IDX 28 62 29 65 30 66 31 68 32 69 33 70 94 71 34 72 93 74 35 76
REMARK SMILES IDX 36 79 37 80 87 81 38 82 92 83 86 84 88 85 39 86 91 87 85 89
REMARK SMILES IDX 84 91 40 93 72 96 52 97 71 98 53 99 56 100 70 101 89 102
REMARK SMILES IDX 54 103 55 105 69 107 90 108 57 111 41 113 42 114 50 115
REMARK SMILES IDX 43 116 44 117 48 118 51 119 45 120 46 121 49 122 47 123
REMARK SMILES IDX 73 124 74 125 82 126 75 127 76 128 80 129 83 130 77 131
REMARK SMILES IDX 78 132 81 133 79 134 58 135 59 136 67 137 60 138 61 139
REMARK SMILES IDX 65 140 68 141 62 142 63 143 66 144 64 145
REMARK H PARENT 25 2 25 3 24 5 24 6 23 8 23 9 22 13 17 18 18 19 18 20 19 22
REMARK H PARENT 95 23 95 24 15 30 3 36 98 38 4 39 97 40 1 42 1 43 1 44 10 49
REMARK H PARENT 14 51 11 53 13 54 12 55 26 57 26 58 27 60 27 61 28 63 28 64
REMARK H PARENT 29 67 33 73 94 75 34 77 93 78 92 88 86 90 88 92 91 94 85 95
REMARK H PARENT 53 104 56 106 89 109 54 110 90 112
REMARK Flexibility Score: inf
ROOT
ATOM      1  C   UNL A   1      34.547  33.812  27.666  1.00  0.00    -0.052 C 
ATOM      2  H   UNL A   1      34.165  33.890  26.671  1.00  0.00     0.027 H 
ATOM      3  H   UNL A   1      35.584  33.632  27.865  1.00  0.00     0.027 H 
ENDROOT
BRANCH   1   4
ATOM      4  C   UNL A   1      33.928  32.510  28.247  1.00  0.00    -0.036 C 
ATOM      5  H   UNL A   1      34.294  32.436  29.250  1.00  0.00     0.028 H 
ATOM      6  H   UNL A   1      32.888  32.675  28.056  1.00  0.00     0.028 H 
BRANCH   4   7
ATOM      7  C   UNL A   1      34.123  31.124  27.629  1.00  0.00     0.018 C 
ATOM      8  H   UNL A   1      34.698  31.249  26.734  1.00  0.00     0.049 H 
ATOM      9  H   UNL A   1      34.595  30.545  28.394  1.00  0.00     0.049 H 
BRANCH   7  10
ATOM     10  N   UNL A   1      32.925  30.377  27.278  1.00  0.00    -0.351 N 
ATOM     11  C   UNL A   1      32.734  29.240  26.540  1.00  0.00     0.279 C 
ATOM     12  O   UNL A   1      31.619  28.709  26.681  1.00  0.00    -0.268 OA
ATOM     13  H   UNL A   1      32.094  30.762  27.639  1.00  0.00     0.163 HD
BRANCH  11  14
ATOM     14  C   UNL A   1      33.710  28.575  25.525  1.00  0.00     0.176 C 
ATOM     15  C   UNL A   1      33.175  27.368  23.491  1.00  0.00     0.163 C 
ATOM     16  N   UNL A   1      33.311  27.269  24.948  1.00  0.00    -0.320 N 
ATOM     17  S   UNL A   1      34.404  28.575  22.960  1.00  0.00    -0.087 SA
ATOM     18  H   UNL A   1      33.357  26.453  22.968  1.00  0.00     0.115 H 
ATOM     19  H   UNL A   1      34.022  26.572  25.172  1.00  0.00     0.348 HD
ATOM     20  H   UNL A   1      32.412  26.994  25.345  1.00  0.00     0.348 HD
ATOM     21  C   UNL A   1      34.177  29.571  24.453  1.00  0.00     0.061 C 
ATOM     22  H   UNL A   1      34.542  28.302  26.139  1.00  0.00     0.108 H 
ATOM     23  H   UNL A   1      35.098  30.030  24.743  1.00  0.00     0.045 H 
ATOM     24  H   UNL A   1      33.473  30.362  24.306  1.00  0.00     0.045 H 
BRANCH  15  25
ATOM     25  C   UNL A   1      31.764  27.744  23.173  1.00  0.00     0.067 A 
ATOM     26  C   UNL A   1      30.544  27.081  23.570  1.00  0.00     0.103 A 
ATOM     27  N   UNL A   1      29.467  27.740  23.077  1.00  0.00    -0.167 NA
ATOM     28  N   UNL A   1      29.973  28.891  22.559  1.00  0.00    -0.240 N 
ATOM     29  C   UNL A   1      31.330  28.857  22.481  1.00  0.00     0.041 A 
ATOM     30  H   UNL A   1      31.929  29.540  21.992  1.00  0.00     0.085 H 
BRANCH  26  31
ATOM     31  C   UNL A   1      30.397  25.878  24.428  1.00  0.00     0.003 A 
ATOM     32  C   UNL A   1      30.205  23.587  26.113  1.00  0.00    -0.051 A 
ATOM     33  C   UNL A   1      29.777  24.832  26.564  1.00  0.00    -0.059 A 
ATOM     34  C   UNL A   1      30.683  23.481  24.802  1.00  0.00    -0.059 A 
ATOM     35  C   UNL A   1      29.876  25.953  25.732  1.00  0.00    -0.052 A 
ATOM     36  H   UNL A   1      29.385  24.928  27.513  1.00  0.00     0.063 H 
ATOM     37  C   UNL A   1      30.771  24.612  23.966  1.00  0.00    -0.052 A 
ATOM     38  H   UNL A   1      30.975  22.560  24.441  1.00  0.00     0.063 H 
ATOM     39  H   UNL A   1      29.554  26.867  26.088  1.00  0.00     0.063 H 
ATOM     40  H   UNL A   1      31.116  24.504  23.000  1.00  0.00     0.063 H 
BRANCH  32  41
ATOM     41  C   UNL A   1      30.140  22.407  27.039  1.00  0.00    -0.040 C 
ATOM     42  H   UNL A   1      31.017  22.385  27.651  1.00  0.00     0.028 H 
ATOM     43  H   UNL A   1      30.083  21.506  26.464  1.00  0.00     0.028 H 
ATOM     44  H   UNL A   1      29.273  22.489  27.660  1.00  0.00     0.028 H 
ENDBRANCH  32  41
ENDBRANCH  26  31
BRANCH  28  45
ATOM     45  C   UNL A   1      29.208  30.068  22.381  1.00  0.00     0.065 A 
ATOM     46  C   UNL A   1      28.877  30.849  23.506  1.00  0.00    -0.036 A 
ATOM     47  C   UNL A   1      28.794  30.457  21.111  1.00  0.00    -0.036 A 
ATOM     48  C   UNL A   1      28.055  31.966  23.366  1.00  0.00    -0.060 A 
ATOM     49  H   UNL A   1      29.245  30.594  24.436  1.00  0.00     0.065 H 
ATOM     50  C   UNL A   1      28.046  31.632  20.972  1.00  0.00    -0.060 A 
ATOM     51  H   UNL A   1      29.036  29.889  20.284  1.00  0.00     0.065 H 
ATOM     52  C   UNL A   1      27.651  32.365  22.096  1.00  0.00    -0.062 A 
ATOM     53  H   UNL A   1      27.749  32.493  24.199  1.00  0.00     0.062 H 
ATOM     54  H   UNL A   1      27.784  31.960  20.030  1.00  0.00     0.062 H 
ATOM     55  H   UNL A   1      27.057  33.201  21.983  1.00  0.00     0.062 H 
ENDBRANCH  28  45
ENDBRANCH  15  25
ENDBRANCH  11  14
ENDBRANCH   7  10
ENDBRANCH   4   7
ENDBRANCH   1   4
BRANCH   1  56
ATOM     56  C   UNL A   1      34.394  35.216  28.274  1.00  0.00    -0.052 C 
ATOM     57  H   UNL A   1      34.195  35.891  27.467  1.00  0.00     0.027 H 
ATOM     58  H   UNL A   1      35.311  35.376  28.801  1.00  0.00     0.027 H 
BRANCH  56  59
ATOM     59  C   UNL A   1      33.308  35.438  29.329  1.00  0.00    -0.036 C 
ATOM     60  H   UNL A   1      32.378  35.136  28.893  1.00  0.00     0.028 H 
ATOM     61  H   UNL A   1      33.396  36.473  29.582  1.00  0.00     0.028 H 
BRANCH  59  62
ATOM     62  C   UNL A   1      33.434  34.711  30.668  1.00  0.00     0.018 C 
ATOM     63  H   UNL A   1      33.703  33.695  30.467  1.00  0.00     0.049 H 
ATOM     64  H   UNL A   1      32.487  34.822  31.152  1.00  0.00     0.049 H 
BRANCH  62  65
ATOM     65  N   UNL A   1      34.430  35.265  31.601  1.00  0.00    -0.352 N 
ATOM     66  C   UNL A   1      35.694  34.762  31.912  1.00  0.00     0.251 C 
ATOM     67  H   UNL A   1      34.172  36.095  32.065  1.00  0.00     0.163 HD
ATOM     68  O   UNL A   1      36.435  35.297  32.713  1.00  0.00    -0.269 OA
BRANCH  66  69
ATOM     69  C   UNL A   1      36.157  33.591  31.132  1.00  0.00     0.039 A 
ATOM     70  C   UNL A   1      36.164  32.362  31.799  1.00  0.00    -0.049 A 
ATOM     71  C   UNL A   1      36.962  33.826  30.021  1.00  0.00    -0.049 A 
ATOM     72  C   UNL A   1      37.213  31.486  31.556  1.00  0.00    -0.053 A 
ATOM     73  H   UNL A   1      35.408  32.112  32.454  1.00  0.00     0.063 H 
ATOM     74  C   UNL A   1      38.053  32.999  29.845  1.00  0.00    -0.053 A 
ATOM     75  H   UNL A   1      36.752  34.586  29.357  1.00  0.00     0.063 H 
ATOM     76  C   UNL A   1      38.226  31.888  30.686  1.00  0.00    -0.014 A 
ATOM     77  H   UNL A   1      37.244  30.559  32.008  1.00  0.00     0.063 H 
ATOM     78  H   UNL A   1      38.737  33.197  29.099  1.00  0.00     0.063 H 
BRANCH  76  79
ATOM     79  C   UNL A   1      39.553  31.284  30.683  1.00  0.00     0.031 A 
ATOM     80  C   UNL A   1      39.751  29.969  30.048  1.00  0.00     0.074 A 
ATOM     81  C   UNL A   1      40.611  31.932  31.224  1.00  0.00     0.049 A 
ATOM     82  N   UNL A   1      40.772  29.210  30.263  1.00  0.00    -0.248 NA
ATOM     83  C   UNL A   1      38.743  29.352  29.197  1.00  0.00    -0.034 C 
ATOM     84  C   UNL A   1      42.025  31.610  31.052  1.00  0.00    -0.036 A 
ATOM     85  N   UNL A   1      40.599  32.908  32.234  1.00  0.00    -0.354 N 
ATOM     86  C   UNL A   1      40.696  28.149  29.396  1.00  0.00     0.074 A 
ATOM     87  C   UNL A   1      39.357  28.213  28.867  1.00  0.00    -0.034 C 
ATOM     88  H   UNL A   1      37.810  29.700  28.923  1.00  0.00     0.065 H 
ATOM     89  C   UNL A   1      42.716  32.116  32.083  1.00  0.00    -0.036 A 
ATOM     90  H   UNL A   1      42.427  31.079  30.263  1.00  0.00     0.065 H 
ATOM     91  C   UNL A   1      41.756  32.667  33.018  1.00  0.00     0.049 A 
ATOM     92  H   UNL A   1      39.926  33.614  32.369  1.00  0.00     0.167 HD
ATOM     93  C   UNL A   1      41.827  27.427  29.155  1.00  0.00     0.037 A 
ATOM     94  H   UNL A   1      38.924  27.466  28.301  1.00  0.00     0.065 H 
ATOM     95  H   UNL A   1      43.742  32.113  32.191  1.00  0.00     0.065 H 
ATOM     96  C   UNL A   1      41.661  32.340  34.339  1.00  0.00     0.037 A 
ATOM     97  C   UNL A   1      42.860  27.729  30.154  1.00  0.00     0.049 A 
ATOM     98  C   UNL A   1      42.216  30.977  34.697  1.00  0.00     0.074 A 
ATOM     99  C   UNL A   1      44.040  28.454  30.166  1.00  0.00    -0.036 A 
ATOM    100  N   UNL A   1      42.588  27.431  31.479  1.00  0.00    -0.354 N 
ATOM    101  N   UNL A   1      42.710  30.136  33.832  1.00  0.00    -0.248 NA
ATOM    102  C   UNL A   1      42.155  30.413  36.048  1.00  0.00    -0.034 C 
ATOM    103  C   UNL A   1      44.452  28.609  31.526  1.00  0.00    -0.036 A 
ATOM    104  H   UNL A   1      44.536  28.819  29.338  1.00  0.00     0.065 H 
ATOM    105  C   UNL A   1      43.529  27.968  32.333  1.00  0.00     0.049 A 
ATOM    106  H   UNL A   1      41.815  26.899  31.777  1.00  0.00     0.167 HD
ATOM    107  C   UNL A   1      42.940  28.937  34.449  1.00  0.00     0.074 A 
ATOM    108  C   UNL A   1      42.597  29.161  35.840  1.00  0.00    -0.034 C 
ATOM    109  H   UNL A   1      41.852  30.859  36.927  1.00  0.00     0.065 H 
ATOM    110  H   UNL A   1      45.292  29.112  31.849  1.00  0.00     0.065 H 
ATOM    111  C   UNL A   1      43.341  27.827  33.768  1.00  0.00     0.037 A 
ATOM    112  H   UNL A   1      42.681  28.446  36.581  1.00  0.00     0.065 H 
BRANCH  93 113
ATOM    113  C   UNL A   1      42.088  26.568  27.927  1.00  0.00     0.064 A 
ATOM    114  C   UNL A   1      41.409  25.338  27.774  1.00  0.00     0.173 A 
ATOM    115  C   UNL A   1      43.054  26.816  26.928  1.00  0.00     0.173 A 
ATOM    116  F   UNL A   1      40.435  24.966  28.617  1.00  0.00    -0.203 F 
ATOM    117  C   UNL A   1      41.716  24.423  26.759  1.00  0.00     0.198 A 
ATOM    118  C   UNL A   1      43.345  25.913  25.903  1.00  0.00     0.198 A 
ATOM    119  F   UNL A   1      43.790  27.925  26.891  1.00  0.00    -0.203 F 
ATOM    120  F   UNL A   1      41.070  23.250  26.705  1.00  0.00    -0.200 F 
ATOM    121  C   UNL A   1      42.690  24.707  25.826  1.00  0.00     0.200 A 
ATOM    122  F   UNL A   1      44.291  26.221  25.003  1.00  0.00    -0.200 F 
ATOM    123  F   UNL A   1      43.000  23.828  24.866  1.00  0.00    -0.200 F 
ENDBRANCH  93 113
BRANCH  96 124
ATOM    124  C   UNL A   1      40.500  32.991  34.997  1.00  0.00     0.064 A 
ATOM    125  C   UNL A   1      39.334  32.224  35.191  1.00  0.00     0.173 A 
ATOM    126  C   UNL A   1      40.658  34.144  35.773  1.00  0.00     0.173 A 
ATOM    127  F   UNL A   1      39.138  31.109  34.470  1.00  0.00    -0.203 F 
ATOM    128  C   UNL A   1      38.436  32.525  36.211  1.00  0.00     0.198 A 
ATOM    129  C   UNL A   1      39.747  34.450  36.784  1.00  0.00     0.198 A 
ATOM    130  F   UNL A   1      41.756  34.903  35.643  1.00  0.00    -0.203 F 
ATOM    131  F   UNL A   1      37.402  31.707  36.453  1.00  0.00    -0.200 F 
ATOM    132  C   UNL A   1      38.661  33.621  37.027  1.00  0.00     0.200 A 
ATOM    133  F   UNL A   1      39.976  35.498  37.588  1.00  0.00    -0.200 F 
ATOM    134  F   UNL A   1      37.856  33.856  38.071  1.00  0.00    -0.200 F 
ENDBRANCH  96 124
BRANCH 111 135
ATOM    135  C   UNL A   1      43.576  26.503  34.426  1.00  0.00     0.064 A 
ATOM    136  C   UNL A   1      44.862  25.965  34.579  1.00  0.00     0.173 A 
ATOM    137  C   UNL A   1      42.499  25.677  34.806  1.00  0.00     0.173 A 
ATOM    138  F   UNL A   1      45.945  26.672  34.222  1.00  0.00    -0.203 F 
ATOM    139  C   UNL A   1      45.059  24.679  35.089  1.00  0.00     0.198 A 
ATOM    140  C   UNL A   1      42.695  24.377  35.268  1.00  0.00     0.198 A 
ATOM    141  F   UNL A   1      41.234  26.122  34.760  1.00  0.00    -0.203 F 
ATOM    142  F   UNL A   1      46.304  24.212  35.253  1.00  0.00    -0.200 F 
ATOM    143  C   UNL A   1      43.975  23.881  35.414  1.00  0.00     0.200 A 
ATOM    144  F   UNL A   1      41.636  23.612  35.571  1.00  0.00    -0.200 F 
ATOM    145  F   UNL A   1      44.165  22.635  35.874  1.00  0.00    -0.200 F 
ENDBRANCH 111 135
ENDBRANCH  76  79
ENDBRANCH  66  69
ENDBRANCH  62  65
ENDBRANCH  59  62
ENDBRANCH  56  59
ENDBRANCH   1  56
TORSDOF 17
ENDMDL
MODEL 10
REMARK VINA RESULT:     -12.1      4.083      9.795
REMARK SMILES Cc1ccc(-c2nn(-c3ccccc3)cc2[C@@H]2[NH2+][C@H](C(=O)NCCCCCCNC(=O)c3ccc(-c4c5nc(c(-c6c(F)c(F)c(F)c(F)c6F)c6ccc([nH]6)c(-c6c(F)c(F)c(F)c(F)c6F)c6nc(c(-c7c(F)c(F)c(F)c(F)c7F)c7ccc4[nH]7)C=C6)C=C5)cc3)CS2)cc1
REMARK SMILES IDX 25 1 24 4 23 7 22 10 20 11 21 12 19 14 17 15 18 16 96 17
REMARK SMILES IDX 95 21 16 25 6 26 7 27 8 28 15 29 5 31 2 32 3 33 98 34 4 35
REMARK SMILES IDX 97 37 1 41 9 45 10 46 14 47 11 48 13 50 12 52 26 56 27 59
REMARK SMILES IDX 28 62 29 65 30 66 31 68 32 69 33 70 94 71 34 72 93 74 35 76
REMARK SMILES IDX 36 79 37 80 87 81 38 82 92 83 86 84 88 85 39 86 91 87 85 89
REMARK SMILES IDX 84 91 40 93 72 96 52 97 71 98 53 99 56 100 70 101 89 102
REMARK SMILES IDX 54 103 55 105 69 107 90 108 57 111 41 113 42 114 50 115
REMARK SMILES IDX 43 116 44 117 48 118 51 119 45 120 46 121 49 122 47 123
REMARK SMILES IDX 73 124 74 125 82 126 75 127 76 128 80 129 83 130 77 131
REMARK SMILES IDX 78 132 81 133 79 134 58 135 59 136 67 137 60 138 61 139
REMARK SMILES IDX 65 140 68 141 62 142 63 143 66 144 64 145
REMARK H PARENT 25 2 25 3 24 5 24 6 23 8 23 9 22 13 17 18 18 19 18 20 19 22
REMARK H PARENT 95 23 95 24 15 30 3 36 98 38 4 39 97 40 1 42 1 43 1 44 10 49
REMARK H PARENT 14 51 11 53 13 54 12 55 26 57 26 58 27 60 27 61 28 63 28 64
REMARK H PARENT 29 67 33 73 94 75 34 77 93 78 92 88 86 90 88 92 91 94 85 95
REMARK H PARENT 53 104 56 106 89 109 54 110 90 112
REMARK Flexibility Score: inf
ROOT
ATOM      1  C   UNL A   1      42.344  22.069  28.150  1.00  0.00    -0.052 C 
ATOM      2  H   UNL A   1      43.072  21.337  28.432  1.00  0.00     0.027 H 
ATOM      3  H   UNL A   1      41.792  22.630  28.875  1.00  0.00     0.027 H 
ENDROOT
BRANCH   1   4
ATOM      4  C   UNL A   1      41.189  21.268  27.487  1.00  0.00    -0.036 C 
ATOM      5  H   UNL A   1      41.659  20.604  26.790  1.00  0.00     0.028 H 
ATOM      6  H   UNL A   1      40.683  20.886  28.348  1.00  0.00     0.028 H 
BRANCH   4   7
ATOM      7  C   UNL A   1      40.030  21.915  26.727  1.00  0.00     0.018 C 
ATOM      8  H   UNL A   1      39.529  22.575  27.405  1.00  0.00     0.049 H 
ATOM      9  H   UNL A   1      40.484  22.390  25.884  1.00  0.00     0.049 H 
BRANCH   7  10
ATOM     10  N   UNL A   1      39.026  21.026  26.161  1.00  0.00    -0.351 N 
ATOM     11  C   UNL A   1      38.053  21.220  25.219  1.00  0.00     0.279 C 
ATOM     12  O   UNL A   1      37.561  20.177  24.756  1.00  0.00    -0.268 OA
ATOM     13  H   UNL A   1      39.052  20.111  26.525  1.00  0.00     0.163 HD
BRANCH  11  14
ATOM     14  C   UNL A   1      37.464  22.567  24.706  1.00  0.00     0.176 C 
ATOM     15  C   UNL A   1      35.196  23.044  23.991  1.00  0.00     0.163 C 
ATOM     16  N   UNL A   1      36.499  22.508  23.582  1.00  0.00    -0.320 N 
ATOM     17  S   UNL A   1      35.550  24.348  25.184  1.00  0.00    -0.087 SA
ATOM     18  H   UNL A   1      34.623  23.468  23.193  1.00  0.00     0.115 H 
ATOM     19  H   UNL A   1      36.858  23.059  22.802  1.00  0.00     0.348 HD
ATOM     20  H   UNL A   1      36.380  21.535  23.300  1.00  0.00     0.348 HD
ATOM     21  C   UNL A   1      36.962  23.443  25.863  1.00  0.00     0.061 C 
ATOM     22  H   UNL A   1      38.308  23.038  24.250  1.00  0.00     0.108 H 
ATOM     23  H   UNL A   1      37.725  24.120  26.181  1.00  0.00     0.045 H 
ATOM     24  H   UNL A   1      36.693  22.861  26.720  1.00  0.00     0.045 H 
BRANCH  15  25
ATOM     25  C   UNL A   1      34.372  21.921  24.531  1.00  0.00     0.067 A 
ATOM     26  C   UNL A   1      32.968  21.918  24.872  1.00  0.00     0.103 A 
ATOM     27  N   UNL A   1      32.597  20.696  25.329  1.00  0.00    -0.167 NA
ATOM     28  N   UNL A   1      33.673  19.898  25.097  1.00  0.00    -0.240 N 
ATOM     29  C   UNL A   1      34.774  20.620  24.754  1.00  0.00     0.041 A 
ATOM     30  H   UNL A   1      35.738  20.260  24.676  1.00  0.00     0.085 H 
BRANCH  26  31
ATOM     31  C   UNL A   1      31.991  23.027  24.730  1.00  0.00     0.003 A 
ATOM     32  C   UNL A   1      30.191  25.216  24.431  1.00  0.00    -0.051 A 
ATOM     33  C   UNL A   1      30.483  24.391  23.350  1.00  0.00    -0.059 A 
ATOM     34  C   UNL A   1      30.762  24.915  25.673  1.00  0.00    -0.059 A 
ATOM     35  C   UNL A   1      31.369  23.319  23.503  1.00  0.00    -0.052 A 
ATOM     36  H   UNL A   1      30.045  24.569  22.433  1.00  0.00     0.063 H 
ATOM     37  C   UNL A   1      31.646  23.828  25.822  1.00  0.00    -0.052 A 
ATOM     38  H   UNL A   1      30.532  25.498  26.492  1.00  0.00     0.063 H 
ATOM     39  H   UNL A   1      31.573  22.721  22.686  1.00  0.00     0.063 H 
ATOM     40  H   UNL A   1      32.044  23.622  26.751  1.00  0.00     0.063 H 
BRANCH  32  41
ATOM     41  C   UNL A   1      29.280  26.393  24.234  1.00  0.00    -0.040 C 
ATOM     42  H   UNL A   1      29.747  27.275  24.618  1.00  0.00     0.028 H 
ATOM     43  H   UNL A   1      28.360  26.222  24.753  1.00  0.00     0.028 H 
ATOM     44  H   UNL A   1      29.082  26.519  23.190  1.00  0.00     0.028 H 
ENDBRANCH  32  41
ENDBRANCH  26  31
BRANCH  28  45
ATOM     45  C   UNL A   1      33.586  18.492  24.963  1.00  0.00     0.065 A 
ATOM     46  C   UNL A   1      32.579  17.796  25.661  1.00  0.00    -0.036 A 
ATOM     47  C   UNL A   1      34.479  17.804  24.147  1.00  0.00    -0.036 A 
ATOM     48  C   UNL A   1      32.526  16.404  25.610  1.00  0.00    -0.060 A 
ATOM     49  H   UNL A   1      31.878  18.319  26.209  1.00  0.00     0.065 H 
ATOM     50  C   UNL A   1      34.358  16.414  24.032  1.00  0.00    -0.060 A 
ATOM     51  H   UNL A   1      35.216  18.310  23.633  1.00  0.00     0.065 H 
ATOM     52  C   UNL A   1      33.408  15.714  24.785  1.00  0.00    -0.062 A 
ATOM     53  H   UNL A   1      31.838  15.890  26.182  1.00  0.00     0.062 H 
ATOM     54  H   UNL A   1      34.976  15.900  23.385  1.00  0.00     0.062 H 
ATOM     55  H   UNL A   1      33.363  14.685  24.729  1.00  0.00     0.062 H 
ENDBRANCH  28  45
ENDBRANCH  15  25
ENDBRANCH  11  14
ENDBRANCH   7  10
ENDBRANCH   4   7
ENDBRANCH   1   4
BRANCH   1  56
ATOM     56  C   UNL A   1      43.141  23.200  27.480  1.00  0.00    -0.052 C 
ATOM     57  H   UNL A   1      44.165  23.078  27.763  1.00  0.00     0.027 H 
ATOM     58  H   UNL A   1      42.665  24.095  27.822  1.00  0.00     0.027 H 
BRANCH  56  59
ATOM     59  C   UNL A   1      43.102  23.311  25.954  1.00  0.00    -0.036 C 
ATOM     60  H   UNL A   1      42.395  22.587  25.603  1.00  0.00     0.028 H 
ATOM     61  H   UNL A   1      44.118  23.162  25.654  1.00  0.00     0.028 H 
BRANCH  59  62
ATOM     62  C   UNL A   1      42.718  24.653  25.330  1.00  0.00     0.018 C 
ATOM     63  H   UNL A   1      42.730  24.537  24.267  1.00  0.00     0.049 H 
ATOM     64  H   UNL A   1      43.430  25.362  25.698  1.00  0.00     0.049 H 
BRANCH  62  65
ATOM     65  N   UNL A   1      41.395  25.176  25.713  1.00  0.00    -0.352 N 
ATOM     66  C   UNL A   1      41.097  26.158  26.659  1.00  0.00     0.251 C 
ATOM     67  H   UNL A   1      40.623  24.784  25.242  1.00  0.00     0.163 HD
ATOM     68  O   UNL A   1      39.960  26.508  26.906  1.00  0.00    -0.269 OA
BRANCH  66  69
ATOM     69  C   UNL A   1      42.245  26.855  27.282  1.00  0.00     0.039 A 
ATOM     70  C   UNL A   1      42.484  26.577  28.632  1.00  0.00    -0.049 A 
ATOM     71  C   UNL A   1      42.698  28.028  26.686  1.00  0.00    -0.049 A 
ATOM     72  C   UNL A   1      42.885  27.617  29.459  1.00  0.00    -0.053 A 
ATOM     73  H   UNL A   1      42.366  25.621  29.003  1.00  0.00     0.063 H 
ATOM     74  C   UNL A   1      43.006  29.083  27.522  1.00  0.00    -0.053 A 
ATOM     75  H   UNL A   1      42.797  28.106  25.663  1.00  0.00     0.063 H 
ATOM     76  C   UNL A   1      42.995  28.895  28.912  1.00  0.00    -0.014 A 
ATOM     77  H   UNL A   1      43.095  27.449  30.455  1.00  0.00     0.063 H 
ATOM     78  H   UNL A   1      43.244  30.005  27.125  1.00  0.00     0.063 H 
BRANCH  76  79
ATOM     79  C   UNL A   1      42.973  30.107  29.723  1.00  0.00     0.031 A 
ATOM     80  C   UNL A   1      41.697  30.807  29.947  1.00  0.00     0.074 A 
ATOM     81  C   UNL A   1      44.104  30.575  30.300  1.00  0.00     0.049 A 
ATOM     82  N   UNL A   1      41.605  32.027  30.357  1.00  0.00    -0.248 NA
ATOM     83  C   UNL A   1      40.409  30.214  29.612  1.00  0.00    -0.034 C 
ATOM     84  C   UNL A   1      44.205  31.582  31.353  1.00  0.00    -0.036 A 
ATOM     85  N   UNL A   1      45.431  30.374  29.885  1.00  0.00    -0.354 N 
ATOM     86  C   UNL A   1      40.280  32.292  30.596  1.00  0.00     0.074 A 
ATOM     87  C   UNL A   1      39.579  31.190  29.985  1.00  0.00    -0.034 C 
ATOM     88  H   UNL A   1      40.197  29.291  29.202  1.00  0.00     0.065 H 
ATOM     89  C   UNL A   1      45.427  32.132  31.314  1.00  0.00    -0.036 A 
ATOM     90  H   UNL A   1      43.457  31.830  32.019  1.00  0.00     0.065 H 
ATOM     91  C   UNL A   1      46.109  31.590  30.155  1.00  0.00     0.049 A 
ATOM     92  H   UNL A   1      45.811  29.558  29.488  1.00  0.00     0.167 HD
ATOM     93  C   UNL A   1      39.964  33.355  31.388  1.00  0.00     0.037 A 
ATOM     94  H   UNL A   1      38.555  31.162  29.850  1.00  0.00     0.065 H 
ATOM     95  H   UNL A   1      45.812  32.815  31.985  1.00  0.00     0.065 H 
ATOM     96  C   UNL A   1      46.671  32.326  29.154  1.00  0.00     0.037 A 
ATOM     97  C   UNL A   1      41.126  34.235  31.566  1.00  0.00     0.049 A 
ATOM     98  C   UNL A   1      46.092  33.715  28.984  1.00  0.00     0.074 A 
ATOM     99  C   UNL A   1      42.019  34.496  32.593  1.00  0.00    -0.036 A 
ATOM    100  N   UNL A   1      41.657  34.844  30.441  1.00  0.00    -0.354 N 
ATOM    101  N   UNL A   1      45.103  34.189  29.688  1.00  0.00    -0.248 NA
ATOM    102  C   UNL A   1      46.515  34.639  27.929  1.00  0.00    -0.034 C 
ATOM    103  C   UNL A   1      43.108  35.246  32.052  1.00  0.00    -0.036 A 
ATOM    104  H   UNL A   1      41.916  34.200  33.575  1.00  0.00     0.065 H 
ATOM    105  C   UNL A   1      42.868  35.450  30.705  1.00  0.00     0.049 A 
ATOM    106  H   UNL A   1      41.223  34.845  29.557  1.00  0.00     0.167 HD
ATOM    107  C   UNL A   1      44.703  35.384  29.158  1.00  0.00     0.074 A 
ATOM    108  C   UNL A   1      45.627  35.638  28.069  1.00  0.00    -0.034 C 
ATOM    109  H   UNL A   1      47.291  34.547  27.254  1.00  0.00     0.065 H 
ATOM    110  H   UNL A   1      43.932  35.579  32.577  1.00  0.00     0.065 H 
ATOM    111  C   UNL A   1      43.607  36.057  29.610  1.00  0.00     0.037 A 
ATOM    112  H   UNL A   1      45.605  36.482  27.475  1.00  0.00     0.065 H 
BRANCH  93 113
ATOM    113  C   UNL A   1      38.662  33.536  32.153  1.00  0.00     0.064 A 
ATOM    114  C   UNL A   1      37.501  33.964  31.471  1.00  0.00     0.173 A 
ATOM    115  C   UNL A   1      38.497  33.427  33.551  1.00  0.00     0.173 A 
ATOM    116  F   UNL A   1      37.477  34.085  30.136  1.00  0.00    -0.203 F 
ATOM    117  C   UNL A   1      36.315  34.308  32.132  1.00  0.00     0.198 A 
ATOM    118  C   UNL A   1      37.307  33.749  34.209  1.00  0.00     0.198 A 
ATOM    119  F   UNL A   1      39.470  33.028  34.367  1.00  0.00    -0.203 F 
ATOM    120  F   UNL A   1      35.268  34.758  31.428  1.00  0.00    -0.200 F 
ATOM    121  C   UNL A   1      36.220  34.207  33.504  1.00  0.00     0.200 A 
ATOM    122  F   UNL A   1      37.240  33.631  35.544  1.00  0.00    -0.200 F 
ATOM    123  F   UNL A   1      35.095  34.553  34.142  1.00  0.00    -0.200 F 
ENDBRANCH  93 113
BRANCH  96 124
ATOM    124  C   UNL A   1      47.188  31.474  28.053  1.00  0.00     0.064 A 
ATOM    125  C   UNL A   1      48.444  30.861  28.226  1.00  0.00     0.173 A 
ATOM    126  C   UNL A   1      46.332  30.944  27.082  1.00  0.00     0.173 A 
ATOM    127  F   UNL A   1      49.300  31.333  29.146  1.00  0.00    -0.203 F 
ATOM    128  C   UNL A   1      48.771  29.687  27.553  1.00  0.00     0.198 A 
ATOM    129  C   UNL A   1      46.670  29.777  26.398  1.00  0.00     0.198 A 
ATOM    130  F   UNL A   1      45.117  31.477  26.885  1.00  0.00    -0.203 F 
ATOM    131  F   UNL A   1      49.921  29.057  27.830  1.00  0.00    -0.200 F 
ATOM    132  C   UNL A   1      47.869  29.130  26.661  1.00  0.00     0.200 A 
ATOM    133  F   UNL A   1      45.789  29.225  25.552  1.00  0.00    -0.200 F 
ATOM    134  F   UNL A   1      48.137  27.949  26.088  1.00  0.00    -0.200 F 
ENDBRANCH  96 124
BRANCH 111 135
ATOM    135  C   UNL A   1      43.144  37.355  29.025  1.00  0.00     0.064 A 
ATOM    136  C   UNL A   1      42.337  37.410  27.879  1.00  0.00     0.173 A 
ATOM    137  C   UNL A   1      43.608  38.587  29.527  1.00  0.00     0.173 A 
ATOM    138  F   UNL A   1      41.868  36.284  27.320  1.00  0.00    -0.203 F 
ATOM    139  C   UNL A   1      42.008  38.626  27.277  1.00  0.00     0.198 A 
ATOM    140  C   UNL A   1      43.321  39.795  28.896  1.00  0.00     0.198 A 
ATOM    141  F   UNL A   1      44.333  38.648  30.655  1.00  0.00    -0.203 F 
ATOM    142  F   UNL A   1      41.205  38.642  26.204  1.00  0.00    -0.200 F 
ATOM    143  C   UNL A   1      42.516  39.815  27.774  1.00  0.00     0.200 A 
ATOM    144  F   UNL A   1      43.826  40.937  29.383  1.00  0.00    -0.200 F 
ATOM    145  F   UNL A   1      42.225  40.979  27.176  1.00  0.00    -0.200 F 
ENDBRANCH 111 135
ENDBRANCH  76  79
ENDBRANCH  66  69
ENDBRANCH  62  65
ENDBRANCH  59  62
ENDBRANCH  56  59
ENDBRANCH   1  56
TORSDOF 17
ENDMDL
