MODEL 1
REMARK VINA RESULT:     -12.7      0.000      0.000
REMARK SMILES O=C(Cc1ccccc1Nc1c(F)cccc1C(F)(F)F)NCCCCCCNC(=O)c1ccc(-c2c3nc(c(-c4c(F)c(F)c(F)c(F)c4F)c4ccc([nH]4)c(-c4c(F)c(F)c(F)c(F)c4F)c4nc(c(-c5c(F)c(F)c(F)c(F)c5F)c5ccc2[nH]5)C=C4)C=C3)cc1
REMARK SMILES IDX 24 1 23 4 22 7 1 8 2 9 3 11 4 14 5 15 9 16 6 17 8 19 7 20
REMARK SMILES IDX 10 24 11 26 12 27 17 28 13 29 14 30 16 31 15 32 18 36 19 37
REMARK SMILES IDX 20 38 21 39 25 40 26 43 27 46 28 49 29 52 30 53 31 55 32 56
REMARK SMILES IDX 33 57 94 58 34 59 93 61 35 63 36 66 37 67 87 68 38 69 92 70
REMARK SMILES IDX 86 71 88 72 39 73 91 74 85 76 84 78 40 80 72 83 52 84 71 85
REMARK SMILES IDX 53 86 56 87 70 88 89 89 54 90 55 92 69 94 90 95 57 98 41 100
REMARK SMILES IDX 42 101 50 102 43 103 44 104 48 105 51 106 45 107 46 108
REMARK SMILES IDX 49 109 47 110 73 111 74 112 82 113 75 114 76 115 80 116
REMARK SMILES IDX 83 117 77 118 78 119 81 120 79 121 58 122 59 123 67 124
REMARK SMILES IDX 60 125 61 126 65 127 68 128 62 129 63 130 66 131 64 132
REMARK H PARENT 24 2 24 3 23 5 23 6 22 10 3 12 3 13 5 18 6 21 8 22 7 23 10 25
REMARK H PARENT 14 33 16 34 15 35 25 41 25 42 26 44 26 45 27 47 27 48 28 50
REMARK H PARENT 28 51 29 54 33 60 94 62 34 64 93 65 92 75 86 77 88 79 91 81
REMARK H PARENT 85 82 53 91 56 93 89 96 54 97 90 99
REMARK Flexibility Score: inf
ROOT
ATOM      1  C   UNL A   1      31.974  26.276  26.213  1.00  0.00    -0.036 C 
ATOM      2  H   UNL A   1      31.822  26.088  27.255  1.00  0.00     0.028 H 
ATOM      3  H   UNL A   1      31.252  26.944  25.792  1.00  0.00     0.028 H 
ENDROOT
BRANCH   1   4
ATOM      4  C   UNL A   1      31.820  24.949  25.464  1.00  0.00     0.017 C 
ATOM      5  H   UNL A   1      30.851  24.543  25.669  1.00  0.00     0.049 H 
ATOM      6  H   UNL A   1      31.936  25.135  24.417  1.00  0.00     0.049 H 
BRANCH   4   7
ATOM      7  N   UNL A   1      32.827  23.993  25.872  1.00  0.00    -0.356 N 
ATOM      8  O   UNL A   1      31.680  23.066  27.626  1.00  0.00    -0.275 OA
ATOM      9  C   UNL A   1      32.698  23.145  26.945  1.00  0.00     0.224 C 
ATOM     10  H   UNL A   1      33.658  23.950  25.347  1.00  0.00     0.163 HD
BRANCH   9  11
ATOM     11  C   UNL A   1      33.978  22.417  27.319  1.00  0.00     0.054 C 
ATOM     12  H   UNL A   1      33.722  21.402  27.536  1.00  0.00     0.042 H 
ATOM     13  H   UNL A   1      34.381  22.963  28.147  1.00  0.00     0.042 H 
BRANCH  11  14
ATOM     14  C   UNL A   1      35.080  22.401  26.278  1.00  0.00    -0.015 A 
ATOM     15  C   UNL A   1      35.863  23.563  26.130  1.00  0.00    -0.056 A 
ATOM     16  C   UNL A   1      35.332  21.296  25.435  1.00  0.00     0.042 A 
ATOM     17  C   UNL A   1      36.847  23.648  25.145  1.00  0.00    -0.062 A 
ATOM     18  H   UNL A   1      35.706  24.364  26.761  1.00  0.00     0.063 H 
ATOM     19  C   UNL A   1      36.314  21.412  24.438  1.00  0.00    -0.038 A 
ATOM     20  C   UNL A   1      37.066  22.576  24.292  1.00  0.00    -0.060 A 
ATOM     21  H   UNL A   1      37.411  24.507  25.052  1.00  0.00     0.062 H 
ATOM     22  H   UNL A   1      36.483  20.618  23.800  1.00  0.00     0.064 H 
ATOM     23  H   UNL A   1      37.783  22.641  23.551  1.00  0.00     0.062 H 
BRANCH  16  24
ATOM     24  N   UNL A   1      34.600  20.094  25.573  1.00  0.00    -0.352 N 
ATOM     25  H   UNL A   1      34.445  19.797  26.499  1.00  0.00     0.167 HD
BRANCH  24  26
ATOM     26  C   UNL A   1      34.055  19.257  24.568  1.00  0.00     0.087 A 
ATOM     27  C   UNL A   1      34.654  17.992  24.390  1.00  0.00     0.147 A 
ATOM     28  C   UNL A   1      32.966  19.595  23.740  1.00  0.00     0.082 A 
ATOM     29  F   UNL A   1      35.729  17.675  25.131  1.00  0.00    -0.205 F 
ATOM     30  C   UNL A   1      34.190  17.066  23.463  1.00  0.00    -0.024 A 
ATOM     31  C   UNL A   1      32.485  18.632  22.818  1.00  0.00    -0.048 A 
ATOM     32  C   UNL A   1      33.091  17.383  22.679  1.00  0.00    -0.059 A 
ATOM     33  H   UNL A   1      34.659  16.152  23.360  1.00  0.00     0.065 H 
ATOM     34  H   UNL A   1      31.666  18.861  22.234  1.00  0.00     0.063 H 
ATOM     35  H   UNL A   1      32.724  16.701  21.998  1.00  0.00     0.062 H 
BRANCH  28  36
ATOM     36  C   UNL A   1      32.308  20.957  23.703  1.00  0.00     0.418 C 
ATOM     37  F   UNL A   1      31.422  21.060  22.664  1.00  0.00    -0.166 F 
ATOM     38  F   UNL A   1      31.576  21.222  24.819  1.00  0.00    -0.166 F 
ATOM     39  F   UNL A   1      33.157  22.002  23.524  1.00  0.00    -0.166 F 
ENDBRANCH  28  36
ENDBRANCH  24  26
ENDBRANCH  16  24
ENDBRANCH  11  14
ENDBRANCH   9  11
ENDBRANCH   4   7
ENDBRANCH   1   4
BRANCH   1  40
ATOM     40  C   UNL A   1      33.338  26.958  26.045  1.00  0.00    -0.052 C 
ATOM     41  H   UNL A   1      34.084  26.195  25.971  1.00  0.00     0.027 H 
ATOM     42  H   UNL A   1      33.460  27.593  26.897  1.00  0.00     0.027 H 
BRANCH  40  43
ATOM     43  C   UNL A   1      33.465  27.864  24.819  1.00  0.00    -0.052 C 
ATOM     44  H   UNL A   1      32.821  27.477  24.058  1.00  0.00     0.027 H 
ATOM     45  H   UNL A   1      34.503  27.854  24.561  1.00  0.00     0.027 H 
BRANCH  43  46
ATOM     46  C   UNL A   1      33.108  29.330  25.031  1.00  0.00    -0.036 C 
ATOM     47  H   UNL A   1      32.335  29.589  24.337  1.00  0.00     0.028 H 
ATOM     48  H   UNL A   1      34.009  29.887  24.880  1.00  0.00     0.028 H 
BRANCH  46  49
ATOM     49  C   UNL A   1      32.620  29.667  26.433  1.00  0.00     0.018 C 
ATOM     50  H   UNL A   1      33.326  29.285  27.141  1.00  0.00     0.049 H 
ATOM     51  H   UNL A   1      31.655  29.221  26.552  1.00  0.00     0.049 H 
BRANCH  49  52
ATOM     52  N   UNL A   1      32.469  31.098  26.654  1.00  0.00    -0.352 N 
ATOM     53  C   UNL A   1      33.291  31.974  27.326  1.00  0.00     0.251 C 
ATOM     54  H   UNL A   1      31.659  31.499  26.265  1.00  0.00     0.163 HD
ATOM     55  O   UNL A   1      32.930  33.125  27.536  1.00  0.00    -0.269 OA
BRANCH  53  56
ATOM     56  C   UNL A   1      34.600  31.506  27.833  1.00  0.00     0.039 A 
ATOM     57  C   UNL A   1      35.648  32.423  27.946  1.00  0.00    -0.049 A 
ATOM     58  C   UNL A   1      34.782  30.180  28.231  1.00  0.00    -0.049 A 
ATOM     59  C   UNL A   1      36.846  32.032  28.549  1.00  0.00    -0.053 A 
ATOM     60  H   UNL A   1      35.537  33.383  27.586  1.00  0.00     0.063 H 
ATOM     61  C   UNL A   1      35.942  29.815  28.909  1.00  0.00    -0.053 A 
ATOM     62  H   UNL A   1      34.059  29.472  28.024  1.00  0.00     0.063 H 
ATOM     63  C   UNL A   1      36.980  30.741  29.084  1.00  0.00    -0.014 A 
ATOM     64  H   UNL A   1      37.635  32.695  28.602  1.00  0.00     0.063 H 
ATOM     65  H   UNL A   1      36.038  28.857  29.283  1.00  0.00     0.063 H 
BRANCH  63  66
ATOM     66  C   UNL A   1      38.181  30.349  29.866  1.00  0.00     0.031 A 
ATOM     67  C   UNL A   1      39.155  29.349  29.315  1.00  0.00     0.074 A 
ATOM     68  C   UNL A   1      38.342  30.831  31.114  1.00  0.00     0.049 A 
ATOM     69  N   UNL A   1      40.212  28.822  29.882  1.00  0.00    -0.248 NA
ATOM     70  C   UNL A   1      38.890  28.851  27.958  1.00  0.00    -0.034 C 
ATOM     71  C   UNL A   1      37.431  31.756  31.788  1.00  0.00    -0.036 A 
ATOM     72  N   UNL A   1      39.321  30.590  32.048  1.00  0.00    -0.354 N 
ATOM     73  C   UNL A   1      40.729  27.927  28.957  1.00  0.00     0.074 A 
ATOM     74  C   UNL A   1      39.837  27.935  27.817  1.00  0.00    -0.034 C 
ATOM     75  H   UNL A   1      38.158  29.139  27.289  1.00  0.00     0.065 H 
ATOM     76  C   UNL A   1      37.897  32.016  33.018  1.00  0.00    -0.036 A 
ATOM     77  H   UNL A   1      36.566  32.146  31.380  1.00  0.00     0.065 H 
ATOM     78  C   UNL A   1      39.118  31.247  33.237  1.00  0.00     0.049 A 
ATOM     79  H   UNL A   1      40.093  30.004  31.880  1.00  0.00     0.167 HD
ATOM     80  C   UNL A   1      41.860  27.185  29.038  1.00  0.00     0.037 A 
ATOM     81  H   UNL A   1      39.928  27.310  27.002  1.00  0.00     0.065 H 
ATOM     82  H   UNL A   1      37.463  32.657  33.701  1.00  0.00     0.065 H 
ATOM     83  C   UNL A   1      39.828  31.221  34.381  1.00  0.00     0.037 A 
ATOM     84  C   UNL A   1      42.749  27.186  30.171  1.00  0.00     0.049 A 
ATOM     85  C   UNL A   1      41.074  30.383  34.455  1.00  0.00     0.074 A 
ATOM     86  C   UNL A   1      43.953  26.523  30.325  1.00  0.00    -0.036 A 
ATOM     87  N   UNL A   1      42.522  27.880  31.351  1.00  0.00    -0.354 N 
ATOM     88  N   UNL A   1      41.600  29.604  33.542  1.00  0.00    -0.248 NA
ATOM     89  C   UNL A   1      41.828  30.425  35.715  1.00  0.00    -0.034 C 
ATOM     90  C   UNL A   1      44.430  26.774  31.617  1.00  0.00    -0.036 A 
ATOM     91  H   UNL A   1      44.420  25.942  29.610  1.00  0.00     0.065 H 
ATOM     92  C   UNL A   1      43.549  27.636  32.251  1.00  0.00     0.049 A 
ATOM     93  H   UNL A   1      41.747  28.461  31.525  1.00  0.00     0.167 HD
ATOM     94  C   UNL A   1      42.750  29.073  34.109  1.00  0.00     0.074 A 
ATOM     95  C   UNL A   1      42.857  29.637  35.439  1.00  0.00    -0.034 C 
ATOM     96  H   UNL A   1      41.612  30.935  36.586  1.00  0.00     0.065 H 
ATOM     97  H   UNL A   1      45.292  26.383  32.028  1.00  0.00     0.065 H 
ATOM     98  C   UNL A   1      43.635  28.194  33.576  1.00  0.00     0.037 A 
ATOM     99  H   UNL A   1      43.636  29.451  36.089  1.00  0.00     0.065 H 
BRANCH  80 100
ATOM    100  C   UNL A   1      42.194  26.310  27.865  1.00  0.00     0.064 A 
ATOM    101  C   UNL A   1      43.113  26.715  26.883  1.00  0.00     0.173 A 
ATOM    102  C   UNL A   1      41.599  25.047  27.721  1.00  0.00     0.173 A 
ATOM    103  F   UNL A   1      43.702  27.917  26.966  1.00  0.00    -0.203 F 
ATOM    104  C   UNL A   1      43.389  25.909  25.782  1.00  0.00     0.198 A 
ATOM    105  C   UNL A   1      41.904  24.229  26.636  1.00  0.00     0.198 A 
ATOM    106  F   UNL A   1      40.719  24.606  28.633  1.00  0.00    -0.203 F 
ATOM    107  F   UNL A   1      44.221  26.347  24.826  1.00  0.00    -0.200 F 
ATOM    108  C   UNL A   1      42.790  24.666  25.661  1.00  0.00     0.200 A 
ATOM    109  F   UNL A   1      41.333  23.022  26.527  1.00  0.00    -0.200 F 
ATOM    110  F   UNL A   1      43.055  23.891  24.601  1.00  0.00    -0.200 F 
ENDBRANCH  80 100
BRANCH  83 111
ATOM    111  C   UNL A   1      39.374  32.029  35.542  1.00  0.00     0.064 A 
ATOM    112  C   UNL A   1      39.781  33.361  35.698  1.00  0.00     0.173 A 
ATOM    113  C   UNL A   1      38.499  31.496  36.501  1.00  0.00     0.173 A 
ATOM    114  F   UNL A   1      40.631  33.907  34.817  1.00  0.00    -0.203 F 
ATOM    115  C   UNL A   1      39.338  34.127  36.775  1.00  0.00     0.198 A 
ATOM    116  C   UNL A   1      38.036  32.271  37.562  1.00  0.00     0.198 A 
ATOM    117  F   UNL A   1      38.075  30.228  36.393  1.00  0.00    -0.203 F 
ATOM    118  F   UNL A   1      39.769  35.387  36.918  1.00  0.00    -0.200 F 
ATOM    119  C   UNL A   1      38.461  33.584  37.701  1.00  0.00     0.200 A 
ATOM    120  F   UNL A   1      37.175  31.748  38.446  1.00  0.00    -0.200 F 
ATOM    121  F   UNL A   1      38.024  34.325  38.728  1.00  0.00    -0.200 F 
ENDBRANCH  83 111
BRANCH  98 122
ATOM    122  C   UNL A   1      44.801  27.792  34.432  1.00  0.00     0.064 A 
ATOM    123  C   UNL A   1      45.989  28.538  34.450  1.00  0.00     0.173 A 
ATOM    124  C   UNL A   1      44.716  26.672  35.274  1.00  0.00     0.173 A 
ATOM    125  F   UNL A   1      46.127  29.607  33.651  1.00  0.00    -0.203 F 
ATOM    126  C   UNL A   1      47.057  28.165  35.262  1.00  0.00     0.198 A 
ATOM    127  C   UNL A   1      45.774  26.319  36.107  1.00  0.00     0.198 A 
ATOM    128  F   UNL A   1      43.600  25.929  35.298  1.00  0.00    -0.203 F 
ATOM    129  F   UNL A   1      48.198  28.866  35.230  1.00  0.00    -0.200 F 
ATOM    130  C   UNL A   1      46.945  27.061  36.095  1.00  0.00     0.200 A 
ATOM    131  F   UNL A   1      45.660  25.260  36.920  1.00  0.00    -0.200 F 
ATOM    132  F   UNL A   1      47.971  26.708  36.883  1.00  0.00    -0.200 F 
ENDBRANCH  98 122
ENDBRANCH  63  66
ENDBRANCH  53  56
ENDBRANCH  49  52
ENDBRANCH  46  49
ENDBRANCH  43  46
ENDBRANCH  40  43
ENDBRANCH   1  40
TORSDOF 17
ENDMDL
MODEL 2
REMARK VINA RESULT:     -12.7      0.381      7.031
REMARK SMILES O=C(Cc1ccccc1Nc1c(F)cccc1C(F)(F)F)NCCCCCCNC(=O)c1ccc(-c2c3nc(c(-c4c(F)c(F)c(F)c(F)c4F)c4ccc([nH]4)c(-c4c(F)c(F)c(F)c(F)c4F)c4nc(c(-c5c(F)c(F)c(F)c(F)c5F)c5ccc2[nH]5)C=C4)C=C3)cc1
REMARK SMILES IDX 24 1 23 4 22 7 1 8 2 9 3 11 4 14 5 15 9 16 6 17 8 19 7 20
REMARK SMILES IDX 10 24 11 26 12 27 17 28 13 29 14 30 16 31 15 32 18 36 19 37
REMARK SMILES IDX 20 38 21 39 25 40 26 43 27 46 28 49 29 52 30 53 31 55 32 56
REMARK SMILES IDX 33 57 94 58 34 59 93 61 35 63 36 66 37 67 87 68 38 69 92 70
REMARK SMILES IDX 86 71 88 72 39 73 91 74 85 76 84 78 40 80 72 83 52 84 71 85
REMARK SMILES IDX 53 86 56 87 70 88 89 89 54 90 55 92 69 94 90 95 57 98 41 100
REMARK SMILES IDX 42 101 50 102 43 103 44 104 48 105 51 106 45 107 46 108
REMARK SMILES IDX 49 109 47 110 73 111 74 112 82 113 75 114 76 115 80 116
REMARK SMILES IDX 83 117 77 118 78 119 81 120 79 121 58 122 59 123 67 124
REMARK SMILES IDX 60 125 61 126 65 127 68 128 62 129 63 130 66 131 64 132
REMARK H PARENT 24 2 24 3 23 5 23 6 22 10 3 12 3 13 5 18 6 21 8 22 7 23 10 25
REMARK H PARENT 14 33 16 34 15 35 25 41 25 42 26 44 26 45 27 47 27 48 28 50
REMARK H PARENT 28 51 29 54 33 60 94 62 34 64 93 65 92 75 86 77 88 79 91 81
REMARK H PARENT 85 82 53 91 56 93 89 96 54 97 90 99
REMARK Flexibility Score: inf
ROOT
ATOM      1  C   UNL A   1      32.000  26.494  26.397  1.00  0.00    -0.036 C 
ATOM      2  H   UNL A   1      31.871  26.240  27.428  1.00  0.00     0.028 H 
ATOM      3  H   UNL A   1      31.250  27.161  26.026  1.00  0.00     0.028 H 
ENDROOT
BRANCH   1   4
ATOM      4  C   UNL A   1      31.877  25.208  25.573  1.00  0.00     0.017 C 
ATOM      5  H   UNL A   1      30.906  24.786  25.728  1.00  0.00     0.049 H 
ATOM      6  H   UNL A   1      32.023  25.452  24.541  1.00  0.00     0.049 H 
BRANCH   4   7
ATOM      7  N   UNL A   1      32.879  24.238  25.959  1.00  0.00    -0.356 N 
ATOM      8  O   UNL A   1      31.679  23.194  27.609  1.00  0.00    -0.275 OA
ATOM      9  C   UNL A   1      32.721  23.324  26.972  1.00  0.00     0.224 C 
ATOM     10  H   UNL A   1      33.729  24.233  25.463  1.00  0.00     0.163 HD
BRANCH   9  11
ATOM     11  C   UNL A   1      33.994  22.584  27.348  1.00  0.00     0.054 C 
ATOM     12  H   UNL A   1      33.723  21.581  27.599  1.00  0.00     0.042 H 
ATOM     13  H   UNL A   1      34.420  23.148  28.152  1.00  0.00     0.042 H 
BRANCH  11  14
ATOM     14  C   UNL A   1      35.078  22.518  26.290  1.00  0.00    -0.015 A 
ATOM     15  C   UNL A   1      35.917  23.638  26.135  1.00  0.00    -0.056 A 
ATOM     16  C   UNL A   1      35.260  21.406  25.438  1.00  0.00     0.042 A 
ATOM     17  C   UNL A   1      36.889  23.678  25.136  1.00  0.00    -0.062 A 
ATOM     18  H   UNL A   1      35.811  24.443  26.773  1.00  0.00     0.063 H 
ATOM     19  C   UNL A   1      36.232  21.476  24.426  1.00  0.00    -0.038 A 
ATOM     20  C   UNL A   1      37.040  22.601  24.274  1.00  0.00    -0.060 A 
ATOM     21  H   UNL A   1      37.496  24.507  25.038  1.00  0.00     0.062 H 
ATOM     22  H   UNL A   1      36.350  20.678  23.782  1.00  0.00     0.064 H 
ATOM     23  H   UNL A   1      37.748  22.633  23.524  1.00  0.00     0.062 H 
BRANCH  16  24
ATOM     24  N   UNL A   1      34.469  20.242  25.581  1.00  0.00    -0.352 N 
ATOM     25  H   UNL A   1      34.281  19.970  26.509  1.00  0.00     0.167 HD
BRANCH  24  26
ATOM     26  C   UNL A   1      33.907  19.412  24.580  1.00  0.00     0.087 A 
ATOM     27  C   UNL A   1      34.464  18.126  24.423  1.00  0.00     0.147 A 
ATOM     28  C   UNL A   1      32.838  19.778  23.736  1.00  0.00     0.082 A 
ATOM     29  F   UNL A   1      35.519  17.781  25.179  1.00  0.00    -0.205 F 
ATOM     30  C   UNL A   1      33.978  17.206  23.501  1.00  0.00    -0.024 A 
ATOM     31  C   UNL A   1      32.335  18.821  22.819  1.00  0.00    -0.048 A 
ATOM     32  C   UNL A   1      32.900  17.551  22.701  1.00  0.00    -0.059 A 
ATOM     33  H   UNL A   1      34.417  16.275  23.413  1.00  0.00     0.065 H 
ATOM     34  H   UNL A   1      31.531  19.072  22.223  1.00  0.00     0.063 H 
ATOM     35  H   UNL A   1      32.516  16.873  22.023  1.00  0.00     0.062 H 
BRANCH  28  36
ATOM     36  C   UNL A   1      32.228  21.160  23.676  1.00  0.00     0.418 C 
ATOM     37  F   UNL A   1      31.383  21.293  22.607  1.00  0.00    -0.166 F 
ATOM     38  F   UNL A   1      31.466  21.451  24.765  1.00  0.00    -0.166 F 
ATOM     39  F   UNL A   1      33.117  22.177  23.527  1.00  0.00    -0.166 F 
ENDBRANCH  28  36
ENDBRANCH  24  26
ENDBRANCH  16  24
ENDBRANCH  11  14
ENDBRANCH   9  11
ENDBRANCH   4   7
ENDBRANCH   1   4
BRANCH   1  40
ATOM     40  C   UNL A   1      33.339  27.229  26.251  1.00  0.00    -0.052 C 
ATOM     41  H   UNL A   1      34.109  26.496  26.135  1.00  0.00     0.027 H 
ATOM     42  H   UNL A   1      33.447  27.827  27.132  1.00  0.00     0.027 H 
BRANCH  40  43
ATOM     43  C   UNL A   1      33.423  28.197  25.070  1.00  0.00    -0.052 C 
ATOM     44  H   UNL A   1      33.030  27.697  24.209  1.00  0.00     0.027 H 
ATOM     45  H   UNL A   1      34.457  28.461  24.988  1.00  0.00     0.027 H 
BRANCH  43  46
ATOM     46  C   UNL A   1      32.674  29.513  25.227  1.00  0.00    -0.036 C 
ATOM     47  H   UNL A   1      31.716  29.409  24.762  1.00  0.00     0.028 H 
ATOM     48  H   UNL A   1      33.282  30.266  24.771  1.00  0.00     0.028 H 
BRANCH  46  49
ATOM     49  C   UNL A   1      32.456  29.949  26.670  1.00  0.00     0.018 C 
ATOM     50  H   UNL A   1      33.227  29.520  27.276  1.00  0.00     0.049 H 
ATOM     51  H   UNL A   1      31.484  29.611  26.963  1.00  0.00     0.049 H 
BRANCH  49  52
ATOM     52  N   UNL A   1      32.483  31.395  26.838  1.00  0.00    -0.352 N 
ATOM     53  C   UNL A   1      33.421  32.189  27.459  1.00  0.00     0.251 C 
ATOM     54  H   UNL A   1      31.718  31.876  26.449  1.00  0.00     0.163 HD
ATOM     55  O   UNL A   1      33.205  33.382  27.631  1.00  0.00    -0.269 OA
BRANCH  53  56
ATOM     56  C   UNL A   1      34.675  31.584  27.959  1.00  0.00     0.039 A 
ATOM     57  C   UNL A   1      35.796  32.400  28.132  1.00  0.00    -0.049 A 
ATOM     58  C   UNL A   1      34.737  30.229  28.290  1.00  0.00    -0.049 A 
ATOM     59  C   UNL A   1      36.945  31.878  28.730  1.00  0.00    -0.053 A 
ATOM     60  H   UNL A   1      35.774  33.383  27.820  1.00  0.00     0.063 H 
ATOM     61  C   UNL A   1      35.848  29.732  28.963  1.00  0.00    -0.053 A 
ATOM     62  H   UNL A   1      33.959  29.598  28.038  1.00  0.00     0.063 H 
ATOM     63  C   UNL A   1      36.959  30.555  29.200  1.00  0.00    -0.014 A 
ATOM     64  H   UNL A   1      37.788  32.467  28.828  1.00  0.00     0.063 H 
ATOM     65  H   UNL A   1      35.855  28.752  29.289  1.00  0.00     0.063 H 
BRANCH  63  66
ATOM     66  C   UNL A   1      38.108  30.022  29.976  1.00  0.00     0.031 A 
ATOM     67  C   UNL A   1      38.362  30.493  31.378  1.00  0.00     0.074 A 
ATOM     68  C   UNL A   1      38.975  29.180  29.380  1.00  0.00     0.049 A 
ATOM     69  N   UNL A   1      39.357  30.208  32.181  1.00  0.00    -0.248 NA
ATOM     70  C   UNL A   1      37.385  31.434  31.944  1.00  0.00    -0.034 C 
ATOM     71  C   UNL A   1      38.876  28.701  28.001  1.00  0.00    -0.036 A 
ATOM     72  N   UNL A   1      40.124  28.596  29.853  1.00  0.00    -0.354 N 
ATOM     73  C   UNL A   1      39.130  30.940  33.338  1.00  0.00     0.074 A 
ATOM     74  C   UNL A   1      37.938  31.729  33.111  1.00  0.00    -0.034 C 
ATOM     75  H   UNL A   1      36.499  31.776  31.539  1.00  0.00     0.065 H 
ATOM     76  C   UNL A   1      39.910  27.887  27.743  1.00  0.00    -0.036 A 
ATOM     77  H   UNL A   1      38.129  28.951  27.334  1.00  0.00     0.065 H 
ATOM     78  C   UNL A   1      40.767  27.816  28.922  1.00  0.00     0.049 A 
ATOM     79  H   UNL A   1      40.456  28.722  30.771  1.00  0.00     0.167 HD
ATOM     80  C   UNL A   1      39.835  30.934  34.495  1.00  0.00     0.037 A 
ATOM     81  H   UNL A   1      37.568  32.429  33.772  1.00  0.00     0.065 H 
ATOM     82  H   UNL A   1      40.074  27.390  26.853  1.00  0.00     0.065 H 
ATOM     83  C   UNL A   1      41.924  27.133  29.004  1.00  0.00     0.037 A 
ATOM     84  C   UNL A   1      41.015  30.140  34.719  1.00  0.00     0.049 A 
ATOM     85  C   UNL A   1      42.698  27.148  30.293  1.00  0.00     0.074 A 
ATOM     86  C   UNL A   1      41.764  30.012  35.876  1.00  0.00    -0.036 A 
ATOM     87  N   UNL A   1      41.627  29.346  33.759  1.00  0.00    -0.354 N 
ATOM     88  N   UNL A   1      42.428  27.778  31.410  1.00  0.00    -0.248 NA
ATOM     89  C   UNL A   1      43.933  26.353  30.335  1.00  0.00    -0.034 C 
ATOM     90  C   UNL A   1      42.856  29.182  35.601  1.00  0.00    -0.036 A 
ATOM     91  H   UNL A   1      41.553  30.454  36.785  1.00  0.00     0.065 H 
ATOM     92  C   UNL A   1      42.761  28.750  34.288  1.00  0.00     0.049 A 
ATOM     93  H   UNL A   1      41.303  29.224  32.838  1.00  0.00     0.167 HD
ATOM     94  C   UNL A   1      43.450  27.448  32.291  1.00  0.00     0.074 A 
ATOM     95  C   UNL A   1      44.332  26.543  31.584  1.00  0.00    -0.034 C 
ATOM     96  H   UNL A   1      44.372  25.794  29.587  1.00  0.00     0.065 H 
ATOM     97  H   UNL A   1      43.606  28.933  36.266  1.00  0.00     0.065 H 
ATOM     98  C   UNL A   1      43.638  27.862  33.568  1.00  0.00     0.037 A 
ATOM     99  H   UNL A   1      45.167  26.101  32.000  1.00  0.00     0.065 H 
BRANCH  80 100
ATOM    100  C   UNL A   1      39.342  31.817  35.605  1.00  0.00     0.064 A 
ATOM    101  C   UNL A   1      39.791  33.141  35.746  1.00  0.00     0.173 A 
ATOM    102  C   UNL A   1      38.403  31.344  36.533  1.00  0.00     0.173 A 
ATOM    103  F   UNL A   1      40.698  33.640  34.892  1.00  0.00    -0.203 F 
ATOM    104  C   UNL A   1      39.352  33.939  36.798  1.00  0.00     0.198 A 
ATOM    105  C   UNL A   1      37.940  32.157  37.564  1.00  0.00     0.198 A 
ATOM    106  F   UNL A   1      37.934  30.090  36.441  1.00  0.00    -0.203 F 
ATOM    107  F   UNL A   1      39.845  35.177  36.948  1.00  0.00    -0.200 F 
ATOM    108  C   UNL A   1      38.424  33.450  37.703  1.00  0.00     0.200 A 
ATOM    109  F   UNL A   1      37.032  31.687  38.431  1.00  0.00    -0.200 F 
ATOM    110  F   UNL A   1      38.002  34.219  38.716  1.00  0.00    -0.200 F 
ENDBRANCH  80 100
BRANCH  83 111
ATOM    111  C   UNL A   1      42.408  26.370  27.825  1.00  0.00     0.064 A 
ATOM    112  C   UNL A   1      43.335  26.928  26.934  1.00  0.00     0.173 A 
ATOM    113  C   UNL A   1      41.978  25.057  27.583  1.00  0.00     0.173 A 
ATOM    114  F   UNL A   1      43.760  28.187  27.115  1.00  0.00    -0.203 F 
ATOM    115  C   UNL A   1      43.806  26.206  25.840  1.00  0.00     0.198 A 
ATOM    116  C   UNL A   1      42.471  24.325  26.503  1.00  0.00     0.198 A 
ATOM    117  F   UNL A   1      41.096  24.474  28.409  1.00  0.00    -0.203 F 
ATOM    118  F   UNL A   1      44.667  26.775  24.987  1.00  0.00    -0.200 F 
ATOM    119  C   UNL A   1      43.381  24.903  25.630  1.00  0.00     0.200 A 
ATOM    120  F   UNL A   1      42.069  23.061  26.313  1.00  0.00    -0.200 F 
ATOM    121  F   UNL A   1      43.845  24.204  24.586  1.00  0.00    -0.200 F 
ENDBRANCH  83 111
BRANCH  98 122
ATOM    122  C   UNL A   1      44.846  27.334  34.287  1.00  0.00     0.064 A 
ATOM    123  C   UNL A   1      46.065  28.028  34.279  1.00  0.00     0.173 A 
ATOM    124  C   UNL A   1      44.773  26.142  35.025  1.00  0.00     0.173 A 
ATOM    125  F   UNL A   1      46.192  29.163  33.575  1.00  0.00    -0.203 F 
ATOM    126  C   UNL A   1      47.173  27.537  34.966  1.00  0.00     0.198 A 
ATOM    127  C   UNL A   1      45.874  25.671  35.735  1.00  0.00     0.198 A 
ATOM    128  F   UNL A   1      43.629  25.444  35.069  1.00  0.00    -0.203 F 
ATOM    129  F   UNL A   1      48.340  28.194  34.907  1.00  0.00    -0.200 F 
ATOM    130  C   UNL A   1      47.074  26.364  35.699  1.00  0.00     0.200 A 
ATOM    131  F   UNL A   1      45.773  24.543  36.453  1.00  0.00    -0.200 F 
ATOM    132  F   UNL A   1      48.139  25.898  36.366  1.00  0.00    -0.200 F 
ENDBRANCH  98 122
ENDBRANCH  63  66
ENDBRANCH  53  56
ENDBRANCH  49  52
ENDBRANCH  46  49
ENDBRANCH  43  46
ENDBRANCH  40  43
ENDBRANCH   1  40
TORSDOF 17
ENDMDL
MODEL 3
REMARK VINA RESULT:     -12.6      1.961      3.489
REMARK SMILES O=C(Cc1ccccc1Nc1c(F)cccc1C(F)(F)F)NCCCCCCNC(=O)c1ccc(-c2c3nc(c(-c4c(F)c(F)c(F)c(F)c4F)c4ccc([nH]4)c(-c4c(F)c(F)c(F)c(F)c4F)c4nc(c(-c5c(F)c(F)c(F)c(F)c5F)c5ccc2[nH]5)C=C4)C=C3)cc1
REMARK SMILES IDX 24 1 23 4 22 7 1 8 2 9 3 11 4 14 5 15 9 16 6 17 8 19 7 20
REMARK SMILES IDX 10 24 11 26 12 27 17 28 13 29 14 30 16 31 15 32 18 36 19 37
REMARK SMILES IDX 20 38 21 39 25 40 26 43 27 46 28 49 29 52 30 53 31 55 32 56
REMARK SMILES IDX 33 57 94 58 34 59 93 61 35 63 36 66 37 67 87 68 38 69 92 70
REMARK SMILES IDX 86 71 88 72 39 73 91 74 85 76 84 78 40 80 72 83 52 84 71 85
REMARK SMILES IDX 53 86 56 87 70 88 89 89 54 90 55 92 69 94 90 95 57 98 41 100
REMARK SMILES IDX 42 101 50 102 43 103 44 104 48 105 51 106 45 107 46 108
REMARK SMILES IDX 49 109 47 110 73 111 74 112 82 113 75 114 76 115 80 116
REMARK SMILES IDX 83 117 77 118 78 119 81 120 79 121 58 122 59 123 67 124
REMARK SMILES IDX 60 125 61 126 65 127 68 128 62 129 63 130 66 131 64 132
REMARK H PARENT 24 2 24 3 23 5 23 6 22 10 3 12 3 13 5 18 6 21 8 22 7 23 10 25
REMARK H PARENT 14 33 16 34 15 35 25 41 25 42 26 44 26 45 27 47 27 48 28 50
REMARK H PARENT 28 51 29 54 33 60 94 62 34 64 93 65 92 75 86 77 88 79 91 81
REMARK H PARENT 85 82 53 91 56 93 89 96 54 97 90 99
REMARK Flexibility Score: inf
ROOT
ATOM      1  C   UNL A   1      33.385  28.374  26.892  1.00  0.00    -0.036 C 
ATOM      2  H   UNL A   1      34.181  28.712  27.522  1.00  0.00     0.028 H 
ATOM      3  H   UNL A   1      33.080  27.369  27.096  1.00  0.00     0.028 H 
ENDROOT
BRANCH   1   4
ATOM      4  C   UNL A   1      33.888  28.385  25.445  1.00  0.00     0.017 C 
ATOM      5  H   UNL A   1      33.398  29.173  24.912  1.00  0.00     0.049 H 
ATOM      6  H   UNL A   1      34.947  28.538  25.456  1.00  0.00     0.049 H 
BRANCH   4   7
ATOM      7  N   UNL A   1      33.615  27.128  24.783  1.00  0.00    -0.356 N 
ATOM      8  O   UNL A   1      31.831  27.822  23.524  1.00  0.00    -0.275 OA
ATOM      9  C   UNL A   1      32.584  26.928  23.897  1.00  0.00     0.224 C 
ATOM     10  H   UNL A   1      34.206  26.366  24.982  1.00  0.00     0.163 HD
BRANCH   9  11
ATOM     11  C   UNL A   1      32.354  25.472  23.528  1.00  0.00     0.054 C 
ATOM     12  H   UNL A   1      33.295  25.061  23.231  1.00  0.00     0.042 H 
ATOM     13  H   UNL A   1      31.611  25.491  22.759  1.00  0.00     0.042 H 
BRANCH  11  14
ATOM     14  C   UNL A   1      31.784  24.579  24.612  1.00  0.00    -0.015 A 
ATOM     15  C   UNL A   1      30.773  25.108  25.438  1.00  0.00    -0.056 A 
ATOM     16  C   UNL A   1      32.240  23.263  24.850  1.00  0.00     0.042 A 
ATOM     17  C   UNL A   1      30.251  24.371  26.500  1.00  0.00    -0.062 A 
ATOM     18  H   UNL A   1      30.413  26.057  25.253  1.00  0.00     0.063 H 
ATOM     19  C   UNL A   1      31.713  22.547  25.938  1.00  0.00    -0.038 A 
ATOM     20  C   UNL A   1      30.728  23.094  26.757  1.00  0.00    -0.060 A 
ATOM     21  H   UNL A   1      29.510  24.775  27.095  1.00  0.00     0.062 H 
ATOM     22  H   UNL A   1      32.063  21.595  26.134  1.00  0.00     0.064 H 
ATOM     23  H   UNL A   1      30.356  22.551  27.552  1.00  0.00     0.062 H 
BRANCH  16  24
ATOM     24  N   UNL A   1      33.224  22.673  24.022  1.00  0.00    -0.352 N 
ATOM     25  H   UNL A   1      32.959  22.535  23.084  1.00  0.00     0.167 HD
BRANCH  24  26
ATOM     26  C   UNL A   1      34.536  22.254  24.351  1.00  0.00     0.087 A 
ATOM     27  C   UNL A   1      35.558  23.224  24.282  1.00  0.00     0.147 A 
ATOM     28  C   UNL A   1      34.891  20.946  24.740  1.00  0.00     0.082 A 
ATOM     29  F   UNL A   1      35.248  24.461  23.860  1.00  0.00    -0.205 F 
ATOM     30  C   UNL A   1      36.879  22.947  24.615  1.00  0.00    -0.024 A 
ATOM     31  C   UNL A   1      36.235  20.683  25.102  1.00  0.00    -0.048 A 
ATOM     32  C   UNL A   1      37.219  21.671  25.038  1.00  0.00    -0.059 A 
ATOM     33  H   UNL A   1      37.599  23.684  24.547  1.00  0.00     0.065 H 
ATOM     34  H   UNL A   1      36.494  19.736  25.420  1.00  0.00     0.063 H 
ATOM     35  H   UNL A   1      38.192  21.453  25.305  1.00  0.00     0.062 H 
BRANCH  28  36
ATOM     36  C   UNL A   1      33.949  19.762  24.724  1.00  0.00     0.418 C 
ATOM     37  F   UNL A   1      34.631  18.577  24.653  1.00  0.00    -0.166 F 
ATOM     38  F   UNL A   1      33.196  19.669  25.853  1.00  0.00    -0.166 F 
ATOM     39  F   UNL A   1      33.095  19.719  23.669  1.00  0.00    -0.166 F 
ENDBRANCH  28  36
ENDBRANCH  24  26
ENDBRANCH  16  24
ENDBRANCH  11  14
ENDBRANCH   9  11
ENDBRANCH   4   7
ENDBRANCH   1   4
BRANCH   1  40
ATOM     40  C   UNL A   1      32.159  29.258  27.158  1.00  0.00    -0.052 C 
ATOM     41  H   UNL A   1      32.228  29.628  28.159  1.00  0.00     0.027 H 
ATOM     42  H   UNL A   1      31.304  28.638  26.989  1.00  0.00     0.027 H 
BRANCH  40  43
ATOM     43  C   UNL A   1      32.007  30.456  26.220  1.00  0.00    -0.052 C 
ATOM     44  H   UNL A   1      31.248  30.216  25.504  1.00  0.00     0.027 H 
ATOM     45  H   UNL A   1      32.975  30.613  25.794  1.00  0.00     0.027 H 
BRANCH  43  46
ATOM     46  C   UNL A   1      31.627  31.777  26.877  1.00  0.00    -0.036 C 
ATOM     47  H   UNL A   1      31.005  31.563  27.721  1.00  0.00     0.028 H 
ATOM     48  H   UNL A   1      31.132  32.358  26.127  1.00  0.00     0.028 H 
BRANCH  46  49
ATOM     49  C   UNL A   1      32.810  32.607  27.357  1.00  0.00     0.018 C 
ATOM     50  H   UNL A   1      33.568  32.590  26.602  1.00  0.00     0.049 H 
ATOM     51  H   UNL A   1      33.152  32.177  28.275  1.00  0.00     0.049 H 
BRANCH  49  52
ATOM     52  N   UNL A   1      32.458  33.993  27.630  1.00  0.00    -0.352 N 
ATOM     53  C   UNL A   1      32.993  34.870  28.546  1.00  0.00     0.251 C 
ATOM     54  H   UNL A   1      31.728  34.357  27.078  1.00  0.00     0.163 HD
ATOM     55  O   UNL A   1      32.470  35.961  28.737  1.00  0.00    -0.269 OA
BRANCH  53  56
ATOM     56  C   UNL A   1      34.181  34.472  29.333  1.00  0.00     0.039 A 
ATOM     57  C   UNL A   1      33.997  33.936  30.610  1.00  0.00    -0.049 A 
ATOM     58  C   UNL A   1      35.467  34.591  28.801  1.00  0.00    -0.049 A 
ATOM     59  C   UNL A   1      35.093  33.428  31.310  1.00  0.00    -0.053 A 
ATOM     60  H   UNL A   1      33.056  33.914  31.032  1.00  0.00     0.063 H 
ATOM     61  C   UNL A   1      36.544  34.009  29.461  1.00  0.00    -0.053 A 
ATOM     62  H   UNL A   1      35.617  35.109  27.920  1.00  0.00     0.063 H 
ATOM     63  C   UNL A   1      36.366  33.412  30.717  1.00  0.00    -0.014 A 
ATOM     64  H   UNL A   1      34.968  33.063  32.268  1.00  0.00     0.063 H 
ATOM     65  H   UNL A   1      37.479  34.018  29.024  1.00  0.00     0.063 H 
BRANCH  63  66
ATOM     66  C   UNL A   1      37.517  32.739  31.374  1.00  0.00     0.031 A 
ATOM     67  C   UNL A   1      38.181  31.560  30.725  1.00  0.00     0.074 A 
ATOM     68  C   UNL A   1      37.902  33.139  32.602  1.00  0.00     0.049 A 
ATOM     69  N   UNL A   1      39.140  30.795  31.182  1.00  0.00    -0.248 NA
ATOM     70  C   UNL A   1      37.681  31.171  29.399  1.00  0.00    -0.034 C 
ATOM     71  C   UNL A   1      37.293  34.228  33.367  1.00  0.00    -0.036 A 
ATOM     72  N   UNL A   1      38.885  32.659  33.432  1.00  0.00    -0.354 N 
ATOM     73  C   UNL A   1      39.349  29.830  30.206  1.00  0.00     0.074 A 
ATOM     74  C   UNL A   1      38.377  30.069  29.161  1.00  0.00    -0.034 C 
ATOM     75  H   UNL A   1      36.972  31.634  28.808  1.00  0.00     0.065 H 
ATOM     76  C   UNL A   1      37.922  34.343  34.546  1.00  0.00    -0.036 A 
ATOM     77  H   UNL A   1      36.504  34.813  33.049  1.00  0.00     0.065 H 
ATOM     78  C   UNL A   1      38.952  33.314  34.638  1.00  0.00     0.049 A 
ATOM     79  H   UNL A   1      39.485  31.919  33.187  1.00  0.00     0.167 HD
ATOM     80  C   UNL A   1      40.285  28.851  30.171  1.00  0.00     0.037 A 
ATOM     81  H   UNL A   1      38.245  29.461  28.338  1.00  0.00     0.065 H 
ATOM     82  H   UNL A   1      37.712  35.047  35.271  1.00  0.00     0.065 H 
ATOM     83  C   UNL A   1      39.744  33.098  35.706  1.00  0.00     0.037 A 
ATOM     84  C   UNL A   1      41.256  28.622  31.210  1.00  0.00     0.049 A 
ATOM     85  C   UNL A   1      40.769  31.999  35.652  1.00  0.00     0.074 A 
ATOM     86  C   UNL A   1      42.287  27.701  31.240  1.00  0.00    -0.036 A 
ATOM     87  N   UNL A   1      41.307  29.318  32.410  1.00  0.00    -0.354 N 
ATOM     88  N   UNL A   1      41.015  31.146  34.688  1.00  0.00    -0.248 NA
ATOM     89  C   UNL A   1      41.630  31.838  36.831  1.00  0.00    -0.034 C 
ATOM     90  C   UNL A   1      42.930  27.804  32.479  1.00  0.00    -0.036 A 
ATOM     91  H   UNL A   1      42.539  27.049  30.480  1.00  0.00     0.065 H 
ATOM     92  C   UNL A   1      42.333  28.825  33.201  1.00  0.00     0.049 A 
ATOM     93  H   UNL A   1      40.704  30.053  32.662  1.00  0.00     0.167 HD
ATOM     94  C   UNL A   1      42.063  30.355  35.136  1.00  0.00     0.074 A 
ATOM     95  C   UNL A   1      42.423  30.845  36.451  1.00  0.00    -0.034 C 
ATOM     96  H   UNL A   1      41.620  32.360  37.721  1.00  0.00     0.065 H 
ATOM     97  H   UNL A   1      43.717  27.218  32.801  1.00  0.00     0.065 H 
ATOM     98  C   UNL A   1      42.670  29.314  34.514  1.00  0.00     0.037 A 
ATOM     99  H   UNL A   1      43.198  30.471  37.019  1.00  0.00     0.065 H 
BRANCH  80 100
ATOM    100  C   UNL A   1      40.297  27.954  28.967  1.00  0.00     0.064 A 
ATOM    101  C   UNL A   1      39.579  26.747  28.941  1.00  0.00     0.173 A 
ATOM    102  C   UNL A   1      41.024  28.306  27.820  1.00  0.00     0.173 A 
ATOM    103  F   UNL A   1      38.877  26.357  30.015  1.00  0.00    -0.203 F 
ATOM    104  C   UNL A   1      39.625  25.909  27.831  1.00  0.00     0.198 A 
ATOM    105  C   UNL A   1      41.039  27.481  26.698  1.00  0.00     0.198 A 
ATOM    106  F   UNL A   1      41.722  29.452  27.786  1.00  0.00    -0.203 F 
ATOM    107  F   UNL A   1      38.984  24.732  27.857  1.00  0.00    -0.200 F 
ATOM    108  C   UNL A   1      40.350  26.278  26.709  1.00  0.00     0.200 A 
ATOM    109  F   UNL A   1      41.730  27.845  25.609  1.00  0.00    -0.200 F 
ATOM    110  F   UNL A   1      40.394  25.469  25.641  1.00  0.00    -0.200 F 
ENDBRANCH  80 100
BRANCH  83 111
ATOM    111  C   UNL A   1      39.598  33.956  36.909  1.00  0.00     0.064 A 
ATOM    112  C   UNL A   1      40.234  35.203  36.988  1.00  0.00     0.173 A 
ATOM    113  C   UNL A   1      38.797  33.562  37.991  1.00  0.00     0.173 A 
ATOM    114  F   UNL A   1      41.025  35.614  35.987  1.00  0.00    -0.203 F 
ATOM    115  C   UNL A   1      40.081  36.019  38.107  1.00  0.00     0.198 A 
ATOM    116  C   UNL A   1      38.623  34.390  39.098  1.00  0.00     0.198 A 
ATOM    117  F   UNL A   1      38.163  32.380  37.962  1.00  0.00    -0.203 F 
ATOM    118  F   UNL A   1      40.725  37.191  38.171  1.00  0.00    -0.200 F 
ATOM    119  C   UNL A   1      39.270  35.616  39.157  1.00  0.00     0.200 A 
ATOM    120  F   UNL A   1      37.826  34.004  40.103  1.00  0.00    -0.200 F 
ATOM    121  F   UNL A   1      39.111  36.407  40.227  1.00  0.00    -0.200 F 
ENDBRANCH  83 111
BRANCH  98 122
ATOM    122  C   UNL A   1      43.791  28.637  35.248  1.00  0.00     0.064 A 
ATOM    123  C   UNL A   1      45.121  29.063  35.109  1.00  0.00     0.173 A 
ATOM    124  C   UNL A   1      43.530  27.577  36.130  1.00  0.00     0.173 A 
ATOM    125  F   UNL A   1      45.426  30.060  34.265  1.00  0.00    -0.203 F 
ATOM    126  C   UNL A   1      46.150  28.438  35.810  1.00  0.00     0.198 A 
ATOM    127  C   UNL A   1      44.557  26.975  36.851  1.00  0.00     0.198 A 
ATOM    128  F   UNL A   1      42.275  27.136  36.302  1.00  0.00    -0.203 F 
ATOM    129  F   UNL A   1      47.418  28.832  35.627  1.00  0.00    -0.200 F 
ATOM    130  C   UNL A   1      45.866  27.401  36.686  1.00  0.00     0.200 A 
ATOM    131  F   UNL A   1      44.279  25.981  37.707  1.00  0.00    -0.200 F 
ATOM    132  F   UNL A   1      46.856  26.807  37.366  1.00  0.00    -0.200 F 
ENDBRANCH  98 122
ENDBRANCH  63  66
ENDBRANCH  53  56
ENDBRANCH  49  52
ENDBRANCH  46  49
ENDBRANCH  43  46
ENDBRANCH  40  43
ENDBRANCH   1  40
TORSDOF 17
ENDMDL
MODEL 4
REMARK VINA RESULT:     -12.4      2.046      3.828
REMARK SMILES O=C(Cc1ccccc1Nc1c(F)cccc1C(F)(F)F)NCCCCCCNC(=O)c1ccc(-c2c3nc(c(-c4c(F)c(F)c(F)c(F)c4F)c4ccc([nH]4)c(-c4c(F)c(F)c(F)c(F)c4F)c4nc(c(-c5c(F)c(F)c(F)c(F)c5F)c5ccc2[nH]5)C=C4)C=C3)cc1
REMARK SMILES IDX 24 1 23 4 22 7 1 8 2 9 3 11 4 14 5 15 9 16 6 17 8 19 7 20
REMARK SMILES IDX 10 24 11 26 12 27 17 28 13 29 14 30 16 31 15 32 18 36 19 37
REMARK SMILES IDX 20 38 21 39 25 40 26 43 27 46 28 49 29 52 30 53 31 55 32 56
REMARK SMILES IDX 33 57 94 58 34 59 93 61 35 63 36 66 37 67 87 68 38 69 92 70
REMARK SMILES IDX 86 71 88 72 39 73 91 74 85 76 84 78 40 80 72 83 52 84 71 85
REMARK SMILES IDX 53 86 56 87 70 88 89 89 54 90 55 92 69 94 90 95 57 98 41 100
REMARK SMILES IDX 42 101 50 102 43 103 44 104 48 105 51 106 45 107 46 108
REMARK SMILES IDX 49 109 47 110 73 111 74 112 82 113 75 114 76 115 80 116
REMARK SMILES IDX 83 117 77 118 78 119 81 120 79 121 58 122 59 123 67 124
REMARK SMILES IDX 60 125 61 126 65 127 68 128 62 129 63 130 66 131 64 132
REMARK H PARENT 24 2 24 3 23 5 23 6 22 10 3 12 3 13 5 18 6 21 8 22 7 23 10 25
REMARK H PARENT 14 33 16 34 15 35 25 41 25 42 26 44 26 45 27 47 27 48 28 50
REMARK H PARENT 28 51 29 54 33 60 94 62 34 64 93 65 92 75 86 77 88 79 91 81
REMARK H PARENT 85 82 53 91 56 93 89 96 54 97 90 99
REMARK Flexibility Score: inf
ROOT
ATOM      1  C   UNL A   1      33.922  28.988  26.764  1.00  0.00    -0.036 C 
ATOM      2  H   UNL A   1      34.914  29.316  26.534  1.00  0.00     0.028 H 
ATOM      3  H   UNL A   1      33.662  29.110  27.795  1.00  0.00     0.028 H 
ENDROOT
BRANCH   1   4
ATOM      4  C   UNL A   1      33.840  27.487  26.475  1.00  0.00     0.017 C 
ATOM      5  H   UNL A   1      34.765  27.162  26.048  1.00  0.00     0.049 H 
ATOM      6  H   UNL A   1      33.649  26.975  27.395  1.00  0.00     0.049 H 
BRANCH   4   7
ATOM      7  N   UNL A   1      32.765  27.185  25.555  1.00  0.00    -0.356 N 
ATOM      8  O   UNL A   1      31.704  25.601  26.827  1.00  0.00    -0.275 OA
ATOM      9  C   UNL A   1      31.795  26.239  25.782  1.00  0.00     0.224 C 
ATOM     10  H   UNL A   1      32.727  27.691  24.711  1.00  0.00     0.163 HD
BRANCH   9  11
ATOM     11  C   UNL A   1      30.928  25.934  24.572  1.00  0.00     0.054 C 
ATOM     12  H   UNL A   1      30.349  26.808  24.359  1.00  0.00     0.042 H 
ATOM     13  H   UNL A   1      30.353  25.074  24.847  1.00  0.00     0.042 H 
BRANCH  11  14
ATOM     14  C   UNL A   1      31.651  25.541  23.300  1.00  0.00    -0.015 A 
ATOM     15  C   UNL A   1      31.489  26.362  22.167  1.00  0.00    -0.056 A 
ATOM     16  C   UNL A   1      32.447  24.378  23.190  1.00  0.00     0.042 A 
ATOM     17  C   UNL A   1      32.066  26.025  20.943  1.00  0.00    -0.062 A 
ATOM     18  H   UNL A   1      30.935  27.229  22.246  1.00  0.00     0.063 H 
ATOM     19  C   UNL A   1      33.001  24.048  21.942  1.00  0.00    -0.038 A 
ATOM     20  C   UNL A   1      32.813  24.862  20.827  1.00  0.00    -0.060 A 
ATOM     21  H   UNL A   1      31.937  26.640  20.125  1.00  0.00     0.062 H 
ATOM     22  H   UNL A   1      33.560  23.184  21.849  1.00  0.00     0.064 H 
ATOM     23  H   UNL A   1      33.229  24.601  19.919  1.00  0.00     0.062 H 
BRANCH  16  24
ATOM     24  N   UNL A   1      32.672  23.542  24.309  1.00  0.00    -0.352 N 
ATOM     25  H   UNL A   1      31.919  23.469  24.939  1.00  0.00     0.167 HD
BRANCH  24  26
ATOM     26  C   UNL A   1      33.826  22.796  24.652  1.00  0.00     0.087 A 
ATOM     27  C   UNL A   1      34.963  23.521  25.065  1.00  0.00     0.147 A 
ATOM     28  C   UNL A   1      33.918  21.389  24.610  1.00  0.00     0.082 A 
ATOM     29  F   UNL A   1      34.912  24.864  25.057  1.00  0.00    -0.205 F 
ATOM     30  C   UNL A   1      36.143  22.904  25.462  1.00  0.00    -0.024 A 
ATOM     31  C   UNL A   1      35.117  20.772  25.042  1.00  0.00    -0.048 A 
ATOM     32  C   UNL A   1      36.219  21.519  25.461  1.00  0.00    -0.059 A 
ATOM     33  H   UNL A   1      36.956  23.471  25.754  1.00  0.00     0.065 H 
ATOM     34  H   UNL A   1      35.178  19.741  25.046  1.00  0.00     0.063 H 
ATOM     35  H   UNL A   1      37.082  21.045  25.768  1.00  0.00     0.062 H 
BRANCH  28  36
ATOM     36  C   UNL A   1      32.847  20.477  24.056  1.00  0.00     0.418 C 
ATOM     37  F   UNL A   1      31.781  20.374  24.909  1.00  0.00    -0.166 F 
ATOM     38  F   UNL A   1      32.319  20.927  22.885  1.00  0.00    -0.166 F 
ATOM     39  F   UNL A   1      33.235  19.191  23.851  1.00  0.00    -0.166 F 
ENDBRANCH  28  36
ENDBRANCH  24  26
ENDBRANCH  16  24
ENDBRANCH  11  14
ENDBRANCH   9  11
ENDBRANCH   4   7
ENDBRANCH   1   4
BRANCH   1  40
ATOM     40  C   UNL A   1      32.937  29.855  25.969  1.00  0.00    -0.052 C 
ATOM     41  H   UNL A   1      32.505  29.247  25.203  1.00  0.00     0.027 H 
ATOM     42  H   UNL A   1      33.505  30.679  25.590  1.00  0.00     0.027 H 
BRANCH  40  43
ATOM     43  C   UNL A   1      31.800  30.465  26.788  1.00  0.00    -0.052 C 
ATOM     44  H   UNL A   1      31.957  30.201  27.813  1.00  0.00     0.027 H 
ATOM     45  H   UNL A   1      30.899  30.071  26.368  1.00  0.00     0.027 H 
BRANCH  43  46
ATOM     46  C   UNL A   1      31.658  31.980  26.714  1.00  0.00    -0.036 C 
ATOM     47  H   UNL A   1      30.742  32.254  27.193  1.00  0.00     0.028 H 
ATOM     48  H   UNL A   1      31.681  32.237  25.676  1.00  0.00     0.028 H 
BRANCH  46  49
ATOM     49  C   UNL A   1      32.790  32.755  27.377  1.00  0.00     0.018 C 
ATOM     50  H   UNL A   1      33.641  32.736  26.729  1.00  0.00     0.049 H 
ATOM     51  H   UNL A   1      32.993  32.284  28.316  1.00  0.00     0.049 H 
BRANCH  49  52
ATOM     52  N   UNL A   1      32.445  34.142  27.650  1.00  0.00    -0.352 N 
ATOM     53  C   UNL A   1      32.982  35.015  28.569  1.00  0.00     0.251 C 
ATOM     54  H   UNL A   1      31.720  34.511  27.096  1.00  0.00     0.163 HD
ATOM     55  O   UNL A   1      32.466  36.109  28.759  1.00  0.00    -0.269 OA
BRANCH  53  56
ATOM     56  C   UNL A   1      34.165  34.609  29.359  1.00  0.00     0.039 A 
ATOM     57  C   UNL A   1      33.977  34.123  30.656  1.00  0.00    -0.049 A 
ATOM     58  C   UNL A   1      35.449  34.671  28.813  1.00  0.00    -0.049 A 
ATOM     59  C   UNL A   1      35.065  33.608  31.365  1.00  0.00    -0.053 A 
ATOM     60  H   UNL A   1      33.040  34.144  31.086  1.00  0.00     0.063 H 
ATOM     61  C   UNL A   1      36.515  34.080  29.484  1.00  0.00    -0.053 A 
ATOM     62  H   UNL A   1      35.607  35.153  27.913  1.00  0.00     0.063 H 
ATOM     63  C   UNL A   1      36.331  33.532  30.762  1.00  0.00    -0.014 A 
ATOM     64  H   UNL A   1      34.937  33.280  32.336  1.00  0.00     0.063 H 
ATOM     65  H   UNL A   1      37.446  34.045  29.039  1.00  0.00     0.063 H 
BRANCH  63  66
ATOM     66  C   UNL A   1      37.467  32.849  31.432  1.00  0.00     0.031 A 
ATOM     67  C   UNL A   1      38.126  31.663  30.792  1.00  0.00     0.074 A 
ATOM     68  C   UNL A   1      37.842  33.245  32.664  1.00  0.00     0.049 A 
ATOM     69  N   UNL A   1      39.072  30.887  31.260  1.00  0.00    -0.248 NA
ATOM     70  C   UNL A   1      37.638  31.277  29.460  1.00  0.00    -0.034 C 
ATOM     71  C   UNL A   1      37.235  34.341  33.421  1.00  0.00    -0.036 A 
ATOM     72  N   UNL A   1      38.811  32.756  33.506  1.00  0.00    -0.354 N 
ATOM     73  C   UNL A   1      39.283  29.920  30.287  1.00  0.00     0.074 A 
ATOM     74  C   UNL A   1      38.325  30.168  29.231  1.00  0.00    -0.034 C 
ATOM     75  H   UNL A   1      36.940  31.746  28.861  1.00  0.00     0.065 H 
ATOM     76  C   UNL A   1      37.852  34.450  34.607  1.00  0.00    -0.036 A 
ATOM     77  H   UNL A   1      36.456  34.934  33.094  1.00  0.00     0.065 H 
ATOM     78  C   UNL A   1      38.871  33.411  34.712  1.00  0.00     0.049 A 
ATOM     79  H   UNL A   1      39.406  32.010  33.268  1.00  0.00     0.167 HD
ATOM     80  C   UNL A   1      40.209  28.931  30.264  1.00  0.00     0.037 A 
ATOM     81  H   UNL A   1      38.196  29.561  28.407  1.00  0.00     0.065 H 
ATOM     82  H   UNL A   1      37.641  35.157  35.329  1.00  0.00     0.065 H 
ATOM     83  C   UNL A   1      39.648  33.189  35.789  1.00  0.00     0.037 A 
ATOM     84  C   UNL A   1      41.166  28.694  31.314  1.00  0.00     0.049 A 
ATOM     85  C   UNL A   1      40.662  32.080  35.748  1.00  0.00     0.074 A 
ATOM     86  C   UNL A   1      42.188  27.762  31.356  1.00  0.00    -0.036 A 
ATOM     87  N   UNL A   1      41.210  29.390  32.513  1.00  0.00    -0.354 N 
ATOM     88  N   UNL A   1      40.911  31.223  34.787  1.00  0.00    -0.248 NA
ATOM     89  C   UNL A   1      41.509  31.910  36.936  1.00  0.00    -0.034 C 
ATOM     90  C   UNL A   1      42.818  27.860  32.602  1.00  0.00    -0.036 A 
ATOM     91  H   UNL A   1      42.442  27.107  30.600  1.00  0.00     0.065 H 
ATOM     92  C   UNL A   1      42.223  28.887  33.317  1.00  0.00     0.049 A 
ATOM     93  H   UNL A   1      40.612  30.132  32.759  1.00  0.00     0.167 HD
ATOM     94  C   UNL A   1      41.946  30.421  35.248  1.00  0.00     0.074 A 
ATOM     95  C   UNL A   1      42.296  30.909  36.566  1.00  0.00    -0.034 C 
ATOM     96  H   UNL A   1      41.494  32.433  37.826  1.00  0.00     0.065 H 
ATOM     97  H   UNL A   1      43.594  27.266  32.933  1.00  0.00     0.065 H 
ATOM     98  C   UNL A   1      42.549  29.374  34.633  1.00  0.00     0.037 A 
ATOM     99  H   UNL A   1      43.060  30.528  37.144  1.00  0.00     0.065 H 
BRANCH  80 100
ATOM    100  C   UNL A   1      40.226  28.034  29.060  1.00  0.00     0.064 A 
ATOM    101  C   UNL A   1      39.520  26.820  29.038  1.00  0.00     0.173 A 
ATOM    102  C   UNL A   1      40.946  28.392  27.910  1.00  0.00     0.173 A 
ATOM    103  F   UNL A   1      38.825  26.424  30.115  1.00  0.00    -0.203 F 
ATOM    104  C   UNL A   1      39.570  25.981  27.929  1.00  0.00     0.198 A 
ATOM    105  C   UNL A   1      40.965  27.566  26.789  1.00  0.00     0.198 A 
ATOM    106  F   UNL A   1      41.633  29.544  27.873  1.00  0.00    -0.203 F 
ATOM    107  F   UNL A   1      38.940  24.798  27.957  1.00  0.00    -0.200 F 
ATOM    108  C   UNL A   1      40.288  26.356  26.804  1.00  0.00     0.200 A 
ATOM    109  F   UNL A   1      41.649  27.935  25.698  1.00  0.00    -0.200 F 
ATOM    110  F   UNL A   1      40.336  25.547  25.736  1.00  0.00    -0.200 F 
ENDBRANCH  80 100
BRANCH  83 111
ATOM    111  C   UNL A   1      39.498  34.049  36.990  1.00  0.00     0.064 A 
ATOM    112  C   UNL A   1      38.721  33.636  38.081  1.00  0.00     0.173 A 
ATOM    113  C   UNL A   1      40.152  35.286  37.085  1.00  0.00     0.173 A 
ATOM    114  F   UNL A   1      38.061  32.469  38.028  1.00  0.00    -0.203 F 
ATOM    115  C   UNL A   1      38.596  34.432  39.218  1.00  0.00     0.198 A 
ATOM    116  C   UNL A   1      40.049  36.069  38.234  1.00  0.00     0.198 A 
ATOM    117  F   UNL A   1      40.913  35.725  36.071  1.00  0.00    -0.203 F 
ATOM    118  F   UNL A   1      37.821  34.028  40.233  1.00  0.00    -0.200 F 
ATOM    119  C   UNL A   1      39.266  35.643  39.297  1.00  0.00     0.200 A 
ATOM    120  F   UNL A   1      40.710  37.231  38.312  1.00  0.00    -0.200 F 
ATOM    121  F   UNL A   1      39.157  36.402  40.396  1.00  0.00    -0.200 F 
ENDBRANCH  83 111
BRANCH  98 122
ATOM    122  C   UNL A   1      43.655  28.686  35.380  1.00  0.00     0.064 A 
ATOM    123  C   UNL A   1      43.398  27.611  36.244  1.00  0.00     0.173 A 
ATOM    124  C   UNL A   1      44.990  29.081  35.201  1.00  0.00     0.173 A 
ATOM    125  F   UNL A   1      42.137  27.207  36.462  1.00  0.00    -0.203 F 
ATOM    126  C   UNL A   1      44.435  26.969  36.917  1.00  0.00     0.198 A 
ATOM    127  C   UNL A   1      46.027  28.417  35.852  1.00  0.00     0.198 A 
ATOM    128  F   UNL A   1      45.290  30.099  34.383  1.00  0.00    -0.203 F 
ATOM    129  F   UNL A   1      44.162  25.973  37.771  1.00  0.00    -0.200 F 
ATOM    130  C   UNL A   1      45.748  27.367  36.714  1.00  0.00     0.200 A 
ATOM    131  F   UNL A   1      47.296  28.795  35.646  1.00  0.00    -0.200 F 
ATOM    132  F   UNL A   1      46.745  26.743  37.356  1.00  0.00    -0.200 F 
ENDBRANCH  98 122
ENDBRANCH  63  66
ENDBRANCH  53  56
ENDBRANCH  49  52
ENDBRANCH  46  49
ENDBRANCH  43  46
ENDBRANCH  40  43
ENDBRANCH   1  40
TORSDOF 17
ENDMDL
MODEL 5
REMARK VINA RESULT:     -12.4      4.796     10.047
REMARK SMILES O=C(Cc1ccccc1Nc1c(F)cccc1C(F)(F)F)NCCCCCCNC(=O)c1ccc(-c2c3nc(c(-c4c(F)c(F)c(F)c(F)c4F)c4ccc([nH]4)c(-c4c(F)c(F)c(F)c(F)c4F)c4nc(c(-c5c(F)c(F)c(F)c(F)c5F)c5ccc2[nH]5)C=C4)C=C3)cc1
REMARK SMILES IDX 24 1 23 4 22 7 1 8 2 9 3 11 4 14 5 15 9 16 6 17 8 19 7 20
REMARK SMILES IDX 10 24 11 26 12 27 17 28 13 29 14 30 16 31 15 32 18 36 19 37
REMARK SMILES IDX 20 38 21 39 25 40 26 43 27 46 28 49 29 52 30 53 31 55 32 56
REMARK SMILES IDX 33 57 94 58 34 59 93 61 35 63 36 66 37 67 87 68 38 69 92 70
REMARK SMILES IDX 86 71 88 72 39 73 91 74 85 76 84 78 40 80 72 83 52 84 71 85
REMARK SMILES IDX 53 86 56 87 70 88 89 89 54 90 55 92 69 94 90 95 57 98 41 100
REMARK SMILES IDX 42 101 50 102 43 103 44 104 48 105 51 106 45 107 46 108
REMARK SMILES IDX 49 109 47 110 73 111 74 112 82 113 75 114 76 115 80 116
REMARK SMILES IDX 83 117 77 118 78 119 81 120 79 121 58 122 59 123 67 124
REMARK SMILES IDX 60 125 61 126 65 127 68 128 62 129 63 130 66 131 64 132
REMARK H PARENT 24 2 24 3 23 5 23 6 22 10 3 12 3 13 5 18 6 21 8 22 7 23 10 25
REMARK H PARENT 14 33 16 34 15 35 25 41 25 42 26 44 26 45 27 47 27 48 28 50
REMARK H PARENT 28 51 29 54 33 60 94 62 34 64 93 65 92 75 86 77 88 79 91 81
REMARK H PARENT 85 82 53 91 56 93 89 96 54 97 90 99
REMARK Flexibility Score: inf
ROOT
ATOM      1  C   UNL A   1      35.655  23.918  25.410  1.00  0.00    -0.036 C 
ATOM      2  H   UNL A   1      36.168  24.310  26.263  1.00  0.00     0.028 H 
ATOM      3  H   UNL A   1      36.004  24.323  24.483  1.00  0.00     0.028 H 
ENDROOT
BRANCH   1   4
ATOM      4  C   UNL A   1      34.179  24.310  25.522  1.00  0.00     0.017 C 
ATOM      5  H   UNL A   1      33.603  23.689  24.868  1.00  0.00     0.049 H 
ATOM      6  H   UNL A   1      33.870  24.178  26.538  1.00  0.00     0.049 H 
BRANCH   4   7
ATOM      7  N   UNL A   1      33.973  25.696  25.158  1.00  0.00    -0.356 N 
ATOM      8  O   UNL A   1      33.692  25.386  22.905  1.00  0.00    -0.275 OA
ATOM      9  C   UNL A   1      33.780  26.137  23.872  1.00  0.00     0.224 C 
ATOM     10  H   UNL A   1      33.973  26.365  25.880  1.00  0.00     0.163 HD
BRANCH   9  11
ATOM     11  C   UNL A   1      33.833  27.648  23.718  1.00  0.00     0.054 C 
ATOM     12  H   UNL A   1      33.231  27.909  22.874  1.00  0.00     0.042 H 
ATOM     13  H   UNL A   1      34.873  27.884  23.616  1.00  0.00     0.042 H 
BRANCH  11  14
ATOM     14  C   UNL A   1      33.353  28.468  24.898  1.00  0.00    -0.015 A 
ATOM     15  C   UNL A   1      34.108  28.420  26.086  1.00  0.00    -0.056 A 
ATOM     16  C   UNL A   1      32.174  29.247  24.871  1.00  0.00     0.042 A 
ATOM     17  C   UNL A   1      33.690  29.091  27.235  1.00  0.00    -0.062 A 
ATOM     18  H   UNL A   1      34.987  27.878  26.106  1.00  0.00     0.063 H 
ATOM     19  C   UNL A   1      31.761  29.898  26.046  1.00  0.00    -0.038 A 
ATOM     20  C   UNL A   1      32.511  29.821  27.218  1.00  0.00    -0.060 A 
ATOM     21  H   UNL A   1      34.257  29.044  28.096  1.00  0.00     0.062 H 
ATOM     22  H   UNL A   1      30.885  30.444  26.040  1.00  0.00     0.064 H 
ATOM     23  H   UNL A   1      32.189  30.307  28.070  1.00  0.00     0.062 H 
BRANCH  16  24
ATOM     24  N   UNL A   1      31.403  29.359  23.690  1.00  0.00    -0.352 N 
ATOM     25  H   UNL A   1      31.911  29.573  22.874  1.00  0.00     0.167 HD
BRANCH  24  26
ATOM     26  C   UNL A   1      30.006  29.207  23.515  1.00  0.00     0.087 A 
ATOM     27  C   UNL A   1      29.230  30.384  23.479  1.00  0.00     0.147 A 
ATOM     28  C   UNL A   1      29.342  27.972  23.372  1.00  0.00     0.082 A 
ATOM     29  F   UNL A   1      29.839  31.566  23.670  1.00  0.00    -0.205 F 
ATOM     30  C   UNL A   1      27.855  30.370  23.277  1.00  0.00    -0.024 A 
ATOM     31  C   UNL A   1      27.944  27.972  23.139  1.00  0.00    -0.048 A 
ATOM     32  C   UNL A   1      27.208  29.157  23.094  1.00  0.00    -0.059 A 
ATOM     33  H   UNL A   1      27.320  31.254  23.262  1.00  0.00     0.065 H 
ATOM     34  H   UNL A   1      27.458  27.073  23.000  1.00  0.00     0.063 H 
ATOM     35  H   UNL A   1      26.190  29.130  22.926  1.00  0.00     0.062 H 
BRANCH  28  36
ATOM     36  C   UNL A   1      30.002  26.620  23.531  1.00  0.00     0.418 C 
ATOM     37  F   UNL A   1      29.083  25.605  23.516  1.00  0.00    -0.166 F 
ATOM     38  F   UNL A   1      30.865  26.330  22.520  1.00  0.00    -0.166 F 
ATOM     39  F   UNL A   1      30.678  26.442  24.696  1.00  0.00    -0.166 F 
ENDBRANCH  28  36
ENDBRANCH  24  26
ENDBRANCH  16  24
ENDBRANCH  11  14
ENDBRANCH   9  11
ENDBRANCH   4   7
ENDBRANCH   1   4
BRANCH   1  40
ATOM     40  C   UNL A   1      35.921  22.408  25.346  1.00  0.00    -0.052 C 
ATOM     41  H   UNL A   1      35.049  21.935  24.945  1.00  0.00     0.027 H 
ATOM     42  H   UNL A   1      36.150  22.104  26.345  1.00  0.00     0.027 H 
BRANCH  40  43
ATOM     43  C   UNL A   1      37.119  21.995  24.491  1.00  0.00    -0.052 C 
ATOM     44  H   UNL A   1      37.852  22.771  24.558  1.00  0.00     0.027 H 
ATOM     45  H   UNL A   1      36.731  21.844  23.505  1.00  0.00     0.027 H 
BRANCH  43  46
ATOM     46  C   UNL A   1      37.792  20.682  24.872  1.00  0.00    -0.036 C 
ATOM     47  H   UNL A   1      38.166  20.228  23.978  1.00  0.00     0.028 H 
ATOM     48  H   UNL A   1      37.049  20.091  25.363  1.00  0.00     0.028 H 
BRANCH  46  49
ATOM     49  C   UNL A   1      38.949  20.826  25.851  1.00  0.00     0.018 C 
ATOM     50  H   UNL A   1      38.550  20.929  26.838  1.00  0.00     0.049 H 
ATOM     51  H   UNL A   1      39.513  21.687  25.557  1.00  0.00     0.049 H 
BRANCH  49  52
ATOM     52  N   UNL A   1      39.854  19.686  25.833  1.00  0.00    -0.352 N 
ATOM     53  C   UNL A   1      41.212  19.640  26.053  1.00  0.00     0.251 C 
ATOM     54  H   UNL A   1      39.433  18.819  25.634  1.00  0.00     0.163 HD
ATOM     55  O   UNL A   1      41.837  18.606  25.854  1.00  0.00    -0.269 OA
BRANCH  53  56
ATOM     56  C   UNL A   1      41.924  20.861  26.492  1.00  0.00     0.039 A 
ATOM     57  C   UNL A   1      42.428  21.734  25.525  1.00  0.00    -0.049 A 
ATOM     58  C   UNL A   1      42.060  21.163  27.849  1.00  0.00    -0.049 A 
ATOM     59  C   UNL A   1      42.980  22.955  25.917  1.00  0.00    -0.053 A 
ATOM     60  H   UNL A   1      42.392  21.477  24.527  1.00  0.00     0.063 H 
ATOM     61  C   UNL A   1      42.531  22.414  28.234  1.00  0.00    -0.053 A 
ATOM     62  H   UNL A   1      41.812  20.460  28.564  1.00  0.00     0.063 H 
ATOM     63  C   UNL A   1      42.985  23.327  27.271  1.00  0.00    -0.014 A 
ATOM     64  H   UNL A   1      43.386  23.588  25.209  1.00  0.00     0.063 H 
ATOM     65  H   UNL A   1      42.547  22.671  29.234  1.00  0.00     0.063 H 
BRANCH  63  66
ATOM     66  C   UNL A   1      43.422  24.681  27.699  1.00  0.00     0.031 A 
ATOM     67  C   UNL A   1      42.409  25.731  28.052  1.00  0.00     0.074 A 
ATOM     68  C   UNL A   1      44.734  24.988  27.681  1.00  0.00     0.049 A 
ATOM     69  N   UNL A   1      42.595  26.989  28.366  1.00  0.00    -0.248 NA
ATOM     70  C   UNL A   1      40.998  25.322  28.019  1.00  0.00    -0.034 C 
ATOM     71  C   UNL A   1      45.810  24.076  27.293  1.00  0.00    -0.036 A 
ATOM     72  N   UNL A   1      45.383  26.162  27.976  1.00  0.00    -0.354 N 
ATOM     73  C   UNL A   1      41.328  27.521  28.557  1.00  0.00     0.074 A 
ATOM     74  C   UNL A   1      40.379  26.468  28.263  1.00  0.00    -0.034 C 
ATOM     75  H   UNL A   1      40.594  24.387  27.849  1.00  0.00     0.065 H 
ATOM     76  C   UNL A   1      46.985  24.718  27.385  1.00  0.00    -0.036 A 
ATOM     77  H   UNL A   1      45.685  23.097  26.994  1.00  0.00     0.065 H 
ATOM     78  C   UNL A   1      46.744  26.095  27.801  1.00  0.00     0.049 A 
ATOM     79  H   UNL A   1      44.918  26.973  28.284  1.00  0.00     0.167 HD
ATOM     80  C   UNL A   1      40.985  28.767  28.965  1.00  0.00     0.037 A 
ATOM     81  H   UNL A   1      39.355  26.593  28.248  1.00  0.00     0.065 H 
ATOM     82  H   UNL A   1      47.910  24.303  27.193  1.00  0.00     0.065 H 
ATOM     83  C   UNL A   1      47.690  27.042  27.945  1.00  0.00     0.037 A 
ATOM     84  C   UNL A   1      41.933  29.809  29.264  1.00  0.00     0.049 A 
ATOM     85  C   UNL A   1      47.289  28.422  28.389  1.00  0.00     0.074 A 
ATOM     86  C   UNL A   1      41.692  31.082  29.748  1.00  0.00    -0.036 A 
ATOM     87  N   UNL A   1      43.306  29.700  29.095  1.00  0.00    -0.354 N 
ATOM     88  N   UNL A   1      46.093  28.891  28.648  1.00  0.00    -0.248 NA
ATOM     89  C   UNL A   1      48.369  29.402  28.566  1.00  0.00    -0.034 C 
ATOM     90  C   UNL A   1      42.915  31.760  29.824  1.00  0.00    -0.036 A 
ATOM     91  H   UNL A   1      40.770  31.467  30.009  1.00  0.00     0.065 H 
ATOM     92  C   UNL A   1      43.924  30.893  29.436  1.00  0.00     0.049 A 
ATOM     93  H   UNL A   1      43.774  28.893  28.779  1.00  0.00     0.167 HD
ATOM     94  C   UNL A   1      46.275  30.213  29.030  1.00  0.00     0.074 A 
ATOM     95  C   UNL A   1      47.701  30.465  28.990  1.00  0.00    -0.034 C 
ATOM     96  H   UNL A   1      49.382  29.290  28.404  1.00  0.00     0.065 H 
ATOM     97  H   UNL A   1      43.042  32.742  30.118  1.00  0.00     0.065 H 
ATOM     98  C   UNL A   1      45.343  31.134  29.378  1.00  0.00     0.037 A 
ATOM     99  H   UNL A   1      48.141  31.358  29.259  1.00  0.00     0.065 H 
BRANCH  80 100
ATOM    100  C   UNL A   1      39.521  29.065  29.111  1.00  0.00     0.064 A 
ATOM    101  C   UNL A   1      38.743  29.480  28.017  1.00  0.00     0.173 A 
ATOM    102  C   UNL A   1      38.881  28.924  30.351  1.00  0.00     0.173 A 
ATOM    103  F   UNL A   1      39.306  29.641  26.811  1.00  0.00    -0.203 F 
ATOM    104  C   UNL A   1      37.394  29.785  28.171  1.00  0.00     0.198 A 
ATOM    105  C   UNL A   1      37.523  29.197  30.494  1.00  0.00     0.198 A 
ATOM    106  F   UNL A   1      39.575  28.523  31.428  1.00  0.00    -0.203 F 
ATOM    107  F   UNL A   1      36.689  30.241  27.127  1.00  0.00    -0.200 F 
ATOM    108  C   UNL A   1      36.783  29.639  29.407  1.00  0.00     0.200 A 
ATOM    109  F   UNL A   1      36.932  29.043  31.687  1.00  0.00    -0.200 F 
ATOM    110  F   UNL A   1      35.484  29.933  29.555  1.00  0.00    -0.200 F 
ENDBRANCH  80 100
BRANCH  83 111
ATOM    111  C   UNL A   1      49.111  26.704  27.675  1.00  0.00     0.064 A 
ATOM    112  C   UNL A   1      49.655  26.848  26.392  1.00  0.00     0.173 A 
ATOM    113  C   UNL A   1      49.961  26.260  28.699  1.00  0.00     0.173 A 
ATOM    114  F   UNL A   1      48.876  27.251  25.377  1.00  0.00    -0.203 F 
ATOM    115  C   UNL A   1      50.993  26.551  26.140  1.00  0.00     0.198 A 
ATOM    116  C   UNL A   1      51.305  25.990  28.453  1.00  0.00     0.198 A 
ATOM    117  F   UNL A   1      49.490  26.112  29.947  1.00  0.00    -0.203 F 
ATOM    118  F   UNL A   1      51.480  26.667  24.898  1.00  0.00    -0.200 F 
ATOM    119  C   UNL A   1      51.819  26.131  27.172  1.00  0.00     0.200 A 
ATOM    120  F   UNL A   1      52.103  25.600  29.456  1.00  0.00    -0.200 F 
ATOM    121  F   UNL A   1      53.109  25.860  26.933  1.00  0.00    -0.200 F 
ENDBRANCH  83 111
BRANCH  98 122
ATOM    122  C   UNL A   1      45.838  32.502  29.749  1.00  0.00     0.064 A 
ATOM    123  C   UNL A   1      46.216  32.813  31.064  1.00  0.00     0.173 A 
ATOM    124  C   UNL A   1      45.973  33.501  28.773  1.00  0.00     0.173 A 
ATOM    125  F   UNL A   1      46.089  31.898  32.038  1.00  0.00    -0.203 F 
ATOM    126  C   UNL A   1      46.691  34.081  31.392  1.00  0.00     0.198 A 
ATOM    127  C   UNL A   1      46.477  34.758  29.098  1.00  0.00     0.198 A 
ATOM    128  F   UNL A   1      45.631  33.253  27.501  1.00  0.00    -0.203 F 
ATOM    129  F   UNL A   1      47.003  34.369  32.663  1.00  0.00    -0.200 F 
ATOM    130  C   UNL A   1      46.828  35.048  30.408  1.00  0.00     0.200 A 
ATOM    131  F   UNL A   1      46.621  35.688  28.144  1.00  0.00    -0.200 F 
ATOM    132  F   UNL A   1      47.294  36.265  30.723  1.00  0.00    -0.200 F 
ENDBRANCH  98 122
ENDBRANCH  63  66
ENDBRANCH  53  56
ENDBRANCH  49  52
ENDBRANCH  46  49
ENDBRANCH  43  46
ENDBRANCH  40  43
ENDBRANCH   1  40
TORSDOF 17
ENDMDL
MODEL 6
REMARK VINA RESULT:     -12.3      0.550      7.337
REMARK SMILES O=C(Cc1ccccc1Nc1c(F)cccc1C(F)(F)F)NCCCCCCNC(=O)c1ccc(-c2c3nc(c(-c4c(F)c(F)c(F)c(F)c4F)c4ccc([nH]4)c(-c4c(F)c(F)c(F)c(F)c4F)c4nc(c(-c5c(F)c(F)c(F)c(F)c5F)c5ccc2[nH]5)C=C4)C=C3)cc1
REMARK SMILES IDX 24 1 23 4 22 7 1 8 2 9 3 11 4 14 5 15 9 16 6 17 8 19 7 20
REMARK SMILES IDX 10 24 11 26 12 27 17 28 13 29 14 30 16 31 15 32 18 36 19 37
REMARK SMILES IDX 20 38 21 39 25 40 26 43 27 46 28 49 29 52 30 53 31 55 32 56
REMARK SMILES IDX 33 57 94 58 34 59 93 61 35 63 36 66 37 67 87 68 38 69 92 70
REMARK SMILES IDX 86 71 88 72 39 73 91 74 85 76 84 78 40 80 72 83 52 84 71 85
REMARK SMILES IDX 53 86 56 87 70 88 89 89 54 90 55 92 69 94 90 95 57 98 41 100
REMARK SMILES IDX 42 101 50 102 43 103 44 104 48 105 51 106 45 107 46 108
REMARK SMILES IDX 49 109 47 110 73 111 74 112 82 113 75 114 76 115 80 116
REMARK SMILES IDX 83 117 77 118 78 119 81 120 79 121 58 122 59 123 67 124
REMARK SMILES IDX 60 125 61 126 65 127 68 128 62 129 63 130 66 131 64 132
REMARK H PARENT 24 2 24 3 23 5 23 6 22 10 3 12 3 13 5 18 6 21 8 22 7 23 10 25
REMARK H PARENT 14 33 16 34 15 35 25 41 25 42 26 44 26 45 27 47 27 48 28 50
REMARK H PARENT 28 51 29 54 33 60 94 62 34 64 93 65 92 75 86 77 88 79 91 81
REMARK H PARENT 85 82 53 91 56 93 89 96 54 97 90 99
REMARK Flexibility Score: inf
ROOT
ATOM      1  C   UNL A   1      31.832  26.175  26.456  1.00  0.00    -0.036 C 
ATOM      2  H   UNL A   1      31.842  25.808  27.461  1.00  0.00     0.028 H 
ATOM      3  H   UNL A   1      30.958  26.745  26.220  1.00  0.00     0.028 H 
ENDROOT
BRANCH   1   4
ATOM      4  C   UNL A   1      31.826  24.969  25.511  1.00  0.00     0.017 C 
ATOM      5  H   UNL A   1      30.841  24.551  25.486  1.00  0.00     0.049 H 
ATOM      6  H   UNL A   1      32.120  25.301  24.537  1.00  0.00     0.049 H 
BRANCH   4   7
ATOM      7  N   UNL A   1      32.759  23.953  25.947  1.00  0.00    -0.356 N 
ATOM      8  O   UNL A   1      31.441  22.995  27.559  1.00  0.00    -0.275 OA
ATOM      9  C   UNL A   1      32.513  23.062  26.963  1.00  0.00     0.224 C 
ATOM     10  H   UNL A   1      33.627  23.898  25.486  1.00  0.00     0.163 HD
BRANCH   9  11
ATOM     11  C   UNL A   1      33.729  22.262  27.398  1.00  0.00     0.054 C 
ATOM     12  H   UNL A   1      33.409  21.258  27.577  1.00  0.00     0.042 H 
ATOM     13  H   UNL A   1      34.108  22.771  28.260  1.00  0.00     0.042 H 
BRANCH  11  14
ATOM     14  C   UNL A   1      34.890  22.210  26.425  1.00  0.00    -0.015 A 
ATOM     15  C   UNL A   1      35.784  23.298  26.406  1.00  0.00    -0.056 A 
ATOM     16  C   UNL A   1      35.095  21.142  25.522  1.00  0.00     0.042 A 
ATOM     17  C   UNL A   1      36.834  23.352  25.489  1.00  0.00    -0.062 A 
ATOM     18  H   UNL A   1      35.660  24.067  27.082  1.00  0.00     0.063 H 
ATOM     19  C   UNL A   1      36.146  21.229  24.594  1.00  0.00    -0.038 A 
ATOM     20  C   UNL A   1      37.009  22.323  24.576  1.00  0.00    -0.060 A 
ATOM     21  H   UNL A   1      37.479  24.158  25.490  1.00  0.00     0.062 H 
ATOM     22  H   UNL A   1      36.283  20.465  23.912  1.00  0.00     0.064 H 
ATOM     23  H   UNL A   1      37.775  22.367  23.885  1.00  0.00     0.062 H 
BRANCH  16  24
ATOM     24  N   UNL A   1      34.248  20.009  25.530  1.00  0.00    -0.352 N 
ATOM     25  H   UNL A   1      34.080  19.614  26.417  1.00  0.00     0.167 HD
BRANCH  24  26
ATOM     26  C   UNL A   1      33.607  19.362  24.445  1.00  0.00     0.087 A 
ATOM     27  C   UNL A   1      32.667  20.116  23.712  1.00  0.00     0.147 A 
ATOM     28  C   UNL A   1      33.840  18.029  24.050  1.00  0.00     0.082 A 
ATOM     29  F   UNL A   1      32.391  21.369  24.109  1.00  0.00    -0.205 F 
ATOM     30  C   UNL A   1      31.998  19.607  22.605  1.00  0.00    -0.024 A 
ATOM     31  C   UNL A   1      33.171  17.532  22.904  1.00  0.00    -0.048 A 
ATOM     32  C   UNL A   1      32.259  18.310  22.191  1.00  0.00    -0.059 A 
ATOM     33  H   UNL A   1      31.313  20.189  22.096  1.00  0.00     0.065 H 
ATOM     34  H   UNL A   1      33.364  16.568  22.589  1.00  0.00     0.063 H 
ATOM     35  H   UNL A   1      31.783  17.923  21.361  1.00  0.00     0.062 H 
BRANCH  28  36
ATOM     36  C   UNL A   1      34.701  17.047  24.812  1.00  0.00     0.418 C 
ATOM     37  F   UNL A   1      34.830  15.862  24.139  1.00  0.00    -0.166 F 
ATOM     38  F   UNL A   1      35.975  17.490  24.995  1.00  0.00    -0.166 F 
ATOM     39  F   UNL A   1      34.224  16.688  26.032  1.00  0.00    -0.166 F 
ENDBRANCH  28  36
ENDBRANCH  24  26
ENDBRANCH  16  24
ENDBRANCH  11  14
ENDBRANCH   9  11
ENDBRANCH   4   7
ENDBRANCH   1   4
BRANCH   1  40
ATOM     40  C   UNL A   1      33.024  27.125  26.284  1.00  0.00    -0.052 C 
ATOM     41  H   UNL A   1      33.916  26.536  26.255  1.00  0.00     0.027 H 
ATOM     42  H   UNL A   1      32.986  27.803  27.110  1.00  0.00     0.027 H 
BRANCH  40  43
ATOM     43  C   UNL A   1      32.988  27.991  25.024  1.00  0.00    -0.052 C 
ATOM     44  H   UNL A   1      32.122  27.713  24.461  1.00  0.00     0.027 H 
ATOM     45  H   UNL A   1      33.914  27.805  24.521  1.00  0.00     0.027 H 
BRANCH  43  46
ATOM     46  C   UNL A   1      32.937  29.497  25.247  1.00  0.00    -0.036 C 
ATOM     47  H   UNL A   1      32.231  29.912  24.559  1.00  0.00     0.028 H 
ATOM     48  H   UNL A   1      33.932  29.860  25.097  1.00  0.00     0.028 H 
BRANCH  46  49
ATOM     49  C   UNL A   1      32.531  29.915  26.654  1.00  0.00     0.018 C 
ATOM     50  H   UNL A   1      33.214  29.476  27.351  1.00  0.00     0.049 H 
ATOM     51  H   UNL A   1      31.528  29.575  26.811  1.00  0.00     0.049 H 
BRANCH  49  52
ATOM     52  N   UNL A   1      32.537  31.358  26.842  1.00  0.00    -0.352 N 
ATOM     53  C   UNL A   1      33.462  32.156  27.476  1.00  0.00     0.251 C 
ATOM     54  H   UNL A   1      31.765  31.834  26.460  1.00  0.00     0.163 HD
ATOM     55  O   UNL A   1      33.228  33.344  27.665  1.00  0.00    -0.269 OA
BRANCH  53  56
ATOM     56  C   UNL A   1      34.724  31.564  27.969  1.00  0.00     0.039 A 
ATOM     57  C   UNL A   1      35.853  32.379  28.087  1.00  0.00    -0.049 A 
ATOM     58  C   UNL A   1      34.787  30.221  28.348  1.00  0.00    -0.049 A 
ATOM     59  C   UNL A   1      37.013  31.872  28.677  1.00  0.00    -0.053 A 
ATOM     60  H   UNL A   1      35.829  33.350  27.741  1.00  0.00     0.063 H 
ATOM     61  C   UNL A   1      35.911  29.742  29.013  1.00  0.00    -0.053 A 
ATOM     62  H   UNL A   1      34.001  29.585  28.135  1.00  0.00     0.063 H 
ATOM     63  C   UNL A   1      37.031  30.566  29.194  1.00  0.00    -0.014 A 
ATOM     64  H   UNL A   1      37.860  32.459  28.735  1.00  0.00     0.063 H 
ATOM     65  H   UNL A   1      35.921  28.774  29.373  1.00  0.00     0.063 H 
BRANCH  63  66
ATOM     66  C   UNL A   1      38.195  30.056  29.963  1.00  0.00     0.031 A 
ATOM     67  C   UNL A   1      38.462  30.549  31.355  1.00  0.00     0.074 A 
ATOM     68  C   UNL A   1      39.062  29.213  29.368  1.00  0.00     0.049 A 
ATOM     69  N   UNL A   1      39.470  30.284  32.149  1.00  0.00    -0.248 NA
ATOM     70  C   UNL A   1      37.483  31.489  31.920  1.00  0.00    -0.034 C 
ATOM     71  C   UNL A   1      38.949  28.714  27.997  1.00  0.00    -0.036 A 
ATOM     72  N   UNL A   1      40.223  28.646  29.835  1.00  0.00    -0.354 N 
ATOM     73  C   UNL A   1      39.251  31.030  33.298  1.00  0.00     0.074 A 
ATOM     74  C   UNL A   1      38.049  31.806  33.076  1.00  0.00    -0.034 C 
ATOM     75  H   UNL A   1      36.589  31.817  31.521  1.00  0.00     0.065 H 
ATOM     76  C   UNL A   1      39.988  27.906  27.737  1.00  0.00    -0.036 A 
ATOM     77  H   UNL A   1      38.192  28.947  27.336  1.00  0.00     0.065 H 
ATOM     78  C   UNL A   1      40.860  27.859  28.906  1.00  0.00     0.049 A 
ATOM     79  H   UNL A   1      40.564  28.789  30.746  1.00  0.00     0.167 HD
ATOM     80  C   UNL A   1      39.971  31.048  34.446  1.00  0.00     0.037 A 
ATOM     81  H   UNL A   1      37.681  32.512  33.732  1.00  0.00     0.065 H 
ATOM     82  H   UNL A   1      40.145  27.398  26.852  1.00  0.00     0.065 H 
ATOM     83  C   UNL A   1      42.025  27.188  28.982  1.00  0.00     0.037 A 
ATOM     84  C   UNL A   1      41.161  30.269  34.666  1.00  0.00     0.049 A 
ATOM     85  C   UNL A   1      42.815  27.229  30.261  1.00  0.00     0.074 A 
ATOM     86  C   UNL A   1      41.925  30.164  35.815  1.00  0.00    -0.036 A 
ATOM     87  N   UNL A   1      41.768  29.466  33.709  1.00  0.00    -0.354 N 
ATOM     88  N   UNL A   1      42.554  27.872  31.373  1.00  0.00    -0.248 NA
ATOM     89  C   UNL A   1      44.057  26.446  30.298  1.00  0.00    -0.034 C 
ATOM     90  C   UNL A   1      43.022  29.339  35.538  1.00  0.00    -0.036 A 
ATOM     91  H   UNL A   1      41.722  30.617  36.720  1.00  0.00     0.065 H 
ATOM     92  C   UNL A   1      42.914  28.888  34.232  1.00  0.00     0.049 A 
ATOM     93  H   UNL A   1      41.433  29.328  32.794  1.00  0.00     0.167 HD
ATOM     94  C   UNL A   1      43.589  27.564  32.245  1.00  0.00     0.074 A 
ATOM     95  C   UNL A   1      44.472  26.657  31.540  1.00  0.00    -0.034 C 
ATOM     96  H   UNL A   1      44.493  25.880  29.553  1.00  0.00     0.065 H 
ATOM     97  H   UNL A   1      43.783  29.107  36.196  1.00  0.00     0.065 H 
ATOM     98  C   UNL A   1      43.790  27.998  33.514  1.00  0.00     0.037 A 
ATOM     99  H   UNL A   1      45.315  26.229  31.951  1.00  0.00     0.065 H 
BRANCH  80 100
ATOM    100  C   UNL A   1      39.484  31.942  35.549  1.00  0.00     0.064 A 
ATOM    101  C   UNL A   1      39.933  33.267  35.674  1.00  0.00     0.173 A 
ATOM    102  C   UNL A   1      38.550  31.478  36.488  1.00  0.00     0.173 A 
ATOM    103  F   UNL A   1      40.834  33.759  34.810  1.00  0.00    -0.203 F 
ATOM    104  C   UNL A   1      39.500  34.077  36.720  1.00  0.00     0.198 A 
ATOM    105  C   UNL A   1      38.093  32.302  37.513  1.00  0.00     0.198 A 
ATOM    106  F   UNL A   1      38.082  30.223  36.412  1.00  0.00    -0.203 F 
ATOM    107  F   UNL A   1      39.992  35.316  36.854  1.00  0.00    -0.200 F 
ATOM    108  C   UNL A   1      38.577  33.596  37.636  1.00  0.00     0.200 A 
ATOM    109  F   UNL A   1      37.191  31.840  38.390  1.00  0.00    -0.200 F 
ATOM    110  F   UNL A   1      38.160  34.376  38.643  1.00  0.00    -0.200 F 
ENDBRANCH  80 100
BRANCH  83 111
ATOM    111  C   UNL A   1      42.501  26.413  27.809  1.00  0.00     0.064 A 
ATOM    112  C   UNL A   1      42.036  25.113  27.566  1.00  0.00     0.173 A 
ATOM    113  C   UNL A   1      43.404  26.966  26.889  1.00  0.00     0.173 A 
ATOM    114  F   UNL A   1      41.186  24.535  28.428  1.00  0.00    -0.203 F 
ATOM    115  C   UNL A   1      42.465  24.392  26.453  1.00  0.00     0.198 A 
ATOM    116  C   UNL A   1      43.811  26.254  25.762  1.00  0.00     0.198 A 
ATOM    117  F   UNL A   1      43.874  28.209  27.072  1.00  0.00    -0.203 F 
ATOM    118  F   UNL A   1      42.030  23.139  26.263  1.00  0.00    -0.200 F 
ATOM    119  C   UNL A   1      43.345  24.965  25.548  1.00  0.00     0.200 A 
ATOM    120  F   UNL A   1      44.649  26.818  24.882  1.00  0.00    -0.200 F 
ATOM    121  F   UNL A   1      43.745  24.277  24.471  1.00  0.00    -0.200 F 
ENDBRANCH  83 111
BRANCH  98 122
ATOM    122  C   UNL A   1      45.012  27.492  34.225  1.00  0.00     0.064 A 
ATOM    123  C   UNL A   1      44.992  26.292  34.952  1.00  0.00     0.173 A 
ATOM    124  C   UNL A   1      46.226  28.192  34.145  1.00  0.00     0.173 A 
ATOM    125  F   UNL A   1      43.853  25.594  35.073  1.00  0.00    -0.203 F 
ATOM    126  C   UNL A   1      46.138  25.823  35.592  1.00  0.00     0.198 A 
ATOM    127  C   UNL A   1      47.376  27.706  34.761  1.00  0.00     0.198 A 
ATOM    128  F   UNL A   1      46.299  29.341  33.458  1.00  0.00    -0.203 F 
ATOM    129  F   UNL A   1      46.085  24.699  36.318  1.00  0.00    -0.200 F 
ATOM    130  C   UNL A   1      47.329  26.526  35.489  1.00  0.00     0.200 A 
ATOM    131  F   UNL A   1      48.529  28.379  34.650  1.00  0.00    -0.200 F 
ATOM    132  F   UNL A   1      48.432  26.070  36.097  1.00  0.00    -0.200 F 
ENDBRANCH  98 122
ENDBRANCH  63  66
ENDBRANCH  53  56
ENDBRANCH  49  52
ENDBRANCH  46  49
ENDBRANCH  43  46
ENDBRANCH  40  43
ENDBRANCH   1  40
TORSDOF 17
ENDMDL
MODEL 7
REMARK VINA RESULT:     -12.3      1.945      7.646
REMARK SMILES O=C(Cc1ccccc1Nc1c(F)cccc1C(F)(F)F)NCCCCCCNC(=O)c1ccc(-c2c3nc(c(-c4c(F)c(F)c(F)c(F)c4F)c4ccc([nH]4)c(-c4c(F)c(F)c(F)c(F)c4F)c4nc(c(-c5c(F)c(F)c(F)c(F)c5F)c5ccc2[nH]5)C=C4)C=C3)cc1
REMARK SMILES IDX 24 1 23 4 22 7 1 8 2 9 3 11 4 14 5 15 9 16 6 17 8 19 7 20
REMARK SMILES IDX 10 24 11 26 12 27 17 28 13 29 14 30 16 31 15 32 18 36 19 37
REMARK SMILES IDX 20 38 21 39 25 40 26 43 27 46 28 49 29 52 30 53 31 55 32 56
REMARK SMILES IDX 33 57 94 58 34 59 93 61 35 63 36 66 37 67 87 68 38 69 92 70
REMARK SMILES IDX 86 71 88 72 39 73 91 74 85 76 84 78 40 80 72 83 52 84 71 85
REMARK SMILES IDX 53 86 56 87 70 88 89 89 54 90 55 92 69 94 90 95 57 98 41 100
REMARK SMILES IDX 42 101 50 102 43 103 44 104 48 105 51 106 45 107 46 108
REMARK SMILES IDX 49 109 47 110 73 111 74 112 82 113 75 114 76 115 80 116
REMARK SMILES IDX 83 117 77 118 78 119 81 120 79 121 58 122 59 123 67 124
REMARK SMILES IDX 60 125 61 126 65 127 68 128 62 129 63 130 66 131 64 132
REMARK H PARENT 24 2 24 3 23 5 23 6 22 10 3 12 3 13 5 18 6 21 8 22 7 23 10 25
REMARK H PARENT 14 33 16 34 15 35 25 41 25 42 26 44 26 45 27 47 27 48 28 50
REMARK H PARENT 28 51 29 54 33 60 94 62 34 64 93 65 92 75 86 77 88 79 91 81
REMARK H PARENT 85 82 53 91 56 93 89 96 54 97 90 99
REMARK Flexibility Score: inf
ROOT
ATOM      1  C   UNL A   1      33.696  29.201  26.727  1.00  0.00    -0.036 C 
ATOM      2  H   UNL A   1      34.679  29.551  26.491  1.00  0.00     0.028 H 
ATOM      3  H   UNL A   1      33.419  29.370  27.747  1.00  0.00     0.028 H 
ENDROOT
BRANCH   1   4
ATOM      4  C   UNL A   1      33.670  27.684  26.520  1.00  0.00     0.017 C 
ATOM      5  H   UNL A   1      34.612  27.370  26.122  1.00  0.00     0.049 H 
ATOM      6  H   UNL A   1      33.486  27.216  27.465  1.00  0.00     0.049 H 
BRANCH   4   7
ATOM      7  N   UNL A   1      32.619  27.295  25.606  1.00  0.00    -0.356 N 
ATOM      8  O   UNL A   1      31.684  25.647  26.895  1.00  0.00    -0.275 OA
ATOM      9  C   UNL A   1      31.723  26.280  25.845  1.00  0.00     0.224 C 
ATOM     10  H   UNL A   1      32.541  27.788  24.758  1.00  0.00     0.163 HD
BRANCH   9  11
ATOM     11  C   UNL A   1      30.878  25.900  24.640  1.00  0.00     0.054 C 
ATOM     12  H   UNL A   1      30.261  26.740  24.400  1.00  0.00     0.042 H 
ATOM     13  H   UNL A   1      30.343  25.022  24.938  1.00  0.00     0.042 H 
BRANCH  11  14
ATOM     14  C   UNL A   1      31.627  25.505  23.383  1.00  0.00    -0.015 A 
ATOM     15  C   UNL A   1      31.441  26.291  22.230  1.00  0.00    -0.056 A 
ATOM     16  C   UNL A   1      32.469  24.372  23.308  1.00  0.00     0.042 A 
ATOM     17  C   UNL A   1      32.040  25.948  21.019  1.00  0.00    -0.062 A 
ATOM     18  H   UNL A   1      30.852  27.137  22.283  1.00  0.00     0.063 H 
ATOM     19  C   UNL A   1      33.045  24.034  22.073  1.00  0.00    -0.038 A 
ATOM     20  C   UNL A   1      32.834  24.813  20.937  1.00  0.00    -0.060 A 
ATOM     21  H   UNL A   1      31.893  26.537  20.184  1.00  0.00     0.062 H 
ATOM     22  H   UNL A   1      33.638  23.191  22.005  1.00  0.00     0.064 H 
ATOM     23  H   UNL A   1      33.267  24.546  20.038  1.00  0.00     0.062 H 
BRANCH  16  24
ATOM     24  N   UNL A   1      32.718  23.574  24.449  1.00  0.00    -0.352 N 
ATOM     25  H   UNL A   1      31.989  23.542  25.110  1.00  0.00     0.167 HD
BRANCH  24  26
ATOM     26  C   UNL A   1      33.867  22.813  24.776  1.00  0.00     0.087 A 
ATOM     27  C   UNL A   1      35.000  23.521  25.228  1.00  0.00     0.147 A 
ATOM     28  C   UNL A   1      33.957  21.409  24.683  1.00  0.00     0.082 A 
ATOM     29  F   UNL A   1      34.952  24.862  25.269  1.00  0.00    -0.205 F 
ATOM     30  C   UNL A   1      36.176  22.886  25.613  1.00  0.00    -0.024 A 
ATOM     31  C   UNL A   1      35.151  20.773  25.105  1.00  0.00    -0.048 A 
ATOM     32  C   UNL A   1      36.249  21.502  25.562  1.00  0.00    -0.059 A 
ATOM     33  H   UNL A   1      36.986  23.440  25.934  1.00  0.00     0.065 H 
ATOM     34  H   UNL A   1      35.210  19.743  25.072  1.00  0.00     0.063 H 
ATOM     35  H   UNL A   1      37.108  21.015  25.861  1.00  0.00     0.062 H 
BRANCH  28  36
ATOM     36  C   UNL A   1      32.890  20.519  24.085  1.00  0.00     0.418 C 
ATOM     37  F   UNL A   1      31.760  20.498  24.858  1.00  0.00    -0.166 F 
ATOM     38  F   UNL A   1      32.473  20.942  22.861  1.00  0.00    -0.166 F 
ATOM     39  F   UNL A   1      33.234  19.211  23.960  1.00  0.00    -0.166 F 
ENDBRANCH  28  36
ENDBRANCH  24  26
ENDBRANCH  16  24
ENDBRANCH  11  14
ENDBRANCH   9  11
ENDBRANCH   4   7
ENDBRANCH   1   4
BRANCH   1  40
ATOM     40  C   UNL A   1      32.693  29.988  25.874  1.00  0.00    -0.052 C 
ATOM     41  H   UNL A   1      32.278  29.319  25.149  1.00  0.00     0.027 H 
ATOM     42  H   UNL A   1      33.240  30.800  25.443  1.00  0.00     0.027 H 
BRANCH  40  43
ATOM     43  C   UNL A   1      31.536  30.620  26.649  1.00  0.00    -0.052 C 
ATOM     44  H   UNL A   1      31.611  30.300  27.668  1.00  0.00     0.027 H 
ATOM     45  H   UNL A   1      30.646  30.295  26.154  1.00  0.00     0.027 H 
BRANCH  43  46
ATOM     46  C   UNL A   1      31.478  32.142  26.642  1.00  0.00    -0.036 C 
ATOM     47  H   UNL A   1      30.589  32.445  27.154  1.00  0.00     0.028 H 
ATOM     48  H   UNL A   1      31.494  32.442  25.615  1.00  0.00     0.028 H 
BRANCH  46  49
ATOM     49  C   UNL A   1      32.665  32.824  27.310  1.00  0.00     0.018 C 
ATOM     50  H   UNL A   1      33.502  32.782  26.644  1.00  0.00     0.049 H 
ATOM     51  H   UNL A   1      32.858  32.306  28.226  1.00  0.00     0.049 H 
BRANCH  49  52
ATOM     52  N   UNL A   1      32.407  34.217  27.643  1.00  0.00    -0.352 N 
ATOM     53  C   UNL A   1      32.999  35.016  28.595  1.00  0.00     0.251 C 
ATOM     54  H   UNL A   1      31.703  34.653  27.110  1.00  0.00     0.163 HD
ATOM     55  O   UNL A   1      32.551  36.131  28.833  1.00  0.00    -0.269 OA
BRANCH  53  56
ATOM     56  C   UNL A   1      34.157  34.506  29.361  1.00  0.00     0.039 A 
ATOM     57  C   UNL A   1      33.934  33.897  30.598  1.00  0.00    -0.049 A 
ATOM     58  C   UNL A   1      35.452  34.592  28.845  1.00  0.00    -0.049 A 
ATOM     59  C   UNL A   1      34.996  33.288  31.271  1.00  0.00    -0.053 A 
ATOM     60  H   UNL A   1      32.989  33.897  31.012  1.00  0.00     0.063 H 
ATOM     61  C   UNL A   1      36.492  33.912  29.472  1.00  0.00    -0.053 A 
ATOM     62  H   UNL A   1      35.638  35.157  28.001  1.00  0.00     0.063 H 
ATOM     63  C   UNL A   1      36.272  33.244  30.685  1.00  0.00    -0.014 A 
ATOM     64  H   UNL A   1      34.843  32.869  32.202  1.00  0.00     0.063 H 
ATOM     65  H   UNL A   1      37.431  33.900  29.042  1.00  0.00     0.063 H 
BRANCH  63  66
ATOM     66  C   UNL A   1      37.379  32.471  31.304  1.00  0.00     0.031 A 
ATOM     67  C   UNL A   1      37.906  32.847  32.657  1.00  0.00     0.074 A 
ATOM     68  C   UNL A   1      37.970  31.485  30.600  1.00  0.00     0.049 A 
ATOM     69  N   UNL A   1      38.918  32.346  33.321  1.00  0.00    -0.248 NA
ATOM     70  C   UNL A   1      37.225  33.953  33.345  1.00  0.00    -0.034 C 
ATOM     71  C   UNL A   1      37.594  31.069  29.248  1.00  0.00    -0.036 A 
ATOM     72  N   UNL A   1      39.027  30.668  30.917  1.00  0.00    -0.354 N 
ATOM     73  C   UNL A   1      39.000  33.081  34.495  1.00  0.00     0.074 A 
ATOM     74  C   UNL A   1      37.976  34.102  34.427  1.00  0.00    -0.034 C 
ATOM     75  H   UNL A   1      36.383  34.477  33.060  1.00  0.00     0.065 H 
ATOM     76  C   UNL A   1      38.397  30.068  28.857  1.00  0.00    -0.036 A 
ATOM     77  H   UNL A   1      36.833  31.481  28.686  1.00  0.00     0.065 H 
ATOM     78  C   UNL A   1      39.368  29.796  29.911  1.00  0.00     0.049 A 
ATOM     79  H   UNL A   1      39.495  30.702  31.782  1.00  0.00     0.167 HD
ATOM     80  C   UNL A   1      39.835  32.905  35.548  1.00  0.00     0.037 A 
ATOM     81  H   UNL A   1      37.847  34.846  35.129  1.00  0.00     0.065 H 
ATOM     82  H   UNL A   1      38.336  29.570  27.955  1.00  0.00     0.065 H 
ATOM     83  C   UNL A   1      40.361  28.890  29.840  1.00  0.00     0.037 A 
ATOM     84  C   UNL A   1      40.847  31.883  35.615  1.00  0.00     0.049 A 
ATOM     85  C   UNL A   1      41.285  28.717  31.014  1.00  0.00     0.074 A 
ATOM     86  C   UNL A   1      41.699  31.577  36.662  1.00  0.00    -0.036 A 
ATOM     87  N   UNL A   1      41.151  31.004  34.585  1.00  0.00    -0.354 N 
ATOM     88  N   UNL A   1      41.299  29.362  32.155  1.00  0.00    -0.248 NA
ATOM     89  C   UNL A   1      42.325  27.687  30.894  1.00  0.00    -0.034 C 
ATOM     90  C   UNL A   1      42.552  30.549  36.247  1.00  0.00    -0.036 A 
ATOM     91  H   UNL A   1      41.704  32.031  37.590  1.00  0.00     0.065 H 
ATOM     92  C   UNL A   1      42.199  30.177  34.960  1.00  0.00     0.049 A 
ATOM     93  H   UNL A   1      40.691  30.972  33.715  1.00  0.00     0.167 HD
ATOM     94  C   UNL A   1      42.338  28.810  32.893  1.00  0.00     0.074 A 
ATOM     95  C   UNL A   1      42.916  27.762  32.078  1.00  0.00    -0.034 C 
ATOM     96  H   UNL A   1      42.539  27.068  30.096  1.00  0.00     0.065 H 
ATOM     97  H   UNL A   1      43.316  30.137  36.806  1.00  0.00     0.065 H 
ATOM     98  C   UNL A   1      42.773  29.146  34.132  1.00  0.00     0.037 A 
ATOM     99  H   UNL A   1      43.689  27.150  32.380  1.00  0.00     0.065 H 
BRANCH  80 100
ATOM    100  C   UNL A   1      39.684  33.843  36.710  1.00  0.00     0.064 A 
ATOM    101  C   UNL A   1      40.316  35.097  36.730  1.00  0.00     0.173 A 
ATOM    102  C   UNL A   1      38.891  33.494  37.814  1.00  0.00     0.173 A 
ATOM    103  F   UNL A   1      41.094  35.476  35.706  1.00  0.00    -0.203 F 
ATOM    104  C   UNL A   1      40.195  35.944  37.827  1.00  0.00     0.198 A 
ATOM    105  C   UNL A   1      38.744  34.359  38.895  1.00  0.00     0.198 A 
ATOM    106  F   UNL A   1      38.258  32.311  37.844  1.00  0.00    -0.203 F 
ATOM    107  F   UNL A   1      40.860  37.108  37.849  1.00  0.00    -0.200 F 
ATOM    108  C   UNL A   1      39.406  35.578  38.906  1.00  0.00     0.200 A 
ATOM    109  F   UNL A   1      37.970  34.009  39.932  1.00  0.00    -0.200 F 
ATOM    110  F   UNL A   1      39.290  36.394  39.963  1.00  0.00    -0.200 F 
ENDBRANCH  80 100
BRANCH  83 111
ATOM    111  C   UNL A   1      40.519  28.073  28.610  1.00  0.00     0.064 A 
ATOM    112  C   UNL A   1      41.323  28.513  27.549  1.00  0.00     0.173 A 
ATOM    113  C   UNL A   1      39.897  26.822  28.483  1.00  0.00     0.173 A 
ATOM    114  F   UNL A   1      41.923  29.711  27.618  1.00  0.00    -0.203 F 
ATOM    115  C   UNL A   1      41.490  27.738  26.404  1.00  0.00     0.198 A 
ATOM    116  C   UNL A   1      40.086  26.036  27.348  1.00  0.00     0.198 A 
ATOM    117  F   UNL A   1      39.122  26.353  29.473  1.00  0.00    -0.203 F 
ATOM    118  F   UNL A   1      42.237  28.197  25.392  1.00  0.00    -0.200 F 
ATOM    119  C   UNL A   1      40.879  26.497  26.307  1.00  0.00     0.200 A 
ATOM    120  F   UNL A   1      39.507  24.831  27.266  1.00  0.00    -0.200 F 
ATOM    121  F   UNL A   1      41.051  25.745  25.211  1.00  0.00    -0.200 F 
ENDBRANCH  83 111
BRANCH  98 122
ATOM    122  C   UNL A   1      43.932  28.367  34.685  1.00  0.00     0.064 A 
ATOM    123  C   UNL A   1      45.253  28.815  34.538  1.00  0.00     0.173 A 
ATOM    124  C   UNL A   1      43.715  27.181  35.405  1.00  0.00     0.173 A 
ATOM    125  F   UNL A   1      45.514  29.933  33.844  1.00  0.00    -0.203 F 
ATOM    126  C   UNL A   1      46.318  28.092  35.072  1.00  0.00     0.198 A 
ATOM    127  C   UNL A   1      44.779  26.478  35.963  1.00  0.00     0.198 A 
ATOM    128  F   UNL A   1      42.471  26.714  35.578  1.00  0.00    -0.203 F 
ATOM    129  F   UNL A   1      47.574  28.515  34.881  1.00  0.00    -0.200 F 
ATOM    130  C   UNL A   1      46.079  26.930  35.790  1.00  0.00     0.200 A 
ATOM    131  F   UNL A   1      44.546  25.362  36.667  1.00  0.00    -0.200 F 
ATOM    132  F   UNL A   1      47.103  26.240  36.311  1.00  0.00    -0.200 F 
ENDBRANCH  98 122
ENDBRANCH  63  66
ENDBRANCH  53  56
ENDBRANCH  49  52
ENDBRANCH  46  49
ENDBRANCH  43  46
ENDBRANCH  40  43
ENDBRANCH   1  40
TORSDOF 17
ENDMDL
MODEL 8
REMARK VINA RESULT:     -12.3      2.710      8.458
REMARK SMILES O=C(Cc1ccccc1Nc1c(F)cccc1C(F)(F)F)NCCCCCCNC(=O)c1ccc(-c2c3nc(c(-c4c(F)c(F)c(F)c(F)c4F)c4ccc([nH]4)c(-c4c(F)c(F)c(F)c(F)c4F)c4nc(c(-c5c(F)c(F)c(F)c(F)c5F)c5ccc2[nH]5)C=C4)C=C3)cc1
REMARK SMILES IDX 24 1 23 4 22 7 1 8 2 9 3 11 4 14 5 15 9 16 6 17 8 19 7 20
REMARK SMILES IDX 10 24 11 26 12 27 17 28 13 29 14 30 16 31 15 32 18 36 19 37
REMARK SMILES IDX 20 38 21 39 25 40 26 43 27 46 28 49 29 52 30 53 31 55 32 56
REMARK SMILES IDX 33 57 94 58 34 59 93 61 35 63 36 66 37 67 87 68 38 69 92 70
REMARK SMILES IDX 86 71 88 72 39 73 91 74 85 76 84 78 40 80 72 83 52 84 71 85
REMARK SMILES IDX 53 86 56 87 70 88 89 89 54 90 55 92 69 94 90 95 57 98 41 100
REMARK SMILES IDX 42 101 50 102 43 103 44 104 48 105 51 106 45 107 46 108
REMARK SMILES IDX 49 109 47 110 73 111 74 112 82 113 75 114 76 115 80 116
REMARK SMILES IDX 83 117 77 118 78 119 81 120 79 121 58 122 59 123 67 124
REMARK SMILES IDX 60 125 61 126 65 127 68 128 62 129 63 130 66 131 64 132
REMARK H PARENT 24 2 24 3 23 5 23 6 22 10 3 12 3 13 5 18 6 21 8 22 7 23 10 25
REMARK H PARENT 14 33 16 34 15 35 25 41 25 42 26 44 26 45 27 47 27 48 28 50
REMARK H PARENT 28 51 29 54 33 60 94 62 34 64 93 65 92 75 86 77 88 79 91 81
REMARK H PARENT 85 82 53 91 56 93 89 96 54 97 90 99
REMARK Flexibility Score: inf
ROOT
ATOM      1  C   UNL A   1      35.295  31.682  27.856  1.00  0.00    -0.036 C 
ATOM      2  H   UNL A   1      35.688  31.891  26.883  1.00  0.00     0.028 H 
ATOM      3  H   UNL A   1      35.777  30.860  28.342  1.00  0.00     0.028 H 
ENDROOT
BRANCH   1   4
ATOM      4  C   UNL A   1      33.824  31.285  27.697  1.00  0.00     0.017 C 
ATOM      5  H   UNL A   1      33.503  30.775  28.582  1.00  0.00     0.049 H 
ATOM      6  H   UNL A   1      33.248  32.174  27.545  1.00  0.00     0.049 H 
BRANCH   4   7
ATOM      7  N   UNL A   1      33.632  30.416  26.556  1.00  0.00    -0.356 N 
ATOM      8  O   UNL A   1      31.703  29.401  27.262  1.00  0.00    -0.275 OA
ATOM      9  C   UNL A   1      32.605  29.512  26.437  1.00  0.00     0.224 C 
ATOM     10  H   UNL A   1      34.281  30.477  25.819  1.00  0.00     0.163 HD
BRANCH   9  11
ATOM     11  C   UNL A   1      32.756  28.549  25.272  1.00  0.00     0.054 C 
ATOM     12  H   UNL A   1      33.297  27.696  25.624  1.00  0.00     0.042 H 
ATOM     13  H   UNL A   1      33.253  29.109  24.506  1.00  0.00     0.042 H 
BRANCH  11  14
ATOM     14  C   UNL A   1      31.476  28.050  24.633  1.00  0.00    -0.015 A 
ATOM     15  C   UNL A   1      30.833  28.888  23.702  1.00  0.00    -0.056 A 
ATOM     16  C   UNL A   1      30.885  26.806  24.952  1.00  0.00     0.042 A 
ATOM     17  C   UNL A   1      29.614  28.527  23.127  1.00  0.00    -0.062 A 
ATOM     18  H   UNL A   1      31.272  29.785  23.440  1.00  0.00     0.063 H 
ATOM     19  C   UNL A   1      29.648  26.473  24.376  1.00  0.00    -0.038 A 
ATOM     20  C   UNL A   1      29.016  27.324  23.472  1.00  0.00    -0.060 A 
ATOM     21  H   UNL A   1      29.159  29.155  22.446  1.00  0.00     0.062 H 
ATOM     22  H   UNL A   1      29.198  25.578  24.628  1.00  0.00     0.064 H 
ATOM     23  H   UNL A   1      28.107  27.060  23.061  1.00  0.00     0.062 H 
BRANCH  16  24
ATOM     24  N   UNL A   1      31.513  25.912  25.851  1.00  0.00    -0.352 N 
ATOM     25  H   UNL A   1      31.739  26.289  26.732  1.00  0.00     0.167 HD
BRANCH  24  26
ATOM     26  C   UNL A   1      31.861  24.552  25.664  1.00  0.00     0.087 A 
ATOM     27  C   UNL A   1      30.926  23.584  26.087  1.00  0.00     0.147 A 
ATOM     28  C   UNL A   1      33.067  24.100  25.090  1.00  0.00     0.082 A 
ATOM     29  F   UNL A   1      29.797  23.995  26.688  1.00  0.00    -0.205 F 
ATOM     30  C   UNL A   1      31.135  22.219  25.926  1.00  0.00    -0.024 A 
ATOM     31  C   UNL A   1      33.255  22.708  24.907  1.00  0.00    -0.048 A 
ATOM     32  C   UNL A   1      32.302  21.777  25.322  1.00  0.00    -0.059 A 
ATOM     33  H   UNL A   1      30.427  21.541  26.254  1.00  0.00     0.065 H 
ATOM     34  H   UNL A   1      34.121  22.373  24.455  1.00  0.00     0.063 H 
ATOM     35  H   UNL A   1      32.464  20.768  25.180  1.00  0.00     0.062 H 
BRANCH  28  36
ATOM     36  C   UNL A   1      34.228  24.996  24.719  1.00  0.00     0.418 C 
ATOM     37  F   UNL A   1      33.913  25.824  23.676  1.00  0.00    -0.166 F 
ATOM     38  F   UNL A   1      34.601  25.826  25.730  1.00  0.00    -0.166 F 
ATOM     39  F   UNL A   1      35.346  24.346  24.303  1.00  0.00    -0.166 F 
ENDBRANCH  28  36
ENDBRANCH  24  26
ENDBRANCH  16  24
ENDBRANCH  11  14
ENDBRANCH   9  11
ENDBRANCH   4   7
ENDBRANCH   1   4
BRANCH   1  40
ATOM     40  C   UNL A   1      35.541  32.910  28.743  1.00  0.00    -0.052 C 
ATOM     41  H   UNL A   1      36.549  32.865  29.097  1.00  0.00     0.027 H 
ATOM     42  H   UNL A   1      34.811  32.864  29.523  1.00  0.00     0.027 H 
BRANCH  40  43
ATOM     43  C   UNL A   1      35.341  34.260  28.053  1.00  0.00    -0.052 C 
ATOM     44  H   UNL A   1      34.965  34.073  27.069  1.00  0.00     0.027 H 
ATOM     45  H   UNL A   1      36.299  34.737  28.072  1.00  0.00     0.027 H 
BRANCH  43  46
ATOM     46  C   UNL A   1      34.387  35.228  28.741  1.00  0.00    -0.036 C 
ATOM     47  H   UNL A   1      33.964  35.867  27.994  1.00  0.00     0.028 H 
ATOM     48  H   UNL A   1      34.964  35.759  29.468  1.00  0.00     0.028 H 
BRANCH  46  49
ATOM     49  C   UNL A   1      33.246  34.562  29.497  1.00  0.00     0.018 C 
ATOM     50  H   UNL A   1      33.635  33.719  30.030  1.00  0.00     0.049 H 
ATOM     51  H   UNL A   1      32.510  34.272  28.776  1.00  0.00     0.049 H 
BRANCH  49  52
ATOM     52  N   UNL A   1      32.596  35.453  30.448  1.00  0.00    -0.352 N 
ATOM     53  C   UNL A   1      32.860  35.653  31.784  1.00  0.00     0.251 C 
ATOM     54  H   UNL A   1      31.860  35.993  30.080  1.00  0.00     0.163 HD
ATOM     55  O   UNL A   1      32.112  36.342  32.466  1.00  0.00    -0.269 OA
BRANCH  53  56
ATOM     56  C   UNL A   1      34.030  34.995  32.405  1.00  0.00     0.039 A 
ATOM     57  C   UNL A   1      33.867  33.736  32.989  1.00  0.00    -0.049 A 
ATOM     58  C   UNL A   1      35.289  35.598  32.380  1.00  0.00    -0.049 A 
ATOM     59  C   UNL A   1      34.984  33.041  33.457  1.00  0.00    -0.053 A 
ATOM     60  H   UNL A   1      32.926  33.322  33.072  1.00  0.00     0.063 H 
ATOM     61  C   UNL A   1      36.411  34.872  32.767  1.00  0.00    -0.053 A 
ATOM     62  H   UNL A   1      35.388  36.579  32.075  1.00  0.00     0.063 H 
ATOM     63  C   UNL A   1      36.270  33.581  33.299  1.00  0.00    -0.014 A 
ATOM     64  H   UNL A   1      34.864  32.126  33.921  1.00  0.00     0.063 H 
ATOM     65  H   UNL A   1      37.351  35.285  32.664  1.00  0.00     0.063 H 
BRANCH  63  66
ATOM     66  C   UNL A   1      37.485  32.799  33.645  1.00  0.00     0.031 A 
ATOM     67  C   UNL A   1      38.257  33.106  34.895  1.00  0.00     0.074 A 
ATOM     68  C   UNL A   1      37.942  31.872  32.781  1.00  0.00     0.049 A 
ATOM     69  N   UNL A   1      39.383  32.591  35.321  1.00  0.00    -0.248 NA
ATOM     70  C   UNL A   1      37.706  34.152  35.769  1.00  0.00    -0.034 C 
ATOM     71  C   UNL A   1      37.320  31.529  31.502  1.00  0.00    -0.036 A 
ATOM     72  N   UNL A   1      39.050  31.063  32.839  1.00  0.00    -0.354 N 
ATOM     73  C   UNL A   1      39.679  33.255  36.503  1.00  0.00     0.074 A 
ATOM     74  C   UNL A   1      38.648  34.253  36.696  1.00  0.00    -0.034 C 
ATOM     75  H   UNL A   1      36.818  34.672  35.683  1.00  0.00     0.065 H 
ATOM     76  C   UNL A   1      38.045  30.573  30.902  1.00  0.00    -0.036 A 
ATOM     77  H   UNL A   1      36.461  31.956  31.122  1.00  0.00     0.065 H 
ATOM     78  C   UNL A   1      39.203  30.262  31.733  1.00  0.00     0.049 A 
ATOM     79  H   UNL A   1      39.674  31.057  33.600  1.00  0.00     0.167 HD
ATOM     80  C   UNL A   1      40.701  33.036  37.365  1.00  0.00     0.037 A 
ATOM     81  H   UNL A   1      38.646  34.951  37.456  1.00  0.00     0.065 H 
ATOM     82  H   UNL A   1      37.820  30.129  29.998  1.00  0.00     0.065 H 
ATOM     83  C   UNL A   1      40.176  29.386  31.417  1.00  0.00     0.037 A 
ATOM     84  C   UNL A   1      41.720  32.036  37.173  1.00  0.00     0.049 A 
ATOM     85  C   UNL A   1      41.309  29.165  32.381  1.00  0.00     0.074 A 
ATOM     86  C   UNL A   1      42.759  31.689  38.018  1.00  0.00    -0.036 A 
ATOM     87  N   UNL A   1      41.832  31.229  36.050  1.00  0.00    -0.354 N 
ATOM     88  N   UNL A   1      41.533  29.740  33.537  1.00  0.00    -0.248 NA
ATOM     89  C   UNL A   1      42.319  28.169  32.000  1.00  0.00    -0.034 C 
ATOM     90  C   UNL A   1      43.530  30.708  37.384  1.00  0.00    -0.036 A 
ATOM     91  H   UNL A   1      42.936  32.087  38.955  1.00  0.00     0.065 H 
ATOM     92  C   UNL A   1      42.942  30.406  36.166  1.00  0.00     0.049 A 
ATOM     93  H   UNL A   1      41.215  31.238  35.284  1.00  0.00     0.167 HD
ATOM     94  C   UNL A   1      42.700  29.170  34.028  1.00  0.00     0.074 A 
ATOM     95  C   UNL A   1      43.125  28.187  33.053  1.00  0.00    -0.034 C 
ATOM     96  H   UNL A   1      42.384  27.605  31.138  1.00  0.00     0.065 H 
ATOM     97  H   UNL A   1      44.392  30.282  37.760  1.00  0.00     0.065 H 
ATOM     98  C   UNL A   1      43.360  29.441  35.180  1.00  0.00     0.037 A 
ATOM     99  H   UNL A   1      43.949  27.576  33.163  1.00  0.00     0.065 H 
BRANCH  80 100
ATOM    100  C   UNL A   1      40.763  33.899  38.592  1.00  0.00     0.064 A 
ATOM    101  C   UNL A   1      40.075  33.556  39.768  1.00  0.00     0.173 A 
ATOM    102  C   UNL A   1      41.526  35.076  38.601  1.00  0.00     0.173 A 
ATOM    103  F   UNL A   1      39.322  32.447  39.809  1.00  0.00    -0.203 F 
ATOM    104  C   UNL A   1      40.113  34.381  40.888  1.00  0.00     0.198 A 
ATOM    105  C   UNL A   1      41.590  35.881  39.736  1.00  0.00     0.198 A 
ATOM    106  F   UNL A   1      42.209  35.448  37.508  1.00  0.00    -0.203 F 
ATOM    107  F   UNL A   1      39.396  34.064  41.975  1.00  0.00    -0.200 F 
ATOM    108  C   UNL A   1      40.874  35.540  40.874  1.00  0.00     0.200 A 
ATOM    109  F   UNL A   1      42.336  36.995  39.725  1.00  0.00    -0.200 F 
ATOM    110  F   UNL A   1      40.910  36.334  41.953  1.00  0.00    -0.200 F 
ENDBRANCH  80 100
BRANCH  83 111
ATOM    111  C   UNL A   1      40.106  28.648  30.130  1.00  0.00     0.064 A 
ATOM    112  C   UNL A   1      40.697  29.165  28.969  1.00  0.00     0.173 A 
ATOM    113  C   UNL A   1      39.475  27.398  30.042  1.00  0.00     0.173 A 
ATOM    114  F   UNL A   1      41.295  30.365  29.001  1.00  0.00    -0.203 F 
ATOM    115  C   UNL A   1      40.651  28.464  27.766  1.00  0.00     0.198 A 
ATOM    116  C   UNL A   1      39.454  26.686  28.845  1.00  0.00     0.198 A 
ATOM    117  F   UNL A   1      38.900  26.857  31.126  1.00  0.00    -0.203 F 
ATOM    118  F   UNL A   1      41.196  28.996  26.664  1.00  0.00    -0.200 F 
ATOM    119  C   UNL A   1      40.037  27.222  27.706  1.00  0.00     0.200 A 
ATOM    120  F   UNL A   1      38.874  25.479  28.795  1.00  0.00    -0.200 F 
ATOM    121  F   UNL A   1      40.006  26.542  26.552  1.00  0.00    -0.200 F 
ENDBRANCH  83 111
BRANCH  98 122
ATOM    122  C   UNL A   1      44.612  28.658  35.453  1.00  0.00     0.064 A 
ATOM    123  C   UNL A   1      45.872  29.128  35.053  1.00  0.00     0.173 A 
ATOM    124  C   UNL A   1      44.556  27.445  36.156  1.00  0.00     0.173 A 
ATOM    125  F   UNL A   1      45.978  30.274  34.362  1.00  0.00    -0.203 F 
ATOM    126  C   UNL A   1      47.028  28.401  35.328  1.00  0.00     0.198 A 
ATOM    127  C   UNL A   1      45.716  26.736  36.456  1.00  0.00     0.198 A 
ATOM    128  F   UNL A   1      43.377  26.956  36.566  1.00  0.00    -0.203 F 
ATOM    129  F   UNL A   1      48.216  28.847  34.897  1.00  0.00    -0.200 F 
ATOM    130  C   UNL A   1      46.950  27.211  36.036  1.00  0.00     0.200 A 
ATOM    131  F   UNL A   1      45.640  25.593  37.151  1.00  0.00    -0.200 F 
ATOM    132  F   UNL A   1      48.064  26.517  36.308  1.00  0.00    -0.200 F 
ENDBRANCH  98 122
ENDBRANCH  63  66
ENDBRANCH  53  56
ENDBRANCH  49  52
ENDBRANCH  46  49
ENDBRANCH  43  46
ENDBRANCH  40  43
ENDBRANCH   1  40
TORSDOF 17
ENDMDL
MODEL 9
REMARK VINA RESULT:     -12.3      2.013      7.792
REMARK SMILES O=C(Cc1ccccc1Nc1c(F)cccc1C(F)(F)F)NCCCCCCNC(=O)c1ccc(-c2c3nc(c(-c4c(F)c(F)c(F)c(F)c4F)c4ccc([nH]4)c(-c4c(F)c(F)c(F)c(F)c4F)c4nc(c(-c5c(F)c(F)c(F)c(F)c5F)c5ccc2[nH]5)C=C4)C=C3)cc1
REMARK SMILES IDX 24 1 23 4 22 7 1 8 2 9 3 11 4 14 5 15 9 16 6 17 8 19 7 20
REMARK SMILES IDX 10 24 11 26 12 27 17 28 13 29 14 30 16 31 15 32 18 36 19 37
REMARK SMILES IDX 20 38 21 39 25 40 26 43 27 46 28 49 29 52 30 53 31 55 32 56
REMARK SMILES IDX 33 57 94 58 34 59 93 61 35 63 36 66 37 67 87 68 38 69 92 70
REMARK SMILES IDX 86 71 88 72 39 73 91 74 85 76 84 78 40 80 72 83 52 84 71 85
REMARK SMILES IDX 53 86 56 87 70 88 89 89 54 90 55 92 69 94 90 95 57 98 41 100
REMARK SMILES IDX 42 101 50 102 43 103 44 104 48 105 51 106 45 107 46 108
REMARK SMILES IDX 49 109 47 110 73 111 74 112 82 113 75 114 76 115 80 116
REMARK SMILES IDX 83 117 77 118 78 119 81 120 79 121 58 122 59 123 67 124
REMARK SMILES IDX 60 125 61 126 65 127 68 128 62 129 63 130 66 131 64 132
REMARK H PARENT 24 2 24 3 23 5 23 6 22 10 3 12 3 13 5 18 6 21 8 22 7 23 10 25
REMARK H PARENT 14 33 16 34 15 35 25 41 25 42 26 44 26 45 27 47 27 48 28 50
REMARK H PARENT 28 51 29 54 33 60 94 62 34 64 93 65 92 75 86 77 88 79 91 81
REMARK H PARENT 85 82 53 91 56 93 89 96 54 97 90 99
REMARK Flexibility Score: inf
ROOT
ATOM      1  C   UNL A   1      33.629  29.155  26.592  1.00  0.00    -0.036 C 
ATOM      2  H   UNL A   1      34.600  29.524  26.338  1.00  0.00     0.028 H 
ATOM      3  H   UNL A   1      33.360  29.331  27.612  1.00  0.00     0.028 H 
ENDROOT
BRANCH   1   4
ATOM      4  C   UNL A   1      33.635  27.635  26.405  1.00  0.00     0.017 C 
ATOM      5  H   UNL A   1      34.589  27.334  26.027  1.00  0.00     0.049 H 
ATOM      6  H   UNL A   1      33.443  27.177  27.353  1.00  0.00     0.049 H 
BRANCH   4   7
ATOM      7  N   UNL A   1      32.607  27.213  25.479  1.00  0.00    -0.356 N 
ATOM      8  O   UNL A   1      31.495  25.782  26.882  1.00  0.00    -0.275 OA
ATOM      9  C   UNL A   1      31.632  26.291  25.773  1.00  0.00     0.224 C 
ATOM     10  H   UNL A   1      32.607  27.613  24.579  1.00  0.00     0.163 HD
BRANCH   9  11
ATOM     11  C   UNL A   1      30.825  25.833  24.569  1.00  0.00     0.054 C 
ATOM     12  H   UNL A   1      30.172  26.633  24.294  1.00  0.00     0.042 H 
ATOM     13  H   UNL A   1      30.329  24.939  24.886  1.00  0.00     0.042 H 
BRANCH  11  14
ATOM     14  C   UNL A   1      31.612  25.436  23.336  1.00  0.00    -0.015 A 
ATOM     15  C   UNL A   1      31.598  26.313  22.234  1.00  0.00    -0.056 A 
ATOM     16  C   UNL A   1      32.324  24.220  23.231  1.00  0.00     0.042 A 
ATOM     17  C   UNL A   1      32.239  25.982  21.041  1.00  0.00    -0.062 A 
ATOM     18  H   UNL A   1      31.106  27.217  22.312  1.00  0.00     0.063 H 
ATOM     19  C   UNL A   1      32.944  23.898  22.013  1.00  0.00    -0.038 A 
ATOM     20  C   UNL A   1      32.903  24.770  20.926  1.00  0.00    -0.060 A 
ATOM     21  H   UNL A   1      32.218  26.638  20.244  1.00  0.00     0.062 H 
ATOM     22  H   UNL A   1      33.442  22.998  21.920  1.00  0.00     0.064 H 
ATOM     23  H   UNL A   1      33.366  24.513  20.039  1.00  0.00     0.062 H 
BRANCH  16  24
ATOM     24  N   UNL A   1      32.400  23.324  24.323  1.00  0.00    -0.352 N 
ATOM     25  H   UNL A   1      31.674  23.402  24.984  1.00  0.00     0.167 HD
BRANCH  24  26
ATOM     26  C   UNL A   1      33.372  22.333  24.602  1.00  0.00     0.087 A 
ATOM     27  C   UNL A   1      33.017  20.993  24.340  1.00  0.00     0.147 A 
ATOM     28  C   UNL A   1      34.659  22.587  25.119  1.00  0.00     0.082 A 
ATOM     29  F   UNL A   1      31.776  20.726  23.901  1.00  0.00    -0.205 F 
ATOM     30  C   UNL A   1      33.895  19.933  24.537  1.00  0.00    -0.024 A 
ATOM     31  C   UNL A   1      35.552  21.501  25.289  1.00  0.00    -0.048 A 
ATOM     32  C   UNL A   1      35.175  20.188  25.005  1.00  0.00    -0.059 A 
ATOM     33  H   UNL A   1      33.596  18.964  24.337  1.00  0.00     0.065 H 
ATOM     34  H   UNL A   1      36.507  21.686  25.635  1.00  0.00     0.063 H 
ATOM     35  H   UNL A   1      35.843  19.414  25.140  1.00  0.00     0.062 H 
BRANCH  28  36
ATOM     36  C   UNL A   1      35.142  23.942  25.587  1.00  0.00     0.418 C 
ATOM     37  F   UNL A   1      35.188  24.844  24.558  1.00  0.00    -0.166 F 
ATOM     38  F   UNL A   1      34.321  24.506  26.514  1.00  0.00    -0.166 F 
ATOM     39  F   UNL A   1      36.399  23.959  26.102  1.00  0.00    -0.166 F 
ENDBRANCH  28  36
ENDBRANCH  24  26
ENDBRANCH  16  24
ENDBRANCH  11  14
ENDBRANCH   9  11
ENDBRANCH   4   7
ENDBRANCH   1   4
BRANCH   1  40
ATOM     40  C   UNL A   1      32.597  29.907  25.741  1.00  0.00    -0.052 C 
ATOM     41  H   UNL A   1      32.147  29.206  25.070  1.00  0.00     0.027 H 
ATOM     42  H   UNL A   1      33.132  30.689  25.245  1.00  0.00     0.027 H 
BRANCH  40  43
ATOM     43  C   UNL A   1      31.479  30.592  26.529  1.00  0.00    -0.052 C 
ATOM     44  H   UNL A   1      31.557  30.276  27.548  1.00  0.00     0.027 H 
ATOM     45  H   UNL A   1      30.569  30.300  26.049  1.00  0.00     0.027 H 
BRANCH  43  46
ATOM     46  C   UNL A   1      31.484  32.115  26.511  1.00  0.00    -0.036 C 
ATOM     47  H   UNL A   1      30.554  32.456  26.917  1.00  0.00     0.028 H 
ATOM     48  H   UNL A   1      31.628  32.407  25.492  1.00  0.00     0.028 H 
BRANCH  46  49
ATOM     49  C   UNL A   1      32.613  32.754  27.308  1.00  0.00     0.018 C 
ATOM     50  H   UNL A   1      33.515  32.684  26.737  1.00  0.00     0.049 H 
ATOM     51  H   UNL A   1      32.687  32.228  28.237  1.00  0.00     0.049 H 
BRANCH  49  52
ATOM     52  N   UNL A   1      32.368  34.155  27.619  1.00  0.00    -0.352 N 
ATOM     53  C   UNL A   1      32.970  34.964  28.555  1.00  0.00     0.251 C 
ATOM     54  H   UNL A   1      31.667  34.587  27.080  1.00  0.00     0.163 HD
ATOM     55  O   UNL A   1      32.532  36.086  28.776  1.00  0.00    -0.269 OA
BRANCH  53  56
ATOM     56  C   UNL A   1      34.127  34.457  29.325  1.00  0.00     0.039 A 
ATOM     57  C   UNL A   1      33.903  33.882  30.579  1.00  0.00    -0.049 A 
ATOM     58  C   UNL A   1      35.419  34.512  28.800  1.00  0.00    -0.049 A 
ATOM     59  C   UNL A   1      34.961  33.275  31.259  1.00  0.00    -0.053 A 
ATOM     60  H   UNL A   1      32.962  33.905  30.999  1.00  0.00     0.063 H 
ATOM     61  C   UNL A   1      36.454  33.834  29.436  1.00  0.00    -0.053 A 
ATOM     62  H   UNL A   1      35.607  35.054  27.941  1.00  0.00     0.063 H 
ATOM     63  C   UNL A   1      36.232  33.199  30.667  1.00  0.00    -0.014 A 
ATOM     64  H   UNL A   1      34.809  32.880  32.201  1.00  0.00     0.063 H 
ATOM     65  H   UNL A   1      37.389  33.798  29.001  1.00  0.00     0.063 H 
BRANCH  63  66
ATOM     66  C   UNL A   1      37.334  32.426  31.297  1.00  0.00     0.031 A 
ATOM     67  C   UNL A   1      37.844  32.799  32.658  1.00  0.00     0.074 A 
ATOM     68  C   UNL A   1      37.934  31.442  30.598  1.00  0.00     0.049 A 
ATOM     69  N   UNL A   1      38.848  32.298  33.332  1.00  0.00    -0.248 NA
ATOM     70  C   UNL A   1      37.152  33.903  33.340  1.00  0.00    -0.034 C 
ATOM     71  C   UNL A   1      37.575  31.029  29.241  1.00  0.00    -0.036 A 
ATOM     72  N   UNL A   1      38.989  30.626  30.926  1.00  0.00    -0.354 N 
ATOM     73  C   UNL A   1      38.915  33.030  34.510  1.00  0.00     0.074 A 
ATOM     74  C   UNL A   1      37.890  34.050  34.431  1.00  0.00    -0.034 C 
ATOM     75  H   UNL A   1      36.313  34.426  33.046  1.00  0.00     0.065 H 
ATOM     76  C   UNL A   1      38.384  30.030  28.857  1.00  0.00    -0.036 A 
ATOM     77  H   UNL A   1      36.821  31.442  28.670  1.00  0.00     0.065 H 
ATOM     78  C   UNL A   1      39.343  29.757  29.922  1.00  0.00     0.049 A 
ATOM     79  H   UNL A   1      39.446  30.659  31.797  1.00  0.00     0.167 HD
ATOM     80  C   UNL A   1      39.737  32.853  35.572  1.00  0.00     0.037 A 
ATOM     81  H   UNL A   1      37.751  34.792  35.133  1.00  0.00     0.065 H 
ATOM     82  H   UNL A   1      38.336  29.534  27.953  1.00  0.00     0.065 H 
ATOM     83  C   UNL A   1      40.339  28.853  29.861  1.00  0.00     0.037 A 
ATOM     84  C   UNL A   1      40.750  31.832  35.649  1.00  0.00     0.049 A 
ATOM     85  C   UNL A   1      41.248  28.678  31.046  1.00  0.00     0.074 A 
ATOM     86  C   UNL A   1      41.589  31.526  36.705  1.00  0.00    -0.036 A 
ATOM     87  N   UNL A   1      41.068  30.956  34.620  1.00  0.00    -0.354 N 
ATOM     88  N   UNL A   1      41.248  29.320  32.188  1.00  0.00    -0.248 NA
ATOM     89  C   UNL A   1      42.291  27.650  30.935  1.00  0.00    -0.034 C 
ATOM     90  C   UNL A   1      42.449  30.499  36.298  1.00  0.00    -0.036 A 
ATOM     91  H   UNL A   1      41.582  31.977  37.634  1.00  0.00     0.065 H 
ATOM     92  C   UNL A   1      42.112  30.130  35.006  1.00  0.00     0.049 A 
ATOM     93  H   UNL A   1      40.618  30.926  33.745  1.00  0.00     0.167 HD
ATOM     94  C   UNL A   1      42.278  28.769  32.937  1.00  0.00     0.074 A 
ATOM     95  C   UNL A   1      42.868  27.723  32.127  1.00  0.00    -0.034 C 
ATOM     96  H   UNL A   1      42.516  27.034  30.139  1.00  0.00     0.065 H 
ATOM     97  H   UNL A   1      43.207  30.088  36.865  1.00  0.00     0.065 H 
ATOM     98  C   UNL A   1      42.698  29.102  34.183  1.00  0.00     0.037 A 
ATOM     99  H   UNL A   1      43.638  27.111  32.437  1.00  0.00     0.065 H 
BRANCH  80 100
ATOM    100  C   UNL A   1      39.570  33.788  36.734  1.00  0.00     0.064 A 
ATOM    101  C   UNL A   1      40.207  35.039  36.769  1.00  0.00     0.173 A 
ATOM    102  C   UNL A   1      38.757  33.439  37.823  1.00  0.00     0.173 A 
ATOM    103  F   UNL A   1      41.005  35.418  35.759  1.00  0.00    -0.203 F 
ATOM    104  C   UNL A   1      40.072  35.884  37.867  1.00  0.00     0.198 A 
ATOM    105  C   UNL A   1      38.596  34.301  38.904  1.00  0.00     0.198 A 
ATOM    106  F   UNL A   1      38.118  32.259  37.839  1.00  0.00    -0.203 F 
ATOM    107  F   UNL A   1      40.742  37.044  37.904  1.00  0.00    -0.200 F 
ATOM    108  C   UNL A   1      39.262  35.518  38.931  1.00  0.00     0.200 A 
ATOM    109  F   UNL A   1      37.803  33.952  39.927  1.00  0.00    -0.200 F 
ATOM    110  F   UNL A   1      39.133  36.331  39.988  1.00  0.00    -0.200 F 
ENDBRANCH  80 100
BRANCH  83 111
ATOM    111  C   UNL A   1      40.513  28.039  28.631  1.00  0.00     0.064 A 
ATOM    112  C   UNL A   1      39.889  26.792  28.497  1.00  0.00     0.173 A 
ATOM    113  C   UNL A   1      41.281  28.505  27.553  1.00  0.00     0.173 A 
ATOM    114  F   UNL A   1      39.161  26.297  29.509  1.00  0.00    -0.203 F 
ATOM    115  C   UNL A   1      40.033  26.036  27.335  1.00  0.00     0.198 A 
ATOM    116  C   UNL A   1      41.402  27.761  26.381  1.00  0.00     0.198 A 
ATOM    117  F   UNL A   1      41.894  29.696  27.629  1.00  0.00    -0.203 F 
ATOM    118  F   UNL A   1      39.452  24.833  27.246  1.00  0.00    -0.200 F 
ATOM    119  C   UNL A   1      40.783  26.524  26.276  1.00  0.00     0.200 A 
ATOM    120  F   UNL A   1      42.114  28.244  25.354  1.00  0.00    -0.200 F 
ATOM    121  F   UNL A   1      40.910  25.804  25.153  1.00  0.00    -0.200 F 
ENDBRANCH  83 111
BRANCH  98 122
ATOM    122  C   UNL A   1      43.851  28.324  34.748  1.00  0.00     0.064 A 
ATOM    123  C   UNL A   1      43.652  27.119  35.441  1.00  0.00     0.173 A 
ATOM    124  C   UNL A   1      45.170  28.765  34.562  1.00  0.00     0.173 A 
ATOM    125  F   UNL A   1      42.409  26.664  35.660  1.00  0.00    -0.203 F 
ATOM    126  C   UNL A   1      44.731  26.397  35.944  1.00  0.00     0.198 A 
ATOM    127  C   UNL A   1      46.247  28.024  35.040  1.00  0.00     0.198 A 
ATOM    128  F   UNL A   1      45.414  29.906  33.903  1.00  0.00    -0.203 F 
ATOM    129  F   UNL A   1      44.515  25.273  36.641  1.00  0.00    -0.200 F 
ATOM    130  C   UNL A   1      46.027  26.845  35.737  1.00  0.00     0.200 A 
ATOM    131  F   UNL A   1      47.499  28.453  34.829  1.00  0.00    -0.200 F 
ATOM    132  F   UNL A   1      47.064  26.144  36.214  1.00  0.00    -0.200 F 
ENDBRANCH  98 122
ENDBRANCH  63  66
ENDBRANCH  53  56
ENDBRANCH  49  52
ENDBRANCH  46  49
ENDBRANCH  43  46
ENDBRANCH  40  43
ENDBRANCH   1  40
TORSDOF 17
ENDMDL
MODEL 10
REMARK VINA RESULT:     -12.2      4.571      9.043
REMARK SMILES O=C(Cc1ccccc1Nc1c(F)cccc1C(F)(F)F)NCCCCCCNC(=O)c1ccc(-c2c3nc(c(-c4c(F)c(F)c(F)c(F)c4F)c4ccc([nH]4)c(-c4c(F)c(F)c(F)c(F)c4F)c4nc(c(-c5c(F)c(F)c(F)c(F)c5F)c5ccc2[nH]5)C=C4)C=C3)cc1
REMARK SMILES IDX 24 1 23 4 22 7 1 8 2 9 3 11 4 14 5 15 9 16 6 17 8 19 7 20
REMARK SMILES IDX 10 24 11 26 12 27 17 28 13 29 14 30 16 31 15 32 18 36 19 37
REMARK SMILES IDX 20 38 21 39 25 40 26 43 27 46 28 49 29 52 30 53 31 55 32 56
REMARK SMILES IDX 33 57 94 58 34 59 93 61 35 63 36 66 37 67 87 68 38 69 92 70
REMARK SMILES IDX 86 71 88 72 39 73 91 74 85 76 84 78 40 80 72 83 52 84 71 85
REMARK SMILES IDX 53 86 56 87 70 88 89 89 54 90 55 92 69 94 90 95 57 98 41 100
REMARK SMILES IDX 42 101 50 102 43 103 44 104 48 105 51 106 45 107 46 108
REMARK SMILES IDX 49 109 47 110 73 111 74 112 82 113 75 114 76 115 80 116
REMARK SMILES IDX 83 117 77 118 78 119 81 120 79 121 58 122 59 123 67 124
REMARK SMILES IDX 60 125 61 126 65 127 68 128 62 129 63 130 66 131 64 132
REMARK H PARENT 24 2 24 3 23 5 23 6 22 10 3 12 3 13 5 18 6 21 8 22 7 23 10 25
REMARK H PARENT 14 33 16 34 15 35 25 41 25 42 26 44 26 45 27 47 27 48 28 50
REMARK H PARENT 28 51 29 54 33 60 94 62 34 64 93 65 92 75 86 77 88 79 91 81
REMARK H PARENT 85 82 53 91 56 93 89 96 54 97 90 99
REMARK Flexibility Score: inf
ROOT
ATOM      1  C   UNL A   1      35.726  31.829  27.894  1.00  0.00    -0.036 C 
ATOM      2  H   UNL A   1      36.060  31.819  26.878  1.00  0.00     0.028 H 
ATOM      3  H   UNL A   1      36.398  31.340  28.567  1.00  0.00     0.028 H 
ENDROOT
BRANCH   1   4
ATOM      4  C   UNL A   1      34.406  31.054  27.967  1.00  0.00     0.017 C 
ATOM      5  H   UNL A   1      34.432  30.401  28.814  1.00  0.00     0.049 H 
ATOM      6  H   UNL A   1      33.605  31.758  28.057  1.00  0.00     0.049 H 
BRANCH   4   7
ATOM      7  N   UNL A   1      34.190  30.269  26.771  1.00  0.00    -0.356 N 
ATOM      8  O   UNL A   1      32.031  29.634  27.206  1.00  0.00    -0.275 OA
ATOM      9  C   UNL A   1      33.030  29.586  26.494  1.00  0.00     0.224 C 
ATOM     10  H   UNL A   1      34.922  30.219  26.115  1.00  0.00     0.163 HD
BRANCH   9  11
ATOM     11  C   UNL A   1      33.132  28.642  25.309  1.00  0.00     0.054 C 
ATOM     12  H   UNL A   1      33.561  27.727  25.659  1.00  0.00     0.042 H 
ATOM     13  H   UNL A   1      33.721  29.163  24.583  1.00  0.00     0.042 H 
BRANCH  11  14
ATOM     14  C   UNL A   1      31.837  28.300  24.599  1.00  0.00    -0.015 A 
ATOM     15  C   UNL A   1      31.362  29.199  23.625  1.00  0.00    -0.056 A 
ATOM     16  C   UNL A   1      31.074  27.147  24.893  1.00  0.00     0.042 A 
ATOM     17  C   UNL A   1      30.143  28.988  22.982  1.00  0.00    -0.062 A 
ATOM     18  H   UNL A   1      31.927  30.028  23.382  1.00  0.00     0.063 H 
ATOM     19  C   UNL A   1      29.840  26.966  24.248  1.00  0.00    -0.038 A 
ATOM     20  C   UNL A   1      29.376  27.877  23.301  1.00  0.00    -0.060 A 
ATOM     21  H   UNL A   1      29.811  29.657  22.270  1.00  0.00     0.062 H 
ATOM     22  H   UNL A   1      29.264  26.140  24.480  1.00  0.00     0.064 H 
ATOM     23  H   UNL A   1      28.465  27.724  22.839  1.00  0.00     0.062 H 
BRANCH  16  24
ATOM     24  N   UNL A   1      31.529  26.194  25.835  1.00  0.00    -0.352 N 
ATOM     25  H   UNL A   1      31.751  26.554  26.725  1.00  0.00     0.167 HD
BRANCH  24  26
ATOM     26  C   UNL A   1      31.708  24.798  25.681  1.00  0.00     0.087 A 
ATOM     27  C   UNL A   1      30.668  23.962  26.137  1.00  0.00     0.147 A 
ATOM     28  C   UNL A   1      32.843  24.189  25.109  1.00  0.00     0.082 A 
ATOM     29  F   UNL A   1      29.603  24.521  26.736  1.00  0.00    -0.205 F 
ATOM     30  C   UNL A   1      30.708  22.578  26.010  1.00  0.00    -0.024 A 
ATOM     31  C   UNL A   1      32.860  22.780  24.961  1.00  0.00    -0.048 A 
ATOM     32  C   UNL A   1      31.806  21.983  25.409  1.00  0.00    -0.059 A 
ATOM     33  H   UNL A   1      29.927  21.999  26.361  1.00  0.00     0.065 H 
ATOM     34  H   UNL A   1      33.673  22.332  24.511  1.00  0.00     0.063 H 
ATOM     35  H   UNL A   1      31.844  20.958  25.292  1.00  0.00     0.062 H 
BRANCH  28  36
ATOM     36  C   UNL A   1      34.100  24.928  24.705  1.00  0.00     0.418 C 
ATOM     37  F   UNL A   1      34.618  25.649  25.748  1.00  0.00    -0.166 F 
ATOM     38  F   UNL A   1      35.104  24.095  24.318  1.00  0.00    -0.166 F 
ATOM     39  F   UNL A   1      33.937  25.844  23.715  1.00  0.00    -0.166 F 
ENDBRANCH  28  36
ENDBRANCH  24  26
ENDBRANCH  16  24
ENDBRANCH  11  14
ENDBRANCH   9  11
ENDBRANCH   4   7
ENDBRANCH   1   4
BRANCH   1  40
ATOM     40  C   UNL A   1      35.644  33.290  28.354  1.00  0.00    -0.052 C 
ATOM     41  H   UNL A   1      35.661  33.913  27.485  1.00  0.00     0.027 H 
ATOM     42  H   UNL A   1      36.479  33.444  29.006  1.00  0.00     0.027 H 
BRANCH  40  43
ATOM     43  C   UNL A   1      34.400  33.646  29.168  1.00  0.00    -0.052 C 
ATOM     44  H   UNL A   1      33.680  32.869  29.022  1.00  0.00     0.027 H 
ATOM     45  H   UNL A   1      34.087  34.605  28.811  1.00  0.00     0.027 H 
BRANCH  43  46
ATOM     46  C   UNL A   1      34.606  33.815  30.668  1.00  0.00    -0.036 C 
ATOM     47  H   UNL A   1      33.757  34.330  31.066  1.00  0.00     0.028 H 
ATOM     48  H   UNL A   1      35.521  34.356  30.791  1.00  0.00     0.028 H 
BRANCH  46  49
ATOM     49  C   UNL A   1      34.771  32.509  31.435  1.00  0.00     0.018 C 
ATOM     50  H   UNL A   1      35.438  31.875  30.889  1.00  0.00     0.049 H 
ATOM     51  H   UNL A   1      33.799  32.072  31.536  1.00  0.00     0.049 H 
BRANCH  49  52
ATOM     52  N   UNL A   1      35.304  32.700  32.776  1.00  0.00    -0.352 N 
ATOM     53  C   UNL A   1      36.487  32.255  33.322  1.00  0.00     0.251 C 
ATOM     54  H   UNL A   1      34.735  33.226  33.382  1.00  0.00     0.163 HD
ATOM     55  O   UNL A   1      36.705  32.390  34.519  1.00  0.00    -0.269 OA
BRANCH  53  56
ATOM     56  C   UNL A   1      37.478  31.572  32.462  1.00  0.00     0.039 A 
ATOM     57  C   UNL A   1      37.569  31.934  31.116  1.00  0.00    -0.049 A 
ATOM     58  C   UNL A   1      38.339  30.605  32.987  1.00  0.00    -0.049 A 
ATOM     59  C   UNL A   1      38.587  31.400  30.324  1.00  0.00    -0.053 A 
ATOM     60  H   UNL A   1      36.888  32.594  30.710  1.00  0.00     0.063 H 
ATOM     61  C   UNL A   1      39.404  30.139  32.223  1.00  0.00    -0.053 A 
ATOM     62  H   UNL A   1      38.186  30.238  33.941  1.00  0.00     0.063 H 
ATOM     63  C   UNL A   1      39.545  30.541  30.887  1.00  0.00    -0.014 A 
ATOM     64  H   UNL A   1      38.638  31.638  29.320  1.00  0.00     0.063 H 
ATOM     65  H   UNL A   1      40.092  29.494  32.641  1.00  0.00     0.063 H 
BRANCH  63  66
ATOM     66  C   UNL A   1      40.725  30.083  30.109  1.00  0.00     0.031 A 
ATOM     67  C   UNL A   1      41.837  31.036  29.781  1.00  0.00     0.074 A 
ATOM     68  C   UNL A   1      40.747  28.827  29.621  1.00  0.00     0.049 A 
ATOM     69  N   UNL A   1      42.903  30.844  29.046  1.00  0.00    -0.248 NA
ATOM     70  C   UNL A   1      41.722  32.396  30.328  1.00  0.00    -0.034 C 
ATOM     71  C   UNL A   1      39.697  27.827  29.813  1.00  0.00    -0.036 A 
ATOM     72  N   UNL A   1      41.680  28.185  28.843  1.00  0.00    -0.354 N 
ATOM     73  C   UNL A   1      43.577  32.057  29.034  1.00  0.00     0.074 A 
ATOM     74  C   UNL A   1      42.769  32.996  29.783  1.00  0.00    -0.034 C 
ATOM     75  H   UNL A   1      41.010  32.782  30.968  1.00  0.00     0.065 H 
ATOM     76  C   UNL A   1      40.047  26.695  29.183  1.00  0.00    -0.036 A 
ATOM     77  H   UNL A   1      38.825  27.970  30.346  1.00  0.00     0.065 H 
ATOM     78  C   UNL A   1      41.326  26.899  28.512  1.00  0.00     0.049 A 
ATOM     79  H   UNL A   1      42.521  28.605  28.553  1.00  0.00     0.167 HD
ATOM     80  C   UNL A   1      44.774  32.355  28.472  1.00  0.00     0.037 A 
ATOM     81  H   UNL A   1      42.983  34.000  29.881  1.00  0.00     0.065 H 
ATOM     82  H   UNL A   1      39.500  25.820  29.176  1.00  0.00     0.065 H 
ATOM     83  C   UNL A   1      41.955  25.992  27.741  1.00  0.00     0.037 A 
ATOM     84  C   UNL A   1      45.577  31.415  27.734  1.00  0.00     0.049 A 
ATOM     85  C   UNL A   1      43.276  26.346  27.117  1.00  0.00     0.074 A 
ATOM     86  C   UNL A   1      46.833  31.599  27.184  1.00  0.00    -0.036 A 
ATOM     87  N   UNL A   1      45.196  30.115  27.435  1.00  0.00    -0.354 N 
ATOM     88  N   UNL A   1      43.945  27.471  27.183  1.00  0.00    -0.248 NA
ATOM     89  C   UNL A   1      43.933  25.302  26.318  1.00  0.00    -0.034 C 
ATOM     90  C   UNL A   1      47.190  30.426  26.507  1.00  0.00    -0.036 A 
ATOM     91  H   UNL A   1      47.408  32.453  27.258  1.00  0.00     0.065 H 
ATOM     92  C   UNL A   1      46.180  29.494  26.680  1.00  0.00     0.049 A 
ATOM     93  H   UNL A   1      44.353  29.694  27.717  1.00  0.00     0.167 HD
ATOM     94  C   UNL A   1      45.105  27.270  26.446  1.00  0.00     0.074 A 
ATOM     95  C   UNL A   1      45.059  25.905  25.962  1.00  0.00    -0.034 C 
ATOM     96  H   UNL A   1      43.604  24.350  26.094  1.00  0.00     0.065 H 
ATOM     97  H   UNL A   1      48.060  30.281  25.970  1.00  0.00     0.065 H 
ATOM     98  C   UNL A   1      46.114  28.139  26.193  1.00  0.00     0.037 A 
ATOM     99  H   UNL A   1      45.807  25.459  25.410  1.00  0.00     0.065 H 
BRANCH  80 100
ATOM    100  C   UNL A   1      45.280  33.759  28.638  1.00  0.00     0.064 A 
ATOM    101  C   UNL A   1      44.979  34.764  27.703  1.00  0.00     0.173 A 
ATOM    102  C   UNL A   1      46.065  34.111  29.745  1.00  0.00     0.173 A 
ATOM    103  F   UNL A   1      44.242  34.479  26.619  1.00  0.00    -0.203 F 
ATOM    104  C   UNL A   1      45.482  36.054  27.850  1.00  0.00     0.198 A 
ATOM    105  C   UNL A   1      46.537  35.411  29.907  1.00  0.00     0.198 A 
ATOM    106  F   UNL A   1      46.376  33.193  30.673  1.00  0.00    -0.203 F 
ATOM    107  F   UNL A   1      45.234  36.977  26.911  1.00  0.00    -0.200 F 
ATOM    108  C   UNL A   1      46.255  36.378  28.953  1.00  0.00     0.200 A 
ATOM    109  F   UNL A   1      47.274  35.727  30.981  1.00  0.00    -0.200 F 
ATOM    110  F   UNL A   1      46.739  37.620  29.093  1.00  0.00    -0.200 F 
ENDBRANCH  80 100
BRANCH  83 111
ATOM    111  C   UNL A   1      41.337  24.658  27.530  1.00  0.00     0.064 A 
ATOM    112  C   UNL A   1      40.210  24.505  26.711  1.00  0.00     0.173 A 
ATOM    113  C   UNL A   1      41.879  23.505  28.117  1.00  0.00     0.173 A 
ATOM    114  F   UNL A   1      39.646  25.581  26.144  1.00  0.00    -0.203 F 
ATOM    115  C   UNL A   1      39.643  23.251  26.495  1.00  0.00     0.198 A 
ATOM    116  C   UNL A   1      41.327  22.248  27.879  1.00  0.00     0.198 A 
ATOM    117  F   UNL A   1      42.961  23.596  28.905  1.00  0.00    -0.203 F 
ATOM    118  F   UNL A   1      38.547  23.138  25.734  1.00  0.00    -0.200 F 
ATOM    119  C   UNL A   1      40.206  22.123  27.071  1.00  0.00     0.200 A 
ATOM    120  F   UNL A   1      41.884  21.159  28.425  1.00  0.00    -0.200 F 
ATOM    121  F   UNL A   1      39.668  20.915  26.852  1.00  0.00    -0.200 F 
ENDBRANCH  83 111
BRANCH  98 122
ATOM    122  C   UNL A   1      47.255  27.639  25.356  1.00  0.00     0.064 A 
ATOM    123  C   UNL A   1      47.288  27.837  23.967  1.00  0.00     0.173 A 
ATOM    124  C   UNL A   1      48.347  26.990  25.953  1.00  0.00     0.173 A 
ATOM    125  F   UNL A   1      46.261  28.436  23.346  1.00  0.00    -0.203 F 
ATOM    126  C   UNL A   1      48.362  27.384  23.204  1.00  0.00     0.198 A 
ATOM    127  C   UNL A   1      49.432  26.565  25.191  1.00  0.00     0.198 A 
ATOM    128  F   UNL A   1      48.367  26.781  27.277  1.00  0.00    -0.203 F 
ATOM    129  F   UNL A   1      48.351  27.544  21.874  1.00  0.00    -0.200 F 
ATOM    130  C   UNL A   1      49.436  26.756  23.818  1.00  0.00     0.200 A 
ATOM    131  F   UNL A   1      50.475  25.970  25.787  1.00  0.00    -0.200 F 
ATOM    132  F   UNL A   1      50.472  26.329  23.084  1.00  0.00    -0.200 F 
ENDBRANCH  98 122
ENDBRANCH  63  66
ENDBRANCH  53  56
ENDBRANCH  49  52
ENDBRANCH  46  49
ENDBRANCH  43  46
ENDBRANCH  40  43
ENDBRANCH   1  40
TORSDOF 17
ENDMDL
