MODEL 1
REMARK VINA RESULT:     -13.7      0.000      0.000
REMARK SMILES Cc1c(CC(=O)NCCCCCCNC(=O)c2ccc(-c3c4nc(c(-c5c(F)c(F)c(F)c(F)c5F)c5ccc([nH]5)c(-c5c(F)c(F)c(F)c(F)c5F)c5nc(c(-c6c(F)c(F)c(F)c(F)c6F)c6ccc3[nH]6)C=C5)C=C4)cc2)cc(-c2ccccc2)cc1-c1ccccc1
REMARK SMILES IDX 10 1 9 4 8 7 7 10 5 11 6 12 4 14 3 17 2 18 89 19 80 20 88 21
REMARK SMILES IDX 81 22 1 25 90 29 91 30 95 31 92 32 94 34 93 36 82 40 83 41
REMARK SMILES IDX 87 42 84 43 86 45 85 47 11 51 12 54 13 57 14 60 15 61 16 63
REMARK SMILES IDX 17 64 18 65 79 66 19 67 78 69 20 71 21 74 22 75 72 76 23 77
REMARK SMILES IDX 77 78 71 79 73 80 24 81 76 82 70 84 69 86 25 88 57 91 37 92
REMARK SMILES IDX 56 93 38 94 41 95 55 96 74 97 39 98 40 100 54 102 75 103
REMARK SMILES IDX 42 106 26 108 27 109 35 110 28 111 29 112 33 113 36 114
REMARK SMILES IDX 30 115 31 116 34 117 32 118 58 119 59 120 67 121 60 122
REMARK SMILES IDX 61 123 65 124 68 125 62 126 63 127 66 128 64 129 43 130
REMARK SMILES IDX 44 131 52 132 45 133 46 134 50 135 53 136 47 137 48 138
REMARK SMILES IDX 51 139 49 140
REMARK H PARENT 10 2 10 3 9 5 9 6 8 8 8 9 7 13 4 15 4 16 80 23 88 24 1 26 1 27
REMARK H PARENT 1 28 91 33 95 35 92 37 94 38 93 39 83 44 87 46 84 48 86 49
REMARK H PARENT 85 50 11 52 11 53 12 55 12 56 13 58 13 59 14 62 18 68 79 70
REMARK H PARENT 19 72 78 73 77 83 71 85 73 87 76 89 70 90 38 99 41 101 74 104
REMARK H PARENT 39 105 75 107
REMARK Flexibility Score: inf
ROOT
ATOM      1  C   UNL A   1      35.472  24.272  25.729  1.00  0.00    -0.052 C 
ATOM      2  H   UNL A   1      35.435  23.657  26.604  1.00  0.00     0.027 H 
ATOM      3  H   UNL A   1      36.149  25.098  25.795  1.00  0.00     0.027 H 
ENDROOT
BRANCH   1   4
ATOM      4  C   UNL A   1      34.085  24.900  25.541  1.00  0.00    -0.036 C 
ATOM      5  H   UNL A   1      33.876  25.507  26.397  1.00  0.00     0.028 H 
ATOM      6  H   UNL A   1      34.129  25.455  24.627  1.00  0.00     0.028 H 
BRANCH   4   7
ATOM      7  C   UNL A   1      32.940  23.899  25.377  1.00  0.00     0.017 C 
ATOM      8  H   UNL A   1      32.600  23.930  24.363  1.00  0.00     0.049 H 
ATOM      9  H   UNL A   1      33.316  22.932  25.639  1.00  0.00     0.049 H 
BRANCH   7  10
ATOM     10  N   UNL A   1      31.821  24.184  26.249  1.00  0.00    -0.356 N 
ATOM     11  C   UNL A   1      30.694  24.909  25.987  1.00  0.00     0.224 C 
ATOM     12  O   UNL A   1      29.843  25.003  26.876  1.00  0.00    -0.275 OA
ATOM     13  H   UNL A   1      31.881  23.803  27.155  1.00  0.00     0.163 HD
BRANCH  11  14
ATOM     14  C   UNL A   1      30.480  25.547  24.618  1.00  0.00     0.052 C 
ATOM     15  H   UNL A   1      31.181  25.115  23.934  1.00  0.00     0.042 H 
ATOM     16  H   UNL A   1      29.464  25.355  24.344  1.00  0.00     0.042 H 
BRANCH  14  17
ATOM     17  C   UNL A   1      30.662  27.054  24.601  1.00  0.00    -0.035 A 
ATOM     18  C   UNL A   1      29.831  27.939  23.863  1.00  0.00    -0.040 A 
ATOM     19  C   UNL A   1      30.120  29.330  23.874  1.00  0.00    -0.015 A 
ATOM     20  C   UNL A   1      31.716  27.578  25.375  1.00  0.00    -0.050 A 
ATOM     21  C   UNL A   1      31.201  29.800  24.650  1.00  0.00    -0.046 A 
ATOM     22  C   UNL A   1      32.001  28.946  25.417  1.00  0.00    -0.017 A 
ATOM     23  H   UNL A   1      32.298  26.930  25.930  1.00  0.00     0.063 H 
ATOM     24  H   UNL A   1      31.410  30.811  24.652  1.00  0.00     0.064 H 
BRANCH  18  25
ATOM     25  C   UNL A   1      28.619  27.416  23.121  1.00  0.00    -0.039 C 
ATOM     26  H   UNL A   1      28.757  26.378  22.900  1.00  0.00     0.028 H 
ATOM     27  H   UNL A   1      28.495  27.962  22.211  1.00  0.00     0.028 H 
ATOM     28  H   UNL A   1      27.748  27.537  23.731  1.00  0.00     0.028 H 
ENDBRANCH  18  25
BRANCH  19  29
ATOM     29  C   UNL A   1      29.360  30.321  23.083  1.00  0.00    -0.018 A 
ATOM     30  C   UNL A   1      28.738  31.409  23.720  1.00  0.00    -0.054 A 
ATOM     31  C   UNL A   1      29.233  30.209  21.689  1.00  0.00    -0.054 A 
ATOM     32  C   UNL A   1      28.028  32.363  22.988  1.00  0.00    -0.062 A 
ATOM     33  H   UNL A   1      28.807  31.505  24.745  1.00  0.00     0.063 H 
ATOM     34  C   UNL A   1      28.535  31.170  20.954  1.00  0.00    -0.062 A 
ATOM     35  H   UNL A   1      29.660  29.406  21.202  1.00  0.00     0.063 H 
ATOM     36  C   UNL A   1      27.933  32.246  21.603  1.00  0.00    -0.062 A 
ATOM     37  H   UNL A   1      27.574  33.153  23.472  1.00  0.00     0.062 H 
ATOM     38  H   UNL A   1      28.465  31.083  19.928  1.00  0.00     0.062 H 
ATOM     39  H   UNL A   1      27.419  32.956  21.059  1.00  0.00     0.062 H 
ENDBRANCH  19  29
BRANCH  22  40
ATOM     40  C   UNL A   1      33.095  29.461  26.254  1.00  0.00    -0.018 A 
ATOM     41  C   UNL A   1      34.253  28.700  26.486  1.00  0.00    -0.054 A 
ATOM     42  C   UNL A   1      32.996  30.719  26.870  1.00  0.00    -0.054 A 
ATOM     43  C   UNL A   1      35.273  29.179  27.311  1.00  0.00    -0.062 A 
ATOM     44  H   UNL A   1      34.351  27.774  26.041  1.00  0.00     0.063 H 
ATOM     45  C   UNL A   1      34.014  31.199  27.697  1.00  0.00    -0.062 A 
ATOM     46  H   UNL A   1      32.157  31.300  26.708  1.00  0.00     0.063 H 
ATOM     47  C   UNL A   1      35.153  30.427  27.918  1.00  0.00    -0.062 A 
ATOM     48  H   UNL A   1      36.119  28.608  27.470  1.00  0.00     0.062 H 
ATOM     49  H   UNL A   1      33.923  32.124  28.144  1.00  0.00     0.062 H 
ATOM     50  H   UNL A   1      35.905  30.779  28.531  1.00  0.00     0.062 H 
ENDBRANCH  22  40
ENDBRANCH  14  17
ENDBRANCH  11  14
ENDBRANCH   7  10
ENDBRANCH   4   7
ENDBRANCH   1   4
BRANCH   1  51
ATOM     51  C   UNL A   1      35.999  23.408  24.571  1.00  0.00    -0.052 C 
ATOM     52  H   UNL A   1      36.007  24.015  23.690  1.00  0.00     0.027 H 
ATOM     53  H   UNL A   1      35.341  22.566  24.523  1.00  0.00     0.027 H 
BRANCH  51  54
ATOM     54  C   UNL A   1      37.403  22.817  24.743  1.00  0.00    -0.036 C 
ATOM     55  H   UNL A   1      38.044  23.255  24.006  1.00  0.00     0.028 H 
ATOM     56  H   UNL A   1      37.306  21.757  24.631  1.00  0.00     0.028 H 
BRANCH  54  57
ATOM     57  C   UNL A   1      38.017  23.059  26.114  1.00  0.00     0.018 C 
ATOM     58  H   UNL A   1      37.596  22.356  26.802  1.00  0.00     0.049 H 
ATOM     59  H   UNL A   1      37.798  24.073  26.379  1.00  0.00     0.049 H 
BRANCH  57  60
ATOM     60  N   UNL A   1      39.468  22.918  26.144  1.00  0.00    -0.352 N 
ATOM     61  C   UNL A   1      40.431  23.843  26.507  1.00  0.00     0.251 C 
ATOM     62  H   UNL A   1      39.812  22.038  25.867  1.00  0.00     0.163 HD
ATOM     63  O   UNL A   1      41.617  23.566  26.431  1.00  0.00    -0.269 OA
BRANCH  61  64
ATOM     64  C   UNL A   1      40.004  25.125  27.114  1.00  0.00     0.039 A 
ATOM     65  C   UNL A   1      40.355  26.308  26.453  1.00  0.00    -0.049 A 
ATOM     66  C   UNL A   1      39.454  25.170  28.392  1.00  0.00    -0.049 A 
ATOM     67  C   UNL A   1      40.382  27.505  27.164  1.00  0.00    -0.053 A 
ATOM     68  H   UNL A   1      40.592  26.294  25.448  1.00  0.00     0.063 H 
ATOM     69  C   UNL A   1      39.561  26.335  29.126  1.00  0.00    -0.053 A 
ATOM     70  H   UNL A   1      38.973  24.345  28.785  1.00  0.00     0.063 H 
ATOM     71  C   UNL A   1      40.091  27.483  28.530  1.00  0.00    -0.014 A 
ATOM     72  H   UNL A   1      40.613  28.392  26.692  1.00  0.00     0.063 H 
ATOM     73  H   UNL A   1      39.252  26.359  30.110  1.00  0.00     0.063 H 
BRANCH  71  74
ATOM     74  C   UNL A   1      40.436  28.580  29.423  1.00  0.00     0.031 A 
ATOM     75  C   UNL A   1      39.443  29.614  29.767  1.00  0.00     0.074 A 
ATOM     76  C   UNL A   1      41.673  28.617  29.967  1.00  0.00     0.049 A 
ATOM     77  N   UNL A   1      39.740  30.832  30.077  1.00  0.00    -0.248 NA
ATOM     78  C   UNL A   1      38.010  29.353  29.751  1.00  0.00    -0.034 C 
ATOM     79  C   UNL A   1      42.146  29.493  31.035  1.00  0.00    -0.036 A 
ATOM     80  N   UNL A   1      42.831  27.975  29.498  1.00  0.00    -0.354 N 
ATOM     81  C   UNL A   1      38.593  31.438  30.539  1.00  0.00     0.074 A 
ATOM     82  C   UNL A   1      37.534  30.494  30.259  1.00  0.00    -0.034 C 
ATOM     83  H   UNL A   1      37.500  28.514  29.433  1.00  0.00     0.065 H 
ATOM     84  C   UNL A   1      43.485  29.575  30.962  1.00  0.00    -0.036 A 
ATOM     85  H   UNL A   1      41.551  29.970  31.731  1.00  0.00     0.065 H 
ATOM     86  C   UNL A   1      43.893  28.869  29.760  1.00  0.00     0.049 A 
ATOM     87  H   UNL A   1      42.891  27.087  29.076  1.00  0.00     0.167 HD
ATOM     88  C   UNL A   1      38.684  32.612  31.231  1.00  0.00     0.037 A 
ATOM     89  H   UNL A   1      36.533  30.678  30.432  1.00  0.00     0.065 H 
ATOM     90  H   UNL A   1      44.107  30.050  31.635  1.00  0.00     0.065 H 
ATOM     91  C   UNL A   1      44.634  29.410  28.749  1.00  0.00     0.037 A 
ATOM     92  C   UNL A   1      40.070  33.063  31.328  1.00  0.00     0.049 A 
ATOM     93  C   UNL A   1      44.607  30.918  28.714  1.00  0.00     0.074 A 
ATOM     94  C   UNL A   1      41.024  32.903  32.320  1.00  0.00    -0.036 A 
ATOM     95  N   UNL A   1      40.747  33.494  30.193  1.00  0.00    -0.354 N 
ATOM     96  N   UNL A   1      43.675  31.639  29.269  1.00  0.00    -0.248 NA
ATOM     97  C   UNL A   1      45.599  31.724  28.007  1.00  0.00    -0.034 C 
ATOM     98  C   UNL A   1      42.291  33.190  31.762  1.00  0.00    -0.036 A 
ATOM     99  H   UNL A   1      40.842  32.622  33.296  1.00  0.00     0.065 H 
ATOM    100  C   UNL A   1      42.107  33.545  30.437  1.00  0.00     0.049 A 
ATOM    101  H   UNL A   1      40.319  33.730  29.337  1.00  0.00     0.167 HD
ATOM    102  C   UNL A   1      43.900  32.961  28.988  1.00  0.00     0.074 A 
ATOM    103  C   UNL A   1      45.126  32.966  28.212  1.00  0.00    -0.034 C 
ATOM    104  H   UNL A   1      46.439  31.421  27.489  1.00  0.00     0.065 H 
ATOM    105  H   UNL A   1      43.196  33.143  32.256  1.00  0.00     0.065 H 
ATOM    106  C   UNL A   1      43.049  33.942  29.405  1.00  0.00     0.037 A 
ATOM    107  H   UNL A   1      45.583  33.822  27.859  1.00  0.00     0.065 H 
BRANCH  88 108
ATOM    108  C   UNL A   1      37.567  33.162  32.092  1.00  0.00     0.064 A 
ATOM    109  C   UNL A   1      36.481  33.861  31.517  1.00  0.00     0.173 A 
ATOM    110  C   UNL A   1      37.540  33.091  33.496  1.00  0.00     0.173 A 
ATOM    111  F   UNL A   1      36.294  33.899  30.192  1.00  0.00    -0.203 F 
ATOM    112  C   UNL A   1      35.542  34.554  32.285  1.00  0.00     0.198 A 
ATOM    113  C   UNL A   1      36.635  33.830  34.266  1.00  0.00     0.198 A 
ATOM    114  F   UNL A   1      38.358  32.266  34.163  1.00  0.00    -0.203 F 
ATOM    115  F   UNL A   1      34.545  35.215  31.679  1.00  0.00    -0.200 F 
ATOM    116  C   UNL A   1      35.646  34.577  33.659  1.00  0.00     0.200 A 
ATOM    117  F   UNL A   1      36.731  33.815  35.604  1.00  0.00    -0.200 F 
ATOM    118  F   UNL A   1      34.782  35.290  34.395  1.00  0.00    -0.200 F 
ENDBRANCH  88 108
BRANCH  91 119
ATOM    119  C   UNL A   1      44.721  28.545  27.544  1.00  0.00     0.064 A 
ATOM    120  C   UNL A   1      45.498  27.373  27.610  1.00  0.00     0.173 A 
ATOM    121  C   UNL A   1      43.805  28.656  26.492  1.00  0.00     0.173 A 
ATOM    122  F   UNL A   1      46.392  27.217  28.600  1.00  0.00    -0.203 F 
ATOM    123  C   UNL A   1      45.286  26.313  26.732  1.00  0.00     0.198 A 
ATOM    124  C   UNL A   1      43.606  27.598  25.604  1.00  0.00     0.198 A 
ATOM    125  F   UNL A   1      43.024  29.741  26.383  1.00  0.00    -0.203 F 
ATOM    126  F   UNL A   1      45.967  25.168  26.889  1.00  0.00    -0.200 F 
ATOM    127  C   UNL A   1      44.322  26.417  25.745  1.00  0.00     0.200 A 
ATOM    128  F   UNL A   1      42.654  27.687  24.664  1.00  0.00    -0.200 F 
ATOM    129  F   UNL A   1      44.055  25.368  24.954  1.00  0.00    -0.200 F 
ENDBRANCH  91 119
BRANCH 106 130
ATOM    130  C   UNL A   1      43.097  35.381  28.965  1.00  0.00     0.064 A 
ATOM    131  C   UNL A   1      42.664  35.821  27.704  1.00  0.00     0.173 A 
ATOM    132  C   UNL A   1      43.459  36.397  29.880  1.00  0.00     0.173 A 
ATOM    133  F   UNL A   1      42.185  34.961  26.794  1.00  0.00    -0.203 F 
ATOM    134  C   UNL A   1      42.660  37.174  27.358  1.00  0.00     0.198 A 
ATOM    135  C   UNL A   1      43.402  37.750  29.549  1.00  0.00     0.198 A 
ATOM    136  F   UNL A   1      43.858  36.104  31.127  1.00  0.00    -0.203 F 
ATOM    137  F   UNL A   1      42.278  37.543  26.127  1.00  0.00    -0.200 F 
ATOM    138  C   UNL A   1      43.018  38.138  28.282  1.00  0.00     0.200 A 
ATOM    139  F   UNL A   1      43.704  38.674  30.472  1.00  0.00    -0.200 F 
ATOM    140  F   UNL A   1      42.974  39.437  27.959  1.00  0.00    -0.200 F 
ENDBRANCH 106 130
ENDBRANCH  71  74
ENDBRANCH  61  64
ENDBRANCH  57  60
ENDBRANCH  54  57
ENDBRANCH  51  54
ENDBRANCH   1  51
TORSDOF 17
ENDMDL
MODEL 2
REMARK VINA RESULT:     -13.5      0.764      2.949
REMARK SMILES Cc1c(CC(=O)NCCCCCCNC(=O)c2ccc(-c3c4nc(c(-c5c(F)c(F)c(F)c(F)c5F)c5ccc([nH]5)c(-c5c(F)c(F)c(F)c(F)c5F)c5nc(c(-c6c(F)c(F)c(F)c(F)c6F)c6ccc3[nH]6)C=C5)C=C4)cc2)cc(-c2ccccc2)cc1-c1ccccc1
REMARK SMILES IDX 10 1 9 4 8 7 7 10 5 11 6 12 4 14 3 17 2 18 89 19 80 20 88 21
REMARK SMILES IDX 81 22 1 25 90 29 91 30 95 31 92 32 94 34 93 36 82 40 83 41
REMARK SMILES IDX 87 42 84 43 86 45 85 47 11 51 12 54 13 57 14 60 15 61 16 63
REMARK SMILES IDX 17 64 18 65 79 66 19 67 78 69 20 71 21 74 22 75 72 76 23 77
REMARK SMILES IDX 77 78 71 79 73 80 24 81 76 82 70 84 69 86 25 88 57 91 37 92
REMARK SMILES IDX 56 93 38 94 41 95 55 96 74 97 39 98 40 100 54 102 75 103
REMARK SMILES IDX 42 106 26 108 27 109 35 110 28 111 29 112 33 113 36 114
REMARK SMILES IDX 30 115 31 116 34 117 32 118 58 119 59 120 67 121 60 122
REMARK SMILES IDX 61 123 65 124 68 125 62 126 63 127 66 128 64 129 43 130
REMARK SMILES IDX 44 131 52 132 45 133 46 134 50 135 53 136 47 137 48 138
REMARK SMILES IDX 51 139 49 140
REMARK H PARENT 10 2 10 3 9 5 9 6 8 8 8 9 7 13 4 15 4 16 80 23 88 24 1 26 1 27
REMARK H PARENT 1 28 91 33 95 35 92 37 94 38 93 39 83 44 87 46 84 48 86 49
REMARK H PARENT 85 50 11 52 11 53 12 55 12 56 13 58 13 59 14 62 18 68 79 70
REMARK H PARENT 19 72 78 73 77 83 71 85 73 87 76 89 70 90 38 99 41 101 74 104
REMARK H PARENT 39 105 75 107
REMARK Flexibility Score: inf
ROOT
ATOM      1  C   UNL A   1      34.001  23.124  26.472  1.00  0.00    -0.052 C 
ATOM      2  H   UNL A   1      34.335  22.529  27.296  1.00  0.00     0.027 H 
ATOM      3  H   UNL A   1      33.448  23.997  26.748  1.00  0.00     0.027 H 
ENDROOT
BRANCH   1   4
ATOM      4  C   UNL A   1      33.027  22.272  25.647  1.00  0.00    -0.036 C 
ATOM      5  H   UNL A   1      33.520  21.986  24.742  1.00  0.00     0.028 H 
ATOM      6  H   UNL A   1      32.758  21.441  26.265  1.00  0.00     0.028 H 
BRANCH   4   7
ATOM      7  C   UNL A   1      31.717  22.967  25.275  1.00  0.00     0.017 C 
ATOM      8  H   UNL A   1      30.933  22.239  25.265  1.00  0.00     0.049 H 
ATOM      9  H   UNL A   1      31.538  23.731  26.002  1.00  0.00     0.049 H 
BRANCH   7  10
ATOM     10  N   UNL A   1      31.772  23.604  23.977  1.00  0.00    -0.356 N 
ATOM     11  C   UNL A   1      31.167  24.756  23.561  1.00  0.00     0.224 C 
ATOM     12  O   UNL A   1      31.375  25.139  22.406  1.00  0.00    -0.275 OA
ATOM     13  H   UNL A   1      32.321  23.145  23.302  1.00  0.00     0.163 HD
BRANCH  11  14
ATOM     14  C   UNL A   1      30.294  25.563  24.516  1.00  0.00     0.052 C 
ATOM     15  H   UNL A   1      29.280  25.503  24.176  1.00  0.00     0.042 H 
ATOM     16  H   UNL A   1      30.429  25.140  25.489  1.00  0.00     0.042 H 
BRANCH  14  17
ATOM     17  C   UNL A   1      30.677  27.029  24.619  1.00  0.00    -0.035 A 
ATOM     18  C   UNL A   1      31.755  27.507  25.410  1.00  0.00    -0.040 A 
ATOM     19  C   UNL A   1      31.997  28.906  25.477  1.00  0.00    -0.015 A 
ATOM     20  C   UNL A   1      29.909  27.943  23.869  1.00  0.00    -0.050 A 
ATOM     21  C   UNL A   1      31.183  29.779  24.724  1.00  0.00    -0.046 A 
ATOM     22  C   UNL A   1      30.146  29.319  23.905  1.00  0.00    -0.017 A 
ATOM     23  H   UNL A   1      29.145  27.583  23.275  1.00  0.00     0.063 H 
ATOM     24  H   UNL A   1      31.360  30.795  24.779  1.00  0.00     0.064 H 
BRANCH  18  25
ATOM     25  C   UNL A   1      32.671  26.538  26.127  1.00  0.00    -0.039 C 
ATOM     26  H   UNL A   1      32.091  25.743  26.547  1.00  0.00     0.028 H 
ATOM     27  H   UNL A   1      33.192  27.051  26.907  1.00  0.00     0.028 H 
ATOM     28  H   UNL A   1      33.377  26.135  25.432  1.00  0.00     0.028 H 
ENDBRANCH  18  25
BRANCH  19  29
ATOM     29  C   UNL A   1      33.046  29.506  26.328  1.00  0.00    -0.018 A 
ATOM     30  C   UNL A   1      34.312  28.901  26.424  1.00  0.00    -0.054 A 
ATOM     31  C   UNL A   1      32.817  30.681  27.060  1.00  0.00    -0.054 A 
ATOM     32  C   UNL A   1      35.320  29.461  27.211  1.00  0.00    -0.062 A 
ATOM     33  H   UNL A   1      34.499  28.029  25.905  1.00  0.00     0.063 H 
ATOM     34  C   UNL A   1      33.830  31.250  27.837  1.00  0.00    -0.062 A 
ATOM     35  H   UNL A   1      31.888  31.131  27.025  1.00  0.00     0.063 H 
ATOM     36  C   UNL A   1      35.080  30.640  27.911  1.00  0.00    -0.062 A 
ATOM     37  H   UNL A   1      36.242  29.002  27.274  1.00  0.00     0.062 H 
ATOM     38  H   UNL A   1      33.651  32.124  28.356  1.00  0.00     0.062 H 
ATOM     39  H   UNL A   1      35.827  31.062  28.485  1.00  0.00     0.062 H 
ENDBRANCH  19  29
BRANCH  22  40
ATOM     40  C   UNL A   1      29.340  30.242  23.093  1.00  0.00    -0.018 A 
ATOM     41  C   UNL A   1      28.954  29.912  21.784  1.00  0.00    -0.054 A 
ATOM     42  C   UNL A   1      28.959  31.497  23.597  1.00  0.00    -0.054 A 
ATOM     43  C   UNL A   1      28.218  30.807  21.004  1.00  0.00    -0.062 A 
ATOM     44  H   UNL A   1      29.217  28.994  21.393  1.00  0.00     0.063 H 
ATOM     45  C   UNL A   1      28.225  32.395  22.818  1.00  0.00    -0.062 A 
ATOM     46  H   UNL A   1      29.226  31.760  24.560  1.00  0.00     0.063 H 
ATOM     47  C   UNL A   1      27.856  32.049  21.520  1.00  0.00    -0.062 A 
ATOM     48  H   UNL A   1      27.940  30.547  20.043  1.00  0.00     0.062 H 
ATOM     49  H   UNL A   1      27.957  33.313  23.203  1.00  0.00     0.062 H 
ATOM     50  H   UNL A   1      27.316  32.712  20.942  1.00  0.00     0.062 H 
ENDBRANCH  22  40
ENDBRANCH  14  17
ENDBRANCH  11  14
ENDBRANCH   7  10
ENDBRANCH   4   7
ENDBRANCH   1   4
BRANCH   1  51
ATOM     51  C   UNL A   1      35.247  23.649  25.737  1.00  0.00    -0.052 C 
ATOM     52  H   UNL A   1      35.320  24.698  25.931  1.00  0.00     0.027 H 
ATOM     53  H   UNL A   1      35.096  23.398  24.708  1.00  0.00     0.027 H 
BRANCH  51  54
ATOM     54  C   UNL A   1      36.585  23.009  26.120  1.00  0.00    -0.036 C 
ATOM     55  H   UNL A   1      36.574  21.989  25.794  1.00  0.00     0.028 H 
ATOM     56  H   UNL A   1      36.679  23.103  27.182  1.00  0.00     0.028 H 
BRANCH  54  57
ATOM     57  C   UNL A   1      37.800  23.692  25.509  1.00  0.00     0.018 C 
ATOM     58  H   UNL A   1      37.724  24.743  25.693  1.00  0.00     0.049 H 
ATOM     59  H   UNL A   1      37.799  23.456  24.465  1.00  0.00     0.049 H 
BRANCH  57  60
ATOM     60  N   UNL A   1      39.072  23.223  26.046  1.00  0.00    -0.352 N 
ATOM     61  C   UNL A   1      39.998  23.898  26.822  1.00  0.00     0.251 C 
ATOM     62  H   UNL A   1      39.306  22.292  25.827  1.00  0.00     0.163 HD
ATOM     63  O   UNL A   1      41.042  23.360  27.152  1.00  0.00    -0.269 OA
BRANCH  61  64
ATOM     64  C   UNL A   1      39.649  25.235  27.358  1.00  0.00     0.039 A 
ATOM     65  C   UNL A   1      40.171  26.356  26.703  1.00  0.00    -0.049 A 
ATOM     66  C   UNL A   1      38.999  25.373  28.582  1.00  0.00    -0.049 A 
ATOM     67  C   UNL A   1      40.255  27.567  27.386  1.00  0.00    -0.053 A 
ATOM     68  H   UNL A   1      40.490  26.287  25.723  1.00  0.00     0.063 H 
ATOM     69  C   UNL A   1      39.157  26.546  29.294  1.00  0.00    -0.053 A 
ATOM     70  H   UNL A   1      38.407  24.612  28.950  1.00  0.00     0.063 H 
ATOM     71  C   UNL A   1      39.847  27.617  28.720  1.00  0.00    -0.014 A 
ATOM     72  H   UNL A   1      40.611  28.413  26.914  1.00  0.00     0.063 H 
ATOM     73  H   UNL A   1      38.769  26.631  30.247  1.00  0.00     0.063 H 
BRANCH  71  74
ATOM     74  C   UNL A   1      40.221  28.705  29.614  1.00  0.00     0.031 A 
ATOM     75  C   UNL A   1      39.242  29.740  29.994  1.00  0.00     0.074 A 
ATOM     76  C   UNL A   1      41.472  28.731  30.125  1.00  0.00     0.049 A 
ATOM     77  N   UNL A   1      39.552  30.953  30.307  1.00  0.00    -0.248 NA
ATOM     78  C   UNL A   1      37.808  29.484  30.014  1.00  0.00    -0.034 C 
ATOM     79  C   UNL A   1      41.978  29.594  31.189  1.00  0.00    -0.036 A 
ATOM     80  N   UNL A   1      42.614  28.088  29.619  1.00  0.00    -0.354 N 
ATOM     81  C   UNL A   1      38.421  31.559  30.805  1.00  0.00     0.074 A 
ATOM     82  C   UNL A   1      37.351  30.622  30.546  1.00  0.00    -0.034 C 
ATOM     83  H   UNL A   1      37.286  28.651  29.701  1.00  0.00     0.065 H 
ATOM     84  C   UNL A   1      43.314  29.671  31.081  1.00  0.00    -0.036 A 
ATOM     85  H   UNL A   1      41.404  30.067  31.905  1.00  0.00     0.065 H 
ATOM     86  C   UNL A   1      43.687  28.975  29.861  1.00  0.00     0.049 A 
ATOM     87  H   UNL A   1      42.658  27.204  29.188  1.00  0.00     0.167 HD
ATOM     88  C   UNL A   1      38.536  32.726  31.506  1.00  0.00     0.037 A 
ATOM     89  H   UNL A   1      36.356  30.810  30.747  1.00  0.00     0.065 H 
ATOM     90  H   UNL A   1      43.956  30.137  31.741  1.00  0.00     0.065 H 
ATOM     91  C   UNL A   1      44.403  29.522  28.836  1.00  0.00     0.037 A 
ATOM     92  C   UNL A   1      39.926  33.170  31.570  1.00  0.00     0.049 A 
ATOM     93  C   UNL A   1      44.382  31.031  28.816  1.00  0.00     0.074 A 
ATOM     94  C   UNL A   1      40.905  32.997  32.535  1.00  0.00    -0.036 A 
ATOM     95  N   UNL A   1      40.575  33.610  30.421  1.00  0.00    -0.354 N 
ATOM     96  N   UNL A   1      43.469  31.751  29.402  1.00  0.00    -0.248 NA
ATOM     97  C   UNL A   1      45.359  31.839  28.091  1.00  0.00    -0.034 C 
ATOM     98  C   UNL A   1      42.159  33.283  31.946  1.00  0.00    -0.036 A 
ATOM     99  H   UNL A   1      40.748  32.708  33.512  1.00  0.00     0.065 H 
ATOM    100  C   UNL A   1      41.941  33.652  30.630  1.00  0.00     0.049 A 
ATOM    101  H   UNL A   1      40.126  33.856  29.580  1.00  0.00     0.167 HD
ATOM    102  C   UNL A   1      43.692  33.074  29.128  1.00  0.00     0.074 A 
ATOM    103  C   UNL A   1      44.897  33.081  28.320  1.00  0.00    -0.034 C 
ATOM    104  H   UNL A   1      46.183  31.538  27.547  1.00  0.00     0.065 H 
ATOM    105  H   UNL A   1      43.076  33.228  32.415  1.00  0.00     0.065 H 
ATOM    106  C   UNL A   1      42.857  34.055  29.576  1.00  0.00     0.037 A 
ATOM    107  H   UNL A   1      45.348  33.938  27.963  1.00  0.00     0.065 H 
BRANCH  88 108
ATOM    108  C   UNL A   1      37.445  33.273  32.402  1.00  0.00     0.064 A 
ATOM    109  C   UNL A   1      36.391  34.052  31.873  1.00  0.00     0.173 A 
ATOM    110  C   UNL A   1      37.415  33.120  33.799  1.00  0.00     0.173 A 
ATOM    111  F   UNL A   1      36.205  34.179  30.553  1.00  0.00    -0.203 F 
ATOM    112  C   UNL A   1      35.484  34.740  32.684  1.00  0.00     0.198 A 
ATOM    113  C   UNL A   1      36.544  33.851  34.615  1.00  0.00     0.198 A 
ATOM    114  F   UNL A   1      38.196  32.221  34.413  1.00  0.00    -0.203 F 
ATOM    115  F   UNL A   1      34.517  35.479  32.121  1.00  0.00    -0.200 F 
ATOM    116  C   UNL A   1      35.590  34.676  34.056  1.00  0.00     0.200 A 
ATOM    117  F   UNL A   1      36.640  33.752  35.949  1.00  0.00    -0.200 F 
ATOM    118  F   UNL A   1      34.759  35.381  34.836  1.00  0.00    -0.200 F 
ENDBRANCH  88 108
BRANCH  91 119
ATOM    119  C   UNL A   1      44.454  28.669  27.621  1.00  0.00     0.064 A 
ATOM    120  C   UNL A   1      45.177  27.462  27.675  1.00  0.00     0.173 A 
ATOM    121  C   UNL A   1      43.546  28.833  26.569  1.00  0.00     0.173 A 
ATOM    122  F   UNL A   1      46.061  27.254  28.664  1.00  0.00    -0.203 F 
ATOM    123  C   UNL A   1      44.920  26.423  26.783  1.00  0.00     0.198 A 
ATOM    124  C   UNL A   1      43.302  27.795  25.668  1.00  0.00     0.198 A 
ATOM    125  F   UNL A   1      42.815  29.953  26.471  1.00  0.00    -0.203 F 
ATOM    126  F   UNL A   1      45.549  25.247  26.929  1.00  0.00    -0.200 F 
ATOM    127  C   UNL A   1      43.964  26.582  25.796  1.00  0.00     0.200 A 
ATOM    128  F   UNL A   1      42.357  27.938  24.728  1.00  0.00    -0.200 F 
ATOM    129  F   UNL A   1      43.651  25.556  24.992  1.00  0.00    -0.200 F 
ENDBRANCH  91 119
BRANCH 106 130
ATOM    130  C   UNL A   1      42.899  35.497  29.149  1.00  0.00     0.064 A 
ATOM    131  C   UNL A   1      42.218  35.995  28.027  1.00  0.00     0.173 A 
ATOM    132  C   UNL A   1      43.531  36.466  29.963  1.00  0.00     0.173 A 
ATOM    133  F   UNL A   1      41.485  35.189  27.246  1.00  0.00    -0.203 F 
ATOM    134  C   UNL A   1      42.226  37.353  27.702  1.00  0.00     0.198 A 
ATOM    135  C   UNL A   1      43.492  37.827  29.666  1.00  0.00     0.198 A 
ATOM    136  F   UNL A   1      44.187  36.119  31.081  1.00  0.00    -0.203 F 
ATOM    137  F   UNL A   1      41.597  37.774  26.596  1.00  0.00    -0.200 F 
ATOM    138  C   UNL A   1      42.853  38.269  28.525  1.00  0.00     0.200 A 
ATOM    139  F   UNL A   1      44.061  38.708  30.500  1.00  0.00    -0.200 F 
ATOM    140  F   UNL A   1      42.824  39.576  28.231  1.00  0.00    -0.200 F 
ENDBRANCH 106 130
ENDBRANCH  71  74
ENDBRANCH  61  64
ENDBRANCH  57  60
ENDBRANCH  54  57
ENDBRANCH  51  54
ENDBRANCH   1  51
TORSDOF 17
ENDMDL
MODEL 3
REMARK VINA RESULT:     -12.7      2.920      5.442
REMARK SMILES Cc1c(CC(=O)NCCCCCCNC(=O)c2ccc(-c3c4nc(c(-c5c(F)c(F)c(F)c(F)c5F)c5ccc([nH]5)c(-c5c(F)c(F)c(F)c(F)c5F)c5nc(c(-c6c(F)c(F)c(F)c(F)c6F)c6ccc3[nH]6)C=C5)C=C4)cc2)cc(-c2ccccc2)cc1-c1ccccc1
REMARK SMILES IDX 10 1 9 4 8 7 7 10 5 11 6 12 4 14 3 17 2 18 89 19 80 20 88 21
REMARK SMILES IDX 81 22 1 25 90 29 91 30 95 31 92 32 94 34 93 36 82 40 83 41
REMARK SMILES IDX 87 42 84 43 86 45 85 47 11 51 12 54 13 57 14 60 15 61 16 63
REMARK SMILES IDX 17 64 18 65 79 66 19 67 78 69 20 71 21 74 22 75 72 76 23 77
REMARK SMILES IDX 77 78 71 79 73 80 24 81 76 82 70 84 69 86 25 88 57 91 37 92
REMARK SMILES IDX 56 93 38 94 41 95 55 96 74 97 39 98 40 100 54 102 75 103
REMARK SMILES IDX 42 106 26 108 27 109 35 110 28 111 29 112 33 113 36 114
REMARK SMILES IDX 30 115 31 116 34 117 32 118 58 119 59 120 67 121 60 122
REMARK SMILES IDX 61 123 65 124 68 125 62 126 63 127 66 128 64 129 43 130
REMARK SMILES IDX 44 131 52 132 45 133 46 134 50 135 53 136 47 137 48 138
REMARK SMILES IDX 51 139 49 140
REMARK H PARENT 10 2 10 3 9 5 9 6 8 8 8 9 7 13 4 15 4 16 80 23 88 24 1 26 1 27
REMARK H PARENT 1 28 91 33 95 35 92 37 94 38 93 39 83 44 87 46 84 48 86 49
REMARK H PARENT 85 50 11 52 11 53 12 55 12 56 13 58 13 59 14 62 18 68 79 70
REMARK H PARENT 19 72 78 73 77 83 71 85 73 87 76 89 70 90 38 99 41 101 74 104
REMARK H PARENT 39 105 75 107
REMARK Flexibility Score: inf
ROOT
ATOM      1  C   UNL A   1      40.527  21.271  26.702  1.00  0.00    -0.052 C 
ATOM      2  H   UNL A   1      41.189  21.572  25.917  1.00  0.00     0.027 H 
ATOM      3  H   UNL A   1      39.566  20.939  26.372  1.00  0.00     0.027 H 
ENDROOT
BRANCH   1   4
ATOM      4  C   UNL A   1      40.252  22.501  27.577  1.00  0.00    -0.036 C 
ATOM      5  H   UNL A   1      39.854  22.163  28.511  1.00  0.00     0.028 H 
ATOM      6  H   UNL A   1      41.185  23.016  27.673  1.00  0.00     0.028 H 
BRANCH   4   7
ATOM      7  C   UNL A   1      39.268  23.509  26.981  1.00  0.00     0.017 C 
ATOM      8  H   UNL A   1      38.426  23.594  27.635  1.00  0.00     0.049 H 
ATOM      9  H   UNL A   1      39.784  24.441  26.877  1.00  0.00     0.049 H 
BRANCH   7  10
ATOM     10  N   UNL A   1      38.798  23.122  25.668  1.00  0.00    -0.356 N 
ATOM     11  C   UNL A   1      37.516  23.065  25.200  1.00  0.00     0.224 C 
ATOM     12  O   UNL A   1      37.341  22.732  24.025  1.00  0.00    -0.275 OA
ATOM     13  H   UNL A   1      39.498  22.863  25.026  1.00  0.00     0.163 HD
BRANCH  11  14
ATOM     14  C   UNL A   1      36.343  23.446  26.097  1.00  0.00     0.052 C 
ATOM     15  H   UNL A   1      36.455  22.934  27.031  1.00  0.00     0.042 H 
ATOM     16  H   UNL A   1      36.370  24.510  26.204  1.00  0.00     0.042 H 
BRANCH  14  17
ATOM     17  C   UNL A   1      34.982  23.097  25.521  1.00  0.00    -0.035 A 
ATOM     18  C   UNL A   1      33.922  24.032  25.384  1.00  0.00    -0.040 A 
ATOM     19  C   UNL A   1      32.669  23.589  24.881  1.00  0.00    -0.015 A 
ATOM     20  C   UNL A   1      34.791  21.766  25.098  1.00  0.00    -0.050 A 
ATOM     21  C   UNL A   1      32.525  22.240  24.491  1.00  0.00    -0.046 A 
ATOM     22  C   UNL A   1      33.574  21.318  24.579  1.00  0.00    -0.017 A 
ATOM     23  H   UNL A   1      35.577  21.100  25.175  1.00  0.00     0.063 H 
ATOM     24  H   UNL A   1      31.612  21.921  24.129  1.00  0.00     0.064 H 
BRANCH  18  25
ATOM     25  C   UNL A   1      34.138  25.493  25.717  1.00  0.00    -0.039 C 
ATOM     26  H   UNL A   1      35.154  25.643  26.019  1.00  0.00     0.028 H 
ATOM     27  H   UNL A   1      33.483  25.779  26.511  1.00  0.00     0.028 H 
ATOM     28  H   UNL A   1      33.932  26.089  24.852  1.00  0.00     0.028 H 
ENDBRANCH  18  25
BRANCH  19  29
ATOM     29  C   UNL A   1      31.486  24.466  24.769  1.00  0.00    -0.018 A 
ATOM     30  C   UNL A   1      30.731  24.787  25.912  1.00  0.00    -0.054 A 
ATOM     31  C   UNL A   1      31.077  25.000  23.536  1.00  0.00    -0.054 A 
ATOM     32  C   UNL A   1      29.618  25.626  25.828  1.00  0.00    -0.062 A 
ATOM     33  H   UNL A   1      31.004  24.396  26.827  1.00  0.00     0.063 H 
ATOM     34  C   UNL A   1      29.973  25.850  23.454  1.00  0.00    -0.062 A 
ATOM     35  H   UNL A   1      31.601  24.759  22.680  1.00  0.00     0.063 H 
ATOM     36  C   UNL A   1      29.244  26.163  24.599  1.00  0.00    -0.062 A 
ATOM     37  H   UNL A   1      29.073  25.847  26.676  1.00  0.00     0.062 H 
ATOM     38  H   UNL A   1      29.696  26.248  22.543  1.00  0.00     0.062 H 
ATOM     39  H   UNL A   1      28.428  26.792  24.537  1.00  0.00     0.062 H 
ENDBRANCH  19  29
BRANCH  22  40
ATOM     40  C   UNL A   1      33.416  19.928  24.125  1.00  0.00    -0.018 A 
ATOM     41  C   UNL A   1      32.361  19.555  23.276  1.00  0.00    -0.054 A 
ATOM     42  C   UNL A   1      34.303  18.927  24.557  1.00  0.00    -0.054 A 
ATOM     43  C   UNL A   1      32.195  18.227  22.877  1.00  0.00    -0.062 A 
ATOM     44  H   UNL A   1      31.700  20.273  22.942  1.00  0.00     0.063 H 
ATOM     45  C   UNL A   1      34.136  17.598  24.160  1.00  0.00    -0.062 A 
ATOM     46  H   UNL A   1      35.090  19.178  25.176  1.00  0.00     0.063 H 
ATOM     47  C   UNL A   1      33.081  17.248  23.321  1.00  0.00    -0.062 A 
ATOM     48  H   UNL A   1      31.415  17.970  22.251  1.00  0.00     0.062 H 
ATOM     49  H   UNL A   1      34.795  16.875  24.489  1.00  0.00     0.062 H 
ATOM     50  H   UNL A   1      32.955  16.266  23.030  1.00  0.00     0.062 H 
ENDBRANCH  22  40
ENDBRANCH  14  17
ENDBRANCH  11  14
ENDBRANCH   7  10
ENDBRANCH   4   7
ENDBRANCH   1   4
BRANCH   1  51
ATOM     51  C   UNL A   1      41.157  20.055  27.405  1.00  0.00    -0.052 C 
ATOM     52  H   UNL A   1      40.430  19.271  27.410  1.00  0.00     0.027 H 
ATOM     53  H   UNL A   1      41.440  20.404  28.376  1.00  0.00     0.027 H 
BRANCH  51  54
ATOM     54  C   UNL A   1      42.441  19.497  26.784  1.00  0.00    -0.036 C 
ATOM     55  H   UNL A   1      42.257  18.486  26.483  1.00  0.00     0.028 H 
ATOM     56  H   UNL A   1      43.203  19.574  27.531  1.00  0.00     0.028 H 
BRANCH  54  57
ATOM     57  C   UNL A   1      42.935  20.272  25.571  1.00  0.00     0.018 C 
ATOM     58  H   UNL A   1      42.324  21.142  25.455  1.00  0.00     0.049 H 
ATOM     59  H   UNL A   1      42.872  19.611  24.731  1.00  0.00     0.049 H 
BRANCH  57  60
ATOM     60  N   UNL A   1      44.326  20.698  25.669  1.00  0.00    -0.352 N 
ATOM     61  C   UNL A   1      44.847  21.884  26.157  1.00  0.00     0.251 C 
ATOM     62  H   UNL A   1      44.990  20.049  25.343  1.00  0.00     0.163 HD
ATOM     63  O   UNL A   1      46.049  22.094  26.125  1.00  0.00    -0.269 OA
BRANCH  61  64
ATOM     64  C   UNL A   1      43.943  22.840  26.839  1.00  0.00     0.039 A 
ATOM     65  C   UNL A   1      43.502  23.952  26.111  1.00  0.00    -0.049 A 
ATOM     66  C   UNL A   1      43.703  22.753  28.207  1.00  0.00    -0.049 A 
ATOM     67  C   UNL A   1      43.042  25.074  26.794  1.00  0.00    -0.053 A 
ATOM     68  H   UNL A   1      43.517  23.939  25.079  1.00  0.00     0.063 H 
ATOM     69  C   UNL A   1      43.330  23.892  28.894  1.00  0.00    -0.053 A 
ATOM     70  H   UNL A   1      43.801  21.852  28.700  1.00  0.00     0.063 H 
ATOM     71  C   UNL A   1      43.068  25.070  28.190  1.00  0.00    -0.014 A 
ATOM     72  H   UNL A   1      42.688  25.895  26.279  1.00  0.00     0.063 H 
ATOM     73  H   UNL A   1      43.246  23.873  29.923  1.00  0.00     0.063 H 
BRANCH  71  74
ATOM     74  C   UNL A   1      42.960  26.290  28.980  1.00  0.00     0.031 A 
ATOM     75  C   UNL A   1      41.711  27.075  28.988  1.00  0.00     0.074 A 
ATOM     76  C   UNL A   1      44.009  26.673  29.740  1.00  0.00     0.049 A 
ATOM     77  N   UNL A   1      41.656  28.349  29.185  1.00  0.00    -0.248 NA
ATOM     78  C   UNL A   1      40.411  26.470  28.734  1.00  0.00    -0.034 C 
ATOM     79  C   UNL A   1      44.034  27.724  30.754  1.00  0.00    -0.036 A 
ATOM     80  N   UNL A   1      45.355  26.297  29.589  1.00  0.00    -0.354 N 
ATOM     81  C   UNL A   1      40.332  28.693  29.336  1.00  0.00     0.074 A 
ATOM     82  C   UNL A   1      39.595  27.498  28.987  1.00  0.00    -0.034 C 
ATOM     83  H   UNL A   1      40.181  25.509  28.439  1.00  0.00     0.065 H 
ATOM     84  C   UNL A   1      45.304  28.124  30.927  1.00  0.00    -0.036 A 
ATOM     85  H   UNL A   1      43.212  28.097  31.254  1.00  0.00     0.065 H 
ATOM     86  C   UNL A   1      46.109  27.442  29.928  1.00  0.00     0.049 A 
ATOM     87  H   UNL A   1      45.700  25.419  29.308  1.00  0.00     0.167 HD
ATOM     88  C   UNL A   1      40.008  29.907  29.871  1.00  0.00     0.037 A 
ATOM     89  H   UNL A   1      38.565  27.447  28.940  1.00  0.00     0.065 H 
ATOM     90  H   UNL A   1      45.644  28.792  31.637  1.00  0.00     0.065 H 
ATOM     91  C   UNL A   1      46.913  28.061  29.015  1.00  0.00     0.037 A 
ATOM     92  C   UNL A   1      41.204  30.689  30.170  1.00  0.00     0.049 A 
ATOM     93  C   UNL A   1      46.560  29.509  28.777  1.00  0.00     0.074 A 
ATOM     94  C   UNL A   1      41.932  30.851  31.338  1.00  0.00    -0.036 A 
ATOM     95  N   UNL A   1      41.998  31.177  29.138  1.00  0.00    -0.354 N 
ATOM     96  N   UNL A   1      45.393  30.024  29.043  1.00  0.00    -0.248 NA
ATOM     97  C   UNL A   1      47.477  30.471  28.171  1.00  0.00    -0.034 C 
ATOM     98  C   UNL A   1      43.194  31.391  30.999  1.00  0.00    -0.036 A 
ATOM     99  H   UNL A   1      41.610  30.617  32.290  1.00  0.00     0.065 H 
ATOM    100  C   UNL A   1      43.227  31.579  29.628  1.00  0.00     0.049 A 
ATOM    101  H   UNL A   1      41.724  31.229  28.194  1.00  0.00     0.167 HD
ATOM    102  C   UNL A   1      45.375  31.332  28.638  1.00  0.00     0.074 A 
ATOM    103  C   UNL A   1      46.707  31.572  28.116  1.00  0.00    -0.034 C 
ATOM    104  H   UNL A   1      48.455  30.341  27.867  1.00  0.00     0.065 H 
ATOM    105  H   UNL A   1      43.958  31.609  31.658  1.00  0.00     0.065 H 
ATOM    106  C   UNL A   1      44.258  32.106  28.751  1.00  0.00     0.037 A 
ATOM    107  H   UNL A   1      47.028  32.481  27.747  1.00  0.00     0.065 H 
BRANCH  88 108
ATOM    108  C   UNL A   1      38.637  30.237  30.423  1.00  0.00     0.064 A 
ATOM    109  C   UNL A   1      37.576  30.606  29.565  1.00  0.00     0.173 A 
ATOM    110  C   UNL A   1      38.321  30.272  31.793  1.00  0.00     0.173 A 
ATOM    111  F   UNL A   1      37.678  30.495  28.235  1.00  0.00    -0.203 F 
ATOM    112  C   UNL A   1      36.364  31.110  30.043  1.00  0.00     0.198 A 
ATOM    113  C   UNL A   1      37.131  30.829  32.273  1.00  0.00     0.198 A 
ATOM    114  F   UNL A   1      39.135  29.723  32.705  1.00  0.00    -0.203 F 
ATOM    115  F   UNL A   1      35.403  31.462  29.177  1.00  0.00    -0.200 F 
ATOM    116  C   UNL A   1      36.159  31.266  31.397  1.00  0.00     0.200 A 
ATOM    117  F   UNL A   1      36.935  30.942  33.595  1.00  0.00    -0.200 F 
ATOM    118  F   UNL A   1      35.021  31.804  31.855  1.00  0.00    -0.200 F 
ENDBRANCH  88 108
BRANCH  91 119
ATOM    119  C   UNL A   1      47.448  27.147  27.974  1.00  0.00     0.064 A 
ATOM    120  C   UNL A   1      46.768  27.055  26.744  1.00  0.00     0.173 A 
ATOM    121  C   UNL A   1      48.759  26.659  28.027  1.00  0.00     0.173 A 
ATOM    122  F   UNL A   1      45.509  27.509  26.639  1.00  0.00    -0.203 F 
ATOM    123  C   UNL A   1      47.410  26.600  25.594  1.00  0.00     0.198 A 
ATOM    124  C   UNL A   1      49.393  26.190  26.875  1.00  0.00     0.198 A 
ATOM    125  F   UNL A   1      49.465  26.732  29.165  1.00  0.00    -0.203 F 
ATOM    126  F   UNL A   1      46.768  26.627  24.417  1.00  0.00    -0.200 F 
ATOM    127  C   UNL A   1      48.730  26.192  25.656  1.00  0.00     0.200 A 
ATOM    128  F   UNL A   1      50.681  25.819  26.929  1.00  0.00    -0.200 F 
ATOM    129  F   UNL A   1      49.377  25.837  24.537  1.00  0.00    -0.200 F 
ENDBRANCH  91 119
BRANCH 106 130
ATOM    130  C   UNL A   1      44.079  33.472  28.142  1.00  0.00     0.064 A 
ATOM    131  C   UNL A   1      43.867  33.688  26.772  1.00  0.00     0.173 A 
ATOM    132  C   UNL A   1      43.975  34.615  28.968  1.00  0.00     0.173 A 
ATOM    133  F   UNL A   1      43.824  32.666  25.906  1.00  0.00    -0.203 F 
ATOM    134  C   UNL A   1      43.636  34.964  26.254  1.00  0.00     0.198 A 
ATOM    135  C   UNL A   1      43.691  35.880  28.454  1.00  0.00     0.198 A 
ATOM    136  F   UNL A   1      44.125  34.532  30.299  1.00  0.00    -0.203 F 
ATOM    137  F   UNL A   1      43.481  35.126  24.932  1.00  0.00    -0.200 F 
ATOM    138  C   UNL A   1      43.539  36.057  27.095  1.00  0.00     0.200 A 
ATOM    139  F   UNL A   1      43.550  36.921  29.288  1.00  0.00    -0.200 F 
ATOM    140  F   UNL A   1      43.278  37.273  26.598  1.00  0.00    -0.200 F 
ENDBRANCH 106 130
ENDBRANCH  71  74
ENDBRANCH  61  64
ENDBRANCH  57  60
ENDBRANCH  54  57
ENDBRANCH  51  54
ENDBRANCH   1  51
TORSDOF 17
ENDMDL
MODEL 4
REMARK VINA RESULT:     -12.7      6.267     10.317
REMARK SMILES Cc1c(CC(=O)NCCCCCCNC(=O)c2ccc(-c3c4nc(c(-c5c(F)c(F)c(F)c(F)c5F)c5ccc([nH]5)c(-c5c(F)c(F)c(F)c(F)c5F)c5nc(c(-c6c(F)c(F)c(F)c(F)c6F)c6ccc3[nH]6)C=C5)C=C4)cc2)cc(-c2ccccc2)cc1-c1ccccc1
REMARK SMILES IDX 10 1 9 4 8 7 7 10 5 11 6 12 4 14 3 17 2 18 89 19 80 20 88 21
REMARK SMILES IDX 81 22 1 25 90 29 91 30 95 31 92 32 94 34 93 36 82 40 83 41
REMARK SMILES IDX 87 42 84 43 86 45 85 47 11 51 12 54 13 57 14 60 15 61 16 63
REMARK SMILES IDX 17 64 18 65 79 66 19 67 78 69 20 71 21 74 22 75 72 76 23 77
REMARK SMILES IDX 77 78 71 79 73 80 24 81 76 82 70 84 69 86 25 88 57 91 37 92
REMARK SMILES IDX 56 93 38 94 41 95 55 96 74 97 39 98 40 100 54 102 75 103
REMARK SMILES IDX 42 106 26 108 27 109 35 110 28 111 29 112 33 113 36 114
REMARK SMILES IDX 30 115 31 116 34 117 32 118 58 119 59 120 67 121 60 122
REMARK SMILES IDX 61 123 65 124 68 125 62 126 63 127 66 128 64 129 43 130
REMARK SMILES IDX 44 131 52 132 45 133 46 134 50 135 53 136 47 137 48 138
REMARK SMILES IDX 51 139 49 140
REMARK H PARENT 10 2 10 3 9 5 9 6 8 8 8 9 7 13 4 15 4 16 80 23 88 24 1 26 1 27
REMARK H PARENT 1 28 91 33 95 35 92 37 94 38 93 39 83 44 87 46 84 48 86 49
REMARK H PARENT 85 50 11 52 11 53 12 55 12 56 13 58 13 59 14 62 18 68 79 70
REMARK H PARENT 19 72 78 73 77 83 71 85 73 87 76 89 70 90 38 99 41 101 74 104
REMARK H PARENT 39 105 75 107
REMARK Flexibility Score: inf
ROOT
ATOM      1  C   UNL A   1      44.025  24.778  25.091  1.00  0.00    -0.052 C 
ATOM      2  H   UNL A   1      43.940  25.385  24.214  1.00  0.00     0.027 H 
ATOM      3  H   UNL A   1      45.026  24.491  25.339  1.00  0.00     0.027 H 
ENDROOT
BRANCH   1   4
ATOM      4  C   UNL A   1      43.282  23.463  24.822  1.00  0.00    -0.036 C 
ATOM      5  H   UNL A   1      42.231  23.659  24.874  1.00  0.00     0.028 H 
ATOM      6  H   UNL A   1      43.604  23.128  23.859  1.00  0.00     0.028 H 
BRANCH   4   7
ATOM      7  C   UNL A   1      43.602  22.329  25.797  1.00  0.00     0.017 C 
ATOM      8  H   UNL A   1      44.652  22.129  25.758  1.00  0.00     0.049 H 
ATOM      9  H   UNL A   1      43.295  22.645  26.772  1.00  0.00     0.049 H 
BRANCH   7  10
ATOM     10  N   UNL A   1      42.887  21.110  25.488  1.00  0.00    -0.356 N 
ATOM     11  C   UNL A   1      41.864  20.519  26.175  1.00  0.00     0.224 C 
ATOM     12  O   UNL A   1      41.374  19.485  25.712  1.00  0.00    -0.275 OA
ATOM     13  H   UNL A   1      43.176  20.643  24.672  1.00  0.00     0.163 HD
BRANCH  11  14
ATOM     14  C   UNL A   1      41.321  21.148  27.453  1.00  0.00     0.052 C 
ATOM     15  H   UNL A   1      40.799  20.393  28.004  1.00  0.00     0.042 H 
ATOM     16  H   UNL A   1      42.163  21.540  27.985  1.00  0.00     0.042 H 
BRANCH  14  17
ATOM     17  C   UNL A   1      40.372  22.310  27.219  1.00  0.00    -0.035 A 
ATOM     18  C   UNL A   1      40.592  23.620  27.720  1.00  0.00    -0.040 A 
ATOM     19  C   UNL A   1      39.614  24.624  27.487  1.00  0.00    -0.015 A 
ATOM     20  C   UNL A   1      39.221  22.047  26.449  1.00  0.00    -0.050 A 
ATOM     21  C   UNL A   1      38.468  24.302  26.728  1.00  0.00    -0.046 A 
ATOM     22  C   UNL A   1      38.259  23.027  26.190  1.00  0.00    -0.017 A 
ATOM     23  H   UNL A   1      39.083  21.098  26.066  1.00  0.00     0.063 H 
ATOM     24  H   UNL A   1      37.758  25.033  26.564  1.00  0.00     0.064 H 
BRANCH  18  25
ATOM     25  C   UNL A   1      41.878  23.960  28.445  1.00  0.00    -0.039 C 
ATOM     26  H   UNL A   1      41.653  24.272  29.443  1.00  0.00     0.028 H 
ATOM     27  H   UNL A   1      42.381  24.749  27.928  1.00  0.00     0.028 H 
ATOM     28  H   UNL A   1      42.508  23.095  28.476  1.00  0.00     0.028 H 
ENDBRANCH  18  25
BRANCH  19  29
ATOM     29  C   UNL A   1      39.716  25.995  28.028  1.00  0.00    -0.018 A 
ATOM     30  C   UNL A   1      40.308  27.017  27.263  1.00  0.00    -0.054 A 
ATOM     31  C   UNL A   1      39.237  26.321  29.307  1.00  0.00    -0.054 A 
ATOM     32  C   UNL A   1      40.401  28.321  27.752  1.00  0.00    -0.062 A 
ATOM     33  H   UNL A   1      40.680  26.798  26.325  1.00  0.00     0.063 H 
ATOM     34  C   UNL A   1      39.316  27.629  29.791  1.00  0.00    -0.062 A 
ATOM     35  H   UNL A   1      38.820  25.583  29.897  1.00  0.00     0.063 H 
ATOM     36  C   UNL A   1      39.898  28.628  29.013  1.00  0.00    -0.062 A 
ATOM     37  H   UNL A   1      40.842  29.058  27.179  1.00  0.00     0.062 H 
ATOM     38  H   UNL A   1      38.943  27.855  30.726  1.00  0.00     0.062 H 
ATOM     39  H   UNL A   1      39.955  29.594  29.372  1.00  0.00     0.062 H 
ENDBRANCH  19  29
BRANCH  22  40
ATOM     40  C   UNL A   1      37.081  22.725  25.364  1.00  0.00    -0.018 A 
ATOM     41  C   UNL A   1      36.054  21.892  25.839  1.00  0.00    -0.054 A 
ATOM     42  C   UNL A   1      36.966  23.238  24.062  1.00  0.00    -0.054 A 
ATOM     43  C   UNL A   1      34.954  21.579  25.038  1.00  0.00    -0.062 A 
ATOM     44  H   UNL A   1      36.114  21.506  26.795  1.00  0.00     0.063 H 
ATOM     45  C   UNL A   1      35.868  22.924  23.258  1.00  0.00    -0.062 A 
ATOM     46  H   UNL A   1      37.705  23.858  23.692  1.00  0.00     0.063 H 
ATOM     47  C   UNL A   1      34.862  22.093  23.746  1.00  0.00    -0.062 A 
ATOM     48  H   UNL A   1      34.207  20.966  25.403  1.00  0.00     0.062 H 
ATOM     49  H   UNL A   1      35.801  23.307  22.302  1.00  0.00     0.062 H 
ATOM     50  H   UNL A   1      34.051  21.858  23.153  1.00  0.00     0.062 H 
ENDBRANCH  22  40
ENDBRANCH  14  17
ENDBRANCH  11  14
ENDBRANCH   7  10
ENDBRANCH   4   7
ENDBRANCH   1   4
BRANCH   1  51
ATOM     51  C   UNL A   1      43.535  25.613  26.288  1.00  0.00    -0.052 C 
ATOM     52  H   UNL A   1      43.889  25.141  27.180  1.00  0.00     0.027 H 
ATOM     53  H   UNL A   1      42.470  25.643  26.194  1.00  0.00     0.027 H 
BRANCH  51  54
ATOM     54  C   UNL A   1      43.982  27.078  26.326  1.00  0.00    -0.036 C 
ATOM     55  H   UNL A   1      43.136  27.680  26.591  1.00  0.00     0.028 H 
ATOM     56  H   UNL A   1      44.365  27.308  25.354  1.00  0.00     0.028 H 
BRANCH  54  57
ATOM     57  C   UNL A   1      45.100  27.363  27.318  1.00  0.00     0.018 C 
ATOM     58  H   UNL A   1      44.826  26.947  28.264  1.00  0.00     0.049 H 
ATOM     59  H   UNL A   1      45.220  28.426  27.356  1.00  0.00     0.049 H 
BRANCH  57  60
ATOM     60  N   UNL A   1      46.390  26.806  26.928  1.00  0.00    -0.352 N 
ATOM     61  C   UNL A   1      47.244  25.987  27.646  1.00  0.00     0.251 C 
ATOM     62  H   UNL A   1      46.698  27.046  26.024  1.00  0.00     0.163 HD
ATOM     63  O   UNL A   1      48.318  25.646  27.175  1.00  0.00    -0.269 OA
BRANCH  61  64
ATOM     64  C   UNL A   1      46.784  25.423  28.936  1.00  0.00     0.039 A 
ATOM     65  C   UNL A   1      45.634  24.625  28.925  1.00  0.00    -0.049 A 
ATOM     66  C   UNL A   1      47.347  25.830  30.142  1.00  0.00    -0.049 A 
ATOM     67  C   UNL A   1      44.918  24.444  30.106  1.00  0.00    -0.053 A 
ATOM     68  H   UNL A   1      45.319  24.175  28.050  1.00  0.00     0.063 H 
ATOM     69  C   UNL A   1      46.598  25.728  31.298  1.00  0.00    -0.053 A 
ATOM     70  H   UNL A   1      48.309  26.203  30.172  1.00  0.00     0.063 H 
ATOM     71  C   UNL A   1      45.352  25.096  31.262  1.00  0.00    -0.014 A 
ATOM     72  H   UNL A   1      44.083  23.839  30.126  1.00  0.00     0.063 H 
ATOM     73  H   UNL A   1      46.955  26.117  32.184  1.00  0.00     0.063 H 
BRANCH  71  74
ATOM     74  C   UNL A   1      44.500  25.269  32.431  1.00  0.00     0.031 A 
ATOM     75  C   UNL A   1      43.879  26.574  32.725  1.00  0.00     0.074 A 
ATOM     76  C   UNL A   1      44.251  24.203  33.223  1.00  0.00     0.049 A 
ATOM     77  N   UNL A   1      43.576  26.982  33.912  1.00  0.00    -0.248 NA
ATOM     78  C   UNL A   1      43.582  27.547  31.683  1.00  0.00    -0.034 C 
ATOM     79  C   UNL A   1      43.271  24.108  34.302  1.00  0.00    -0.036 A 
ATOM     80  N   UNL A   1      45.009  23.024  33.331  1.00  0.00    -0.354 N 
ATOM     81  C   UNL A   1      42.831  28.132  33.781  1.00  0.00     0.074 A 
ATOM     82  C   UNL A   1      42.914  28.473  32.378  1.00  0.00    -0.034 C 
ATOM     83  H   UNL A   1      43.823  27.527  30.680  1.00  0.00     0.065 H 
ATOM     84  C   UNL A   1      43.644  23.123  35.136  1.00  0.00    -0.036 A 
ATOM     85  H   UNL A   1      42.432  24.700  34.406  1.00  0.00     0.065 H 
ATOM     86  C   UNL A   1      44.946  22.656  34.694  1.00  0.00     0.049 A 
ATOM     87  H   UNL A   1      45.484  22.553  32.608  1.00  0.00     0.167 HD
ATOM     88  C   UNL A   1      42.112  28.593  34.846  1.00  0.00     0.037 A 
ATOM     89  H   UNL A   1      42.507  29.326  31.964  1.00  0.00     0.065 H 
ATOM     90  H   UNL A   1      43.105  22.766  35.940  1.00  0.00     0.065 H 
ATOM     91  C   UNL A   1      46.066  22.611  35.471  1.00  0.00     0.037 A 
ATOM     92  C   UNL A   1      42.308  27.749  36.022  1.00  0.00     0.049 A 
ATOM     93  C   UNL A   1      46.008  23.518  36.676  1.00  0.00     0.074 A 
ATOM     94  C   UNL A   1      41.571  26.692  36.531  1.00  0.00    -0.036 A 
ATOM     95  N   UNL A   1      43.541  27.718  36.664  1.00  0.00    -0.354 N 
ATOM     96  N   UNL A   1      45.214  24.547  36.771  1.00  0.00    -0.248 NA
ATOM     97  C   UNL A   1      46.875  23.365  37.841  1.00  0.00    -0.034 C 
ATOM     98  C   UNL A   1      42.387  25.988  37.448  1.00  0.00    -0.036 A 
ATOM     99  H   UNL A   1      40.597  26.458  36.285  1.00  0.00     0.065 H 
ATOM    100  C   UNL A   1      43.612  26.629  37.512  1.00  0.00     0.049 A 
ATOM    101  H   UNL A   1      44.261  28.377  36.533  1.00  0.00     0.167 HD
ATOM    102  C   UNL A   1      45.463  25.201  37.948  1.00  0.00     0.074 A 
ATOM    103  C   UNL A   1      46.497  24.413  38.593  1.00  0.00    -0.034 C 
ATOM    104  H   UNL A   1      47.588  22.644  38.035  1.00  0.00     0.065 H 
ATOM    105  H   UNL A   1      42.116  25.145  37.977  1.00  0.00     0.065 H 
ATOM    106  C   UNL A   1      44.807  26.348  38.288  1.00  0.00     0.037 A 
ATOM    107  H   UNL A   1      46.895  24.631  39.520  1.00  0.00     0.065 H 
BRANCH  88 108
ATOM    108  C   UNL A   1      40.988  29.600  34.723  1.00  0.00     0.064 A 
ATOM    109  C   UNL A   1      40.976  30.778  35.503  1.00  0.00     0.173 A 
ATOM    110  C   UNL A   1      39.859  29.432  33.901  1.00  0.00     0.173 A 
ATOM    111  F   UNL A   1      42.036  31.147  36.233  1.00  0.00    -0.203 F 
ATOM    112  C   UNL A   1      39.868  31.627  35.568  1.00  0.00     0.198 A 
ATOM    113  C   UNL A   1      38.727  30.248  34.006  1.00  0.00     0.198 A 
ATOM    114  F   UNL A   1      39.838  28.501  32.937  1.00  0.00    -0.203 F 
ATOM    115  F   UNL A   1      39.912  32.720  36.343  1.00  0.00    -0.200 F 
ATOM    116  C   UNL A   1      38.725  31.336  34.854  1.00  0.00     0.200 A 
ATOM    117  F   UNL A   1      37.635  29.969  33.280  1.00  0.00    -0.200 F 
ATOM    118  F   UNL A   1      37.641  32.115  34.961  1.00  0.00    -0.200 F 
ENDBRANCH  88 108
BRANCH  91 119
ATOM    119  C   UNL A   1      47.307  22.303  34.715  1.00  0.00     0.064 A 
ATOM    120  C   UNL A   1      48.171  23.363  34.377  1.00  0.00     0.173 A 
ATOM    121  C   UNL A   1      47.817  21.002  34.636  1.00  0.00     0.173 A 
ATOM    122  F   UNL A   1      47.732  24.630  34.437  1.00  0.00    -0.203 F 
ATOM    123  C   UNL A   1      49.515  23.137  34.086  1.00  0.00     0.198 A 
ATOM    124  C   UNL A   1      49.160  20.779  34.329  1.00  0.00     0.198 A 
ATOM    125  F   UNL A   1      47.049  19.951  34.959  1.00  0.00    -0.203 F 
ATOM    126  F   UNL A   1      50.336  24.176  33.876  1.00  0.00    -0.200 F 
ATOM    127  C   UNL A   1      50.014  21.847  34.088  1.00  0.00     0.200 A 
ATOM    128  F   UNL A   1      49.651  19.531  34.356  1.00  0.00    -0.200 F 
ATOM    129  F   UNL A   1      51.323  21.633  33.894  1.00  0.00    -0.200 F 
ENDBRANCH  91 119
BRANCH 106 130
ATOM    130  C   UNL A   1      45.163  27.244  39.444  1.00  0.00     0.064 A 
ATOM    131  C   UNL A   1      44.858  26.943  40.781  1.00  0.00     0.173 A 
ATOM    132  C   UNL A   1      45.965  28.391  39.240  1.00  0.00     0.173 A 
ATOM    133  F   UNL A   1      44.204  25.820  41.109  1.00  0.00    -0.203 F 
ATOM    134  C   UNL A   1      45.265  27.766  41.833  1.00  0.00     0.198 A 
ATOM    135  C   UNL A   1      46.416  29.180  40.297  1.00  0.00     0.198 A 
ATOM    136  F   UNL A   1      46.351  28.763  38.011  1.00  0.00    -0.203 F 
ATOM    137  F   UNL A   1      44.913  27.461  43.090  1.00  0.00    -0.200 F 
ATOM    138  C   UNL A   1      46.052  28.878  41.593  1.00  0.00     0.200 A 
ATOM    139  F   UNL A   1      47.219  30.225  40.052  1.00  0.00    -0.200 F 
ATOM    140  F   UNL A   1      46.474  29.642  42.608  1.00  0.00    -0.200 F 
ENDBRANCH 106 130
ENDBRANCH  71  74
ENDBRANCH  61  64
ENDBRANCH  57  60
ENDBRANCH  54  57
ENDBRANCH  51  54
ENDBRANCH   1  51
TORSDOF 17
ENDMDL
MODEL 5
REMARK VINA RESULT:     -12.4      1.637      3.594
REMARK SMILES Cc1c(CC(=O)NCCCCCCNC(=O)c2ccc(-c3c4nc(c(-c5c(F)c(F)c(F)c(F)c5F)c5ccc([nH]5)c(-c5c(F)c(F)c(F)c(F)c5F)c5nc(c(-c6c(F)c(F)c(F)c(F)c6F)c6ccc3[nH]6)C=C5)C=C4)cc2)cc(-c2ccccc2)cc1-c1ccccc1
REMARK SMILES IDX 10 1 9 4 8 7 7 10 5 11 6 12 4 14 3 17 2 18 89 19 80 20 88 21
REMARK SMILES IDX 81 22 1 25 90 29 91 30 95 31 92 32 94 34 93 36 82 40 83 41
REMARK SMILES IDX 87 42 84 43 86 45 85 47 11 51 12 54 13 57 14 60 15 61 16 63
REMARK SMILES IDX 17 64 18 65 79 66 19 67 78 69 20 71 21 74 22 75 72 76 23 77
REMARK SMILES IDX 77 78 71 79 73 80 24 81 76 82 70 84 69 86 25 88 57 91 37 92
REMARK SMILES IDX 56 93 38 94 41 95 55 96 74 97 39 98 40 100 54 102 75 103
REMARK SMILES IDX 42 106 26 108 27 109 35 110 28 111 29 112 33 113 36 114
REMARK SMILES IDX 30 115 31 116 34 117 32 118 58 119 59 120 67 121 60 122
REMARK SMILES IDX 61 123 65 124 68 125 62 126 63 127 66 128 64 129 43 130
REMARK SMILES IDX 44 131 52 132 45 133 46 134 50 135 53 136 47 137 48 138
REMARK SMILES IDX 51 139 49 140
REMARK H PARENT 10 2 10 3 9 5 9 6 8 8 8 9 7 13 4 15 4 16 80 23 88 24 1 26 1 27
REMARK H PARENT 1 28 91 33 95 35 92 37 94 38 93 39 83 44 87 46 84 48 86 49
REMARK H PARENT 85 50 11 52 11 53 12 55 12 56 13 58 13 59 14 62 18 68 79 70
REMARK H PARENT 19 72 78 73 77 83 71 85 73 87 76 89 70 90 38 99 41 101 74 104
REMARK H PARENT 39 105 75 107
REMARK Flexibility Score: inf
ROOT
ATOM      1  C   UNL A   1      35.212  23.017  24.746  1.00  0.00    -0.052 C 
ATOM      2  H   UNL A   1      34.773  23.311  23.816  1.00  0.00     0.027 H 
ATOM      3  H   UNL A   1      35.578  22.012  24.768  1.00  0.00     0.027 H 
ENDROOT
BRANCH   1   4
ATOM      4  C   UNL A   1      34.115  23.071  25.817  1.00  0.00    -0.036 C 
ATOM      5  H   UNL A   1      34.380  22.389  26.599  1.00  0.00     0.028 H 
ATOM      6  H   UNL A   1      34.063  24.089  26.142  1.00  0.00     0.028 H 
BRANCH   4   7
ATOM      7  C   UNL A   1      32.714  22.708  25.326  1.00  0.00     0.017 C 
ATOM      8  H   UNL A   1      32.637  22.963  24.289  1.00  0.00     0.049 H 
ATOM      9  H   UNL A   1      32.576  21.660  25.487  1.00  0.00     0.049 H 
BRANCH   7  10
ATOM     10  N   UNL A   1      31.671  23.402  26.050  1.00  0.00    -0.356 N 
ATOM     11  C   UNL A   1      31.055  24.583  25.745  1.00  0.00     0.224 C 
ATOM     12  O   UNL A   1      30.160  24.983  26.494  1.00  0.00    -0.275 OA
ATOM     13  H   UNL A   1      31.364  22.964  26.876  1.00  0.00     0.163 HD
BRANCH  11  14
ATOM     14  C   UNL A   1      31.438  25.357  24.488  1.00  0.00     0.052 C 
ATOM     15  H   UNL A   1      32.380  24.985  24.139  1.00  0.00     0.042 H 
ATOM     16  H   UNL A   1      30.648  25.208  23.782  1.00  0.00     0.042 H 
BRANCH  14  17
ATOM     17  C   UNL A   1      31.564  26.856  24.696  1.00  0.00    -0.035 A 
ATOM     18  C   UNL A   1      32.564  27.457  25.505  1.00  0.00    -0.040 A 
ATOM     19  C   UNL A   1      32.560  28.868  25.675  1.00  0.00    -0.015 A 
ATOM     20  C   UNL A   1      30.628  27.672  24.030  1.00  0.00    -0.050 A 
ATOM     21  C   UNL A   1      31.587  29.637  25.002  1.00  0.00    -0.046 A 
ATOM     22  C   UNL A   1      30.623  29.063  24.166  1.00  0.00    -0.017 A 
ATOM     23  H   UNL A   1      29.922  27.227  23.421  1.00  0.00     0.063 H 
ATOM     24  H   UNL A   1      31.585  30.662  25.131  1.00  0.00     0.064 H 
BRANCH  18  25
ATOM     25  C   UNL A   1      33.654  26.615  26.134  1.00  0.00    -0.039 C 
ATOM     26  H   UNL A   1      33.247  25.673  26.435  1.00  0.00     0.028 H 
ATOM     27  H   UNL A   1      34.050  27.123  26.987  1.00  0.00     0.028 H 
ATOM     28  H   UNL A   1      34.435  26.453  25.420  1.00  0.00     0.028 H 
ENDBRANCH  18  25
BRANCH  19  29
ATOM     29  C   UNL A   1      33.512  29.580  26.553  1.00  0.00    -0.018 A 
ATOM     30  C   UNL A   1      33.150  30.803  27.147  1.00  0.00    -0.054 A 
ATOM     31  C   UNL A   1      34.793  29.070  26.818  1.00  0.00    -0.054 A 
ATOM     32  C   UNL A   1      34.031  31.483  27.990  1.00  0.00    -0.062 A 
ATOM     33  H   UNL A   1      32.218  31.204  26.956  1.00  0.00     0.063 H 
ATOM     34  C   UNL A   1      35.669  29.743  27.673  1.00  0.00    -0.062 A 
ATOM     35  H   UNL A   1      35.091  28.187  26.375  1.00  0.00     0.063 H 
ATOM     36  C   UNL A   1      35.288  30.948  28.258  1.00  0.00    -0.062 A 
ATOM     37  H   UNL A   1      33.751  32.381  28.414  1.00  0.00     0.062 H 
ATOM     38  H   UNL A   1      36.601  29.346  27.871  1.00  0.00     0.062 H 
ATOM     39  H   UNL A   1      35.936  31.443  28.890  1.00  0.00     0.062 H 
ENDBRANCH  19  29
BRANCH  22  40
ATOM     40  C   UNL A   1      29.646  29.886  23.438  1.00  0.00    -0.018 A 
ATOM     41  C   UNL A   1      29.274  31.157  23.907  1.00  0.00    -0.054 A 
ATOM     42  C   UNL A   1      29.034  29.408  22.268  1.00  0.00    -0.054 A 
ATOM     43  C   UNL A   1      28.320  31.921  23.231  1.00  0.00    -0.062 A 
ATOM     44  H   UNL A   1      29.714  31.532  24.762  1.00  0.00     0.063 H 
ATOM     45  C   UNL A   1      28.077  30.169  21.593  1.00  0.00    -0.062 A 
ATOM     46  H   UNL A   1      29.296  28.479  21.901  1.00  0.00     0.063 H 
ATOM     47  C   UNL A   1      27.720  31.426  22.076  1.00  0.00    -0.062 A 
ATOM     48  H   UNL A   1      28.059  32.854  23.588  1.00  0.00     0.062 H 
ATOM     49  H   UNL A   1      27.635  29.801  20.736  1.00  0.00     0.062 H 
ATOM     50  H   UNL A   1      27.011  31.988  21.579  1.00  0.00     0.062 H 
ENDBRANCH  22  40
ENDBRANCH  14  17
ENDBRANCH  11  14
ENDBRANCH   7  10
ENDBRANCH   4   7
ENDBRANCH   1   4
BRANCH   1  51
ATOM     51  C   UNL A   1      36.448  23.904  24.982  1.00  0.00    -0.052 C 
ATOM     52  H   UNL A   1      36.175  24.910  24.743  1.00  0.00     0.027 H 
ATOM     53  H   UNL A   1      37.215  23.493  24.359  1.00  0.00     0.027 H 
BRANCH  51  54
ATOM     54  C   UNL A   1      37.030  23.902  26.399  1.00  0.00    -0.036 C 
ATOM     55  H   UNL A   1      36.735  22.993  26.881  1.00  0.00     0.028 H 
ATOM     56  H   UNL A   1      36.648  24.773  26.889  1.00  0.00     0.028 H 
BRANCH  54  57
ATOM     57  C   UNL A   1      38.548  23.998  26.450  1.00  0.00     0.018 C 
ATOM     58  H   UNL A   1      38.833  24.321  27.429  1.00  0.00     0.049 H 
ATOM     59  H   UNL A   1      38.842  24.689  25.688  1.00  0.00     0.049 H 
BRANCH  57  60
ATOM     60  N   UNL A   1      39.228  22.740  26.164  1.00  0.00    -0.352 N 
ATOM     61  C   UNL A   1      40.572  22.427  26.273  1.00  0.00     0.251 C 
ATOM     62  H   UNL A   1      38.649  22.009  25.851  1.00  0.00     0.163 HD
ATOM     63  O   UNL A   1      40.980  21.324  25.947  1.00  0.00    -0.269 OA
BRANCH  61  64
ATOM     64  C   UNL A   1      41.488  23.400  26.911  1.00  0.00     0.039 A 
ATOM     65  C   UNL A   1      41.890  23.150  28.229  1.00  0.00    -0.049 A 
ATOM     66  C   UNL A   1      41.779  24.620  26.307  1.00  0.00    -0.049 A 
ATOM     67  C   UNL A   1      42.362  24.201  29.010  1.00  0.00    -0.053 A 
ATOM     68  H   UNL A   1      41.838  22.194  28.617  1.00  0.00     0.063 H 
ATOM     69  C   UNL A   1      42.163  25.685  27.099  1.00  0.00    -0.053 A 
ATOM     70  H   UNL A   1      41.710  24.727  25.283  1.00  0.00     0.063 H 
ATOM     71  C   UNL A   1      42.386  25.486  28.464  1.00  0.00    -0.014 A 
ATOM     72  H   UNL A   1      42.688  24.035  29.974  1.00  0.00     0.063 H 
ATOM     73  H   UNL A   1      42.285  26.622  26.685  1.00  0.00     0.063 H 
BRANCH  71  74
ATOM     74  C   UNL A   1      42.509  26.684  29.284  1.00  0.00     0.031 A 
ATOM     75  C   UNL A   1      41.348  27.565  29.512  1.00  0.00     0.074 A 
ATOM     76  C   UNL A   1      43.696  26.958  29.869  1.00  0.00     0.049 A 
ATOM     77  N   UNL A   1      41.432  28.833  29.740  1.00  0.00    -0.248 NA
ATOM     78  C   UNL A   1      39.978  27.074  29.464  1.00  0.00    -0.034 C 
ATOM     79  C   UNL A   1      43.972  27.970  30.885  1.00  0.00    -0.036 A 
ATOM     80  N   UNL A   1      44.963  26.482  29.492  1.00  0.00    -0.354 N 
ATOM     81  C   UNL A   1      40.183  29.275  30.113  1.00  0.00     0.074 A 
ATOM     82  C   UNL A   1      39.302  28.155  29.867  1.00  0.00    -0.034 C 
ATOM     83  H   UNL A   1      39.624  26.144  29.191  1.00  0.00     0.065 H 
ATOM     84  C   UNL A   1      45.283  28.263  30.855  1.00  0.00    -0.036 A 
ATOM     85  H   UNL A   1      43.276  28.391  31.520  1.00  0.00     0.065 H 
ATOM     86  C   UNL A   1      45.856  27.552  29.724  1.00  0.00     0.049 A 
ATOM     87  H   UNL A   1      45.183  25.589  29.141  1.00  0.00     0.167 HD
ATOM     88  C   UNL A   1      40.053  30.493  30.717  1.00  0.00     0.037 A 
ATOM     89  H   UNL A   1      38.278  28.186  29.988  1.00  0.00     0.065 H 
ATOM     90  H   UNL A   1      45.788  28.878  31.511  1.00  0.00     0.065 H 
ATOM     91  C   UNL A   1      46.549  28.135  28.704  1.00  0.00     0.037 A 
ATOM     92  C   UNL A   1      41.343  31.168  30.830  1.00  0.00     0.049 A 
ATOM     93  C   UNL A   1      46.284  29.613  28.554  1.00  0.00     0.074 A 
ATOM     94  C   UNL A   1      42.261  31.233  31.866  1.00  0.00    -0.036 A 
ATOM     95  N   UNL A   1      41.997  31.625  29.691  1.00  0.00    -0.354 N 
ATOM     96  N   UNL A   1      45.224  30.210  29.018  1.00  0.00    -0.248 NA
ATOM     97  C   UNL A   1      47.168  30.519  27.825  1.00  0.00    -0.034 C 
ATOM     98  C   UNL A   1      43.492  31.683  31.335  1.00  0.00    -0.036 A 
ATOM     99  H   UNL A   1      42.079  30.994  32.853  1.00  0.00     0.065 H 
ATOM    100  C   UNL A   1      43.318  31.911  29.981  1.00  0.00     0.049 A 
ATOM    101  H   UNL A   1      41.579  31.729  28.806  1.00  0.00     0.167 HD
ATOM    102  C   UNL A   1      45.249  31.528  28.647  1.00  0.00     0.074 A 
ATOM    103  C   UNL A   1      46.495  31.678  27.918  1.00  0.00    -0.034 C 
ATOM    104  H   UNL A   1      48.070  30.321  27.362  1.00  0.00     0.065 H 
ATOM    105  H   UNL A   1      44.368  31.818  31.864  1.00  0.00     0.065 H 
ATOM    106  C   UNL A   1      44.233  32.384  28.957  1.00  0.00     0.037 A 
ATOM    107  H   UNL A   1      46.826  32.571  27.519  1.00  0.00     0.065 H 
BRANCH  88 108
ATOM    108  C   UNL A   1      38.822  30.913  31.493  1.00  0.00     0.064 A 
ATOM    109  C   UNL A   1      37.821  31.711  30.894  1.00  0.00     0.173 A 
ATOM    110  C   UNL A   1      38.600  30.615  32.849  1.00  0.00     0.173 A 
ATOM    111  F   UNL A   1      37.820  31.967  29.580  1.00  0.00    -0.203 F 
ATOM    112  C   UNL A   1      36.779  32.284  31.627  1.00  0.00     0.198 A 
ATOM    113  C   UNL A   1      37.590  31.233  33.596  1.00  0.00     0.198 A 
ATOM    114  F   UNL A   1      39.324  29.680  33.480  1.00  0.00    -0.203 F 
ATOM    115  F   UNL A   1      35.871  33.049  31.004  1.00  0.00    -0.200 F 
ATOM    116  C   UNL A   1      36.690  32.083  32.987  1.00  0.00     0.200 A 
ATOM    117  F   UNL A   1      37.500  31.000  34.913  1.00  0.00    -0.200 F 
ATOM    118  F   UNL A   1      35.726  32.680  33.702  1.00  0.00    -0.200 F 
ENDBRANCH  88 108
BRANCH  91 119
ATOM    119  C   UNL A   1      46.831  27.216  27.571  1.00  0.00     0.064 A 
ATOM    120  C   UNL A   1      47.944  26.358  27.660  1.00  0.00     0.173 A 
ATOM    121  C   UNL A   1      45.861  26.920  26.606  1.00  0.00     0.173 A 
ATOM    122  F   UNL A   1      48.902  26.597  28.570  1.00  0.00    -0.203 F 
ATOM    123  C   UNL A   1      48.026  25.197  26.896  1.00  0.00     0.198 A 
ATOM    124  C   UNL A   1      45.955  25.763  25.831  1.00  0.00     0.198 A 
ATOM    125  F   UNL A   1      44.770  27.689  26.482  1.00  0.00    -0.203 F 
ATOM    126  F   UNL A   1      49.046  24.346  27.082  1.00  0.00    -0.200 F 
ATOM    127  C   UNL A   1      47.019  24.887  26.000  1.00  0.00     0.200 A 
ATOM    128  F   UNL A   1      44.966  25.448  24.982  1.00  0.00    -0.200 F 
ATOM    129  F   UNL A   1      47.050  23.728  25.327  1.00  0.00    -0.200 F 
ENDBRANCH  91 119
BRANCH 106 130
ATOM    130  C   UNL A   1      44.073  33.778  28.412  1.00  0.00     0.064 A 
ATOM    131  C   UNL A   1      43.751  34.056  27.074  1.00  0.00     0.173 A 
ATOM    132  C   UNL A   1      44.103  34.894  29.281  1.00  0.00     0.173 A 
ATOM    133  F   UNL A   1      43.577  33.070  26.183  1.00  0.00    -0.203 F 
ATOM    134  C   UNL A   1      43.542  35.361  26.621  1.00  0.00     0.198 A 
ATOM    135  C   UNL A   1      43.842  36.189  28.837  1.00  0.00     0.198 A 
ATOM    136  F   UNL A   1      44.367  34.754  30.588  1.00  0.00    -0.203 F 
ATOM    137  F   UNL A   1      43.279  35.579  25.326  1.00  0.00    -0.200 F 
ATOM    138  C   UNL A   1      43.578  36.425  27.503  1.00  0.00     0.200 A 
ATOM    139  F   UNL A   1      43.830  37.204  29.713  1.00  0.00    -0.200 F 
ATOM    140  F   UNL A   1      43.338  37.670  27.072  1.00  0.00    -0.200 F 
ENDBRANCH 106 130
ENDBRANCH  71  74
ENDBRANCH  61  64
ENDBRANCH  57  60
ENDBRANCH  54  57
ENDBRANCH  51  54
ENDBRANCH   1  51
TORSDOF 17
ENDMDL
MODEL 6
REMARK VINA RESULT:     -12.4      1.848      4.108
REMARK SMILES Cc1c(CC(=O)NCCCCCCNC(=O)c2ccc(-c3c4nc(c(-c5c(F)c(F)c(F)c(F)c5F)c5ccc([nH]5)c(-c5c(F)c(F)c(F)c(F)c5F)c5nc(c(-c6c(F)c(F)c(F)c(F)c6F)c6ccc3[nH]6)C=C5)C=C4)cc2)cc(-c2ccccc2)cc1-c1ccccc1
REMARK SMILES IDX 10 1 9 4 8 7 7 10 5 11 6 12 4 14 3 17 2 18 89 19 80 20 88 21
REMARK SMILES IDX 81 22 1 25 90 29 91 30 95 31 92 32 94 34 93 36 82 40 83 41
REMARK SMILES IDX 87 42 84 43 86 45 85 47 11 51 12 54 13 57 14 60 15 61 16 63
REMARK SMILES IDX 17 64 18 65 79 66 19 67 78 69 20 71 21 74 22 75 72 76 23 77
REMARK SMILES IDX 77 78 71 79 73 80 24 81 76 82 70 84 69 86 25 88 57 91 37 92
REMARK SMILES IDX 56 93 38 94 41 95 55 96 74 97 39 98 40 100 54 102 75 103
REMARK SMILES IDX 42 106 26 108 27 109 35 110 28 111 29 112 33 113 36 114
REMARK SMILES IDX 30 115 31 116 34 117 32 118 58 119 59 120 67 121 60 122
REMARK SMILES IDX 61 123 65 124 68 125 62 126 63 127 66 128 64 129 43 130
REMARK SMILES IDX 44 131 52 132 45 133 46 134 50 135 53 136 47 137 48 138
REMARK SMILES IDX 51 139 49 140
REMARK H PARENT 10 2 10 3 9 5 9 6 8 8 8 9 7 13 4 15 4 16 80 23 88 24 1 26 1 27
REMARK H PARENT 1 28 91 33 95 35 92 37 94 38 93 39 83 44 87 46 84 48 86 49
REMARK H PARENT 85 50 11 52 11 53 12 55 12 56 13 58 13 59 14 62 18 68 79 70
REMARK H PARENT 19 72 78 73 77 83 71 85 73 87 76 89 70 90 38 99 41 101 74 104
REMARK H PARENT 39 105 75 107
REMARK Flexibility Score: inf
ROOT
ATOM      1  C   UNL A   1      34.341  22.749  24.474  1.00  0.00    -0.052 C 
ATOM      2  H   UNL A   1      33.848  23.060  23.577  1.00  0.00     0.027 H 
ATOM      3  H   UNL A   1      34.698  21.741  24.460  1.00  0.00     0.027 H 
ENDROOT
BRANCH   1   4
ATOM      4  C   UNL A   1      33.311  22.797  25.611  1.00  0.00    -0.036 C 
ATOM      5  H   UNL A   1      33.532  22.001  26.292  1.00  0.00     0.028 H 
ATOM      6  H   UNL A   1      33.395  23.768  26.051  1.00  0.00     0.028 H 
BRANCH   4   7
ATOM      7  C   UNL A   1      31.855  22.653  25.170  1.00  0.00     0.017 C 
ATOM      8  H   UNL A   1      31.775  22.955  24.147  1.00  0.00     0.049 H 
ATOM      9  H   UNL A   1      31.576  21.628  25.303  1.00  0.00     0.049 H 
BRANCH   7  10
ATOM     10  N   UNL A   1      30.950  23.457  25.962  1.00  0.00    -0.356 N 
ATOM     11  C   UNL A   1      30.444  24.697  25.690  1.00  0.00     0.224 C 
ATOM     12  O   UNL A   1      29.656  25.194  26.499  1.00  0.00    -0.275 OA
ATOM     13  H   UNL A   1      30.659  23.057  26.812  1.00  0.00     0.163 HD
BRANCH  11  14
ATOM     14  C   UNL A   1      30.815  25.422  24.401  1.00  0.00     0.052 C 
ATOM     15  H   UNL A   1      31.693  24.961  23.997  1.00  0.00     0.042 H 
ATOM     16  H   UNL A   1      29.970  25.343  23.749  1.00  0.00     0.042 H 
BRANCH  14  17
ATOM     17  C   UNL A   1      31.093  26.904  24.580  1.00  0.00    -0.035 A 
ATOM     18  C   UNL A   1      32.145  27.417  25.384  1.00  0.00    -0.040 A 
ATOM     19  C   UNL A   1      32.286  28.824  25.526  1.00  0.00    -0.015 A 
ATOM     20  C   UNL A   1      30.250  27.798  23.890  1.00  0.00    -0.050 A 
ATOM     21  C   UNL A   1      31.401  29.675  24.830  1.00  0.00    -0.046 A 
ATOM     22  C   UNL A   1      30.387  29.185  23.998  1.00  0.00    -0.017 A 
ATOM     23  H   UNL A   1      29.505  27.416  23.285  1.00  0.00     0.063 H 
ATOM     24  H   UNL A   1      31.504  30.696  24.938  1.00  0.00     0.064 H 
BRANCH  18  25
ATOM     25  C   UNL A   1      33.139  26.480  26.038  1.00  0.00    -0.039 C 
ATOM     26  H   UNL A   1      32.679  25.999  26.875  1.00  0.00     0.028 H 
ATOM     27  H   UNL A   1      33.990  27.037  26.368  1.00  0.00     0.028 H 
ATOM     28  H   UNL A   1      33.450  25.740  25.329  1.00  0.00     0.028 H 
ENDBRANCH  18  25
BRANCH  19  29
ATOM     29  C   UNL A   1      33.301  29.452  26.396  1.00  0.00    -0.018 A 
ATOM     30  C   UNL A   1      34.582  28.884  26.516  1.00  0.00    -0.054 A 
ATOM     31  C   UNL A   1      33.025  30.619  27.126  1.00  0.00    -0.054 A 
ATOM     32  C   UNL A   1      35.559  29.471  27.323  1.00  0.00    -0.062 A 
ATOM     33  H   UNL A   1      34.804  28.018  25.999  1.00  0.00     0.063 H 
ATOM     34  C   UNL A   1      34.006  31.216  27.922  1.00  0.00    -0.062 A 
ATOM     35  H   UNL A   1      32.085  31.041  27.074  1.00  0.00     0.063 H 
ATOM     36  C   UNL A   1      35.271  30.642  28.020  1.00  0.00    -0.062 A 
ATOM     37  H   UNL A   1      36.492  29.039  27.402  1.00  0.00     0.062 H 
ATOM     38  H   UNL A   1      33.792  32.083  28.439  1.00  0.00     0.062 H 
ATOM     39  H   UNL A   1      35.995  31.084  28.608  1.00  0.00     0.062 H 
ENDBRANCH  19  29
BRANCH  22  40
ATOM     40  C   UNL A   1      29.505  30.089  23.247  1.00  0.00    -0.018 A 
ATOM     41  C   UNL A   1      29.159  31.353  23.751  1.00  0.00    -0.054 A 
ATOM     42  C   UNL A   1      28.957  29.697  22.014  1.00  0.00    -0.054 A 
ATOM     43  C   UNL A   1      28.291  32.195  23.050  1.00  0.00    -0.062 A 
ATOM     44  H   UNL A   1      29.552  31.665  24.653  1.00  0.00     0.063 H 
ATOM     45  C   UNL A   1      28.088  30.536  21.312  1.00  0.00    -0.062 A 
ATOM     46  H   UNL A   1      29.202  28.775  21.619  1.00  0.00     0.063 H 
ATOM     47  C   UNL A   1      27.754  31.785  21.832  1.00  0.00    -0.062 A 
ATOM     48  H   UNL A   1      28.049  33.122  23.435  1.00  0.00     0.062 H 
ATOM     49  H   UNL A   1      27.693  30.231  20.410  1.00  0.00     0.062 H 
ATOM     50  H   UNL A   1      27.110  32.404  21.317  1.00  0.00     0.062 H 
ENDBRANCH  22  40
ENDBRANCH  14  17
ENDBRANCH  11  14
ENDBRANCH   7  10
ENDBRANCH   4   7
ENDBRANCH   1   4
BRANCH   1  51
ATOM     51  C   UNL A   1      35.596  23.622  24.646  1.00  0.00    -0.052 C 
ATOM     52  H   UNL A   1      35.380  24.586  24.236  1.00  0.00     0.027 H 
ATOM     53  H   UNL A   1      36.380  23.093  24.146  1.00  0.00     0.027 H 
BRANCH  51  54
ATOM     54  C   UNL A   1      36.094  23.827  26.080  1.00  0.00    -0.036 C 
ATOM     55  H   UNL A   1      35.751  23.005  26.675  1.00  0.00     0.028 H 
ATOM     56  H   UNL A   1      35.706  24.768  26.410  1.00  0.00     0.028 H 
BRANCH  54  57
ATOM     57  C   UNL A   1      37.609  23.908  26.209  1.00  0.00     0.018 C 
ATOM     58  H   UNL A   1      37.843  24.414  27.122  1.00  0.00     0.049 H 
ATOM     59  H   UNL A   1      37.967  24.430  25.346  1.00  0.00     0.049 H 
BRANCH  57  60
ATOM     60  N   UNL A   1      38.270  22.608  26.221  1.00  0.00    -0.352 N 
ATOM     61  C   UNL A   1      39.603  22.306  26.434  1.00  0.00     0.251 C 
ATOM     62  H   UNL A   1      37.685  21.835  26.054  1.00  0.00     0.163 HD
ATOM     63  O   UNL A   1      39.997  21.152  26.366  1.00  0.00    -0.269 OA
BRANCH  61  64
ATOM     64  C   UNL A   1      40.523  23.380  26.877  1.00  0.00     0.039 A 
ATOM     65  C   UNL A   1      41.232  23.182  28.067  1.00  0.00    -0.049 A 
ATOM     66  C   UNL A   1      40.533  24.623  26.250  1.00  0.00    -0.049 A 
ATOM     67  C   UNL A   1      41.743  24.283  28.748  1.00  0.00    -0.053 A 
ATOM     68  H   UNL A   1      41.375  22.228  28.437  1.00  0.00     0.063 H 
ATOM     69  C   UNL A   1      40.961  25.727  26.961  1.00  0.00    -0.053 A 
ATOM     70  H   UNL A   1      40.227  24.718  25.269  1.00  0.00     0.063 H 
ATOM     71  C   UNL A   1      41.501  25.561  28.239  1.00  0.00    -0.014 A 
ATOM     72  H   UNL A   1      42.292  24.158  29.613  1.00  0.00     0.063 H 
ATOM     73  H   UNL A   1      40.881  26.671  26.552  1.00  0.00     0.063 H 
BRANCH  71  74
ATOM     74  C   UNL A   1      41.667  26.767  29.039  1.00  0.00     0.031 A 
ATOM     75  C   UNL A   1      40.651  27.836  29.011  1.00  0.00     0.074 A 
ATOM     76  C   UNL A   1      42.749  26.878  29.840  1.00  0.00     0.049 A 
ATOM     77  N   UNL A   1      40.904  29.084  29.221  1.00  0.00    -0.248 NA
ATOM     78  C   UNL A   1      39.252  27.571  28.704  1.00  0.00    -0.034 C 
ATOM     79  C   UNL A   1      42.994  27.888  30.866  1.00  0.00    -0.036 A 
ATOM     80  N   UNL A   1      43.966  26.182  29.733  1.00  0.00    -0.354 N 
ATOM     81  C   UNL A   1      39.700  29.743  29.328  1.00  0.00     0.074 A 
ATOM     82  C   UNL A   1      38.705  28.768  28.940  1.00  0.00    -0.034 C 
ATOM     83  H   UNL A   1      38.804  26.697  28.390  1.00  0.00     0.065 H 
ATOM     84  C   UNL A   1      44.317  27.963  31.089  1.00  0.00    -0.036 A 
ATOM     85  H   UNL A   1      42.271  28.452  31.340  1.00  0.00     0.065 H 
ATOM     86  C   UNL A   1      44.966  27.106  30.111  1.00  0.00     0.049 A 
ATOM     87  H   UNL A   1      44.094  25.247  29.454  1.00  0.00     0.167 HD
ATOM     88  C   UNL A   1      39.666  30.998  29.865  1.00  0.00     0.037 A 
ATOM     89  H   UNL A   1      37.697  28.972  28.855  1.00  0.00     0.065 H 
ATOM     90  H   UNL A   1      44.784  28.524  31.817  1.00  0.00     0.065 H 
ATOM     91  C   UNL A   1      45.930  27.509  29.235  1.00  0.00     0.037 A 
ATOM     92  C   UNL A   1      41.006  31.461  30.215  1.00  0.00     0.049 A 
ATOM     93  C   UNL A   1      45.954  29.000  29.000  1.00  0.00     0.074 A 
ATOM     94  C   UNL A   1      41.707  31.436  31.410  1.00  0.00    -0.036 A 
ATOM     95  N   UNL A   1      41.933  31.741  29.218  1.00  0.00    -0.354 N 
ATOM     96  N   UNL A   1      44.941  29.786  29.231  1.00  0.00    -0.248 NA
ATOM     97  C   UNL A   1      47.102  29.708  28.439  1.00  0.00    -0.034 C 
ATOM     98  C   UNL A   1      43.075  31.649  31.123  1.00  0.00    -0.036 A 
ATOM     99  H   UNL A   1      41.302  31.286  32.347  1.00  0.00     0.065 H 
ATOM    100  C   UNL A   1      43.204  31.826  29.756  1.00  0.00     0.049 A 
ATOM    101  H   UNL A   1      41.716  31.861  28.265  1.00  0.00     0.167 HD
ATOM    102  C   UNL A   1      45.261  31.060  28.840  1.00  0.00     0.074 A 
ATOM    103  C   UNL A   1      46.630  30.964  28.369  1.00  0.00    -0.034 C 
ATOM    104  H   UNL A   1      48.028  29.341  28.169  1.00  0.00     0.065 H 
ATOM    105  H   UNL A   1      43.843  31.670  31.811  1.00  0.00     0.065 H 
ATOM    106  C   UNL A   1      44.365  32.085  28.922  1.00  0.00     0.037 A 
ATOM    107  H   UNL A   1      47.178  31.767  28.022  1.00  0.00     0.065 H 
BRANCH  88 108
ATOM    108  C   UNL A   1      38.399  31.655  30.372  1.00  0.00     0.064 A 
ATOM    109  C   UNL A   1      37.748  31.183  31.534  1.00  0.00     0.173 A 
ATOM    110  C   UNL A   1      37.740  32.713  29.721  1.00  0.00     0.173 A 
ATOM    111  F   UNL A   1      38.316  30.273  32.336  1.00  0.00    -0.203 F 
ATOM    112  C   UNL A   1      36.480  31.625  31.918  1.00  0.00     0.198 A 
ATOM    113  C   UNL A   1      36.446  33.118  30.071  1.00  0.00     0.198 A 
ATOM    114  F   UNL A   1      38.348  33.419  28.758  1.00  0.00    -0.203 F 
ATOM    115  F   UNL A   1      35.906  31.124  33.021  1.00  0.00    -0.200 F 
ATOM    116  C   UNL A   1      35.808  32.560  31.159  1.00  0.00     0.200 A 
ATOM    117  F   UNL A   1      35.821  34.052  29.339  1.00  0.00    -0.200 F 
ATOM    118  F   UNL A   1      34.568  32.942  31.492  1.00  0.00    -0.200 F 
ENDBRANCH  88 108
BRANCH  91 119
ATOM    119  C   UNL A   1      46.262  26.494  28.203  1.00  0.00     0.064 A 
ATOM    120  C   UNL A   1      45.607  26.558  26.958  1.00  0.00     0.173 A 
ATOM    121  C   UNL A   1      47.423  25.716  28.284  1.00  0.00     0.173 A 
ATOM    122  F   UNL A   1      44.490  27.291  26.827  1.00  0.00    -0.203 F 
ATOM    123  C   UNL A   1      46.151  25.965  25.821  1.00  0.00     0.198 A 
ATOM    124  C   UNL A   1      47.957  25.110  27.144  1.00  0.00     0.198 A 
ATOM    125  F   UNL A   1      48.102  25.627  29.436  1.00  0.00    -0.203 F 
ATOM    126  F   UNL A   1      45.559  26.137  24.630  1.00  0.00    -0.200 F 
ATOM    127  C   UNL A   1      47.340  25.263  25.911  1.00  0.00     0.200 A 
ATOM    128  F   UNL A   1      49.123  24.452  27.225  1.00  0.00    -0.200 F 
ATOM    129  F   UNL A   1      47.911  24.765  24.805  1.00  0.00    -0.200 F 
ENDBRANCH  91 119
BRANCH 106 130
ATOM    130  C   UNL A   1      44.551  33.453  28.323  1.00  0.00     0.064 A 
ATOM    131  C   UNL A   1      44.938  34.580  29.067  1.00  0.00     0.173 A 
ATOM    132  C   UNL A   1      44.478  33.637  26.923  1.00  0.00     0.173 A 
ATOM    133  F   UNL A   1      45.156  34.499  30.387  1.00  0.00    -0.203 F 
ATOM    134  C   UNL A   1      45.168  35.818  28.463  1.00  0.00     0.198 A 
ATOM    135  C   UNL A   1      44.760  34.861  26.318  1.00  0.00     0.198 A 
ATOM    136  F   UNL A   1      44.150  32.628  26.102  1.00  0.00    -0.203 F 
ATOM    137  F   UNL A   1      45.494  36.875  29.220  1.00  0.00    -0.200 F 
ATOM    138  C   UNL A   1      45.089  35.956  27.090  1.00  0.00     0.200 A 
ATOM    139  F   UNL A   1      44.728  34.967  24.982  1.00  0.00    -0.200 F 
ATOM    140  F   UNL A   1      45.349  37.136  26.511  1.00  0.00    -0.200 F 
ENDBRANCH 106 130
ENDBRANCH  71  74
ENDBRANCH  61  64
ENDBRANCH  57  60
ENDBRANCH  54  57
ENDBRANCH  51  54
ENDBRANCH   1  51
TORSDOF 17
ENDMDL
MODEL 7
REMARK VINA RESULT:     -12.3      4.263      9.616
REMARK SMILES Cc1c(CC(=O)NCCCCCCNC(=O)c2ccc(-c3c4nc(c(-c5c(F)c(F)c(F)c(F)c5F)c5ccc([nH]5)c(-c5c(F)c(F)c(F)c(F)c5F)c5nc(c(-c6c(F)c(F)c(F)c(F)c6F)c6ccc3[nH]6)C=C5)C=C4)cc2)cc(-c2ccccc2)cc1-c1ccccc1
REMARK SMILES IDX 10 1 9 4 8 7 7 10 5 11 6 12 4 14 3 17 2 18 89 19 80 20 88 21
REMARK SMILES IDX 81 22 1 25 90 29 91 30 95 31 92 32 94 34 93 36 82 40 83 41
REMARK SMILES IDX 87 42 84 43 86 45 85 47 11 51 12 54 13 57 14 60 15 61 16 63
REMARK SMILES IDX 17 64 18 65 79 66 19 67 78 69 20 71 21 74 22 75 72 76 23 77
REMARK SMILES IDX 77 78 71 79 73 80 24 81 76 82 70 84 69 86 25 88 57 91 37 92
REMARK SMILES IDX 56 93 38 94 41 95 55 96 74 97 39 98 40 100 54 102 75 103
REMARK SMILES IDX 42 106 26 108 27 109 35 110 28 111 29 112 33 113 36 114
REMARK SMILES IDX 30 115 31 116 34 117 32 118 58 119 59 120 67 121 60 122
REMARK SMILES IDX 61 123 65 124 68 125 62 126 63 127 66 128 64 129 43 130
REMARK SMILES IDX 44 131 52 132 45 133 46 134 50 135 53 136 47 137 48 138
REMARK SMILES IDX 51 139 49 140
REMARK H PARENT 10 2 10 3 9 5 9 6 8 8 8 9 7 13 4 15 4 16 80 23 88 24 1 26 1 27
REMARK H PARENT 1 28 91 33 95 35 92 37 94 38 93 39 83 44 87 46 84 48 86 49
REMARK H PARENT 85 50 11 52 11 53 12 55 12 56 13 58 13 59 14 62 18 68 79 70
REMARK H PARENT 19 72 78 73 77 83 71 85 73 87 76 89 70 90 38 99 41 101 74 104
REMARK H PARENT 39 105 75 107
REMARK Flexibility Score: inf
ROOT
ATOM      1  C   UNL A   1      35.708  31.610  31.826  1.00  0.00    -0.052 C 
ATOM      2  H   UNL A   1      36.245  31.786  30.918  1.00  0.00     0.027 H 
ATOM      3  H   UNL A   1      35.170  30.686  31.854  1.00  0.00     0.027 H 
ENDROOT
BRANCH   1   4
ATOM      4  C   UNL A   1      34.640  32.704  31.955  1.00  0.00    -0.036 C 
ATOM      5  H   UNL A   1      33.689  32.269  31.724  1.00  0.00     0.028 H 
ATOM      6  H   UNL A   1      34.706  33.070  32.958  1.00  0.00     0.028 H 
BRANCH   4   7
ATOM      7  C   UNL A   1      34.842  33.914  31.044  1.00  0.00     0.017 C 
ATOM      8  H   UNL A   1      34.929  34.791  31.652  1.00  0.00     0.049 H 
ATOM      9  H   UNL A   1      35.728  33.742  30.469  1.00  0.00     0.049 H 
BRANCH   7  10
ATOM     10  N   UNL A   1      33.748  34.103  30.115  1.00  0.00    -0.356 N 
ATOM     11  C   UNL A   1      33.762  34.033  28.750  1.00  0.00     0.224 C 
ATOM     12  O   UNL A   1      32.697  34.200  28.149  1.00  0.00    -0.275 OA
ATOM     13  H   UNL A   1      32.876  34.308  30.522  1.00  0.00     0.163 HD
BRANCH  11  14
ATOM     14  C   UNL A   1      35.052  33.716  28.001  1.00  0.00     0.052 C 
ATOM     15  H   UNL A   1      34.921  33.994  26.976  1.00  0.00     0.042 H 
ATOM     16  H   UNL A   1      35.832  34.269  28.483  1.00  0.00     0.042 H 
BRANCH  14  17
ATOM     17  C   UNL A   1      35.456  32.253  28.052  1.00  0.00    -0.035 A 
ATOM     18  C   UNL A   1      36.730  31.803  28.489  1.00  0.00    -0.040 A 
ATOM     19  C   UNL A   1      37.024  30.413  28.448  1.00  0.00    -0.015 A 
ATOM     20  C   UNL A   1      34.489  31.311  27.646  1.00  0.00    -0.050 A 
ATOM     21  C   UNL A   1      36.027  29.514  28.012  1.00  0.00    -0.046 A 
ATOM     22  C   UNL A   1      34.752  29.939  27.621  1.00  0.00    -0.017 A 
ATOM     23  H   UNL A   1      33.556  31.646  27.357  1.00  0.00     0.063 H 
ATOM     24  H   UNL A   1      36.246  28.506  27.980  1.00  0.00     0.064 H 
BRANCH  18  25
ATOM     25  C   UNL A   1      37.742  32.783  29.045  1.00  0.00    -0.039 C 
ATOM     26  H   UNL A   1      37.241  33.677  29.352  1.00  0.00     0.028 H 
ATOM     27  H   UNL A   1      38.463  33.017  28.290  1.00  0.00     0.028 H 
ATOM     28  H   UNL A   1      38.236  32.344  29.886  1.00  0.00     0.028 H 
ENDBRANCH  18  25
BRANCH  19  29
ATOM     29  C   UNL A   1      38.342  29.854  28.812  1.00  0.00    -0.018 A 
ATOM     30  C   UNL A   1      38.696  29.694  30.163  1.00  0.00    -0.054 A 
ATOM     31  C   UNL A   1      39.275  29.472  27.835  1.00  0.00    -0.054 A 
ATOM     32  C   UNL A   1      39.932  29.154  30.526  1.00  0.00    -0.062 A 
ATOM     33  H   UNL A   1      38.031  29.980  30.899  1.00  0.00     0.063 H 
ATOM     34  C   UNL A   1      40.506  28.918  28.196  1.00  0.00    -0.062 A 
ATOM     35  H   UNL A   1      39.049  29.602  26.836  1.00  0.00     0.063 H 
ATOM     36  C   UNL A   1      40.833  28.760  29.541  1.00  0.00    -0.062 A 
ATOM     37  H   UNL A   1      40.176  29.048  31.523  1.00  0.00     0.062 H 
ATOM     38  H   UNL A   1      41.174  28.627  27.466  1.00  0.00     0.062 H 
ATOM     39  H   UNL A   1      41.742  28.350  29.807  1.00  0.00     0.062 H 
ENDBRANCH  19  29
BRANCH  22  40
ATOM     40  C   UNL A   1      33.714  28.982  27.214  1.00  0.00    -0.018 A 
ATOM     41  C   UNL A   1      32.380  29.137  27.625  1.00  0.00    -0.054 A 
ATOM     42  C   UNL A   1      34.036  27.864  26.425  1.00  0.00    -0.054 A 
ATOM     43  C   UNL A   1      31.403  28.206  27.264  1.00  0.00    -0.062 A 
ATOM     44  H   UNL A   1      32.117  29.952  28.201  1.00  0.00     0.063 H 
ATOM     45  C   UNL A   1      33.061  26.930  26.066  1.00  0.00    -0.062 A 
ATOM     46  H   UNL A   1      35.009  27.732  26.106  1.00  0.00     0.063 H 
ATOM     47  C   UNL A   1      31.745  27.101  26.487  1.00  0.00    -0.062 A 
ATOM     48  H   UNL A   1      30.426  28.336  27.573  1.00  0.00     0.062 H 
ATOM     49  H   UNL A   1      33.317  26.114  25.489  1.00  0.00     0.062 H 
ATOM     50  H   UNL A   1      31.024  26.411  26.225  1.00  0.00     0.062 H 
ENDBRANCH  22  40
ENDBRANCH  14  17
ENDBRANCH  11  14
ENDBRANCH   7  10
ENDBRANCH   4   7
ENDBRANCH   1   4
BRANCH   1  51
ATOM     51  C   UNL A   1      36.736  31.514  32.967  1.00  0.00    -0.052 C 
ATOM     52  H   UNL A   1      37.012  30.486  33.070  1.00  0.00     0.027 H 
ATOM     53  H   UNL A   1      36.248  31.930  33.824  1.00  0.00     0.027 H 
BRANCH  51  54
ATOM     54  C   UNL A   1      38.022  32.329  32.797  1.00  0.00    -0.036 C 
ATOM     55  H   UNL A   1      37.867  33.040  32.012  1.00  0.00     0.028 H 
ATOM     56  H   UNL A   1      38.802  31.630  32.574  1.00  0.00     0.028 H 
BRANCH  54  57
ATOM     57  C   UNL A   1      38.453  33.083  34.047  1.00  0.00     0.018 C 
ATOM     58  H   UNL A   1      38.116  34.095  33.963  1.00  0.00     0.049 H 
ATOM     59  H   UNL A   1      39.519  33.008  34.104  1.00  0.00     0.049 H 
BRANCH  57  60
ATOM     60  N   UNL A   1      37.923  32.524  35.285  1.00  0.00    -0.352 N 
ATOM     61  C   UNL A   1      38.394  31.464  36.040  1.00  0.00     0.251 C 
ATOM     62  H   UNL A   1      37.115  32.964  35.635  1.00  0.00     0.163 HD
ATOM     63  O   UNL A   1      37.795  31.099  37.039  1.00  0.00    -0.269 OA
BRANCH  61  64
ATOM     64  C   UNL A   1      39.703  30.861  35.696  1.00  0.00     0.039 A 
ATOM     65  C   UNL A   1      40.858  31.575  36.036  1.00  0.00    -0.049 A 
ATOM     66  C   UNL A   1      39.786  29.731  34.887  1.00  0.00    -0.049 A 
ATOM     67  C   UNL A   1      42.050  31.300  35.371  1.00  0.00    -0.053 A 
ATOM     68  H   UNL A   1      40.827  32.299  36.772  1.00  0.00     0.063 H 
ATOM     69  C   UNL A   1      40.941  29.511  34.163  1.00  0.00    -0.053 A 
ATOM     70  H   UNL A   1      38.997  29.068  34.831  1.00  0.00     0.063 H 
ATOM     71  C   UNL A   1      42.049  30.341  34.356  1.00  0.00    -0.014 A 
ATOM     72  H   UNL A   1      42.919  31.796  35.623  1.00  0.00     0.063 H 
ATOM     73  H   UNL A   1      40.987  28.738  33.481  1.00  0.00     0.063 H 
BRANCH  71  74
ATOM     74  C   UNL A   1      43.120  30.237  33.374  1.00  0.00     0.031 A 
ATOM     75  C   UNL A   1      42.980  30.847  32.038  1.00  0.00     0.074 A 
ATOM     76  C   UNL A   1      44.264  29.606  33.718  1.00  0.00     0.049 A 
ATOM     77  N   UNL A   1      43.564  30.406  30.975  1.00  0.00    -0.248 NA
ATOM     78  C   UNL A   1      42.126  32.001  31.795  1.00  0.00    -0.034 C 
ATOM     79  C   UNL A   1      45.520  29.578  32.973  1.00  0.00    -0.036 A 
ATOM     80  N   UNL A   1      44.447  28.673  34.753  1.00  0.00    -0.354 N 
ATOM     81  C   UNL A   1      43.377  31.338  29.978  1.00  0.00     0.074 A 
ATOM     82  C   UNL A   1      42.426  32.281  30.523  1.00  0.00    -0.034 C 
ATOM     83  H   UNL A   1      41.466  32.474  32.432  1.00  0.00     0.065 H 
ATOM     84  C   UNL A   1      46.224  28.502  33.360  1.00  0.00    -0.036 A 
ATOM     85  H   UNL A   1      45.817  30.270  32.267  1.00  0.00     0.065 H 
ATOM     86  C   UNL A   1      45.378  27.734  34.257  1.00  0.00     0.049 A 
ATOM     87  H   UNL A   1      44.016  28.675  35.638  1.00  0.00     0.167 HD
ATOM     88  C   UNL A   1      44.151  31.285  28.854  1.00  0.00     0.037 A 
ATOM     89  H   UNL A   1      42.029  33.073  29.995  1.00  0.00     0.065 H 
ATOM     90  H   UNL A   1      47.187  28.265  33.072  1.00  0.00     0.065 H 
ATOM     91  C   UNL A   1      45.044  26.422  34.086  1.00  0.00     0.037 A 
ATOM     92  C   UNL A   1      45.071  30.152  28.897  1.00  0.00     0.049 A 
ATOM     93  C   UNL A   1      45.203  25.933  32.667  1.00  0.00     0.074 A 
ATOM     94  C   UNL A   1      46.395  30.053  29.293  1.00  0.00    -0.036 A 
ATOM     95  N   UNL A   1      44.584  28.852  28.816  1.00  0.00    -0.354 N 
ATOM     96  N   UNL A   1      45.228  26.719  31.628  1.00  0.00    -0.248 NA
ATOM     97  C   UNL A   1      45.293  24.521  32.308  1.00  0.00    -0.034 C 
ATOM     98  C   UNL A   1      46.692  28.687  29.502  1.00  0.00    -0.036 A 
ATOM     99  H   UNL A   1      47.051  30.840  29.414  1.00  0.00     0.065 H 
ATOM    100  C   UNL A   1      45.555  27.951  29.214  1.00  0.00     0.049 A 
ATOM    101  H   UNL A   1      43.678  28.607  28.518  1.00  0.00     0.167 HD
ATOM    102  C   UNL A   1      45.304  25.960  30.490  1.00  0.00     0.074 A 
ATOM    103  C   UNL A   1      45.362  24.592  30.967  1.00  0.00    -0.034 C 
ATOM    104  H   UNL A   1      45.302  23.690  32.920  1.00  0.00     0.065 H 
ATOM    105  H   UNL A   1      47.598  28.304  29.815  1.00  0.00     0.065 H 
ATOM    106  C   UNL A   1      45.297  26.522  29.247  1.00  0.00     0.037 A 
ATOM    107  H   UNL A   1      45.446  23.768  30.350  1.00  0.00     0.065 H 
BRANCH  88 108
ATOM    108  C   UNL A   1      44.299  32.441  27.888  1.00  0.00     0.064 A 
ATOM    109  C   UNL A   1      43.929  32.307  26.530  1.00  0.00     0.173 A 
ATOM    110  C   UNL A   1      44.860  33.687  28.221  1.00  0.00     0.173 A 
ATOM    111  F   UNL A   1      43.262  31.235  26.087  1.00  0.00    -0.203 F 
ATOM    112  C   UNL A   1      44.235  33.274  25.569  1.00  0.00     0.198 A 
ATOM    113  C   UNL A   1      45.218  34.631  27.252  1.00  0.00     0.198 A 
ATOM    114  F   UNL A   1      45.033  34.047  29.500  1.00  0.00    -0.203 F 
ATOM    115  F   UNL A   1      43.874  33.079  24.292  1.00  0.00    -0.200 F 
ATOM    116  C   UNL A   1      44.922  34.416  25.922  1.00  0.00     0.200 A 
ATOM    117  F   UNL A   1      45.857  35.752  27.619  1.00  0.00    -0.200 F 
ATOM    118  F   UNL A   1      45.268  35.316  24.992  1.00  0.00    -0.200 F 
ENDBRANCH  88 108
BRANCH  91 119
ATOM    119  C   UNL A   1      43.993  25.946  35.022  1.00  0.00     0.064 A 
ATOM    120  C   UNL A   1      44.362  25.628  36.343  1.00  0.00     0.173 A 
ATOM    121  C   UNL A   1      42.632  26.137  34.758  1.00  0.00     0.173 A 
ATOM    122  F   UNL A   1      45.655  25.436  36.649  1.00  0.00    -0.203 F 
ATOM    123  C   UNL A   1      43.425  25.613  37.373  1.00  0.00     0.198 A 
ATOM    124  C   UNL A   1      41.693  26.106  35.791  1.00  0.00     0.198 A 
ATOM    125  F   UNL A   1      42.218  26.458  33.524  1.00  0.00    -0.203 F 
ATOM    126  F   UNL A   1      43.825  25.413  38.638  1.00  0.00    -0.200 F 
ATOM    127  C   UNL A   1      42.095  25.877  37.100  1.00  0.00     0.200 A 
ATOM    128  F   UNL A   1      40.408  26.388  35.531  1.00  0.00    -0.200 F 
ATOM    129  F   UNL A   1      41.205  25.950  38.100  1.00  0.00    -0.200 F 
ENDBRANCH  91 119
BRANCH 106 130
ATOM    130  C   UNL A   1      45.159  25.768  27.952  1.00  0.00     0.064 A 
ATOM    131  C   UNL A   1      43.924  25.401  27.396  1.00  0.00     0.173 A 
ATOM    132  C   UNL A   1      46.295  25.513  27.148  1.00  0.00     0.173 A 
ATOM    133  F   UNL A   1      42.770  25.697  28.010  1.00  0.00    -0.203 F 
ATOM    134  C   UNL A   1      43.834  24.762  26.157  1.00  0.00     0.198 A 
ATOM    135  C   UNL A   1      46.197  24.924  25.888  1.00  0.00     0.198 A 
ATOM    136  F   UNL A   1      47.528  25.849  27.555  1.00  0.00    -0.203 F 
ATOM    137  F   UNL A   1      42.634  24.392  25.687  1.00  0.00    -0.200 F 
ATOM    138  C   UNL A   1      44.968  24.533  25.400  1.00  0.00     0.200 A 
ATOM    139  F   UNL A   1      47.300  24.755  25.145  1.00  0.00    -0.200 F 
ATOM    140  F   UNL A   1      44.873  23.956  24.195  1.00  0.00    -0.200 F 
ENDBRANCH 106 130
ENDBRANCH  71  74
ENDBRANCH  61  64
ENDBRANCH  57  60
ENDBRANCH  54  57
ENDBRANCH  51  54
ENDBRANCH   1  51
TORSDOF 17
ENDMDL
MODEL 8
REMARK VINA RESULT:     -12.2      4.087      9.378
REMARK SMILES Cc1c(CC(=O)NCCCCCCNC(=O)c2ccc(-c3c4nc(c(-c5c(F)c(F)c(F)c(F)c5F)c5ccc([nH]5)c(-c5c(F)c(F)c(F)c(F)c5F)c5nc(c(-c6c(F)c(F)c(F)c(F)c6F)c6ccc3[nH]6)C=C5)C=C4)cc2)cc(-c2ccccc2)cc1-c1ccccc1
REMARK SMILES IDX 10 1 9 4 8 7 7 10 5 11 6 12 4 14 3 17 2 18 89 19 80 20 88 21
REMARK SMILES IDX 81 22 1 25 90 29 91 30 95 31 92 32 94 34 93 36 82 40 83 41
REMARK SMILES IDX 87 42 84 43 86 45 85 47 11 51 12 54 13 57 14 60 15 61 16 63
REMARK SMILES IDX 17 64 18 65 79 66 19 67 78 69 20 71 21 74 22 75 72 76 23 77
REMARK SMILES IDX 77 78 71 79 73 80 24 81 76 82 70 84 69 86 25 88 57 91 37 92
REMARK SMILES IDX 56 93 38 94 41 95 55 96 74 97 39 98 40 100 54 102 75 103
REMARK SMILES IDX 42 106 26 108 27 109 35 110 28 111 29 112 33 113 36 114
REMARK SMILES IDX 30 115 31 116 34 117 32 118 58 119 59 120 67 121 60 122
REMARK SMILES IDX 61 123 65 124 68 125 62 126 63 127 66 128 64 129 43 130
REMARK SMILES IDX 44 131 52 132 45 133 46 134 50 135 53 136 47 137 48 138
REMARK SMILES IDX 51 139 49 140
REMARK H PARENT 10 2 10 3 9 5 9 6 8 8 8 9 7 13 4 15 4 16 80 23 88 24 1 26 1 27
REMARK H PARENT 1 28 91 33 95 35 92 37 94 38 93 39 83 44 87 46 84 48 86 49
REMARK H PARENT 85 50 11 52 11 53 12 55 12 56 13 58 13 59 14 62 18 68 79 70
REMARK H PARENT 19 72 78 73 77 83 71 85 73 87 76 89 70 90 38 99 41 101 74 104
REMARK H PARENT 39 105 75 107
REMARK Flexibility Score: inf
ROOT
ATOM      1  C   UNL A   1      35.919  31.934  32.112  1.00  0.00    -0.052 C 
ATOM      2  H   UNL A   1      36.638  32.201  31.366  1.00  0.00     0.027 H 
ATOM      3  H   UNL A   1      35.702  30.888  32.167  1.00  0.00     0.027 H 
ENDROOT
BRANCH   1   4
ATOM      4  C   UNL A   1      34.590  32.604  31.740  1.00  0.00    -0.036 C 
ATOM      5  H   UNL A   1      34.056  31.944  31.088  1.00  0.00     0.028 H 
ATOM      6  H   UNL A   1      34.081  32.793  32.662  1.00  0.00     0.028 H 
BRANCH   4   7
ATOM      7  C   UNL A   1      34.722  33.957  31.041  1.00  0.00     0.017 C 
ATOM      8  H   UNL A   1      34.714  34.729  31.783  1.00  0.00     0.049 H 
ATOM      9  H   UNL A   1      35.639  33.948  30.490  1.00  0.00     0.049 H 
BRANCH   7  10
ATOM     10  N   UNL A   1      33.651  34.207  30.102  1.00  0.00    -0.356 N 
ATOM     11  C   UNL A   1      33.692  34.210  28.736  1.00  0.00     0.224 C 
ATOM     12  O   UNL A   1      32.641  34.421  28.123  1.00  0.00    -0.275 OA
ATOM     13  H   UNL A   1      32.773  34.403  30.501  1.00  0.00     0.163 HD
BRANCH  11  14
ATOM     14  C   UNL A   1      34.993  33.916  27.997  1.00  0.00     0.052 C 
ATOM     15  H   UNL A   1      34.858  34.168  26.966  1.00  0.00     0.042 H 
ATOM     16  H   UNL A   1      35.754  34.502  28.470  1.00  0.00     0.042 H 
BRANCH  14  17
ATOM     17  C   UNL A   1      35.441  32.468  28.080  1.00  0.00    -0.035 A 
ATOM     18  C   UNL A   1      36.717  32.064  28.557  1.00  0.00    -0.040 A 
ATOM     19  C   UNL A   1      37.055  30.684  28.544  1.00  0.00    -0.015 A 
ATOM     20  C   UNL A   1      34.516  31.490  27.664  1.00  0.00    -0.050 A 
ATOM     21  C   UNL A   1      36.099  29.748  28.096  1.00  0.00    -0.046 A 
ATOM     22  C   UNL A   1      34.822  30.126  27.666  1.00  0.00    -0.017 A 
ATOM     23  H   UNL A   1      33.581  31.791  27.346  1.00  0.00     0.063 H 
ATOM     24  H   UNL A   1      36.350  28.747  28.085  1.00  0.00     0.064 H 
BRANCH  18  25
ATOM     25  C   UNL A   1      37.683  33.083  29.123  1.00  0.00    -0.039 C 
ATOM     26  H   UNL A   1      38.405  33.344  28.377  1.00  0.00     0.028 H 
ATOM     27  H   UNL A   1      38.181  32.668  29.973  1.00  0.00     0.028 H 
ATOM     28  H   UNL A   1      37.144  33.959  29.418  1.00  0.00     0.028 H 
ENDBRANCH  18  25
BRANCH  19  29
ATOM     29  C   UNL A   1      38.381  30.172  28.949  1.00  0.00    -0.018 A 
ATOM     30  C   UNL A   1      38.827  30.332  30.274  1.00  0.00    -0.054 A 
ATOM     31  C   UNL A   1      39.229  29.521  28.040  1.00  0.00    -0.054 A 
ATOM     32  C   UNL A   1      40.071  29.843  30.679  1.00  0.00    -0.062 A 
ATOM     33  H   UNL A   1      38.227  30.820  30.957  1.00  0.00     0.063 H 
ATOM     34  C   UNL A   1      40.467  29.018  28.448  1.00  0.00    -0.062 A 
ATOM     35  H   UNL A   1      38.934  29.413  27.057  1.00  0.00     0.063 H 
ATOM     36  C   UNL A   1      40.887  29.179  29.766  1.00  0.00    -0.062 A 
ATOM     37  H   UNL A   1      40.385  29.973  31.654  1.00  0.00     0.062 H 
ATOM     38  H   UNL A   1      41.071  28.527  27.771  1.00  0.00     0.062 H 
ATOM     39  H   UNL A   1      41.801  28.807  30.067  1.00  0.00     0.062 H 
ENDBRANCH  19  29
BRANCH  22  40
ATOM     40  C   UNL A   1      33.825  29.131  27.247  1.00  0.00    -0.018 A 
ATOM     41  C   UNL A   1      34.182  28.041  26.435  1.00  0.00    -0.054 A 
ATOM     42  C   UNL A   1      32.478  29.261  27.622  1.00  0.00    -0.054 A 
ATOM     43  C   UNL A   1      33.225  27.117  26.010  1.00  0.00    -0.062 A 
ATOM     44  H   UNL A   1      35.167  27.921  26.150  1.00  0.00     0.063 H 
ATOM     45  C   UNL A   1      31.518  28.340  27.196  1.00  0.00    -0.062 A 
ATOM     46  H   UNL A   1      32.192  30.051  28.224  1.00  0.00     0.063 H 
ATOM     47  C   UNL A   1      31.893  27.268  26.389  1.00  0.00    -0.062 A 
ATOM     48  H   UNL A   1      33.504  26.321  25.415  1.00  0.00     0.062 H 
ATOM     49  H   UNL A   1      30.533  28.453  27.479  1.00  0.00     0.062 H 
ATOM     50  H   UNL A   1      31.184  26.589  26.070  1.00  0.00     0.062 H 
ENDBRANCH  22  40
ENDBRANCH  14  17
ENDBRANCH  11  14
ENDBRANCH   7  10
ENDBRANCH   4   7
ENDBRANCH   1   4
BRANCH   1  51
ATOM     51  C   UNL A   1      36.512  32.296  33.485  1.00  0.00    -0.052 C 
ATOM     52  H   UNL A   1      36.800  31.385  33.965  1.00  0.00     0.027 H 
ATOM     53  H   UNL A   1      35.742  32.840  33.992  1.00  0.00     0.027 H 
BRANCH  51  54
ATOM     54  C   UNL A   1      37.729  33.227  33.479  1.00  0.00    -0.036 C 
ATOM     55  H   UNL A   1      37.554  34.004  32.764  1.00  0.00     0.028 H 
ATOM     56  H   UNL A   1      38.577  32.622  33.234  1.00  0.00     0.028 H 
BRANCH  54  57
ATOM     57  C   UNL A   1      38.026  33.874  34.824  1.00  0.00     0.018 C 
ATOM     58  H   UNL A   1      37.590  34.851  34.831  1.00  0.00     0.049 H 
ATOM     59  H   UNL A   1      39.091  33.899  34.930  1.00  0.00     0.049 H 
BRANCH  57  60
ATOM     60  N   UNL A   1      37.505  33.130  35.965  1.00  0.00    -0.352 N 
ATOM     61  C   UNL A   1      38.010  31.996  36.576  1.00  0.00     0.251 C 
ATOM     62  H   UNL A   1      36.675  33.487  36.358  1.00  0.00     0.163 HD
ATOM     63  O   UNL A   1      37.415  31.475  37.505  1.00  0.00    -0.269 OA
BRANCH  61  64
ATOM     64  C   UNL A   1      39.347  31.499  36.176  1.00  0.00     0.039 A 
ATOM     65  C   UNL A   1      40.465  32.239  36.579  1.00  0.00    -0.049 A 
ATOM     66  C   UNL A   1      39.485  30.454  35.267  1.00  0.00    -0.049 A 
ATOM     67  C   UNL A   1      41.665  32.090  35.890  1.00  0.00    -0.053 A 
ATOM     68  H   UNL A   1      40.400  32.888  37.380  1.00  0.00     0.063 H 
ATOM     69  C   UNL A   1      40.646  30.364  34.523  1.00  0.00    -0.053 A 
ATOM     70  H   UNL A   1      38.732  29.758  35.150  1.00  0.00     0.063 H 
ATOM     71  C   UNL A   1      41.709  31.230  34.791  1.00  0.00    -0.014 A 
ATOM     72  H   UNL A   1      42.509  32.606  36.186  1.00  0.00     0.063 H 
ATOM     73  H   UNL A   1      40.728  29.660  33.773  1.00  0.00     0.063 H 
BRANCH  71  74
ATOM     74  C   UNL A   1      42.778  31.275  33.802  1.00  0.00     0.031 A 
ATOM     75  C   UNL A   1      42.574  31.937  32.500  1.00  0.00     0.074 A 
ATOM     76  C   UNL A   1      43.977  30.734  34.111  1.00  0.00     0.049 A 
ATOM     77  N   UNL A   1      43.188  31.606  31.414  1.00  0.00    -0.248 NA
ATOM     78  C   UNL A   1      41.617  33.019  32.319  1.00  0.00    -0.034 C 
ATOM     79  C   UNL A   1      45.225  30.858  33.363  1.00  0.00    -0.036 A 
ATOM     80  N   UNL A   1      44.251  29.770  35.096  1.00  0.00    -0.354 N 
ATOM     81  C   UNL A   1      42.910  32.566  30.468  1.00  0.00     0.074 A 
ATOM     82  C   UNL A   1      41.881  33.390  31.063  1.00  0.00    -0.034 C 
ATOM     83  H   UNL A   1      40.922  33.397  32.982  1.00  0.00     0.065 H 
ATOM     84  C   UNL A   1      46.027  29.832  33.691  1.00  0.00    -0.036 A 
ATOM     85  H   UNL A   1      45.453  31.609  32.692  1.00  0.00     0.065 H 
ATOM     86  C   UNL A   1      45.261  28.946  34.550  1.00  0.00     0.049 A 
ATOM     87  H   UNL A   1      43.829  29.687  35.981  1.00  0.00     0.167 HD
ATOM     88  C   UNL A   1      43.678  32.642  29.340  1.00  0.00     0.037 A 
ATOM     89  H   UNL A   1      41.410  34.169  30.576  1.00  0.00     0.065 H 
ATOM     90  H   UNL A   1      47.005  29.699  33.390  1.00  0.00     0.065 H 
ATOM     91  C   UNL A   1      45.046  27.619  34.312  1.00  0.00     0.037 A 
ATOM     92  C   UNL A   1      44.697  31.596  29.323  1.00  0.00     0.049 A 
ATOM     93  C   UNL A   1      45.239  27.220  32.870  1.00  0.00     0.074 A 
ATOM     94  C   UNL A   1      46.028  31.599  29.709  1.00  0.00    -0.036 A 
ATOM     95  N   UNL A   1      44.330  30.263  29.176  1.00  0.00    -0.354 N 
ATOM     96  N   UNL A   1      45.185  28.057  31.873  1.00  0.00    -0.248 NA
ATOM     97  C   UNL A   1      45.454  25.842  32.438  1.00  0.00    -0.034 C 
ATOM     98  C   UNL A   1      46.449  30.256  29.848  1.00  0.00    -0.036 A 
ATOM     99  H   UNL A   1      46.610  32.435  29.870  1.00  0.00     0.065 H 
ATOM    100  C   UNL A   1      45.382  29.436  29.524  1.00  0.00     0.049 A 
ATOM    101  H   UNL A   1      43.448  29.952  28.868  1.00  0.00     0.167 HD
ATOM    102  C   UNL A   1      45.321  27.367  30.697  1.00  0.00     0.074 A 
ATOM    103  C   UNL A   1      45.507  25.987  31.103  1.00  0.00    -0.034 C 
ATOM    104  H   UNL A   1      45.543  24.985  33.007  1.00  0.00     0.065 H 
ATOM    105  H   UNL A   1      47.388  29.941  30.137  1.00  0.00     0.065 H 
ATOM    106  C   UNL A   1      45.254  27.989  29.485  1.00  0.00     0.037 A 
ATOM    107  H   UNL A   1      45.661  25.207  30.444  1.00  0.00     0.065 H 
BRANCH  88 108
ATOM    108  C   UNL A   1      43.713  33.855  28.434  1.00  0.00     0.064 A 
ATOM    109  C   UNL A   1      43.873  35.155  28.964  1.00  0.00     0.173 A 
ATOM    110  C   UNL A   1      43.531  33.808  27.040  1.00  0.00     0.173 A 
ATOM    111  F   UNL A   1      44.188  35.356  30.250  1.00  0.00    -0.203 F 
ATOM    112  C   UNL A   1      43.709  36.307  28.191  1.00  0.00     0.198 A 
ATOM    113  C   UNL A   1      43.311  34.960  26.276  1.00  0.00     0.198 A 
ATOM    114  F   UNL A   1      43.609  32.651  26.371  1.00  0.00    -0.203 F 
ATOM    115  F   UNL A   1      43.854  37.514  28.757  1.00  0.00    -0.200 F 
ATOM    116  C   UNL A   1      43.382  36.210  26.855  1.00  0.00     0.200 A 
ATOM    117  F   UNL A   1      43.025  34.847  24.970  1.00  0.00    -0.200 F 
ATOM    118  F   UNL A   1      43.166  37.312  26.126  1.00  0.00    -0.200 F 
ENDBRANCH  88 108
BRANCH  91 119
ATOM    119  C   UNL A   1      44.049  27.003  35.225  1.00  0.00     0.064 A 
ATOM    120  C   UNL A   1      42.715  26.890  34.790  1.00  0.00     0.173 A 
ATOM    121  C   UNL A   1      44.439  26.228  36.323  1.00  0.00     0.173 A 
ATOM    122  F   UNL A   1      42.290  27.611  33.740  1.00  0.00    -0.203 F 
ATOM    123  C   UNL A   1      41.844  25.961  35.355  1.00  0.00     0.198 A 
ATOM    124  C   UNL A   1      43.559  25.309  36.897  1.00  0.00     0.198 A 
ATOM    125  F   UNL A   1      45.700  26.278  36.777  1.00  0.00    -0.203 F 
ATOM    126  F   UNL A   1      40.614  25.803  34.846  1.00  0.00    -0.200 F 
ATOM    127  C   UNL A   1      42.276  25.153  36.392  1.00  0.00     0.200 A 
ATOM    128  F   UNL A   1      43.984  24.507  37.885  1.00  0.00    -0.200 F 
ATOM    129  F   UNL A   1      41.470  24.199  36.880  1.00  0.00    -0.200 F 
ENDBRANCH  91 119
BRANCH 106 130
ATOM    130  C   UNL A   1      45.177  27.293  28.152  1.00  0.00     0.064 A 
ATOM    131  C   UNL A   1      46.273  27.146  27.289  1.00  0.00     0.173 A 
ATOM    132  C   UNL A   1      43.996  26.615  27.767  1.00  0.00     0.173 A 
ATOM    133  F   UNL A   1      47.478  27.644  27.604  1.00  0.00    -0.203 F 
ATOM    134  C   UNL A   1      46.179  26.433  26.091  1.00  0.00     0.198 A 
ATOM    135  C   UNL A   1      43.921  25.859  26.598  1.00  0.00     0.198 A 
ATOM    136  F   UNL A   1      42.891  26.651  28.526  1.00  0.00    -0.203 F 
ATOM    137  F   UNL A   1      47.242  26.357  25.279  1.00  0.00    -0.200 F 
ATOM    138  C   UNL A   1      45.008  25.782  25.751  1.00  0.00     0.200 A 
ATOM    139  F   UNL A   1      42.795  25.193  26.308  1.00  0.00    -0.200 F 
ATOM    140  F   UNL A   1      44.934  25.066  24.622  1.00  0.00    -0.200 F 
ENDBRANCH 106 130
ENDBRANCH  71  74
ENDBRANCH  61  64
ENDBRANCH  57  60
ENDBRANCH  54  57
ENDBRANCH  51  54
ENDBRANCH   1  51
TORSDOF 17
ENDMDL
MODEL 9
REMARK VINA RESULT:     -11.9      1.344      2.018
REMARK SMILES Cc1c(CC(=O)NCCCCCCNC(=O)c2ccc(-c3c4nc(c(-c5c(F)c(F)c(F)c(F)c5F)c5ccc([nH]5)c(-c5c(F)c(F)c(F)c(F)c5F)c5nc(c(-c6c(F)c(F)c(F)c(F)c6F)c6ccc3[nH]6)C=C5)C=C4)cc2)cc(-c2ccccc2)cc1-c1ccccc1
REMARK SMILES IDX 10 1 9 4 8 7 7 10 5 11 6 12 4 14 3 17 2 18 89 19 80 20 88 21
REMARK SMILES IDX 81 22 1 25 90 29 91 30 95 31 92 32 94 34 93 36 82 40 83 41
REMARK SMILES IDX 87 42 84 43 86 45 85 47 11 51 12 54 13 57 14 60 15 61 16 63
REMARK SMILES IDX 17 64 18 65 79 66 19 67 78 69 20 71 21 74 22 75 72 76 23 77
REMARK SMILES IDX 77 78 71 79 73 80 24 81 76 82 70 84 69 86 25 88 57 91 37 92
REMARK SMILES IDX 56 93 38 94 41 95 55 96 74 97 39 98 40 100 54 102 75 103
REMARK SMILES IDX 42 106 26 108 27 109 35 110 28 111 29 112 33 113 36 114
REMARK SMILES IDX 30 115 31 116 34 117 32 118 58 119 59 120 67 121 60 122
REMARK SMILES IDX 61 123 65 124 68 125 62 126 63 127 66 128 64 129 43 130
REMARK SMILES IDX 44 131 52 132 45 133 46 134 50 135 53 136 47 137 48 138
REMARK SMILES IDX 51 139 49 140
REMARK H PARENT 10 2 10 3 9 5 9 6 8 8 8 9 7 13 4 15 4 16 80 23 88 24 1 26 1 27
REMARK H PARENT 1 28 91 33 95 35 92 37 94 38 93 39 83 44 87 46 84 48 86 49
REMARK H PARENT 85 50 11 52 11 53 12 55 12 56 13 58 13 59 14 62 18 68 79 70
REMARK H PARENT 19 72 78 73 77 83 71 85 73 87 76 89 70 90 38 99 41 101 74 104
REMARK H PARENT 39 105 75 107
REMARK Flexibility Score: inf
ROOT
ATOM      1  C   UNL A   1      36.817  22.361  24.770  1.00  0.00    -0.052 C 
ATOM      2  H   UNL A   1      36.895  22.871  23.832  1.00  0.00     0.027 H 
ATOM      3  H   UNL A   1      37.130  21.339  24.749  1.00  0.00     0.027 H 
ENDROOT
BRANCH   1   4
ATOM      4  C   UNL A   1      35.334  22.323  25.159  1.00  0.00    -0.036 C 
ATOM      5  H   UNL A   1      35.182  21.485  25.808  1.00  0.00     0.028 H 
ATOM      6  H   UNL A   1      35.121  23.263  25.623  1.00  0.00     0.028 H 
BRANCH   4   7
ATOM      7  C   UNL A   1      34.362  22.196  23.986  1.00  0.00     0.017 C 
ATOM      8  H   UNL A   1      34.611  21.318  23.427  1.00  0.00     0.049 H 
ATOM      9  H   UNL A   1      33.372  22.141  24.390  1.00  0.00     0.049 H 
BRANCH   7  10
ATOM     10  N   UNL A   1      34.407  23.338  23.098  1.00  0.00    -0.356 N 
ATOM     11  C   UNL A   1      33.800  24.554  23.234  1.00  0.00     0.224 C 
ATOM     12  O   UNL A   1      33.999  25.404  22.362  1.00  0.00    -0.275 OA
ATOM     13  H   UNL A   1      34.950  23.222  22.285  1.00  0.00     0.163 HD
BRANCH  11  14
ATOM     14  C   UNL A   1      32.936  24.859  24.453  1.00  0.00     0.052 C 
ATOM     15  H   UNL A   1      32.068  24.235  24.414  1.00  0.00     0.042 H 
ATOM     16  H   UNL A   1      33.542  24.670  25.315  1.00  0.00     0.042 H 
BRANCH  14  17
ATOM     17  C   UNL A   1      32.481  26.305  24.546  1.00  0.00    -0.035 A 
ATOM     18  C   UNL A   1      31.379  26.831  23.822  1.00  0.00    -0.040 A 
ATOM     19  C   UNL A   1      31.069  28.213  23.941  1.00  0.00    -0.015 A 
ATOM     20  C   UNL A   1      33.206  27.146  25.413  1.00  0.00    -0.050 A 
ATOM     21  C   UNL A   1      31.841  29.016  24.808  1.00  0.00    -0.046 A 
ATOM     22  C   UNL A   1      32.902  28.502  25.561  1.00  0.00    -0.017 A 
ATOM     23  H   UNL A   1      33.989  26.748  25.957  1.00  0.00     0.063 H 
ATOM     24  H   UNL A   1      31.615  30.021  24.889  1.00  0.00     0.064 H 
BRANCH  18  25
ATOM     25  C   UNL A   1      30.509  25.923  22.978  1.00  0.00    -0.039 C 
ATOM     26  H   UNL A   1      30.498  24.943  23.406  1.00  0.00     0.028 H 
ATOM     27  H   UNL A   1      30.902  25.876  21.985  1.00  0.00     0.028 H 
ATOM     28  H   UNL A   1      29.512  26.311  22.950  1.00  0.00     0.028 H 
ENDBRANCH  18  25
BRANCH  19  29
ATOM     29  C   UNL A   1      29.989  28.870  23.175  1.00  0.00    -0.018 A 
ATOM     30  C   UNL A   1      28.642  28.636  23.506  1.00  0.00    -0.054 A 
ATOM     31  C   UNL A   1      30.266  29.734  22.104  1.00  0.00    -0.054 A 
ATOM     32  C   UNL A   1      27.609  29.258  22.803  1.00  0.00    -0.062 A 
ATOM     33  H   UNL A   1      28.414  27.994  24.282  1.00  0.00     0.063 H 
ATOM     34  C   UNL A   1      29.234  30.368  21.409  1.00  0.00    -0.062 A 
ATOM     35  H   UNL A   1      31.246  29.902  21.827  1.00  0.00     0.063 H 
ATOM     36  C   UNL A   1      27.907  30.130  21.759  1.00  0.00    -0.062 A 
ATOM     37  H   UNL A   1      26.626  29.072  23.057  1.00  0.00     0.062 H 
ATOM     38  H   UNL A   1      29.455  31.014  20.635  1.00  0.00     0.062 H 
ATOM     39  H   UNL A   1      27.145  30.600  21.245  1.00  0.00     0.062 H 
ENDBRANCH  19  29
BRANCH  22  40
ATOM     40  C   UNL A   1      33.664  29.347  26.492  1.00  0.00    -0.018 A 
ATOM     41  C   UNL A   1      33.166  30.587  26.923  1.00  0.00    -0.054 A 
ATOM     42  C   UNL A   1      34.930  28.947  26.952  1.00  0.00    -0.054 A 
ATOM     43  C   UNL A   1      33.910  31.402  27.780  1.00  0.00    -0.062 A 
ATOM     44  H   UNL A   1      32.237  30.901  26.603  1.00  0.00     0.063 H 
ATOM     45  C   UNL A   1      35.676  29.762  27.807  1.00  0.00    -0.062 A 
ATOM     46  H   UNL A   1      35.315  28.036  26.654  1.00  0.00     0.063 H 
ATOM     47  C   UNL A   1      35.166  30.990  28.220  1.00  0.00    -0.062 A 
ATOM     48  H   UNL A   1      33.528  32.311  28.089  1.00  0.00     0.062 H 
ATOM     49  H   UNL A   1      36.606  29.454  28.133  1.00  0.00     0.062 H 
ATOM     50  H   UNL A   1      35.717  31.595  28.849  1.00  0.00     0.062 H 
ENDBRANCH  22  40
ENDBRANCH  14  17
ENDBRANCH  11  14
ENDBRANCH   7  10
ENDBRANCH   4   7
ENDBRANCH   1   4
BRANCH   1  51
ATOM     51  C   UNL A   1      37.770  23.056  25.760  1.00  0.00    -0.052 C 
ATOM     52  H   UNL A   1      37.198  23.334  26.620  1.00  0.00     0.027 H 
ATOM     53  H   UNL A   1      38.188  23.880  25.220  1.00  0.00     0.027 H 
BRANCH  51  54
ATOM     54  C   UNL A   1      38.970  22.235  26.242  1.00  0.00    -0.036 C 
ATOM     55  H   UNL A   1      39.382  21.716  25.401  1.00  0.00     0.028 H 
ATOM     56  H   UNL A   1      38.605  21.573  26.999  1.00  0.00     0.028 H 
BRANCH  54  57
ATOM     57  C   UNL A   1      40.076  23.063  26.880  1.00  0.00     0.018 C 
ATOM     58  H   UNL A   1      40.812  22.396  27.276  1.00  0.00     0.049 H 
ATOM     59  H   UNL A   1      39.618  23.665  27.637  1.00  0.00     0.049 H 
BRANCH  57  60
ATOM     60  N   UNL A   1      40.736  23.978  25.955  1.00  0.00    -0.352 N 
ATOM     61  C   UNL A   1      41.023  25.323  26.108  1.00  0.00     0.251 C 
ATOM     62  H   UNL A   1      41.019  23.582  25.099  1.00  0.00     0.163 HD
ATOM     63  O   UNL A   1      41.549  25.952  25.204  1.00  0.00    -0.269 OA
BRANCH  61  64
ATOM     64  C   UNL A   1      40.807  25.959  27.429  1.00  0.00     0.039 A 
ATOM     65  C   UNL A   1      39.650  26.729  27.600  1.00  0.00    -0.049 A 
ATOM     66  C   UNL A   1      41.806  25.964  28.399  1.00  0.00    -0.049 A 
ATOM     67  C   UNL A   1      39.609  27.681  28.614  1.00  0.00    -0.053 A 
ATOM     68  H   UNL A   1      38.836  26.592  26.980  1.00  0.00     0.063 H 
ATOM     69  C   UNL A   1      41.807  26.964  29.351  1.00  0.00    -0.053 A 
ATOM     70  H   UNL A   1      42.534  25.232  28.406  1.00  0.00     0.063 H 
ATOM     71  C   UNL A   1      40.740  27.865  29.412  1.00  0.00    -0.014 A 
ATOM     72  H   UNL A   1      38.758  28.241  28.775  1.00  0.00     0.063 H 
ATOM     73  H   UNL A   1      42.593  27.047  30.016  1.00  0.00     0.063 H 
BRANCH  71  74
ATOM     74  C   UNL A   1      40.934  29.049  30.238  1.00  0.00     0.031 A 
ATOM     75  C   UNL A   1      39.826  29.993  30.475  1.00  0.00     0.074 A 
ATOM     76  C   UNL A   1      42.136  29.251  30.821  1.00  0.00     0.049 A 
ATOM     77  N   UNL A   1      39.983  31.252  30.709  1.00  0.00    -0.248 NA
ATOM     78  C   UNL A   1      38.429  29.581  30.427  1.00  0.00    -0.034 C 
ATOM     79  C   UNL A   1      42.472  30.240  31.841  1.00  0.00    -0.036 A 
ATOM     80  N   UNL A   1      43.373  28.705  30.437  1.00  0.00    -0.354 N 
ATOM     81  C   UNL A   1      38.762  31.763  31.088  1.00  0.00     0.074 A 
ATOM     82  C   UNL A   1      37.818  30.696  30.839  1.00  0.00    -0.034 C 
ATOM     83  H   UNL A   1      38.022  28.674  30.151  1.00  0.00     0.065 H 
ATOM     84  C   UNL A   1      43.797  30.457  31.809  1.00  0.00    -0.036 A 
ATOM     85  H   UNL A   1      41.803  30.696  32.481  1.00  0.00     0.065 H 
ATOM     86  C   UNL A   1      44.326  29.722  30.673  1.00  0.00     0.049 A 
ATOM     87  H   UNL A   1      43.541  27.803  30.081  1.00  0.00     0.167 HD
ATOM     88  C   UNL A   1      38.703  32.983  31.699  1.00  0.00     0.037 A 
ATOM     89  H   UNL A   1      36.797  30.785  30.963  1.00  0.00     0.065 H 
ATOM     90  H   UNL A   1      44.338  31.039  32.467  1.00  0.00     0.065 H 
ATOM     91  C   UNL A   1      45.048  30.270  29.654  1.00  0.00     0.037 A 
ATOM     92  C   UNL A   1      40.029  33.582  31.813  1.00  0.00     0.049 A 
ATOM     93  C   UNL A   1      44.868  31.761  29.513  1.00  0.00     0.074 A 
ATOM     94  C   UNL A   1      40.953  33.589  32.846  1.00  0.00    -0.036 A 
ATOM     95  N   UNL A   1      40.705  34.008  30.674  1.00  0.00    -0.354 N 
ATOM     96  N   UNL A   1      43.844  32.415  29.983  1.00  0.00    -0.248 NA
ATOM     97  C   UNL A   1      45.800  32.620  28.786  1.00  0.00    -0.034 C 
ATOM     98  C   UNL A   1      42.206  33.971  32.313  1.00  0.00    -0.036 A 
ATOM     99  H   UNL A   1      40.760  33.356  33.832  1.00  0.00     0.065 H 
ATOM    100  C   UNL A   1      42.041  34.217  30.961  1.00  0.00     0.049 A 
ATOM    101  H   UNL A   1      40.292  34.141  29.791  1.00  0.00     0.167 HD
ATOM    102  C   UNL A   1      43.944  33.732  29.619  1.00  0.00     0.074 A 
ATOM    103  C   UNL A   1      45.194  33.815  28.888  1.00  0.00    -0.034 C 
ATOM    104  H   UNL A   1      46.687  32.374  28.319  1.00  0.00     0.065 H 
ATOM    105  H   UNL A   1      43.089  34.053  32.840  1.00  0.00     0.065 H 
ATOM    106  C   UNL A   1      42.979  34.643  29.937  1.00  0.00     0.037 A 
ATOM    107  H   UNL A   1      45.574  34.690  28.492  1.00  0.00     0.065 H 
BRANCH  88 108
ATOM    108  C   UNL A   1      37.500  33.467  32.481  1.00  0.00     0.064 A 
ATOM    109  C   UNL A   1      36.431  34.130  31.836  1.00  0.00     0.173 A 
ATOM    110  C   UNL A   1      37.369  33.368  33.878  1.00  0.00     0.173 A 
ATOM    111  F   UNL A   1      36.343  34.187  30.502  1.00  0.00    -0.203 F 
ATOM    112  C   UNL A   1      35.406  34.767  32.541  1.00  0.00     0.198 A 
ATOM    113  C   UNL A   1      36.376  34.052  34.588  1.00  0.00     0.198 A 
ATOM    114  F   UNL A   1      38.170  32.565  34.592  1.00  0.00    -0.203 F 
ATOM    115  F   UNL A   1      34.431  35.397  31.872  1.00  0.00    -0.200 F 
ATOM    116  C   UNL A   1      35.405  34.768  33.920  1.00  0.00     0.200 A 
ATOM    117  F   UNL A   1      36.372  34.015  35.929  1.00  0.00    -0.200 F 
ATOM    118  F   UNL A   1      34.457  35.428  34.598  1.00  0.00    -0.200 F 
ENDBRANCH  88 108
BRANCH  91 119
ATOM    119  C   UNL A   1      45.274  29.342  28.515  1.00  0.00     0.064 A 
ATOM    120  C   UNL A   1      46.229  28.318  28.659  1.00  0.00     0.173 A 
ATOM    121  C   UNL A   1      44.352  29.225  27.469  1.00  0.00     0.173 A 
ATOM    122  F   UNL A   1      47.136  28.383  29.647  1.00  0.00    -0.203 F 
ATOM    123  C   UNL A   1      46.191  27.175  27.864  1.00  0.00     0.198 A 
ATOM    124  C   UNL A   1      44.327  28.084  26.664  1.00  0.00     0.198 A 
ATOM    125  F   UNL A   1      43.407  30.159  27.288  1.00  0.00    -0.203 F 
ATOM    126  F   UNL A   1      47.048  26.170  28.099  1.00  0.00    -0.200 F 
ATOM    127  C   UNL A   1      45.223  27.048  26.884  1.00  0.00     0.200 A 
ATOM    128  F   UNL A   1      43.373  27.949  25.731  1.00  0.00    -0.200 F 
ATOM    129  F   UNL A   1      45.128  25.914  26.176  1.00  0.00    -0.200 F 
ENDBRANCH  91 119
BRANCH 106 130
ATOM    130  C   UNL A   1      42.897  36.047  29.400  1.00  0.00     0.064 A 
ATOM    131  C   UNL A   1      43.480  37.155  30.035  1.00  0.00     0.173 A 
ATOM    132  C   UNL A   1      42.334  36.294  28.127  1.00  0.00     0.173 A 
ATOM    133  F   UNL A   1      44.146  37.023  31.191  1.00  0.00    -0.203 F 
ATOM    134  C   UNL A   1      43.442  38.432  29.471  1.00  0.00     0.198 A 
ATOM    135  C   UNL A   1      42.346  37.560  27.542  1.00  0.00     0.198 A 
ATOM    136  F   UNL A   1      41.777  35.310  27.406  1.00  0.00    -0.203 F 
ATOM    137  F   UNL A   1      43.974  39.467  30.135  1.00  0.00    -0.200 F 
ATOM    138  C   UNL A   1      42.884  38.633  28.222  1.00  0.00     0.200 A 
ATOM    139  F   UNL A   1      41.847  37.728  26.309  1.00  0.00    -0.200 F 
ATOM    140  F   UNL A   1      42.885  39.851  27.667  1.00  0.00    -0.200 F 
ENDBRANCH 106 130
ENDBRANCH  71  74
ENDBRANCH  61  64
ENDBRANCH  57  60
ENDBRANCH  54  57
ENDBRANCH  51  54
ENDBRANCH   1  51
TORSDOF 17
ENDMDL
MODEL 10
REMARK VINA RESULT:     -11.8      3.068      5.443
REMARK SMILES Cc1c(CC(=O)NCCCCCCNC(=O)c2ccc(-c3c4nc(c(-c5c(F)c(F)c(F)c(F)c5F)c5ccc([nH]5)c(-c5c(F)c(F)c(F)c(F)c5F)c5nc(c(-c6c(F)c(F)c(F)c(F)c6F)c6ccc3[nH]6)C=C5)C=C4)cc2)cc(-c2ccccc2)cc1-c1ccccc1
REMARK SMILES IDX 10 1 9 4 8 7 7 10 5 11 6 12 4 14 3 17 2 18 89 19 80 20 88 21
REMARK SMILES IDX 81 22 1 25 90 29 91 30 95 31 92 32 94 34 93 36 82 40 83 41
REMARK SMILES IDX 87 42 84 43 86 45 85 47 11 51 12 54 13 57 14 60 15 61 16 63
REMARK SMILES IDX 17 64 18 65 79 66 19 67 78 69 20 71 21 74 22 75 72 76 23 77
REMARK SMILES IDX 77 78 71 79 73 80 24 81 76 82 70 84 69 86 25 88 57 91 37 92
REMARK SMILES IDX 56 93 38 94 41 95 55 96 74 97 39 98 40 100 54 102 75 103
REMARK SMILES IDX 42 106 26 108 27 109 35 110 28 111 29 112 33 113 36 114
REMARK SMILES IDX 30 115 31 116 34 117 32 118 58 119 59 120 67 121 60 122
REMARK SMILES IDX 61 123 65 124 68 125 62 126 63 127 66 128 64 129 43 130
REMARK SMILES IDX 44 131 52 132 45 133 46 134 50 135 53 136 47 137 48 138
REMARK SMILES IDX 51 139 49 140
REMARK H PARENT 10 2 10 3 9 5 9 6 8 8 8 9 7 13 4 15 4 16 80 23 88 24 1 26 1 27
REMARK H PARENT 1 28 91 33 95 35 92 37 94 38 93 39 83 44 87 46 84 48 86 49
REMARK H PARENT 85 50 11 52 11 53 12 55 12 56 13 58 13 59 14 62 18 68 79 70
REMARK H PARENT 19 72 78 73 77 83 71 85 73 87 76 89 70 90 38 99 41 101 74 104
REMARK H PARENT 39 105 75 107
REMARK Flexibility Score: inf
ROOT
ATOM      1  C   UNL A   1      40.292  25.132  27.639  1.00  0.00    -0.052 C 
ATOM      2  H   UNL A   1      40.947  24.702  28.367  1.00  0.00     0.027 H 
ATOM      3  H   UNL A   1      40.108  26.178  27.767  1.00  0.00     0.027 H 
ENDROOT
BRANCH   1   4
ATOM      4  C   UNL A   1      38.921  24.459  27.789  1.00  0.00    -0.036 C 
ATOM      5  H   UNL A   1      39.016  23.669  28.505  1.00  0.00     0.028 H 
ATOM      6  H   UNL A   1      38.241  25.227  28.092  1.00  0.00     0.028 H 
BRANCH   4   7
ATOM      7  C   UNL A   1      38.348  23.865  26.502  1.00  0.00     0.017 C 
ATOM      8  H   UNL A   1      37.291  24.033  26.487  1.00  0.00     0.049 H 
ATOM      9  H   UNL A   1      38.836  24.346  25.679  1.00  0.00     0.049 H 
BRANCH   7  10
ATOM     10  N   UNL A   1      38.593  22.444  26.385  1.00  0.00    -0.356 N 
ATOM     11  C   UNL A   1      38.155  21.575  25.426  1.00  0.00     0.224 C 
ATOM     12  O   UNL A   1      38.511  20.396  25.504  1.00  0.00    -0.275 OA
ATOM     13  H   UNL A   1      39.152  22.050  27.093  1.00  0.00     0.163 HD
BRANCH  11  14
ATOM     14  C   UNL A   1      37.285  22.064  24.273  1.00  0.00     0.052 C 
ATOM     15  H   UNL A   1      37.410  23.123  24.184  1.00  0.00     0.042 H 
ATOM     16  H   UNL A   1      37.605  21.535  23.400  1.00  0.00     0.042 H 
BRANCH  14  17
ATOM     17  C   UNL A   1      35.805  21.770  24.444  1.00  0.00    -0.035 A 
ATOM     18  C   UNL A   1      34.801  22.775  24.477  1.00  0.00    -0.040 A 
ATOM     19  C   UNL A   1      33.449  22.395  24.694  1.00  0.00    -0.015 A 
ATOM     20  C   UNL A   1      35.434  20.416  24.565  1.00  0.00    -0.050 A 
ATOM     21  C   UNL A   1      33.135  21.026  24.831  1.00  0.00    -0.046 A 
ATOM     22  C   UNL A   1      34.107  20.022  24.756  1.00  0.00    -0.017 A 
ATOM     23  H   UNL A   1      36.167  19.691  24.512  1.00  0.00     0.063 H 
ATOM     24  H   UNL A   1      32.152  20.755  24.992  1.00  0.00     0.064 H 
BRANCH  18  25
ATOM     25  C   UNL A   1      35.157  24.225  24.227  1.00  0.00    -0.039 C 
ATOM     26  H   UNL A   1      36.023  24.277  23.600  1.00  0.00     0.028 H 
ATOM     27  H   UNL A   1      35.362  24.707  25.159  1.00  0.00     0.028 H 
ATOM     28  H   UNL A   1      34.338  24.715  23.745  1.00  0.00     0.028 H 
ENDBRANCH  18  25
BRANCH  19  29
ATOM     29  C   UNL A   1      32.345  23.369  24.817  1.00  0.00    -0.018 A 
ATOM     30  C   UNL A   1      32.013  23.910  26.072  1.00  0.00    -0.054 A 
ATOM     31  C   UNL A   1      31.598  23.781  23.702  1.00  0.00    -0.054 A 
ATOM     32  C   UNL A   1      30.981  24.842  26.205  1.00  0.00    -0.062 A 
ATOM     33  H   UNL A   1      32.540  23.612  26.908  1.00  0.00     0.063 H 
ATOM     34  C   UNL A   1      30.576  24.724  23.831  1.00  0.00    -0.062 A 
ATOM     35  H   UNL A   1      31.807  23.380  22.773  1.00  0.00     0.063 H 
ATOM     36  C   UNL A   1      30.269  25.254  25.083  1.00  0.00    -0.062 A 
ATOM     37  H   UNL A   1      30.748  25.225  27.135  1.00  0.00     0.062 H 
ATOM     38  H   UNL A   1      30.047  25.028  22.999  1.00  0.00     0.062 H 
ATOM     39  H   UNL A   1      29.514  25.951  25.177  1.00  0.00     0.062 H 
ENDBRANCH  19  29
BRANCH  22  40
ATOM     40  C   UNL A   1      33.752  18.599  24.856  1.00  0.00    -0.018 A 
ATOM     41  C   UNL A   1      34.434  17.625  24.108  1.00  0.00    -0.054 A 
ATOM     42  C   UNL A   1      32.696  18.178  25.682  1.00  0.00    -0.054 A 
ATOM     43  C   UNL A   1      34.070  16.278  24.180  1.00  0.00    -0.062 A 
ATOM     44  H   UNL A   1      35.216  17.909  23.498  1.00  0.00     0.063 H 
ATOM     45  C   UNL A   1      32.329  16.832  25.753  1.00  0.00    -0.062 A 
ATOM     46  H   UNL A   1      32.184  18.875  26.247  1.00  0.00     0.063 H 
ATOM     47  C   UNL A   1      33.016  15.883  25.000  1.00  0.00    -0.062 A 
ATOM     48  H   UNL A   1      34.583  15.575  23.624  1.00  0.00     0.062 H 
ATOM     49  H   UNL A   1      31.549  16.542  26.363  1.00  0.00     0.062 H 
ATOM     50  H   UNL A   1      32.744  14.888  25.049  1.00  0.00     0.062 H 
ENDBRANCH  22  40
ENDBRANCH  14  17
ENDBRANCH  11  14
ENDBRANCH   7  10
ENDBRANCH   4   7
ENDBRANCH   1   4
BRANCH   1  51
ATOM     51  C   UNL A   1      40.973  25.005  26.264  1.00  0.00    -0.052 C 
ATOM     52  H   UNL A   1      41.375  25.964  26.012  1.00  0.00     0.027 H 
ATOM     53  H   UNL A   1      40.210  24.657  25.601  1.00  0.00     0.027 H 
BRANCH  51  54
ATOM     54  C   UNL A   1      42.106  23.980  26.156  1.00  0.00    -0.036 C 
ATOM     55  H   UNL A   1      41.699  23.071  25.762  1.00  0.00     0.028 H 
ATOM     56  H   UNL A   1      42.508  23.861  27.140  1.00  0.00     0.028 H 
BRANCH  54  57
ATOM     57  C   UNL A   1      43.257  24.415  25.260  1.00  0.00     0.018 C 
ATOM     58  H   UNL A   1      43.024  25.377  24.855  1.00  0.00     0.049 H 
ATOM     59  H   UNL A   1      43.364  23.666  24.504  1.00  0.00     0.049 H 
BRANCH  57  60
ATOM     60  N   UNL A   1      44.539  24.505  25.950  1.00  0.00    -0.352 N 
ATOM     61  C   UNL A   1      44.956  25.411  26.908  1.00  0.00     0.251 C 
ATOM     62  H   UNL A   1      45.202  23.823  25.698  1.00  0.00     0.163 HD
ATOM     63  O   UNL A   1      46.092  25.366  27.353  1.00  0.00    -0.269 OA
BRANCH  61  64
ATOM     64  C   UNL A   1      43.970  26.354  27.485  1.00  0.00     0.039 A 
ATOM     65  C   UNL A   1      43.655  27.501  26.746  1.00  0.00    -0.049 A 
ATOM     66  C   UNL A   1      43.523  26.217  28.797  1.00  0.00    -0.049 A 
ATOM     67  C   UNL A   1      43.108  28.603  27.398  1.00  0.00    -0.053 A 
ATOM     68  H   UNL A   1      43.826  27.529  25.728  1.00  0.00     0.063 H 
ATOM     69  C   UNL A   1      43.062  27.334  29.466  1.00  0.00    -0.053 A 
ATOM     70  H   UNL A   1      43.537  25.296  29.261  1.00  0.00     0.063 H 
ATOM     71  C   UNL A   1      42.922  28.544  28.781  1.00  0.00    -0.014 A 
ATOM     72  H   UNL A   1      42.844  29.449  26.869  1.00  0.00     0.063 H 
ATOM     73  H   UNL A   1      42.823  27.276  30.468  1.00  0.00     0.063 H 
BRANCH  71  74
ATOM     74  C   UNL A   1      42.707  29.732  29.595  1.00  0.00     0.031 A 
ATOM     75  C   UNL A   1      41.384  30.380  29.649  1.00  0.00     0.074 A 
ATOM     76  C   UNL A   1      43.731  30.213  30.334  1.00  0.00     0.049 A 
ATOM     77  N   UNL A   1      41.200  31.639  29.870  1.00  0.00    -0.248 NA
ATOM     78  C   UNL A   1      40.148  29.646  29.418  1.00  0.00    -0.034 C 
ATOM     79  C   UNL A   1      43.673  31.245  31.366  1.00  0.00    -0.036 A 
ATOM     80  N   UNL A   1      45.104  29.983  30.143  1.00  0.00    -0.354 N 
ATOM     81  C   UNL A   1      39.851  31.838  30.061  1.00  0.00     0.074 A 
ATOM     82  C   UNL A   1      39.235  30.578  29.710  1.00  0.00    -0.034 C 
ATOM     83  H   UNL A   1      40.013  28.670  29.110  1.00  0.00     0.065 H 
ATOM     84  C   UNL A   1      44.898  31.774  31.514  1.00  0.00    -0.036 A 
ATOM     85  H   UNL A   1      42.830  31.521  31.894  1.00  0.00     0.065 H 
ATOM     86  C   UNL A   1      45.743  31.197  30.483  1.00  0.00     0.049 A 
ATOM     87  H   UNL A   1      45.532  29.151  29.836  1.00  0.00     0.167 HD
ATOM     88  C   UNL A   1      39.416  33.002  30.627  1.00  0.00     0.037 A 
ATOM     89  H   UNL A   1      38.216  30.418  29.688  1.00  0.00     0.065 H 
ATOM     90  H   UNL A   1      45.185  32.463  32.226  1.00  0.00     0.065 H 
ATOM     91  C   UNL A   1      46.451  31.911  29.561  1.00  0.00     0.037 A 
ATOM     92  C   UNL A   1      40.531  33.902  30.909  1.00  0.00     0.049 A 
ATOM     93  C   UNL A   1      45.941  33.317  29.357  1.00  0.00     0.074 A 
ATOM     94  C   UNL A   1      41.270  34.122  32.061  1.00  0.00    -0.036 A 
ATOM     95  N   UNL A   1      41.240  34.487  29.866  1.00  0.00    -0.354 N 
ATOM     96  N   UNL A   1      44.735  33.702  29.663  1.00  0.00    -0.248 NA
ATOM     97  C   UNL A   1      46.735  34.380  28.746  1.00  0.00    -0.034 C 
ATOM     98  C   UNL A   1      42.458  34.798  31.699  1.00  0.00    -0.036 A 
ATOM     99  H   UNL A   1      41.000  33.841  33.016  1.00  0.00     0.065 H 
ATOM    100  C   UNL A   1      42.433  35.009  30.331  1.00  0.00     0.049 A 
ATOM    101  H   UNL A   1      40.937  34.525  28.930  1.00  0.00     0.167 HD
ATOM    102  C   UNL A   1      44.568  35.007  29.282  1.00  0.00     0.074 A 
ATOM    103  C   UNL A   1      45.852  35.394  28.731  1.00  0.00    -0.034 C 
ATOM    104  H   UNL A   1      47.712  34.358  28.415  1.00  0.00     0.065 H 
ATOM    105  H   UNL A   1      43.212  35.086  32.342  1.00  0.00     0.065 H 
ATOM    106  C   UNL A   1      43.378  35.657  29.438  1.00  0.00     0.037 A 
ATOM    107  H   UNL A   1      46.065  36.338  28.370  1.00  0.00     0.065 H 
BRANCH  88 108
ATOM    108  C   UNL A   1      38.034  33.177  31.219  1.00  0.00     0.064 A 
ATOM    109  C   UNL A   1      36.927  33.501  30.402  1.00  0.00     0.173 A 
ATOM    110  C   UNL A   1      37.746  33.104  32.594  1.00  0.00     0.173 A 
ATOM    111  F   UNL A   1      37.010  33.477  29.066  1.00  0.00    -0.203 F 
ATOM    112  C   UNL A   1      35.685  33.867  30.929  1.00  0.00     0.198 A 
ATOM    113  C   UNL A   1      36.521  33.524  33.126  1.00  0.00     0.198 A 
ATOM    114  F   UNL A   1      38.624  32.577  33.458  1.00  0.00    -0.203 F 
ATOM    115  F   UNL A   1      34.679  34.182  30.101  1.00  0.00    -0.200 F 
ATOM    116  C   UNL A   1      35.496  33.924  32.293  1.00  0.00     0.200 A 
ATOM    117  F   UNL A   1      36.344  33.543  34.455  1.00  0.00    -0.200 F 
ATOM    118  F   UNL A   1      34.326  34.332  32.801  1.00  0.00    -0.200 F 
ENDBRANCH  88 108
BRANCH  91 119
ATOM    119  C   UNL A   1      47.051  31.075  28.489  1.00  0.00     0.064 A 
ATOM    120  C   UNL A   1      48.219  30.344  28.780  1.00  0.00     0.173 A 
ATOM    121  C   UNL A   1      46.328  30.713  27.348  1.00  0.00     0.173 A 
ATOM    122  F   UNL A   1      48.949  30.651  29.864  1.00  0.00    -0.203 F 
ATOM    123  C   UNL A   1      48.582  29.230  28.026  1.00  0.00     0.198 A 
ATOM    124  C   UNL A   1      46.704  29.605  26.586  1.00  0.00     0.198 A 
ATOM    125  F   UNL A   1      45.198  31.360  27.025  1.00  0.00    -0.203 F 
ATOM    126  F   UNL A   1      49.639  28.491  28.394  1.00  0.00    -0.200 F 
ATOM    127  C   UNL A   1      47.809  28.846  26.945  1.00  0.00     0.200 A 
ATOM    128  F   UNL A   1      45.941  29.217  25.553  1.00  0.00    -0.200 F 
ATOM    129  F   UNL A   1      48.105  27.726  26.271  1.00  0.00    -0.200 F 
ENDBRANCH  91 119
BRANCH 106 130
ATOM    130  C   UNL A   1      43.040  37.004  28.859  1.00  0.00     0.064 A 
ATOM    131  C   UNL A   1      42.245  37.180  27.715  1.00  0.00     0.173 A 
ATOM    132  C   UNL A   1      43.403  38.188  29.542  1.00  0.00     0.173 A 
ATOM    133  F   UNL A   1      41.742  36.130  27.051  1.00  0.00    -0.203 F 
ATOM    134  C   UNL A   1      41.896  38.449  27.248  1.00  0.00     0.198 A 
ATOM    135  C   UNL A   1      43.008  39.451  29.103  1.00  0.00     0.198 A 
ATOM    136  F   UNL A   1      44.134  38.150  30.666  1.00  0.00    -0.203 F 
ATOM    137  F   UNL A   1      41.170  38.567  26.127  1.00  0.00    -0.200 F 
ATOM    138  C   UNL A   1      42.268  39.582  27.946  1.00  0.00     0.200 A 
ATOM    139  F   UNL A   1      43.334  40.537  29.819  1.00  0.00    -0.200 F 
ATOM    140  F   UNL A   1      41.897  40.795  27.516  1.00  0.00    -0.200 F 
ENDBRANCH 106 130
ENDBRANCH  71  74
ENDBRANCH  61  64
ENDBRANCH  57  60
ENDBRANCH  54  57
ENDBRANCH  51  54
ENDBRANCH   1  51
TORSDOF 17
ENDMDL
