MODEL 1
REMARK VINA RESULT:     -11.7      0.000      0.000
REMARK SMILES CC(C)c1ccc2c(c1)c(SC(C)(C)C)c(CC(C)(C)C(=O)NCCCCCCNC(=O)c1ccc(-c3c4nc(c(-c5c(F)c(F)c(F)c(F)c5F)c5ccc([nH]5)c(-c5c(F)c(F)c(F)c(F)c5F)c5nc(c(-c6c(F)c(F)c(F)c(F)c6F)c6ccc3[nH]6)C=C5)C=C4)cc1)n2Cc1ccc(Cl)cc1
REMARK SMILES IDX 25 1 24 4 23 7 21 8 22 9 18 11 17 12 16 15 4 16 5 17 9 18
REMARK SMILES IDX 6 19 8 21 7 23 10 25 96 26 2 27 1 29 3 33 11 37 12 38 13 39
REMARK SMILES IDX 14 43 15 47 97 51 98 54 99 55 104 56 100 57 103 59 101 61
REMARK SMILES IDX 102 64 19 65 20 69 26 73 27 76 28 79 29 82 30 85 31 86 32 88
REMARK SMILES IDX 33 89 34 90 95 91 35 92 94 94 36 96 37 99 38 100 88 101
REMARK SMILES IDX 39 102 93 103 87 104 89 105 40 106 92 107 86 109 85 111
REMARK SMILES IDX 41 113 73 116 53 117 72 118 54 119 57 120 71 121 90 122
REMARK SMILES IDX 55 123 56 125 70 127 91 128 58 131 42 133 43 134 51 135
REMARK SMILES IDX 44 136 45 137 49 138 52 139 46 140 47 141 50 142 48 143
REMARK SMILES IDX 74 144 75 145 83 146 76 147 77 148 81 149 84 150 78 151
REMARK SMILES IDX 79 152 82 153 80 154 59 155 60 156 68 157 61 158 62 159
REMARK SMILES IDX 66 160 69 161 63 162 64 163 67 164 65 165
REMARK H PARENT 25 2 25 3 24 5 24 6 23 10 17 13 17 14 5 20 9 22 6 24 2 28 1 30
REMARK H PARENT 1 31 1 32 3 34 3 35 3 36 13 40 13 41 13 42 14 44 14 45 14 46
REMARK H PARENT 15 48 15 49 15 50 97 52 97 53 99 58 104 60 100 62 103 63 19 66
REMARK H PARENT 19 67 19 68 20 70 20 71 20 72 26 74 26 75 27 77 27 78 28 80
REMARK H PARENT 28 81 29 83 29 84 30 87 34 93 95 95 35 97 94 98 93 108 87 110
REMARK H PARENT 89 112 92 114 86 115 54 124 57 126 90 129 55 130 91 132
REMARK Flexibility Score: inf
ROOT
ATOM      1  C   UNL A   1      33.289  27.771  25.905  1.00  0.00    -0.036 C 
ATOM      2  H   UNL A   1      33.541  27.698  24.867  1.00  0.00     0.028 H 
ATOM      3  H   UNL A   1      34.103  28.182  26.464  1.00  0.00     0.028 H 
ENDROOT
BRANCH   1   4
ATOM      4  C   UNL A   1      32.996  26.390  26.437  1.00  0.00     0.017 C 
ATOM      5  H   UNL A   1      33.507  25.671  25.831  1.00  0.00     0.049 H 
ATOM      6  H   UNL A   1      33.331  26.348  27.452  1.00  0.00     0.049 H 
BRANCH   4   7
ATOM      7  N   UNL A   1      31.579  26.093  26.419  1.00  0.00    -0.356 N 
ATOM      8  C   UNL A   1      30.960  24.873  26.509  1.00  0.00     0.226 C 
ATOM      9  O   UNL A   1      29.792  24.878  26.876  1.00  0.00    -0.275 OA
ATOM     10  H   UNL A   1      30.981  26.870  26.331  1.00  0.00     0.163 HD
BRANCH   8  11
ATOM     11  C   UNL A   1      31.810  23.602  26.390  1.00  0.00     0.049 C 
BRANCH  11  12
ATOM     12  C   UNL A   1      32.900  23.564  25.275  1.00  0.00     0.003 C 
ATOM     13  H   UNL A   1      32.560  24.182  24.470  1.00  0.00     0.034 H 
ATOM     14  H   UNL A   1      33.796  23.895  25.755  1.00  0.00     0.034 H 
BRANCH  12  15
ATOM     15  C   UNL A   1      33.239  22.250  24.708  1.00  0.00     0.034 A 
ATOM     16  C   UNL A   1      33.746  17.681  24.023  1.00  0.00    -0.045 A 
ATOM     17  C   UNL A   1      32.646  17.946  23.198  1.00  0.00    -0.057 A 
ATOM     18  C   UNL A   1      34.368  18.785  24.647  1.00  0.00    -0.048 A 
ATOM     19  C   UNL A   1      32.153  19.242  22.998  1.00  0.00    -0.037 A 
ATOM     20  H   UNL A   1      32.182  17.157  22.720  1.00  0.00     0.063 H 
ATOM     21  C   UNL A   1      33.890  20.115  24.485  1.00  0.00     0.014 A 
ATOM     22  H   UNL A   1      35.196  18.621  25.240  1.00  0.00     0.063 H 
ATOM     23  C   UNL A   1      32.765  20.307  23.676  1.00  0.00     0.050 A 
ATOM     24  H   UNL A   1      31.355  19.410  22.366  1.00  0.00     0.065 H 
ATOM     25  C   UNL A   1      34.282  21.394  25.033  1.00  0.00     0.037 A 
ATOM     26  N   UNL A   1      32.450  21.657  23.723  1.00  0.00    -0.339 N 
BRANCH  16  27
ATOM     27  C   UNL A   1      34.179  16.246  24.339  1.00  0.00    -0.022 C 
ATOM     28  H   UNL A   1      34.388  15.858  23.363  1.00  0.00     0.035 H 
BRANCH  27  29
ATOM     29  C   UNL A   1      35.450  16.138  25.198  1.00  0.00    -0.059 C 
ATOM     30  H   UNL A   1      35.553  17.021  25.793  1.00  0.00     0.024 H 
ATOM     31  H   UNL A   1      36.304  16.033  24.562  1.00  0.00     0.024 H 
ATOM     32  H   UNL A   1      35.375  15.284  25.839  1.00  0.00     0.024 H 
ENDBRANCH  27  29
BRANCH  27  33
ATOM     33  C   UNL A   1      33.086  15.396  25.003  1.00  0.00    -0.059 C 
ATOM     34  H   UNL A   1      33.505  14.856  25.826  1.00  0.00     0.024 H 
ATOM     35  H   UNL A   1      32.688  14.706  24.289  1.00  0.00     0.024 H 
ATOM     36  H   UNL A   1      32.303  16.034  25.357  1.00  0.00     0.024 H 
ENDBRANCH  27  33
ENDBRANCH  16  27
BRANCH  25  37
ATOM     37  S   UNL A   1      35.683  21.525  26.126  1.00  0.00    -0.118 SA
BRANCH  37  38
ATOM     38  C   UNL A   1      37.335  22.092  25.465  1.00  0.00     0.012 C 
BRANCH  38  39
ATOM     39  C   UNL A   1      37.770  23.403  26.126  1.00  0.00    -0.051 C 
ATOM     40  H   UNL A   1      38.405  23.189  26.960  1.00  0.00     0.024 H 
ATOM     41  H   UNL A   1      36.906  23.936  26.463  1.00  0.00     0.024 H 
ATOM     42  H   UNL A   1      38.303  24.000  25.416  1.00  0.00     0.024 H 
ENDBRANCH  38  39
BRANCH  38  43
ATOM     43  C   UNL A   1      38.564  21.157  25.377  1.00  0.00    -0.051 C 
ATOM     44  H   UNL A   1      39.458  21.732  25.496  1.00  0.00     0.024 H 
ATOM     45  H   UNL A   1      38.575  20.673  24.423  1.00  0.00     0.024 H 
ATOM     46  H   UNL A   1      38.507  20.421  26.151  1.00  0.00     0.024 H 
ENDBRANCH  38  43
BRANCH  38  47
ATOM     47  C   UNL A   1      37.025  22.346  23.964  1.00  0.00    -0.051 C 
ATOM     48  H   UNL A   1      35.969  22.450  23.831  1.00  0.00     0.024 H 
ATOM     49  H   UNL A   1      37.378  21.519  23.383  1.00  0.00     0.024 H 
ATOM     50  H   UNL A   1      37.515  23.242  23.645  1.00  0.00     0.024 H 
ENDBRANCH  38  47
ENDBRANCH  37  38
ENDBRANCH  25  37
BRANCH  26  51
ATOM     51  C   UNL A   1      31.583  22.340  22.725  1.00  0.00     0.048 C 
ATOM     52  H   UNL A   1      30.569  22.187  23.029  1.00  0.00     0.055 H 
ATOM     53  H   UNL A   1      31.861  21.903  21.789  1.00  0.00     0.055 H 
BRANCH  51  54
ATOM     54  C   UNL A   1      31.769  23.834  22.513  1.00  0.00    -0.028 A 
ATOM     55  C   UNL A   1      32.923  24.336  21.876  1.00  0.00    -0.056 A 
ATOM     56  C   UNL A   1      30.820  24.765  22.967  1.00  0.00    -0.056 A 
ATOM     57  C   UNL A   1      33.212  25.705  21.871  1.00  0.00    -0.043 A 
ATOM     58  H   UNL A   1      33.565  23.681  21.404  1.00  0.00     0.063 H 
ATOM     59  C   UNL A   1      31.085  26.143  22.915  1.00  0.00    -0.043 A 
ATOM     60  H   UNL A   1      29.918  24.431  23.344  1.00  0.00     0.063 H 
ATOM     61  C   UNL A   1      32.302  26.601  22.415  1.00  0.00     0.041 A 
ATOM     62  H   UNL A   1      34.098  26.046  21.465  1.00  0.00     0.064 H 
ATOM     63  H   UNL A   1      30.377  26.817  23.247  1.00  0.00     0.064 H 
ATOM     64  Cl  UNL A   1      32.702  28.273  22.504  1.00  0.00    -0.084 Cl
ENDBRANCH  51  54
ENDBRANCH  26  51
ENDBRANCH  12  15
ENDBRANCH  11  12
BRANCH  11  65
ATOM     65  C   UNL A   1      30.661  22.601  26.113  1.00  0.00    -0.051 C 
ATOM     66  H   UNL A   1      30.845  22.093  25.189  1.00  0.00     0.024 H 
ATOM     67  H   UNL A   1      29.734  23.131  26.050  1.00  0.00     0.024 H 
ATOM     68  H   UNL A   1      30.611  21.888  26.908  1.00  0.00     0.024 H 
ENDBRANCH  11  65
BRANCH  11  69
ATOM     69  C   UNL A   1      32.665  23.442  27.682  1.00  0.00    -0.051 C 
ATOM     70  H   UNL A   1      32.158  22.797  28.368  1.00  0.00     0.024 H 
ATOM     71  H   UNL A   1      32.810  24.402  28.135  1.00  0.00     0.024 H 
ATOM     72  H   UNL A   1      33.616  23.019  27.432  1.00  0.00     0.024 H 
ENDBRANCH  11  69
ENDBRANCH   8  11
ENDBRANCH   4   7
ENDBRANCH   1   4
BRANCH   1  73
ATOM     73  C   UNL A   1      32.089  28.692  26.059  1.00  0.00    -0.052 C 
ATOM     74  H   UNL A   1      31.300  28.141  26.529  1.00  0.00     0.027 H 
ATOM     75  H   UNL A   1      31.827  29.027  25.077  1.00  0.00     0.027 H 
BRANCH  73  76
ATOM     76  C   UNL A   1      32.369  29.945  26.898  1.00  0.00    -0.052 C 
ATOM     77  H   UNL A   1      31.678  29.959  27.715  1.00  0.00     0.027 H 
ATOM     78  H   UNL A   1      32.260  30.779  26.237  1.00  0.00     0.027 H 
BRANCH  76  79
ATOM     79  C   UNL A   1      33.789  30.033  27.472  1.00  0.00    -0.036 C 
ATOM     80  H   UNL A   1      34.451  29.502  26.821  1.00  0.00     0.028 H 
ATOM     81  H   UNL A   1      33.757  29.608  28.454  1.00  0.00     0.028 H 
BRANCH  79  82
ATOM     82  C   UNL A   1      34.305  31.465  27.622  1.00  0.00     0.018 C 
ATOM     83  H   UNL A   1      33.721  32.105  26.994  1.00  0.00     0.049 H 
ATOM     84  H   UNL A   1      35.338  31.465  27.341  1.00  0.00     0.049 H 
BRANCH  82  85
ATOM     85  N   UNL A   1      34.225  31.954  28.979  1.00  0.00    -0.352 N 
ATOM     86  C   UNL A   1      35.019  31.843  30.083  1.00  0.00     0.251 C 
ATOM     87  H   UNL A   1      33.414  32.488  29.145  1.00  0.00     0.163 HD
ATOM     88  O   UNL A   1      34.582  32.337  31.123  1.00  0.00    -0.269 OA
BRANCH  86  89
ATOM     89  C   UNL A   1      36.330  31.146  30.111  1.00  0.00     0.039 A 
ATOM     90  C   UNL A   1      37.579  31.758  30.005  1.00  0.00    -0.049 A 
ATOM     91  C   UNL A   1      36.279  29.749  30.265  1.00  0.00    -0.049 A 
ATOM     92  C   UNL A   1      38.741  30.999  29.971  1.00  0.00    -0.053 A 
ATOM     93  H   UNL A   1      37.640  32.787  29.953  1.00  0.00     0.063 H 
ATOM     94  C   UNL A   1      37.440  28.987  30.277  1.00  0.00    -0.053 A 
ATOM     95  H   UNL A   1      35.364  29.283  30.371  1.00  0.00     0.063 H 
ATOM     96  C   UNL A   1      38.670  29.613  30.090  1.00  0.00    -0.014 A 
ATOM     97  H   UNL A   1      39.657  31.461  29.858  1.00  0.00     0.063 H 
ATOM     98  H   UNL A   1      37.392  27.966  30.422  1.00  0.00     0.063 H 
BRANCH  96  99
ATOM     99  C   UNL A   1      39.931  28.877  30.106  1.00  0.00     0.031 A 
ATOM    100  C   UNL A   1      40.580  28.726  31.443  1.00  0.00     0.074 A 
ATOM    101  C   UNL A   1      40.427  28.264  29.015  1.00  0.00     0.049 A 
ATOM    102  N   UNL A   1      41.790  29.028  31.795  1.00  0.00    -0.248 NA
ATOM    103  C   UNL A   1      39.743  28.225  32.546  1.00  0.00    -0.034 C 
ATOM    104  C   UNL A   1      39.775  28.082  27.715  1.00  0.00    -0.036 A 
ATOM    105  N   UNL A   1      41.591  27.566  28.883  1.00  0.00    -0.354 N 
ATOM    106  C   UNL A   1      41.915  28.626  33.125  1.00  0.00     0.074 A 
ATOM    107  C   UNL A   1      40.604  28.225  33.564  1.00  0.00    -0.034 C 
ATOM    108  H   UNL A   1      38.750  27.947  32.536  1.00  0.00     0.065 H 
ATOM    109  C   UNL A   1      40.442  27.139  27.015  1.00  0.00    -0.036 A 
ATOM    110  H   UNL A   1      38.941  28.593  27.387  1.00  0.00     0.065 H 
ATOM    111  C   UNL A   1      41.631  26.758  27.758  1.00  0.00     0.049 A 
ATOM    112  H   UNL A   1      42.333  27.629  29.527  1.00  0.00     0.167 HD
ATOM    113  C   UNL A   1      43.122  28.481  33.736  1.00  0.00     0.037 A 
ATOM    114  H   UNL A   1      40.364  27.970  34.535  1.00  0.00     0.065 H 
ATOM    115  H   UNL A   1      40.153  26.751  26.104  1.00  0.00     0.065 H 
ATOM    116  C   UNL A   1      42.536  25.787  27.496  1.00  0.00     0.037 A 
ATOM    117  C   UNL A   1      44.171  29.173  33.047  1.00  0.00     0.049 A 
ATOM    118  C   UNL A   1      43.735  26.045  28.325  1.00  0.00     0.074 A 
ATOM    119  C   UNL A   1      44.488  30.494  32.816  1.00  0.00    -0.036 A 
ATOM    120  N   UNL A   1      44.963  28.436  32.208  1.00  0.00    -0.354 N 
ATOM    121  N   UNL A   1      44.550  27.048  28.157  1.00  0.00    -0.248 NA
ATOM    122  C   UNL A   1      43.870  25.339  29.592  1.00  0.00    -0.034 C 
ATOM    123  C   UNL A   1      45.152  30.508  31.554  1.00  0.00    -0.036 A 
ATOM    124  H   UNL A   1      44.287  31.301  33.427  1.00  0.00     0.065 H 
ATOM    125  C   UNL A   1      45.217  29.192  31.094  1.00  0.00     0.049 A 
ATOM    126  H   UNL A   1      45.293  27.524  32.376  1.00  0.00     0.167 HD
ATOM    127  C   UNL A   1      44.994  27.356  29.431  1.00  0.00     0.074 A 
ATOM    128  C   UNL A   1      44.673  26.187  30.238  1.00  0.00    -0.034 C 
ATOM    129  H   UNL A   1      43.462  24.444  29.900  1.00  0.00     0.065 H 
ATOM    130  H   UNL A   1      45.519  31.341  31.069  1.00  0.00     0.065 H 
ATOM    131  C   UNL A   1      45.321  28.638  29.764  1.00  0.00     0.037 A 
ATOM    132  H   UNL A   1      45.023  26.033  31.195  1.00  0.00     0.065 H 
BRANCH 113 133
ATOM    133  C   UNL A   1      43.409  27.436  34.781  1.00  0.00     0.064 A 
ATOM    134  C   UNL A   1      43.756  27.818  36.091  1.00  0.00     0.173 A 
ATOM    135  C   UNL A   1      43.641  26.082  34.455  1.00  0.00     0.173 A 
ATOM    136  F   UNL A   1      43.620  29.092  36.489  1.00  0.00    -0.203 F 
ATOM    137  C   UNL A   1      44.325  26.916  36.996  1.00  0.00     0.198 A 
ATOM    138  C   UNL A   1      44.162  25.173  35.373  1.00  0.00     0.198 A 
ATOM    139  F   UNL A   1      43.474  25.623  33.207  1.00  0.00    -0.203 F 
ATOM    140  F   UNL A   1      44.735  27.344  38.197  1.00  0.00    -0.200 F 
ATOM    141  C   UNL A   1      44.527  25.594  36.635  1.00  0.00     0.200 A 
ATOM    142  F   UNL A   1      44.377  23.904  34.998  1.00  0.00    -0.200 F 
ATOM    143  F   UNL A   1      45.116  24.740  37.483  1.00  0.00    -0.200 F 
ENDBRANCH 113 133
BRANCH 116 144
ATOM    144  C   UNL A   1      42.310  24.494  26.812  1.00  0.00     0.064 A 
ATOM    145  C   UNL A   1      43.009  24.172  25.638  1.00  0.00     0.173 A 
ATOM    146  C   UNL A   1      41.624  23.439  27.445  1.00  0.00     0.173 A 
ATOM    147  F   UNL A   1      43.722  25.110  24.998  1.00  0.00    -0.203 F 
ATOM    148  C   UNL A   1      43.049  22.864  25.147  1.00  0.00     0.198 A 
ATOM    149  C   UNL A   1      41.654  22.137  26.947  1.00  0.00     0.198 A 
ATOM    150  F   UNL A   1      40.994  23.628  28.613  1.00  0.00    -0.203 F 
ATOM    151  F   UNL A   1      43.788  22.580  24.065  1.00  0.00    -0.200 F 
ATOM    152  C   UNL A   1      42.381  21.846  25.808  1.00  0.00     0.200 A 
ATOM    153  F   UNL A   1      41.032  21.156  27.616  1.00  0.00    -0.200 F 
ATOM    154  F   UNL A   1      42.474  20.581  25.376  1.00  0.00    -0.200 F 
ENDBRANCH 116 144
BRANCH 131 155
ATOM    155  C   UNL A   1      45.557  29.604  28.639  1.00  0.00     0.064 A 
ATOM    156  C   UNL A   1      44.540  30.336  28.005  1.00  0.00     0.173 A 
ATOM    157  C   UNL A   1      46.881  29.884  28.273  1.00  0.00     0.173 A 
ATOM    158  F   UNL A   1      43.259  30.198  28.372  1.00  0.00    -0.203 F 
ATOM    159  C   UNL A   1      44.836  31.271  27.014  1.00  0.00     0.198 A 
ATOM    160  C   UNL A   1      47.175  30.847  27.312  1.00  0.00     0.198 A 
ATOM    161  F   UNL A   1      47.896  29.257  28.888  1.00  0.00    -0.203 F 
ATOM    162  F   UNL A   1      43.846  31.946  26.410  1.00  0.00    -0.200 F 
ATOM    163  C   UNL A   1      46.153  31.530  26.674  1.00  0.00     0.200 A 
ATOM    164  F   UNL A   1      48.453  31.131  27.023  1.00  0.00    -0.200 F 
ATOM    165  F   UNL A   1      46.439  32.459  25.751  1.00  0.00    -0.200 F 
ENDBRANCH 131 155
ENDBRANCH  96  99
ENDBRANCH  86  89
ENDBRANCH  82  85
ENDBRANCH  79  82
ENDBRANCH  76  79
ENDBRANCH  73  76
ENDBRANCH   1  73
TORSDOF 27
ENDMDL
MODEL 2
REMARK VINA RESULT:     -11.6      3.728      9.334
REMARK SMILES CC(C)c1ccc2c(c1)c(SC(C)(C)C)c(CC(C)(C)C(=O)NCCCCCCNC(=O)c1ccc(-c3c4nc(c(-c5c(F)c(F)c(F)c(F)c5F)c5ccc([nH]5)c(-c5c(F)c(F)c(F)c(F)c5F)c5nc(c(-c6c(F)c(F)c(F)c(F)c6F)c6ccc3[nH]6)C=C5)C=C4)cc1)n2Cc1ccc(Cl)cc1
REMARK SMILES IDX 25 1 24 4 23 7 21 8 22 9 18 11 17 12 16 15 4 16 5 17 9 18
REMARK SMILES IDX 6 19 8 21 7 23 10 25 96 26 2 27 1 29 3 33 11 37 12 38 13 39
REMARK SMILES IDX 14 43 15 47 97 51 98 54 99 55 104 56 100 57 103 59 101 61
REMARK SMILES IDX 102 64 19 65 20 69 26 73 27 76 28 79 29 82 30 85 31 86 32 88
REMARK SMILES IDX 33 89 34 90 95 91 35 92 94 94 36 96 37 99 38 100 88 101
REMARK SMILES IDX 39 102 93 103 87 104 89 105 40 106 92 107 86 109 85 111
REMARK SMILES IDX 41 113 73 116 53 117 72 118 54 119 57 120 71 121 90 122
REMARK SMILES IDX 55 123 56 125 70 127 91 128 58 131 42 133 43 134 51 135
REMARK SMILES IDX 44 136 45 137 49 138 52 139 46 140 47 141 50 142 48 143
REMARK SMILES IDX 74 144 75 145 83 146 76 147 77 148 81 149 84 150 78 151
REMARK SMILES IDX 79 152 82 153 80 154 59 155 60 156 68 157 61 158 62 159
REMARK SMILES IDX 66 160 69 161 63 162 64 163 67 164 65 165
REMARK H PARENT 25 2 25 3 24 5 24 6 23 10 17 13 17 14 5 20 9 22 6 24 2 28 1 30
REMARK H PARENT 1 31 1 32 3 34 3 35 3 36 13 40 13 41 13 42 14 44 14 45 14 46
REMARK H PARENT 15 48 15 49 15 50 97 52 97 53 99 58 104 60 100 62 103 63 19 66
REMARK H PARENT 19 67 19 68 20 70 20 71 20 72 26 74 26 75 27 77 27 78 28 80
REMARK H PARENT 28 81 29 83 29 84 30 87 34 93 95 95 35 97 94 98 93 108 87 110
REMARK H PARENT 89 112 92 114 86 115 54 124 57 126 90 129 55 130 91 132
REMARK Flexibility Score: inf
ROOT
ATOM      1  C   UNL A   1      35.853  23.747  25.902  1.00  0.00    -0.036 C 
ATOM      2  H   UNL A   1      35.299  22.843  26.046  1.00  0.00     0.028 H 
ATOM      3  H   UNL A   1      35.985  24.263  26.830  1.00  0.00     0.028 H 
ENDROOT
BRANCH   1   4
ATOM      4  C   UNL A   1      35.090  24.646  24.961  1.00  0.00     0.017 C 
ATOM      5  H   UNL A   1      34.255  25.064  25.485  1.00  0.00     0.049 H 
ATOM      6  H   UNL A   1      35.756  25.412  24.622  1.00  0.00     0.049 H 
BRANCH   4   7
ATOM      7  N   UNL A   1      34.603  23.929  23.802  1.00  0.00    -0.356 N 
ATOM      8  C   UNL A   1      33.839  24.397  22.765  1.00  0.00     0.226 C 
ATOM      9  O   UNL A   1      33.883  23.759  21.721  1.00  0.00    -0.275 OA
ATOM     10  H   UNL A   1      34.854  22.978  23.752  1.00  0.00     0.163 HD
BRANCH   8  11
ATOM     11  C   UNL A   1      33.193  25.783  22.890  1.00  0.00     0.049 C 
BRANCH  11  12
ATOM     12  C   UNL A   1      32.576  26.170  24.269  1.00  0.00     0.003 C 
ATOM     13  H   UNL A   1      32.209  25.273  24.721  1.00  0.00     0.034 H 
ATOM     14  H   UNL A   1      33.369  26.655  24.798  1.00  0.00     0.034 H 
BRANCH  12  15
ATOM     15  C   UNL A   1      31.475  27.145  24.264  1.00  0.00     0.034 A 
ATOM     16  C   UNL A   1      28.501  30.514  23.079  1.00  0.00    -0.045 A 
ATOM     17  C   UNL A   1      27.727  29.379  22.806  1.00  0.00    -0.057 A 
ATOM     18  C   UNL A   1      29.765  30.310  23.676  1.00  0.00    -0.048 A 
ATOM     19  C   UNL A   1      28.174  28.081  23.090  1.00  0.00    -0.037 A 
ATOM     20  H   UNL A   1      26.796  29.503  22.381  1.00  0.00     0.063 H 
ATOM     21  C   UNL A   1      30.263  29.009  23.966  1.00  0.00     0.014 A 
ATOM     22  H   UNL A   1      30.344  31.130  23.911  1.00  0.00     0.063 H 
ATOM     23  C   UNL A   1      29.455  27.914  23.637  1.00  0.00     0.050 A 
ATOM     24  H   UNL A   1      27.572  27.265  22.900  1.00  0.00     0.065 H 
ATOM     25  C   UNL A   1      31.508  28.511  24.507  1.00  0.00     0.037 A 
ATOM     26  N   UNL A   1      30.171  26.768  23.946  1.00  0.00    -0.339 N 
BRANCH  16  27
ATOM     27  C   UNL A   1      28.055  31.909  22.631  1.00  0.00    -0.022 C 
ATOM     28  H   UNL A   1      27.076  31.976  23.059  1.00  0.00     0.035 H 
BRANCH  27  29
ATOM     29  C   UNL A   1      28.916  33.060  23.177  1.00  0.00    -0.059 C 
ATOM     30  H   UNL A   1      29.612  32.676  23.893  1.00  0.00     0.024 H 
ATOM     31  H   UNL A   1      28.285  33.787  23.646  1.00  0.00     0.024 H 
ATOM     32  H   UNL A   1      29.450  33.519  22.372  1.00  0.00     0.024 H 
ENDBRANCH  27  29
BRANCH  27  33
ATOM     33  C   UNL A   1      27.957  32.075  21.106  1.00  0.00    -0.059 C 
ATOM     34  H   UNL A   1      28.018  33.113  20.856  1.00  0.00     0.024 H 
ATOM     35  H   UNL A   1      27.025  31.679  20.764  1.00  0.00     0.024 H 
ATOM     36  H   UNL A   1      28.763  31.548  20.638  1.00  0.00     0.024 H 
ENDBRANCH  27  33
ENDBRANCH  16  27
BRANCH  25  37
ATOM     37  S   UNL A   1      32.787  29.636  25.028  1.00  0.00    -0.118 SA
BRANCH  37  38
ATOM     38  C   UNL A   1      33.387  29.616  26.796  1.00  0.00     0.012 C 
BRANCH  38  39
ATOM     39  C   UNL A   1      32.672  28.532  27.607  1.00  0.00    -0.051 C 
ATOM     40  H   UNL A   1      31.689  28.382  27.213  1.00  0.00     0.024 H 
ATOM     41  H   UNL A   1      32.604  28.838  28.630  1.00  0.00     0.024 H 
ATOM     42  H   UNL A   1      33.224  27.617  27.544  1.00  0.00     0.024 H 
ENDBRANCH  38  39
BRANCH  38  43
ATOM     43  C   UNL A   1      34.888  29.596  27.168  1.00  0.00    -0.051 C 
ATOM     44  H   UNL A   1      35.237  30.599  27.296  1.00  0.00     0.024 H 
ATOM     45  H   UNL A   1      35.443  29.122  26.386  1.00  0.00     0.024 H 
ATOM     46  H   UNL A   1      35.021  29.053  28.080  1.00  0.00     0.024 H 
ENDBRANCH  38  43
BRANCH  38  47
ATOM     47  C   UNL A   1      32.956  31.017  27.311  1.00  0.00    -0.051 C 
ATOM     48  H   UNL A   1      31.909  31.008  27.533  1.00  0.00     0.024 H 
ATOM     49  H   UNL A   1      33.153  31.750  26.557  1.00  0.00     0.024 H 
ATOM     50  H   UNL A   1      33.506  31.258  28.196  1.00  0.00     0.024 H 
ENDBRANCH  38  47
ENDBRANCH  37  38
ENDBRANCH  25  37
BRANCH  26  51
ATOM     51  C   UNL A   1      29.550  25.426  24.113  1.00  0.00     0.048 C 
ATOM     52  H   UNL A   1      29.359  25.040  23.133  1.00  0.00     0.055 H 
ATOM     53  H   UNL A   1      28.689  25.605  24.722  1.00  0.00     0.055 H 
BRANCH  51  54
ATOM     54  C   UNL A   1      30.330  24.362  24.870  1.00  0.00    -0.028 A 
ATOM     55  C   UNL A   1      30.583  24.496  26.251  1.00  0.00    -0.056 A 
ATOM     56  C   UNL A   1      30.849  23.229  24.221  1.00  0.00    -0.056 A 
ATOM     57  C   UNL A   1      31.479  23.648  26.911  1.00  0.00    -0.043 A 
ATOM     58  H   UNL A   1      30.098  25.233  26.785  1.00  0.00     0.063 H 
ATOM     59  C   UNL A   1      31.707  22.346  24.897  1.00  0.00    -0.043 A 
ATOM     60  H   UNL A   1      30.597  23.045  23.237  1.00  0.00     0.063 H 
ATOM     61  C   UNL A   1      32.058  22.590  26.222  1.00  0.00     0.041 A 
ATOM     62  H   UNL A   1      31.708  23.809  27.905  1.00  0.00     0.064 H 
ATOM     63  H   UNL A   1      32.077  21.514  24.410  1.00  0.00     0.064 H 
ATOM     64  Cl  UNL A   1      33.238  21.610  27.003  1.00  0.00    -0.084 Cl
ENDBRANCH  51  54
ENDBRANCH  26  51
ENDBRANCH  12  15
ENDBRANCH  11  12
BRANCH  11  65
ATOM     65  C   UNL A   1      32.110  25.613  21.796  1.00  0.00    -0.051 C 
ATOM     66  H   UNL A   1      31.606  24.679  21.934  1.00  0.00     0.024 H 
ATOM     67  H   UNL A   1      32.572  25.630  20.831  1.00  0.00     0.024 H 
ATOM     68  H   UNL A   1      31.403  26.413  21.868  1.00  0.00     0.024 H 
ENDBRANCH  11  65
BRANCH  11  69
ATOM     69  C   UNL A   1      34.293  26.872  22.711  1.00  0.00    -0.051 C 
ATOM     70  H   UNL A   1      33.965  27.787  23.157  1.00  0.00     0.024 H 
ATOM     71  H   UNL A   1      34.475  27.028  21.668  1.00  0.00     0.024 H 
ATOM     72  H   UNL A   1      35.197  26.548  23.186  1.00  0.00     0.024 H 
ENDBRANCH  11  69
ENDBRANCH   8  11
ENDBRANCH   4   7
ENDBRANCH   1   4
BRANCH   1  73
ATOM     73  C   UNL A   1      37.227  23.401  25.347  1.00  0.00    -0.052 C 
ATOM     74  H   UNL A   1      37.963  23.687  26.069  1.00  0.00     0.027 H 
ATOM     75  H   UNL A   1      37.330  23.931  24.423  1.00  0.00     0.027 H 
BRANCH  73  76
ATOM     76  C   UNL A   1      37.413  21.912  25.031  1.00  0.00    -0.052 C 
ATOM     77  H   UNL A   1      37.542  21.810  23.973  1.00  0.00     0.027 H 
ATOM     78  H   UNL A   1      36.541  21.415  25.401  1.00  0.00     0.027 H 
BRANCH  76  79
ATOM     79  C   UNL A   1      38.612  21.250  25.724  1.00  0.00    -0.036 C 
ATOM     80  H   UNL A   1      39.186  20.733  24.983  1.00  0.00     0.028 H 
ATOM     81  H   UNL A   1      38.219  20.590  26.469  1.00  0.00     0.028 H 
BRANCH  79  82
ATOM     82  C   UNL A   1      39.530  22.239  26.443  1.00  0.00     0.018 C 
ATOM     83  H   UNL A   1      39.599  21.954  27.473  1.00  0.00     0.049 H 
ATOM     84  H   UNL A   1      39.105  23.214  26.328  1.00  0.00     0.049 H 
BRANCH  82  85
ATOM     85  N   UNL A   1      40.863  22.279  25.887  1.00  0.00    -0.352 N 
ATOM     86  C   UNL A   1      41.870  23.199  25.885  1.00  0.00     0.251 C 
ATOM     87  H   UNL A   1      41.097  21.457  25.399  1.00  0.00     0.163 HD
ATOM     88  O   UNL A   1      42.868  22.916  25.220  1.00  0.00    -0.269 OA
BRANCH  86  89
ATOM     89  C   UNL A   1      41.820  24.505  26.590  1.00  0.00     0.039 A 
ATOM     90  C   UNL A   1      42.431  24.794  27.811  1.00  0.00    -0.049 A 
ATOM     91  C   UNL A   1      41.093  25.521  25.946  1.00  0.00    -0.049 A 
ATOM     92  C   UNL A   1      42.258  26.032  28.415  1.00  0.00    -0.053 A 
ATOM     93  H   UNL A   1      43.019  24.081  28.268  1.00  0.00     0.063 H 
ATOM     94  C   UNL A   1      40.952  26.777  26.524  1.00  0.00    -0.053 A 
ATOM     95  H   UNL A   1      40.657  25.332  25.030  1.00  0.00     0.063 H 
ATOM     96  C   UNL A   1      41.505  27.017  27.780  1.00  0.00    -0.014 A 
ATOM     97  H   UNL A   1      42.686  26.222  29.335  1.00  0.00     0.063 H 
ATOM     98  H   UNL A   1      40.443  27.525  26.028  1.00  0.00     0.063 H 
BRANCH  96  99
ATOM     99  C   UNL A   1      41.409  28.315  28.440  1.00  0.00     0.031 A 
ATOM    100  C   UNL A   1      42.480  29.299  28.100  1.00  0.00     0.074 A 
ATOM    101  C   UNL A   1      40.363  28.662  29.213  1.00  0.00     0.049 A 
ATOM    102  N   UNL A   1      43.259  29.959  28.898  1.00  0.00    -0.248 NA
ATOM    103  C   UNL A   1      42.754  29.531  26.671  1.00  0.00    -0.034 C 
ATOM    104  C   UNL A   1      39.113  27.923  29.412  1.00  0.00    -0.036 A 
ATOM    105  N   UNL A   1      40.154  29.821  29.900  1.00  0.00    -0.354 N 
ATOM    106  C   UNL A   1      44.026  30.794  28.086  1.00  0.00     0.074 A 
ATOM    107  C   UNL A   1      43.741  30.425  26.724  1.00  0.00    -0.034 C 
ATOM    108  H   UNL A   1      42.302  29.110  25.845  1.00  0.00     0.065 H 
ATOM    109  C   UNL A   1      38.198  28.745  29.970  1.00  0.00    -0.036 A 
ATOM    110  H   UNL A   1      38.957  26.933  29.166  1.00  0.00     0.065 H 
ATOM    111  C   UNL A   1      38.837  30.010  30.287  1.00  0.00     0.049 A 
ATOM    112  H   UNL A   1      40.872  30.464  30.101  1.00  0.00     0.167 HD
ATOM    113  C   UNL A   1      44.718  31.858  28.575  1.00  0.00     0.037 A 
ATOM    114  H   UNL A   1      44.234  30.804  25.899  1.00  0.00     0.065 H 
ATOM    115  H   UNL A   1      37.207  28.513  30.141  1.00  0.00     0.065 H 
ATOM    116  C   UNL A   1      38.294  31.155  30.759  1.00  0.00     0.037 A 
ATOM    117  C   UNL A   1      44.926  31.772  29.990  1.00  0.00     0.049 A 
ATOM    118  C   UNL A   1      39.394  32.010  31.262  1.00  0.00     0.074 A 
ATOM    119  C   UNL A   1      45.658  30.957  30.827  1.00  0.00    -0.036 A 
ATOM    120  N   UNL A   1      44.070  32.477  30.793  1.00  0.00    -0.354 N 
ATOM    121  N   UNL A   1      40.113  31.747  32.316  1.00  0.00    -0.248 NA
ATOM    122  C   UNL A   1      39.929  33.041  30.384  1.00  0.00    -0.034 C 
ATOM    123  C   UNL A   1      44.918  30.905  32.045  1.00  0.00    -0.036 A 
ATOM    124  H   UNL A   1      46.551  30.485  30.616  1.00  0.00     0.065 H 
ATOM    125  C   UNL A   1      43.785  31.704  31.888  1.00  0.00     0.049 A 
ATOM    126  H   UNL A   1      43.722  33.380  30.617  1.00  0.00     0.167 HD
ATOM    127  C   UNL A   1      41.364  32.260  32.023  1.00  0.00     0.074 A 
ATOM    128  C   UNL A   1      41.150  33.171  30.908  1.00  0.00    -0.034 C 
ATOM    129  H   UNL A   1      39.492  33.529  29.587  1.00  0.00     0.065 H 
ATOM    130  H   UNL A   1      45.176  30.373  32.890  1.00  0.00     0.065 H 
ATOM    131  C   UNL A   1      42.491  31.682  32.530  1.00  0.00     0.037 A 
ATOM    132  H   UNL A   1      41.857  33.838  30.563  1.00  0.00     0.065 H 
BRANCH 113 133
ATOM    133  C   UNL A   1      44.923  33.142  27.816  1.00  0.00     0.064 A 
ATOM    134  C   UNL A   1      46.213  33.524  27.401  1.00  0.00     0.173 A 
ATOM    135  C   UNL A   1      43.933  34.146  27.745  1.00  0.00     0.173 A 
ATOM    136  F   UNL A   1      47.237  32.660  27.472  1.00  0.00    -0.203 F 
ATOM    137  C   UNL A   1      46.495  34.827  26.979  1.00  0.00     0.198 A 
ATOM    138  C   UNL A   1      44.206  35.429  27.278  1.00  0.00     0.198 A 
ATOM    139  F   UNL A   1      42.699  33.949  28.229  1.00  0.00    -0.203 F 
ATOM    140  F   UNL A   1      47.756  35.177  26.690  1.00  0.00    -0.200 F 
ATOM    141  C   UNL A   1      45.491  35.779  26.918  1.00  0.00     0.200 A 
ATOM    142  F   UNL A   1      43.227  36.345  27.252  1.00  0.00    -0.200 F 
ATOM    143  F   UNL A   1      45.769  37.039  26.560  1.00  0.00    -0.200 F 
ENDBRANCH 113 133
BRANCH 116 144
ATOM    144  C   UNL A   1      36.929  31.679  30.525  1.00  0.00     0.064 A 
ATOM    145  C   UNL A   1      36.036  31.856  31.592  1.00  0.00     0.173 A 
ATOM    146  C   UNL A   1      36.575  32.280  29.301  1.00  0.00     0.173 A 
ATOM    147  F   UNL A   1      36.320  31.350  32.802  1.00  0.00    -0.203 F 
ATOM    148  C   UNL A   1      34.873  32.620  31.453  1.00  0.00     0.198 A 
ATOM    149  C   UNL A   1      35.409  33.032  29.161  1.00  0.00     0.198 A 
ATOM    150  F   UNL A   1      37.400  32.236  28.245  1.00  0.00    -0.203 F 
ATOM    151  F   UNL A   1      34.082  32.830  32.515  1.00  0.00    -0.200 F 
ATOM    152  C   UNL A   1      34.568  33.217  30.241  1.00  0.00     0.200 A 
ATOM    153  F   UNL A   1      35.143  33.632  27.992  1.00  0.00    -0.200 F 
ATOM    154  F   UNL A   1      33.490  34.004  30.126  1.00  0.00    -0.200 F 
ENDBRANCH 116 144
BRANCH 131 155
ATOM    155  C   UNL A   1      42.322  30.746  33.693  1.00  0.00     0.064 A 
ATOM    156  C   UNL A   1      42.336  31.152  35.038  1.00  0.00     0.173 A 
ATOM    157  C   UNL A   1      42.016  29.405  33.425  1.00  0.00     0.173 A 
ATOM    158  F   UNL A   1      42.521  32.437  35.368  1.00  0.00    -0.203 F 
ATOM    159  C   UNL A   1      42.103  30.242  36.067  1.00  0.00     0.198 A 
ATOM    160  C   UNL A   1      41.743  28.508  34.454  1.00  0.00     0.198 A 
ATOM    161  F   UNL A   1      41.931  28.975  32.156  1.00  0.00    -0.203 F 
ATOM    162  F   UNL A   1      42.139  30.649  37.345  1.00  0.00    -0.200 F 
ATOM    163  C   UNL A   1      41.800  28.923  35.774  1.00  0.00     0.200 A 
ATOM    164  F   UNL A   1      41.400  27.245  34.163  1.00  0.00    -0.200 F 
ATOM    165  F   UNL A   1      41.534  28.058  36.762  1.00  0.00    -0.200 F 
ENDBRANCH 131 155
ENDBRANCH  96  99
ENDBRANCH  86  89
ENDBRANCH  82  85
ENDBRANCH  79  82
ENDBRANCH  76  79
ENDBRANCH  73  76
ENDBRANCH   1  73
TORSDOF 27
ENDMDL
MODEL 3
REMARK VINA RESULT:     -10.5      3.971      7.652
REMARK SMILES CC(C)c1ccc2c(c1)c(SC(C)(C)C)c(CC(C)(C)C(=O)NCCCCCCNC(=O)c1ccc(-c3c4nc(c(-c5c(F)c(F)c(F)c(F)c5F)c5ccc([nH]5)c(-c5c(F)c(F)c(F)c(F)c5F)c5nc(c(-c6c(F)c(F)c(F)c(F)c6F)c6ccc3[nH]6)C=C5)C=C4)cc1)n2Cc1ccc(Cl)cc1
REMARK SMILES IDX 25 1 24 4 23 7 21 8 22 9 18 11 17 12 16 15 4 16 5 17 9 18
REMARK SMILES IDX 6 19 8 21 7 23 10 25 96 26 2 27 1 29 3 33 11 37 12 38 13 39
REMARK SMILES IDX 14 43 15 47 97 51 98 54 99 55 104 56 100 57 103 59 101 61
REMARK SMILES IDX 102 64 19 65 20 69 26 73 27 76 28 79 29 82 30 85 31 86 32 88
REMARK SMILES IDX 33 89 34 90 95 91 35 92 94 94 36 96 37 99 38 100 88 101
REMARK SMILES IDX 39 102 93 103 87 104 89 105 40 106 92 107 86 109 85 111
REMARK SMILES IDX 41 113 73 116 53 117 72 118 54 119 57 120 71 121 90 122
REMARK SMILES IDX 55 123 56 125 70 127 91 128 58 131 42 133 43 134 51 135
REMARK SMILES IDX 44 136 45 137 49 138 52 139 46 140 47 141 50 142 48 143
REMARK SMILES IDX 74 144 75 145 83 146 76 147 77 148 81 149 84 150 78 151
REMARK SMILES IDX 79 152 82 153 80 154 59 155 60 156 68 157 61 158 62 159
REMARK SMILES IDX 66 160 69 161 63 162 64 163 67 164 65 165
REMARK H PARENT 25 2 25 3 24 5 24 6 23 10 17 13 17 14 5 20 9 22 6 24 2 28 1 30
REMARK H PARENT 1 31 1 32 3 34 3 35 3 36 13 40 13 41 13 42 14 44 14 45 14 46
REMARK H PARENT 15 48 15 49 15 50 97 52 97 53 99 58 104 60 100 62 103 63 19 66
REMARK H PARENT 19 67 19 68 20 70 20 71 20 72 26 74 26 75 27 77 27 78 28 80
REMARK H PARENT 28 81 29 83 29 84 30 87 34 93 95 95 35 97 94 98 93 108 87 110
REMARK H PARENT 89 112 92 114 86 115 54 124 57 126 90 129 55 130 91 132
REMARK Flexibility Score: inf
ROOT
ATOM      1  C   UNL A   1      38.726  29.945  27.904  1.00  0.00    -0.036 C 
ATOM      2  H   UNL A   1      38.391  30.679  27.200  1.00  0.00     0.028 H 
ATOM      3  H   UNL A   1      39.337  30.394  28.658  1.00  0.00     0.028 H 
ENDROOT
BRANCH   1   4
ATOM      4  C   UNL A   1      39.550  28.910  27.178  1.00  0.00     0.017 C 
ATOM      5  H   UNL A   1      39.109  27.947  27.332  1.00  0.00     0.049 H 
ATOM      6  H   UNL A   1      39.564  29.167  26.139  1.00  0.00     0.049 H 
BRANCH   4   7
ATOM      7  N   UNL A   1      40.918  28.878  27.651  1.00  0.00    -0.356 N 
ATOM      8  C   UNL A   1      41.746  27.795  27.800  1.00  0.00     0.226 C 
ATOM      9  O   UNL A   1      42.949  28.025  27.820  1.00  0.00    -0.275 OA
ATOM     10  H   UNL A   1      41.305  29.748  27.898  1.00  0.00     0.163 HD
BRANCH   8  11
ATOM     11  C   UNL A   1      41.150  26.387  27.686  1.00  0.00     0.049 C 
BRANCH  11  12
ATOM     12  C   UNL A   1      42.008  25.194  28.208  1.00  0.00     0.003 C 
ATOM     13  H   UNL A   1      42.932  25.596  28.568  1.00  0.00     0.034 H 
ATOM     14  H   UNL A   1      41.399  24.720  28.947  1.00  0.00     0.034 H 
BRANCH  12  15
ATOM     15  C   UNL A   1      42.335  24.129  27.249  1.00  0.00     0.034 A 
ATOM     16  C   UNL A   1      44.301  20.506  25.101  1.00  0.00    -0.045 A 
ATOM     17  C   UNL A   1      43.173  19.894  25.659  1.00  0.00    -0.057 A 
ATOM     18  C   UNL A   1      44.418  21.906  25.246  1.00  0.00    -0.048 A 
ATOM     19  C   UNL A   1      42.194  20.617  26.354  1.00  0.00    -0.037 A 
ATOM     20  H   UNL A   1      43.058  18.874  25.555  1.00  0.00     0.063 H 
ATOM     21  C   UNL A   1      43.457  22.676  25.959  1.00  0.00     0.014 A 
ATOM     22  H   UNL A   1      45.227  22.386  24.823  1.00  0.00     0.063 H 
ATOM     23  C   UNL A   1      42.370  21.999  26.523  1.00  0.00     0.050 A 
ATOM     24  H   UNL A   1      41.360  20.143  26.735  1.00  0.00     0.065 H 
ATOM     25  C   UNL A   1      43.353  24.075  26.306  1.00  0.00     0.037 A 
ATOM     26  N   UNL A   1      41.616  22.935  27.213  1.00  0.00    -0.339 N 
BRANCH  16  27
ATOM     27  C   UNL A   1      45.426  19.680  24.470  1.00  0.00    -0.022 C 
ATOM     28  H   UNL A   1      46.178  20.422  24.301  1.00  0.00     0.035 H 
BRANCH  27  29
ATOM     29  C   UNL A   1      46.005  18.587  25.385  1.00  0.00    -0.059 C 
ATOM     30  H   UNL A   1      45.590  18.688  26.366  1.00  0.00     0.024 H 
ATOM     31  H   UNL A   1      47.069  18.689  25.435  1.00  0.00     0.024 H 
ATOM     32  H   UNL A   1      45.757  17.624  24.991  1.00  0.00     0.024 H 
ENDBRANCH  27  29
BRANCH  27  33
ATOM     33  C   UNL A   1      45.047  19.024  23.134  1.00  0.00    -0.059 C 
ATOM     34  H   UNL A   1      44.352  18.230  23.311  1.00  0.00     0.024 H 
ATOM     35  H   UNL A   1      45.925  18.632  22.667  1.00  0.00     0.024 H 
ATOM     36  H   UNL A   1      44.598  19.754  22.493  1.00  0.00     0.024 H 
ENDBRANCH  27  33
ENDBRANCH  16  27
BRANCH  25  37
ATOM     37  S   UNL A   1      44.582  25.242  25.758  1.00  0.00    -0.118 SA
BRANCH  37  38
ATOM     38  C   UNL A   1      46.112  25.542  26.786  1.00  0.00     0.012 C 
BRANCH  38  39
ATOM     39  C   UNL A   1      47.382  25.293  25.967  1.00  0.00    -0.051 C 
ATOM     40  H   UNL A   1      47.479  26.053  25.220  1.00  0.00     0.024 H 
ATOM     41  H   UNL A   1      47.320  24.335  25.495  1.00  0.00     0.024 H 
ATOM     42  H   UNL A   1      48.234  25.317  26.614  1.00  0.00     0.024 H 
ENDBRANCH  38  39
BRANCH  38  43
ATOM     43  C   UNL A   1      46.315  26.824  27.626  1.00  0.00    -0.051 C 
ATOM     44  H   UNL A   1      45.977  27.673  27.069  1.00  0.00     0.024 H 
ATOM     45  H   UNL A   1      47.353  26.939  27.856  1.00  0.00     0.024 H 
ATOM     46  H   UNL A   1      45.754  26.748  28.533  1.00  0.00     0.024 H 
ENDBRANCH  38  43
BRANCH  38  47
ATOM     47  C   UNL A   1      45.989  24.459  27.893  1.00  0.00    -0.051 C 
ATOM     48  H   UNL A   1      46.622  23.630  27.652  1.00  0.00     0.024 H 
ATOM     49  H   UNL A   1      44.973  24.126  27.953  1.00  0.00     0.024 H 
ATOM     50  H   UNL A   1      46.285  24.873  28.833  1.00  0.00     0.024 H 
ENDBRANCH  38  47
ENDBRANCH  37  38
ENDBRANCH  25  37
BRANCH  26  51
ATOM     51  C   UNL A   1      40.202  22.718  27.624  1.00  0.00     0.048 C 
ATOM     52  H   UNL A   1      39.947  23.502  28.306  1.00  0.00     0.055 H 
ATOM     53  H   UNL A   1      40.191  21.727  28.025  1.00  0.00     0.055 H 
BRANCH  51  54
ATOM     54  C   UNL A   1      39.134  22.698  26.543  1.00  0.00    -0.028 A 
ATOM     55  C   UNL A   1      38.378  23.853  26.250  1.00  0.00    -0.056 A 
ATOM     56  C   UNL A   1      38.841  21.529  25.820  1.00  0.00    -0.056 A 
ATOM     57  C   UNL A   1      37.252  23.793  25.422  1.00  0.00    -0.043 A 
ATOM     58  H   UNL A   1      38.662  24.758  26.654  1.00  0.00     0.063 H 
ATOM     59  C   UNL A   1      37.742  21.482  24.947  1.00  0.00    -0.043 A 
ATOM     60  H   UNL A   1      39.441  20.697  25.932  1.00  0.00     0.063 H 
ATOM     61  C   UNL A   1      36.924  22.599  24.794  1.00  0.00     0.041 A 
ATOM     62  H   UNL A   1      36.668  24.633  25.280  1.00  0.00     0.064 H 
ATOM     63  H   UNL A   1      37.541  20.619  24.417  1.00  0.00     0.064 H 
ATOM     64  Cl  UNL A   1      35.481  22.497  23.860  1.00  0.00    -0.084 Cl
ENDBRANCH  51  54
ENDBRANCH  26  51
ENDBRANCH  12  15
ENDBRANCH  11  12
BRANCH  11  65
ATOM     65  C   UNL A   1      40.980  26.351  26.147  1.00  0.00    -0.051 C 
ATOM     66  H   UNL A   1      41.037  25.338  25.806  1.00  0.00     0.024 H 
ATOM     67  H   UNL A   1      41.756  26.926  25.688  1.00  0.00     0.024 H 
ATOM     68  H   UNL A   1      40.028  26.762  25.884  1.00  0.00     0.024 H 
ENDBRANCH  11  65
BRANCH  11  69
ATOM     69  C   UNL A   1      39.887  26.298  28.595  1.00  0.00    -0.051 C 
ATOM     70  H   UNL A   1      40.085  25.642  29.417  1.00  0.00     0.024 H 
ATOM     71  H   UNL A   1      39.064  25.918  28.025  1.00  0.00     0.024 H 
ATOM     72  H   UNL A   1      39.644  27.272  28.966  1.00  0.00     0.024 H 
ENDBRANCH  11  69
ENDBRANCH   8  11
ENDBRANCH   4   7
ENDBRANCH   1   4
BRANCH   1  73
ATOM     73  C   UNL A   1      37.516  29.317  28.578  1.00  0.00    -0.052 C 
ATOM     74  H   UNL A   1      37.220  29.946  29.391  1.00  0.00     0.027 H 
ATOM     75  H   UNL A   1      37.812  28.341  28.900  1.00  0.00     0.027 H 
BRANCH  73  76
ATOM     76  C   UNL A   1      36.311  29.134  27.647  1.00  0.00    -0.052 C 
ATOM     77  H   UNL A   1      35.631  28.451  28.113  1.00  0.00     0.027 H 
ATOM     78  H   UNL A   1      36.701  28.774  26.718  1.00  0.00     0.027 H 
BRANCH  76  79
ATOM     79  C   UNL A   1      35.544  30.423  27.322  1.00  0.00    -0.036 C 
ATOM     80  H   UNL A   1      35.399  30.472  26.263  1.00  0.00     0.028 H 
ATOM     81  H   UNL A   1      36.129  31.238  27.692  1.00  0.00     0.028 H 
BRANCH  79  82
ATOM     82  C   UNL A   1      34.176  30.512  28.000  1.00  0.00     0.018 C 
ATOM     83  H   UNL A   1      34.179  29.876  28.861  1.00  0.00     0.049 H 
ATOM     84  H   UNL A   1      33.441  30.208  27.283  1.00  0.00     0.049 H 
BRANCH  82  85
ATOM     85  N   UNL A   1      33.842  31.853  28.421  1.00  0.00    -0.352 N 
ATOM     86  C   UNL A   1      34.476  32.808  29.160  1.00  0.00     0.251 C 
ATOM     87  H   UNL A   1      32.957  32.144  28.102  1.00  0.00     0.163 HD
ATOM     88  O   UNL A   1      33.836  33.835  29.391  1.00  0.00    -0.269 OA
BRANCH  86  89
ATOM     89  C   UNL A   1      35.844  32.669  29.721  1.00  0.00     0.039 A 
ATOM     90  C   UNL A   1      37.003  33.237  29.189  1.00  0.00    -0.049 A 
ATOM     91  C   UNL A   1      35.952  31.899  30.892  1.00  0.00    -0.049 A 
ATOM     92  C   UNL A   1      38.243  32.981  29.756  1.00  0.00    -0.053 A 
ATOM     93  H   UNL A   1      36.935  33.855  28.365  1.00  0.00     0.063 H 
ATOM     94  C   UNL A   1      37.185  31.676  31.491  1.00  0.00    -0.053 A 
ATOM     95  H   UNL A   1      35.102  31.494  31.314  1.00  0.00     0.063 H 
ATOM     96  C   UNL A   1      38.337  32.187  30.897  1.00  0.00    -0.014 A 
ATOM     97  H   UNL A   1      39.097  33.379  29.333  1.00  0.00     0.063 H 
ATOM     98  H   UNL A   1      37.248  31.135  32.368  1.00  0.00     0.063 H 
BRANCH  96  99
ATOM     99  C   UNL A   1      39.663  32.004  31.478  1.00  0.00     0.031 A 
ATOM    100  C   UNL A   1      40.217  33.177  32.219  1.00  0.00     0.074 A 
ATOM    101  C   UNL A   1      40.306  30.822  31.463  1.00  0.00     0.049 A 
ATOM    102  N   UNL A   1      41.356  33.773  32.058  1.00  0.00    -0.248 NA
ATOM    103  C   UNL A   1      39.353  33.803  33.235  1.00  0.00    -0.034 C 
ATOM    104  C   UNL A   1      39.782  29.523  31.031  1.00  0.00    -0.036 A 
ATOM    105  N   UNL A   1      41.544  30.515  31.945  1.00  0.00    -0.354 N 
ATOM    106  C   UNL A   1      41.418  34.759  33.043  1.00  0.00     0.074 A 
ATOM    107  C   UNL A   1      40.126  34.794  33.678  1.00  0.00    -0.034 C 
ATOM    108  H   UNL A   1      38.398  33.543  33.527  1.00  0.00     0.065 H 
ATOM    109  C   UNL A   1      40.597  28.546  31.482  1.00  0.00    -0.036 A 
ATOM    110  H   UNL A   1      38.927  29.378  30.472  1.00  0.00     0.065 H 
ATOM    111  C   UNL A   1      41.758  29.156  32.107  1.00  0.00     0.049 A 
ATOM    112  H   UNL A   1      42.222  31.197  32.159  1.00  0.00     0.167 HD
ATOM    113  C   UNL A   1      42.581  35.368  33.399  1.00  0.00     0.037 A 
ATOM    114  H   UNL A   1      39.838  35.492  34.382  1.00  0.00     0.065 H 
ATOM    115  H   UNL A   1      40.425  27.532  31.398  1.00  0.00     0.065 H 
ATOM    116  C   UNL A   1      42.778  28.577  32.781  1.00  0.00     0.037 A 
ATOM    117  C   UNL A   1      43.602  35.221  32.404  1.00  0.00     0.049 A 
ATOM    118  C   UNL A   1      43.874  29.566  32.888  1.00  0.00     0.074 A 
ATOM    119  C   UNL A   1      43.795  35.682  31.120  1.00  0.00    -0.036 A 
ATOM    120  N   UNL A   1      44.531  34.235  32.601  1.00  0.00    -0.354 N 
ATOM    121  N   UNL A   1      44.589  29.993  31.885  1.00  0.00    -0.248 NA
ATOM    122  C   UNL A   1      43.983  30.354  34.108  1.00  0.00    -0.034 C 
ATOM    123  C   UNL A   1      44.551  34.667  30.463  1.00  0.00    -0.036 A 
ATOM    124  H   UNL A   1      43.462  36.573  30.719  1.00  0.00     0.065 H 
ATOM    125  C   UNL A   1      44.791  33.651  31.388  1.00  0.00     0.049 A 
ATOM    126  H   UNL A   1      44.942  33.989  33.461  1.00  0.00     0.167 HD
ATOM    127  C   UNL A   1      44.896  31.303  32.205  1.00  0.00     0.074 A 
ATOM    128  C   UNL A   1      44.637  31.416  33.634  1.00  0.00    -0.034 C 
ATOM    129  H   UNL A   1      43.649  30.151  35.063  1.00  0.00     0.065 H 
ATOM    130  H   UNL A   1      44.865  34.682  29.480  1.00  0.00     0.065 H 
ATOM    131  C   UNL A   1      45.058  32.240  31.227  1.00  0.00     0.037 A 
ATOM    132  H   UNL A   1      44.925  32.221  34.211  1.00  0.00     0.065 H 
BRANCH 113 133
ATOM    133  C   UNL A   1      42.894  35.820  34.800  1.00  0.00     0.064 A 
ATOM    134  C   UNL A   1      43.153  37.178  35.067  1.00  0.00     0.173 A 
ATOM    135  C   UNL A   1      43.235  34.916  35.829  1.00  0.00     0.173 A 
ATOM    136  F   UNL A   1      42.910  38.115  34.139  1.00  0.00    -0.203 F 
ATOM    137  C   UNL A   1      43.744  37.593  36.266  1.00  0.00     0.198 A 
ATOM    138  C   UNL A   1      43.777  35.337  37.042  1.00  0.00     0.198 A 
ATOM    139  F   UNL A   1      43.157  33.590  35.652  1.00  0.00    -0.203 F 
ATOM    140  F   UNL A   1      44.068  38.882  36.438  1.00  0.00    -0.200 F 
ATOM    141  C   UNL A   1      44.054  36.672  37.251  1.00  0.00     0.200 A 
ATOM    142  F   UNL A   1      44.097  34.428  37.973  1.00  0.00    -0.200 F 
ATOM    143  F   UNL A   1      44.663  37.062  38.379  1.00  0.00    -0.200 F 
ENDBRANCH 113 133
BRANCH 116 144
ATOM    144  C   UNL A   1      42.746  27.341  33.593  1.00  0.00     0.064 A 
ATOM    145  C   UNL A   1      43.650  26.296  33.348  1.00  0.00     0.173 A 
ATOM    146  C   UNL A   1      42.023  27.277  34.801  1.00  0.00     0.173 A 
ATOM    147  F   UNL A   1      44.407  26.305  32.241  1.00  0.00    -0.203 F 
ATOM    148  C   UNL A   1      43.847  25.267  34.274  1.00  0.00     0.198 A 
ATOM    149  C   UNL A   1      42.211  26.243  35.718  1.00  0.00     0.198 A 
ATOM    150  F   UNL A   1      41.194  28.267  35.164  1.00  0.00    -0.203 F 
ATOM    151  F   UNL A   1      44.773  24.327  34.039  1.00  0.00    -0.200 F 
ATOM    152  C   UNL A   1      43.136  25.248  35.462  1.00  0.00     0.200 A 
ATOM    153  F   UNL A   1      41.541  26.255  36.879  1.00  0.00    -0.200 F 
ATOM    154  F   UNL A   1      43.372  24.299  36.379  1.00  0.00    -0.200 F 
ENDBRANCH 116 144
BRANCH 131 155
ATOM    155  C   UNL A   1      45.279  31.744  29.827  1.00  0.00     0.064 A 
ATOM    156  C   UNL A   1      44.246  31.506  28.905  1.00  0.00     0.173 A 
ATOM    157  C   UNL A   1      46.598  31.621  29.367  1.00  0.00     0.173 A 
ATOM    158  F   UNL A   1      42.964  31.701  29.240  1.00  0.00    -0.203 F 
ATOM    159  C   UNL A   1      44.524  31.113  27.597  1.00  0.00     0.198 A 
ATOM    160  C   UNL A   1      46.872  31.268  28.049  1.00  0.00     0.198 A 
ATOM    161  F   UNL A   1      47.624  31.893  30.189  1.00  0.00    -0.203 F 
ATOM    162  F   UNL A   1      43.521  30.874  26.739  1.00  0.00    -0.200 F 
ATOM    163  C   UNL A   1      45.836  31.002  27.169  1.00  0.00     0.200 A 
ATOM    164  F   UNL A   1      48.143  31.212  27.626  1.00  0.00    -0.200 F 
ATOM    165  F   UNL A   1      46.104  30.666  25.899  1.00  0.00    -0.200 F 
ENDBRANCH 131 155
ENDBRANCH  96  99
ENDBRANCH  86  89
ENDBRANCH  82  85
ENDBRANCH  79  82
ENDBRANCH  76  79
ENDBRANCH  73  76
ENDBRANCH   1  73
TORSDOF 27
ENDMDL
MODEL 4
REMARK VINA RESULT:     -10.5      5.596     10.783
REMARK SMILES CC(C)c1ccc2c(c1)c(SC(C)(C)C)c(CC(C)(C)C(=O)NCCCCCCNC(=O)c1ccc(-c3c4nc(c(-c5c(F)c(F)c(F)c(F)c5F)c5ccc([nH]5)c(-c5c(F)c(F)c(F)c(F)c5F)c5nc(c(-c6c(F)c(F)c(F)c(F)c6F)c6ccc3[nH]6)C=C5)C=C4)cc1)n2Cc1ccc(Cl)cc1
REMARK SMILES IDX 25 1 24 4 23 7 21 8 22 9 18 11 17 12 16 15 4 16 5 17 9 18
REMARK SMILES IDX 6 19 8 21 7 23 10 25 96 26 2 27 1 29 3 33 11 37 12 38 13 39
REMARK SMILES IDX 14 43 15 47 97 51 98 54 99 55 104 56 100 57 103 59 101 61
REMARK SMILES IDX 102 64 19 65 20 69 26 73 27 76 28 79 29 82 30 85 31 86 32 88
REMARK SMILES IDX 33 89 34 90 95 91 35 92 94 94 36 96 37 99 38 100 88 101
REMARK SMILES IDX 39 102 93 103 87 104 89 105 40 106 92 107 86 109 85 111
REMARK SMILES IDX 41 113 73 116 53 117 72 118 54 119 57 120 71 121 90 122
REMARK SMILES IDX 55 123 56 125 70 127 91 128 58 131 42 133 43 134 51 135
REMARK SMILES IDX 44 136 45 137 49 138 52 139 46 140 47 141 50 142 48 143
REMARK SMILES IDX 74 144 75 145 83 146 76 147 77 148 81 149 84 150 78 151
REMARK SMILES IDX 79 152 82 153 80 154 59 155 60 156 68 157 61 158 62 159
REMARK SMILES IDX 66 160 69 161 63 162 64 163 67 164 65 165
REMARK H PARENT 25 2 25 3 24 5 24 6 23 10 17 13 17 14 5 20 9 22 6 24 2 28 1 30
REMARK H PARENT 1 31 1 32 3 34 3 35 3 36 13 40 13 41 13 42 14 44 14 45 14 46
REMARK H PARENT 15 48 15 49 15 50 97 52 97 53 99 58 104 60 100 62 103 63 19 66
REMARK H PARENT 19 67 19 68 20 70 20 71 20 72 26 74 26 75 27 77 27 78 28 80
REMARK H PARENT 28 81 29 83 29 84 30 87 34 93 95 95 35 97 94 98 93 108 87 110
REMARK H PARENT 89 112 92 114 86 115 54 124 57 126 90 129 55 130 91 132
REMARK Flexibility Score: inf
ROOT
ATOM      1  C   UNL A   1      36.896  30.958  32.704  1.00  0.00    -0.036 C 
ATOM      2  H   UNL A   1      36.468  30.008  32.948  1.00  0.00     0.028 H 
ATOM      3  H   UNL A   1      37.201  30.985  31.679  1.00  0.00     0.028 H 
ENDROOT
BRANCH   1   4
ATOM      4  C   UNL A   1      38.113  31.184  33.568  1.00  0.00     0.017 C 
ATOM      5  H   UNL A   1      38.973  30.798  33.061  1.00  0.00     0.049 H 
ATOM      6  H   UNL A   1      38.205  32.236  33.741  1.00  0.00     0.049 H 
BRANCH   4   7
ATOM      7  N   UNL A   1      37.994  30.527  34.853  1.00  0.00    -0.356 N 
ATOM      8  C   UNL A   1      38.184  31.054  36.104  1.00  0.00     0.226 C 
ATOM      9  O   UNL A   1      37.652  30.462  37.034  1.00  0.00    -0.275 OA
ATOM     10  H   UNL A   1      37.743  29.575  34.824  1.00  0.00     0.163 HD
BRANCH   8  11
ATOM     11  C   UNL A   1      38.821  32.443  36.231  1.00  0.00     0.049 C 
BRANCH  11  12
ATOM     12  C   UNL A   1      40.327  32.585  35.851  1.00  0.00     0.003 C 
ATOM     13  H   UNL A   1      40.900  32.434  36.742  1.00  0.00     0.034 H 
ATOM     14  H   UNL A   1      40.485  31.861  35.080  1.00  0.00     0.034 H 
BRANCH  12  15
ATOM     15  C   UNL A   1      40.756  33.862  35.263  1.00  0.00     0.034 A 
ATOM     16  C   UNL A   1      43.140  37.706  34.193  1.00  0.00    -0.045 A 
ATOM     17  C   UNL A   1      43.442  36.899  33.089  1.00  0.00    -0.057 A 
ATOM     18  C   UNL A   1      42.211  37.202  35.129  1.00  0.00    -0.048 A 
ATOM     19  C   UNL A   1      42.871  35.632  32.908  1.00  0.00    -0.037 A 
ATOM     20  H   UNL A   1      44.109  37.250  32.384  1.00  0.00     0.063 H 
ATOM     21  C   UNL A   1      41.621  35.915  34.992  1.00  0.00     0.014 A 
ATOM     22  H   UNL A   1      41.951  37.787  35.938  1.00  0.00     0.063 H 
ATOM     23  C   UNL A   1      41.992  35.144  33.885  1.00  0.00     0.050 A 
ATOM     24  H   UNL A   1      43.095  35.069  32.072  1.00  0.00     0.065 H 
ATOM     25  C   UNL A   1      40.709  35.140  35.804  1.00  0.00     0.037 A 
ATOM     26  N   UNL A   1      41.348  33.922  34.002  1.00  0.00    -0.339 N 
BRANCH  16  27
ATOM     27  C   UNL A   1      43.881  39.023  34.444  1.00  0.00    -0.022 C 
ATOM     28  H   UNL A   1      43.072  39.706  34.600  1.00  0.00     0.035 H 
BRANCH  27  29
ATOM     29  C   UNL A   1      44.779  39.022  35.692  1.00  0.00    -0.059 C 
ATOM     30  H   UNL A   1      44.827  40.011  36.097  1.00  0.00     0.024 H 
ATOM     31  H   UNL A   1      45.763  38.697  35.424  1.00  0.00     0.024 H 
ATOM     32  H   UNL A   1      44.371  38.357  36.424  1.00  0.00     0.024 H 
ENDBRANCH  27  29
BRANCH  27  33
ATOM     33  C   UNL A   1      44.728  39.500  33.253  1.00  0.00    -0.059 C 
ATOM     34  H   UNL A   1      44.958  40.538  33.372  1.00  0.00     0.024 H 
ATOM     35  H   UNL A   1      44.181  39.357  32.346  1.00  0.00     0.024 H 
ATOM     36  H   UNL A   1      45.637  38.936  33.214  1.00  0.00     0.024 H 
ENDBRANCH  27  33
ENDBRANCH  16  27
BRANCH  25  37
ATOM     37  S   UNL A   1      40.036  35.812  37.310  1.00  0.00    -0.118 SA
BRANCH  37  38
ATOM     38  C   UNL A   1      41.088  35.896  38.850  1.00  0.00     0.012 C 
BRANCH  38  39
ATOM     39  C   UNL A   1      42.209  36.927  38.694  1.00  0.00    -0.051 C 
ATOM     40  H   UNL A   1      41.838  37.899  38.946  1.00  0.00     0.024 H 
ATOM     41  H   UNL A   1      42.554  36.929  37.681  1.00  0.00     0.024 H 
ATOM     42  H   UNL A   1      43.019  36.676  39.346  1.00  0.00     0.024 H 
ENDBRANCH  38  39
BRANCH  38  43
ATOM     43  C   UNL A   1      40.485  36.040  40.267  1.00  0.00    -0.051 C 
ATOM     44  H   UNL A   1      40.675  35.149  40.827  1.00  0.00     0.024 H 
ATOM     45  H   UNL A   1      39.429  36.196  40.191  1.00  0.00     0.024 H 
ATOM     46  H   UNL A   1      40.934  36.874  40.762  1.00  0.00     0.024 H 
ENDBRANCH  38  43
BRANCH  38  47
ATOM     47  C   UNL A   1      41.702  34.470  38.914  1.00  0.00    -0.051 C 
ATOM     48  H   UNL A   1      40.985  33.792  39.329  1.00  0.00     0.024 H 
ATOM     49  H   UNL A   1      42.576  34.486  39.530  1.00  0.00     0.024 H 
ATOM     50  H   UNL A   1      41.965  34.150  37.927  1.00  0.00     0.024 H 
ENDBRANCH  38  47
ENDBRANCH  37  38
ENDBRANCH  25  37
BRANCH  26  51
ATOM     51  C   UNL A   1      41.161  32.973  32.870  1.00  0.00     0.048 C 
ATOM     52  H   UNL A   1      40.237  32.460  33.036  1.00  0.00     0.055 H 
ATOM     53  H   UNL A   1      42.042  32.367  32.884  1.00  0.00     0.055 H 
BRANCH  51  54
ATOM     54  C   UNL A   1      41.115  33.538  31.459  1.00  0.00    -0.028 A 
ATOM     55  C   UNL A   1      42.219  33.405  30.591  1.00  0.00    -0.056 A 
ATOM     56  C   UNL A   1      39.991  34.233  30.981  1.00  0.00    -0.056 A 
ATOM     57  C   UNL A   1      42.278  34.103  29.380  1.00  0.00    -0.043 A 
ATOM     58  H   UNL A   1      42.996  32.780  30.853  1.00  0.00     0.063 H 
ATOM     59  C   UNL A   1      40.029  34.891  29.741  1.00  0.00    -0.043 A 
ATOM     60  H   UNL A   1      39.129  34.260  31.548  1.00  0.00     0.063 H 
ATOM     61  C   UNL A   1      41.191  34.866  28.973  1.00  0.00     0.041 A 
ATOM     62  H   UNL A   1      43.126  34.052  28.793  1.00  0.00     0.064 H 
ATOM     63  H   UNL A   1      39.195  35.394  29.399  1.00  0.00     0.064 H 
ATOM     64  Cl  UNL A   1      41.302  35.808  27.536  1.00  0.00    -0.084 Cl
ENDBRANCH  51  54
ENDBRANCH  26  51
ENDBRANCH  12  15
ENDBRANCH  11  12
BRANCH  11  65
ATOM     65  C   UNL A   1      38.583  32.649  37.748  1.00  0.00    -0.051 C 
ATOM     66  H   UNL A   1      37.573  32.965  37.911  1.00  0.00     0.024 H 
ATOM     67  H   UNL A   1      39.254  33.396  38.116  1.00  0.00     0.024 H 
ATOM     68  H   UNL A   1      38.756  31.728  38.264  1.00  0.00     0.024 H 
ENDBRANCH  11  65
BRANCH  11  69
ATOM     69  C   UNL A   1      38.139  33.407  35.215  1.00  0.00    -0.051 C 
ATOM     70  H   UNL A   1      38.028  34.374  35.660  1.00  0.00     0.024 H 
ATOM     71  H   UNL A   1      37.176  33.023  34.949  1.00  0.00     0.024 H 
ATOM     72  H   UNL A   1      38.746  33.487  34.337  1.00  0.00     0.024 H 
ENDBRANCH  11  69
ENDBRANCH   8  11
ENDBRANCH   4   7
ENDBRANCH   1   4
BRANCH   1  73
ATOM     73  C   UNL A   1      35.852  32.042  32.923  1.00  0.00    -0.052 C 
ATOM     74  H   UNL A   1      36.359  32.964  33.118  1.00  0.00     0.027 H 
ATOM     75  H   UNL A   1      35.244  31.726  33.744  1.00  0.00     0.027 H 
BRANCH  73  76
ATOM     76  C   UNL A   1      34.913  32.252  31.728  1.00  0.00    -0.052 C 
ATOM     77  H   UNL A   1      33.957  31.842  31.980  1.00  0.00     0.027 H 
ATOM     78  H   UNL A   1      35.376  31.766  30.894  1.00  0.00     0.027 H 
BRANCH  76  79
ATOM     79  C   UNL A   1      34.710  33.716  31.315  1.00  0.00    -0.036 C 
ATOM     80  H   UNL A   1      35.299  34.334  31.961  1.00  0.00     0.028 H 
ATOM     81  H   UNL A   1      33.664  33.922  31.396  1.00  0.00     0.028 H 
BRANCH  79  82
ATOM     82  C   UNL A   1      35.113  34.009  29.869  1.00  0.00     0.018 C 
ATOM     83  H   UNL A   1      36.180  33.971  29.797  1.00  0.00     0.049 H 
ATOM     84  H   UNL A   1      34.731  34.977  29.619  1.00  0.00     0.049 H 
BRANCH  82  85
ATOM     85  N   UNL A   1      34.554  33.067  28.927  1.00  0.00    -0.352 N 
ATOM     86  C   UNL A   1      35.012  31.930  28.328  1.00  0.00     0.251 C 
ATOM     87  H   UNL A   1      33.636  33.297  28.656  1.00  0.00     0.163 HD
ATOM     88  O   UNL A   1      34.268  31.414  27.492  1.00  0.00    -0.269 OA
BRANCH  86  89
ATOM     89  C   UNL A   1      36.337  31.313  28.591  1.00  0.00     0.039 A 
ATOM     90  C   UNL A   1      37.463  31.979  29.078  1.00  0.00    -0.049 A 
ATOM     91  C   UNL A   1      36.436  29.937  28.325  1.00  0.00    -0.049 A 
ATOM     92  C   UNL A   1      38.674  31.317  29.219  1.00  0.00    -0.053 A 
ATOM     93  H   UNL A   1      37.393  32.975  29.337  1.00  0.00     0.063 H 
ATOM     94  C   UNL A   1      37.634  29.256  28.506  1.00  0.00    -0.053 A 
ATOM     95  H   UNL A   1      35.606  29.423  27.990  1.00  0.00     0.063 H 
ATOM     96  C   UNL A   1      38.764  29.959  28.917  1.00  0.00    -0.014 A 
ATOM     97  H   UNL A   1      39.508  31.828  29.547  1.00  0.00     0.063 H 
ATOM     98  H   UNL A   1      37.686  28.239  28.337  1.00  0.00     0.063 H 
BRANCH  96  99
ATOM     99  C   UNL A   1      40.051  29.308  29.142  1.00  0.00     0.031 A 
ATOM    100  C   UNL A   1      40.409  29.049  30.569  1.00  0.00     0.074 A 
ATOM    101  C   UNL A   1      40.819  28.852  28.135  1.00  0.00     0.049 A 
ATOM    102  N   UNL A   1      41.485  29.385  31.208  1.00  0.00    -0.248 NA
ATOM    103  C   UNL A   1      39.402  28.375  31.406  1.00  0.00    -0.034 C 
ATOM    104  C   UNL A   1      40.479  28.777  26.712  1.00  0.00    -0.036 A 
ATOM    105  N   UNL A   1      42.040  28.249  28.198  1.00  0.00    -0.354 N 
ATOM    106  C   UNL A   1      41.357  28.846  32.488  1.00  0.00     0.074 A 
ATOM    107  C   UNL A   1      40.022  28.315  32.584  1.00  0.00    -0.034 C 
ATOM    108  H   UNL A   1      38.461  28.039  31.148  1.00  0.00     0.065 H 
ATOM    109  C   UNL A   1      41.359  27.962  26.090  1.00  0.00    -0.036 A 
ATOM    110  H   UNL A   1      39.694  29.268  26.257  1.00  0.00     0.065 H 
ATOM    111  C   UNL A   1      42.390  27.576  27.038  1.00  0.00     0.049 A 
ATOM    112  H   UNL A   1      42.619  28.286  28.994  1.00  0.00     0.167 HD
ATOM    113  C   UNL A   1      42.412  28.709  33.334  1.00  0.00     0.037 A 
ATOM    114  H   UNL A   1      39.602  27.938  33.449  1.00  0.00     0.065 H 
ATOM    115  H   UNL A   1      41.307  27.661  25.104  1.00  0.00     0.065 H 
ATOM    116  C   UNL A   1      43.410  26.699  26.892  1.00  0.00     0.037 A 
ATOM    117  C   UNL A   1      43.521  29.538  32.966  1.00  0.00     0.049 A 
ATOM    118  C   UNL A   1      44.377  26.938  27.987  1.00  0.00     0.074 A 
ATOM    119  C   UNL A   1      43.766  30.895  32.938  1.00  0.00    -0.036 A 
ATOM    120  N   UNL A   1      44.535  28.951  32.257  1.00  0.00    -0.354 N 
ATOM    121  N   UNL A   1      45.119  28.003  28.101  1.00  0.00    -0.248 NA
ATOM    122  C   UNL A   1      44.298  26.105  29.179  1.00  0.00    -0.034 C 
ATOM    123  C   UNL A   1      44.680  31.091  31.862  1.00  0.00    -0.036 A 
ATOM    124  H   UNL A   1      43.370  31.614  33.562  1.00  0.00     0.065 H 
ATOM    125  C   UNL A   1      44.955  29.842  31.304  1.00  0.00     0.049 A 
ATOM    126  H   UNL A   1      44.898  28.049  32.405  1.00  0.00     0.167 HD
ATOM    127  C   UNL A   1      45.252  28.194  29.465  1.00  0.00     0.074 A 
ATOM    128  C   UNL A   1      44.868  26.924  30.065  1.00  0.00    -0.034 C 
ATOM    129  H   UNL A   1      43.912  25.156  29.303  1.00  0.00     0.065 H 
ATOM    130  H   UNL A   1      45.070  31.995  31.552  1.00  0.00     0.065 H 
ATOM    131  C   UNL A   1      45.389  29.448  29.983  1.00  0.00     0.037 A 
ATOM    132  H   UNL A   1      45.017  26.685  31.057  1.00  0.00     0.065 H 
BRANCH 113 133
ATOM    133  C   UNL A   1      42.558  27.573  34.313  1.00  0.00     0.064 A 
ATOM    134  C   UNL A   1      43.069  26.332  33.888  1.00  0.00     0.173 A 
ATOM    135  C   UNL A   1      41.936  27.581  35.579  1.00  0.00     0.173 A 
ATOM    136  F   UNL A   1      43.638  26.204  32.680  1.00  0.00    -0.203 F 
ATOM    137  C   UNL A   1      42.935  25.176  34.664  1.00  0.00     0.198 A 
ATOM    138  C   UNL A   1      41.847  26.438  36.372  1.00  0.00     0.198 A 
ATOM    139  F   UNL A   1      41.298  28.665  36.041  1.00  0.00    -0.203 F 
ATOM    140  F   UNL A   1      43.344  23.995  34.180  1.00  0.00    -0.200 F 
ATOM    141  C   UNL A   1      42.324  25.231  35.906  1.00  0.00     0.200 A 
ATOM    142  F   UNL A   1      41.227  26.505  37.559  1.00  0.00    -0.200 F 
ATOM    143  F   UNL A   1      42.151  24.117  36.629  1.00  0.00    -0.200 F 
ENDBRANCH 113 133
BRANCH 116 144
ATOM    144  C   UNL A   1      43.448  25.480  26.054  1.00  0.00     0.064 A 
ATOM    145  C   UNL A   1      44.572  25.185  25.268  1.00  0.00     0.173 A 
ATOM    146  C   UNL A   1      42.510  24.443  26.226  1.00  0.00     0.173 A 
ATOM    147  F   UNL A   1      45.532  26.104  25.090  1.00  0.00    -0.203 F 
ATOM    148  C   UNL A   1      44.765  23.915  24.716  1.00  0.00     0.198 A 
ATOM    149  C   UNL A   1      42.697  23.181  25.665  1.00  0.00     0.198 A 
ATOM    150  F   UNL A   1      41.444  24.601  27.024  1.00  0.00    -0.203 F 
ATOM    151  F   UNL A   1      45.887  23.647  24.033  1.00  0.00    -0.200 F 
ATOM    152  C   UNL A   1      43.833  22.911  24.925  1.00  0.00     0.200 A 
ATOM    153  F   UNL A   1      41.804  22.209  25.903  1.00  0.00    -0.200 F 
ATOM    154  F   UNL A   1      44.049  21.676  24.453  1.00  0.00    -0.200 F 
ENDBRANCH 116 144
BRANCH 131 155
ATOM    155  C   UNL A   1      45.776  30.547  29.036  1.00  0.00     0.064 A 
ATOM    156  C   UNL A   1      47.103  30.873  28.710  1.00  0.00     0.173 A 
ATOM    157  C   UNL A   1      44.756  31.215  28.344  1.00  0.00     0.173 A 
ATOM    158  F   UNL A   1      48.130  30.208  29.254  1.00  0.00    -0.203 F 
ATOM    159  C   UNL A   1      47.392  31.859  27.768  1.00  0.00     0.198 A 
ATOM    160  C   UNL A   1      45.049  32.170  27.375  1.00  0.00     0.198 A 
ATOM    161  F   UNL A   1      43.472  30.902  28.573  1.00  0.00    -0.203 F 
ATOM    162  F   UNL A   1      48.667  32.165  27.485  1.00  0.00    -0.200 F 
ATOM    163  C   UNL A   1      46.365  32.501  27.097  1.00  0.00     0.200 A 
ATOM    164  F   UNL A   1      44.053  32.751  26.691  1.00  0.00    -0.200 F 
ATOM    165  F   UNL A   1      46.643  33.419  26.161  1.00  0.00    -0.200 F 
ENDBRANCH 131 155
ENDBRANCH  96  99
ENDBRANCH  86  89
ENDBRANCH  82  85
ENDBRANCH  79  82
ENDBRANCH  76  79
ENDBRANCH  73  76
ENDBRANCH   1  73
TORSDOF 27
ENDMDL
MODEL 5
REMARK VINA RESULT:     -10.4      3.473      9.032
REMARK SMILES CC(C)c1ccc2c(c1)c(SC(C)(C)C)c(CC(C)(C)C(=O)NCCCCCCNC(=O)c1ccc(-c3c4nc(c(-c5c(F)c(F)c(F)c(F)c5F)c5ccc([nH]5)c(-c5c(F)c(F)c(F)c(F)c5F)c5nc(c(-c6c(F)c(F)c(F)c(F)c6F)c6ccc3[nH]6)C=C5)C=C4)cc1)n2Cc1ccc(Cl)cc1
REMARK SMILES IDX 25 1 24 4 23 7 21 8 22 9 18 11 17 12 16 15 4 16 5 17 9 18
REMARK SMILES IDX 6 19 8 21 7 23 10 25 96 26 2 27 1 29 3 33 11 37 12 38 13 39
REMARK SMILES IDX 14 43 15 47 97 51 98 54 99 55 104 56 100 57 103 59 101 61
REMARK SMILES IDX 102 64 19 65 20 69 26 73 27 76 28 79 29 82 30 85 31 86 32 88
REMARK SMILES IDX 33 89 34 90 95 91 35 92 94 94 36 96 37 99 38 100 88 101
REMARK SMILES IDX 39 102 93 103 87 104 89 105 40 106 92 107 86 109 85 111
REMARK SMILES IDX 41 113 73 116 53 117 72 118 54 119 57 120 71 121 90 122
REMARK SMILES IDX 55 123 56 125 70 127 91 128 58 131 42 133 43 134 51 135
REMARK SMILES IDX 44 136 45 137 49 138 52 139 46 140 47 141 50 142 48 143
REMARK SMILES IDX 74 144 75 145 83 146 76 147 77 148 81 149 84 150 78 151
REMARK SMILES IDX 79 152 82 153 80 154 59 155 60 156 68 157 61 158 62 159
REMARK SMILES IDX 66 160 69 161 63 162 64 163 67 164 65 165
REMARK H PARENT 25 2 25 3 24 5 24 6 23 10 17 13 17 14 5 20 9 22 6 24 2 28 1 30
REMARK H PARENT 1 31 1 32 3 34 3 35 3 36 13 40 13 41 13 42 14 44 14 45 14 46
REMARK H PARENT 15 48 15 49 15 50 97 52 97 53 99 58 104 60 100 62 103 63 19 66
REMARK H PARENT 19 67 19 68 20 70 20 71 20 72 26 74 26 75 27 77 27 78 28 80
REMARK H PARENT 28 81 29 83 29 84 30 87 34 93 95 95 35 97 94 98 93 108 87 110
REMARK H PARENT 89 112 92 114 86 115 54 124 57 126 90 129 55 130 91 132
REMARK Flexibility Score: inf
ROOT
ATOM      1  C   UNL A   1      35.783  23.646  25.847  1.00  0.00    -0.036 C 
ATOM      2  H   UNL A   1      35.429  22.635  25.844  1.00  0.00     0.028 H 
ATOM      3  H   UNL A   1      35.871  24.014  26.847  1.00  0.00     0.028 H 
ENDROOT
BRANCH   1   4
ATOM      4  C   UNL A   1      34.795  24.513  25.105  1.00  0.00     0.017 C 
ATOM      5  H   UNL A   1      33.906  24.605  25.694  1.00  0.00     0.049 H 
ATOM      6  H   UNL A   1      35.251  25.467  24.941  1.00  0.00     0.049 H 
BRANCH   4   7
ATOM      7  N   UNL A   1      34.446  23.955  23.815  1.00  0.00    -0.356 N 
ATOM      8  C   UNL A   1      33.846  24.575  22.750  1.00  0.00     0.226 C 
ATOM      9  O   UNL A   1      34.009  24.056  21.653  1.00  0.00    -0.275 OA
ATOM     10  H   UNL A   1      34.669  23.005  23.687  1.00  0.00     0.163 HD
BRANCH   8  11
ATOM     11  C   UNL A   1      33.237  25.967  22.952  1.00  0.00     0.049 C 
BRANCH  11  12
ATOM     12  C   UNL A   1      32.467  26.233  24.282  1.00  0.00     0.003 C 
ATOM     13  H   UNL A   1      32.043  25.304  24.600  1.00  0.00     0.034 H 
ATOM     14  H   UNL A   1      33.197  26.651  24.943  1.00  0.00     0.034 H 
BRANCH  12  15
ATOM     15  C   UNL A   1      31.381  27.224  24.245  1.00  0.00     0.034 A 
ATOM     16  C   UNL A   1      28.458  30.596  22.948  1.00  0.00    -0.045 A 
ATOM     17  C   UNL A   1      27.666  29.465  22.716  1.00  0.00    -0.057 A 
ATOM     18  C   UNL A   1      29.719  30.393  23.551  1.00  0.00    -0.048 A 
ATOM     19  C   UNL A   1      28.093  28.171  23.044  1.00  0.00    -0.037 A 
ATOM     20  H   UNL A   1      26.735  29.589  22.288  1.00  0.00     0.063 H 
ATOM     21  C   UNL A   1      30.197  29.095  23.884  1.00  0.00     0.014 A 
ATOM     22  H   UNL A   1      30.311  31.211  23.757  1.00  0.00     0.063 H 
ATOM     23  C   UNL A   1      29.372  28.003  23.594  1.00  0.00     0.050 A 
ATOM     24  H   UNL A   1      27.478  27.358  22.884  1.00  0.00     0.065 H 
ATOM     25  C   UNL A   1      31.436  28.597  24.441  1.00  0.00     0.037 A 
ATOM     26  N   UNL A   1      30.071  26.857  23.942  1.00  0.00    -0.339 N 
BRANCH  16  27
ATOM     27  C   UNL A   1      28.032  31.982  22.453  1.00  0.00    -0.022 C 
ATOM     28  H   UNL A   1      27.018  32.037  22.793  1.00  0.00     0.035 H 
BRANCH  27  29
ATOM     29  C   UNL A   1      28.824  33.149  23.066  1.00  0.00    -0.059 C 
ATOM     30  H   UNL A   1      28.144  33.860  23.487  1.00  0.00     0.024 H 
ATOM     31  H   UNL A   1      29.409  33.623  22.304  1.00  0.00     0.024 H 
ATOM     32  H   UNL A   1      29.471  32.778  23.832  1.00  0.00     0.024 H 
ENDBRANCH  27  29
BRANCH  27  33
ATOM     33  C   UNL A   1      28.068  32.138  20.925  1.00  0.00    -0.059 C 
ATOM     34  H   UNL A   1      29.084  32.143  20.591  1.00  0.00     0.024 H 
ATOM     35  H   UNL A   1      27.596  33.057  20.650  1.00  0.00     0.024 H 
ATOM     36  H   UNL A   1      27.547  31.320  20.471  1.00  0.00     0.024 H 
ENDBRANCH  27  33
ENDBRANCH  16  27
BRANCH  25  37
ATOM     37  S   UNL A   1      32.733  29.719  24.921  1.00  0.00    -0.118 SA
BRANCH  37  38
ATOM     38  C   UNL A   1      33.212  29.882  26.719  1.00  0.00     0.012 C 
BRANCH  38  39
ATOM     39  C   UNL A   1      34.603  29.295  26.972  1.00  0.00    -0.051 C 
ATOM     40  H   UNL A   1      35.347  29.955  26.576  1.00  0.00     0.024 H 
ATOM     41  H   UNL A   1      34.681  28.342  26.493  1.00  0.00     0.024 H 
ATOM     42  H   UNL A   1      34.755  29.179  28.025  1.00  0.00     0.024 H 
ENDBRANCH  38  39
BRANCH  38  43
ATOM     43  C   UNL A   1      33.093  31.213  27.497  1.00  0.00    -0.051 C 
ATOM     44  H   UNL A   1      32.348  31.116  28.258  1.00  0.00     0.024 H 
ATOM     45  H   UNL A   1      32.816  31.996  26.823  1.00  0.00     0.024 H 
ATOM     46  H   UNL A   1      34.034  31.446  27.948  1.00  0.00     0.024 H 
ENDBRANCH  38  43
BRANCH  38  47
ATOM     47  C   UNL A   1      32.143  29.007  27.430  1.00  0.00    -0.051 C 
ATOM     48  H   UNL A   1      31.202  29.121  26.934  1.00  0.00     0.024 H 
ATOM     49  H   UNL A   1      32.049  29.317  28.449  1.00  0.00     0.024 H 
ATOM     50  H   UNL A   1      32.442  27.980  27.395  1.00  0.00     0.024 H 
ENDBRANCH  38  47
ENDBRANCH  37  38
ENDBRANCH  25  37
BRANCH  26  51
ATOM     51  C   UNL A   1      29.430  25.531  24.156  1.00  0.00     0.048 C 
ATOM     52  H   UNL A   1      28.871  25.302  23.273  1.00  0.00     0.055 H 
ATOM     53  H   UNL A   1      28.859  25.653  25.053  1.00  0.00     0.055 H 
BRANCH  51  54
ATOM     54  C   UNL A   1      30.327  24.337  24.442  1.00  0.00    -0.028 A 
ATOM     55  C   UNL A   1      30.720  23.463  23.406  1.00  0.00    -0.056 A 
ATOM     56  C   UNL A   1      30.769  24.044  25.743  1.00  0.00    -0.056 A 
ATOM     57  C   UNL A   1      31.355  22.248  23.684  1.00  0.00    -0.043 A 
ATOM     58  H   UNL A   1      30.537  23.726  22.426  1.00  0.00     0.063 H 
ATOM     59  C   UNL A   1      31.455  22.849  26.015  1.00  0.00    -0.043 A 
ATOM     60  H   UNL A   1      30.589  24.716  26.506  1.00  0.00     0.063 H 
ATOM     61  C   UNL A   1      31.696  21.934  24.993  1.00  0.00     0.041 A 
ATOM     62  H   UNL A   1      31.568  21.588  22.919  1.00  0.00     0.064 H 
ATOM     63  H   UNL A   1      31.779  22.648  26.975  1.00  0.00     0.064 H 
ATOM     64  Cl  UNL A   1      32.382  20.396  25.349  1.00  0.00    -0.084 Cl
ENDBRANCH  51  54
ENDBRANCH  26  51
ENDBRANCH  12  15
ENDBRANCH  11  12
BRANCH  11  65
ATOM     65  C   UNL A   1      32.293  25.968  21.724  1.00  0.00    -0.051 C 
ATOM     66  H   UNL A   1      32.876  25.980  20.826  1.00  0.00     0.024 H 
ATOM     67  H   UNL A   1      31.668  26.836  21.755  1.00  0.00     0.024 H 
ATOM     68  H   UNL A   1      31.685  25.089  21.742  1.00  0.00     0.024 H 
ENDBRANCH  11  65
BRANCH  11  69
ATOM     69  C   UNL A   1      34.387  27.016  23.030  1.00  0.00    -0.051 C 
ATOM     70  H   UNL A   1      34.589  27.249  24.055  1.00  0.00     0.024 H 
ATOM     71  H   UNL A   1      34.094  27.906  22.512  1.00  0.00     0.024 H 
ATOM     72  H   UNL A   1      35.269  26.613  22.576  1.00  0.00     0.024 H 
ENDBRANCH  11  69
ENDBRANCH   8  11
ENDBRANCH   4   7
ENDBRANCH   1   4
BRANCH   1  73
ATOM     73  C   UNL A   1      37.157  23.690  25.197  1.00  0.00    -0.052 C 
ATOM     74  H   UNL A   1      37.333  24.686  24.848  1.00  0.00     0.027 H 
ATOM     75  H   UNL A   1      37.149  22.972  24.403  1.00  0.00     0.027 H 
BRANCH  73  76
ATOM     76  C   UNL A   1      38.303  23.299  26.138  1.00  0.00    -0.052 C 
ATOM     77  H   UNL A   1      37.977  23.461  27.145  1.00  0.00     0.027 H 
ATOM     78  H   UNL A   1      39.140  23.907  25.862  1.00  0.00     0.027 H 
BRANCH  76  79
ATOM     79  C   UNL A   1      38.771  21.842  26.017  1.00  0.00    -0.036 C 
ATOM     80  H   UNL A   1      38.925  21.622  24.982  1.00  0.00     0.028 H 
ATOM     81  H   UNL A   1      38.009  21.231  26.455  1.00  0.00     0.028 H 
BRANCH  79  82
ATOM     82  C   UNL A   1      40.068  21.548  26.772  1.00  0.00     0.018 C 
ATOM     83  H   UNL A   1      40.025  20.546  27.147  1.00  0.00     0.049 H 
ATOM     84  H   UNL A   1      40.150  22.266  27.562  1.00  0.00     0.049 H 
BRANCH  82  85
ATOM     85  N   UNL A   1      41.244  21.679  25.944  1.00  0.00    -0.352 N 
ATOM     86  C   UNL A   1      42.154  22.672  25.727  1.00  0.00     0.251 C 
ATOM     87  H   UNL A   1      41.432  20.869  25.417  1.00  0.00     0.163 HD
ATOM     88  O   UNL A   1      43.006  22.454  24.864  1.00  0.00    -0.269 OA
BRANCH  86  89
ATOM     89  C   UNL A   1      42.155  23.982  26.427  1.00  0.00     0.039 A 
ATOM     90  C   UNL A   1      41.500  25.136  25.995  1.00  0.00    -0.049 A 
ATOM     91  C   UNL A   1      42.880  24.033  27.630  1.00  0.00    -0.049 A 
ATOM     92  C   UNL A   1      41.629  26.328  26.693  1.00  0.00    -0.053 A 
ATOM     93  H   UNL A   1      40.913  25.102  25.147  1.00  0.00     0.063 H 
ATOM     94  C   UNL A   1      42.977  25.212  28.358  1.00  0.00    -0.053 A 
ATOM     95  H   UNL A   1      43.348  23.182  27.978  1.00  0.00     0.063 H 
ATOM     96  C   UNL A   1      42.381  26.371  27.865  1.00  0.00    -0.014 A 
ATOM     97  H   UNL A   1      41.168  27.184  26.345  1.00  0.00     0.063 H 
ATOM     98  H   UNL A   1      43.486  25.230  29.256  1.00  0.00     0.063 H 
BRANCH  96  99
ATOM     99  C   UNL A   1      42.429  27.640  28.584  1.00  0.00     0.031 A 
ATOM    100  C   UNL A   1      43.584  28.530  28.256  1.00  0.00     0.074 A 
ATOM    101  C   UNL A   1      41.442  28.051  29.401  1.00  0.00     0.049 A 
ATOM    102  N   UNL A   1      44.443  29.073  29.060  1.00  0.00    -0.248 NA
ATOM    103  C   UNL A   1      43.845  28.799  26.832  1.00  0.00    -0.034 C 
ATOM    104  C   UNL A   1      40.130  27.429  29.603  1.00  0.00    -0.036 A 
ATOM    105  N   UNL A   1      41.365  29.192  30.143  1.00  0.00    -0.354 N 
ATOM    106  C   UNL A   1      45.269  29.865  28.263  1.00  0.00     0.074 A 
ATOM    107  C   UNL A   1      44.916  29.590  26.895  1.00  0.00    -0.034 C 
ATOM    108  H   UNL A   1      43.333  28.463  26.001  1.00  0.00     0.065 H 
ATOM    109  C   UNL A   1      39.314  28.310  30.222  1.00  0.00    -0.036 A 
ATOM    110  H   UNL A   1      39.871  26.471  29.319  1.00  0.00     0.065 H 
ATOM    111  C   UNL A   1      40.083  29.491  30.576  1.00  0.00     0.049 A 
ATOM    112  H   UNL A   1      42.148  29.751  30.352  1.00  0.00     0.167 HD
ATOM    113  C   UNL A   1      46.074  30.833  28.778  1.00  0.00     0.037 A 
ATOM    114  H   UNL A   1      45.424  29.956  26.074  1.00  0.00     0.065 H 
ATOM    115  H   UNL A   1      38.310  28.168  30.411  1.00  0.00     0.065 H 
ATOM    116  C   UNL A   1      39.667  30.660  31.113  1.00  0.00     0.037 A 
ATOM    117  C   UNL A   1      46.307  30.662  30.182  1.00  0.00     0.049 A 
ATOM    118  C   UNL A   1      40.858  31.379  31.620  1.00  0.00     0.074 A 
ATOM    119  C   UNL A   1      46.975  29.742  30.961  1.00  0.00    -0.036 A 
ATOM    120  N   UNL A   1      45.545  31.409  31.039  1.00  0.00    -0.354 N 
ATOM    121  N   UNL A   1      41.573  30.999  32.641  1.00  0.00    -0.248 NA
ATOM    122  C   UNL A   1      41.471  32.393  30.774  1.00  0.00    -0.034 C 
ATOM    123  C   UNL A   1      46.264  29.706  32.196  1.00  0.00    -0.036 A 
ATOM    124  H   UNL A   1      47.812  29.195  30.704  1.00  0.00     0.065 H 
ATOM    125  C   UNL A   1      45.211  30.618  32.107  1.00  0.00     0.049 A 
ATOM    126  H   UNL A   1      45.283  32.349  30.912  1.00  0.00     0.167 HD
ATOM    127  C   UNL A   1      42.861  31.401  32.336  1.00  0.00     0.074 A 
ATOM    128  C   UNL A   1      42.711  32.379  31.268  1.00  0.00    -0.034 C 
ATOM    129  H   UNL A   1      41.065  32.957  30.012  1.00  0.00     0.065 H 
ATOM    130  H   UNL A   1      46.488  29.113  33.010  1.00  0.00     0.065 H 
ATOM    131  C   UNL A   1      43.937  30.692  32.784  1.00  0.00     0.037 A 
ATOM    132  H   UNL A   1      43.472  32.989  30.932  1.00  0.00     0.065 H 
BRANCH 113 133
ATOM    133  C   UNL A   1      46.386  32.125  28.070  1.00  0.00     0.064 A 
ATOM    134  C   UNL A   1      45.366  33.064  27.825  1.00  0.00     0.173 A 
ATOM    135  C   UNL A   1      47.594  32.332  27.369  1.00  0.00     0.173 A 
ATOM    136  F   UNL A   1      44.163  32.934  28.404  1.00  0.00    -0.203 F 
ATOM    137  C   UNL A   1      45.535  34.114  26.916  1.00  0.00     0.198 A 
ATOM    138  C   UNL A   1      47.777  33.407  26.502  1.00  0.00     0.198 A 
ATOM    139  F   UNL A   1      48.594  31.441  27.416  1.00  0.00    -0.203 F 
ATOM    140  F   UNL A   1      44.507  34.925  26.634  1.00  0.00    -0.200 F 
ATOM    141  C   UNL A   1      46.741  34.284  26.256  1.00  0.00     0.200 A 
ATOM    142  F   UNL A   1      48.941  33.540  25.851  1.00  0.00    -0.200 F 
ATOM    143  F   UNL A   1      46.889  35.260  25.350  1.00  0.00    -0.200 F 
ENDBRANCH 113 133
BRANCH 116 144
ATOM    144  C   UNL A   1      38.356  31.324  30.941  1.00  0.00     0.064 A 
ATOM    145  C   UNL A   1      37.833  31.560  29.660  1.00  0.00     0.173 A 
ATOM    146  C   UNL A   1      37.467  31.483  32.023  1.00  0.00     0.173 A 
ATOM    147  F   UNL A   1      38.602  31.390  28.575  1.00  0.00    -0.203 F 
ATOM    148  C   UNL A   1      36.489  31.897  29.470  1.00  0.00     0.198 A 
ATOM    149  C   UNL A   1      36.130  31.832  31.832  1.00  0.00     0.198 A 
ATOM    150  F   UNL A   1      37.849  31.204  33.277  1.00  0.00    -0.203 F 
ATOM    151  F   UNL A   1      36.007  32.041  28.227  1.00  0.00    -0.200 F 
ATOM    152  C   UNL A   1      35.637  32.022  30.555  1.00  0.00     0.200 A 
ATOM    153  F   UNL A   1      35.309  31.915  32.888  1.00  0.00    -0.200 F 
ATOM    154  F   UNL A   1      34.336  32.279  30.369  1.00  0.00    -0.200 F 
ENDBRANCH 116 144
BRANCH 131 155
ATOM    155  C   UNL A   1      43.705  29.725  33.909  1.00  0.00     0.064 A 
ATOM    156  C   UNL A   1      43.279  28.398  33.731  1.00  0.00     0.173 A 
ATOM    157  C   UNL A   1      44.046  30.126  35.209  1.00  0.00     0.173 A 
ATOM    158  F   UNL A   1      43.033  27.912  32.508  1.00  0.00    -0.203 F 
ATOM    159  C   UNL A   1      43.151  27.531  34.814  1.00  0.00     0.198 A 
ATOM    160  C   UNL A   1      43.956  29.245  36.282  1.00  0.00     0.198 A 
ATOM    161  F   UNL A   1      44.515  31.364  35.429  1.00  0.00    -0.203 F 
ATOM    162  F   UNL A   1      42.725  26.274  34.622  1.00  0.00    -0.200 F 
ATOM    163  C   UNL A   1      43.497  27.953  36.087  1.00  0.00     0.200 A 
ATOM    164  F   UNL A   1      44.341  29.642  37.504  1.00  0.00    -0.200 F 
ATOM    165  F   UNL A   1      43.415  27.106  37.122  1.00  0.00    -0.200 F 
ENDBRANCH 131 155
ENDBRANCH  96  99
ENDBRANCH  86  89
ENDBRANCH  82  85
ENDBRANCH  79  82
ENDBRANCH  76  79
ENDBRANCH  73  76
ENDBRANCH   1  73
TORSDOF 27
ENDMDL
MODEL 6
REMARK VINA RESULT:     -10.4      4.826      9.853
REMARK SMILES CC(C)c1ccc2c(c1)c(SC(C)(C)C)c(CC(C)(C)C(=O)NCCCCCCNC(=O)c1ccc(-c3c4nc(c(-c5c(F)c(F)c(F)c(F)c5F)c5ccc([nH]5)c(-c5c(F)c(F)c(F)c(F)c5F)c5nc(c(-c6c(F)c(F)c(F)c(F)c6F)c6ccc3[nH]6)C=C5)C=C4)cc1)n2Cc1ccc(Cl)cc1
REMARK SMILES IDX 25 1 24 4 23 7 21 8 22 9 18 11 17 12 16 15 4 16 5 17 9 18
REMARK SMILES IDX 6 19 8 21 7 23 10 25 96 26 2 27 1 29 3 33 11 37 12 38 13 39
REMARK SMILES IDX 14 43 15 47 97 51 98 54 99 55 104 56 100 57 103 59 101 61
REMARK SMILES IDX 102 64 19 65 20 69 26 73 27 76 28 79 29 82 30 85 31 86 32 88
REMARK SMILES IDX 33 89 34 90 95 91 35 92 94 94 36 96 37 99 38 100 88 101
REMARK SMILES IDX 39 102 93 103 87 104 89 105 40 106 92 107 86 109 85 111
REMARK SMILES IDX 41 113 73 116 53 117 72 118 54 119 57 120 71 121 90 122
REMARK SMILES IDX 55 123 56 125 70 127 91 128 58 131 42 133 43 134 51 135
REMARK SMILES IDX 44 136 45 137 49 138 52 139 46 140 47 141 50 142 48 143
REMARK SMILES IDX 74 144 75 145 83 146 76 147 77 148 81 149 84 150 78 151
REMARK SMILES IDX 79 152 82 153 80 154 59 155 60 156 68 157 61 158 62 159
REMARK SMILES IDX 66 160 69 161 63 162 64 163 67 164 65 165
REMARK H PARENT 25 2 25 3 24 5 24 6 23 10 17 13 17 14 5 20 9 22 6 24 2 28 1 30
REMARK H PARENT 1 31 1 32 3 34 3 35 3 36 13 40 13 41 13 42 14 44 14 45 14 46
REMARK H PARENT 15 48 15 49 15 50 97 52 97 53 99 58 104 60 100 62 103 63 19 66
REMARK H PARENT 19 67 19 68 20 70 20 71 20 72 26 74 26 75 27 77 27 78 28 80
REMARK H PARENT 28 81 29 83 29 84 30 87 34 93 95 95 35 97 94 98 93 108 87 110
REMARK H PARENT 89 112 92 114 86 115 54 124 57 126 90 129 55 130 91 132
REMARK Flexibility Score: inf
ROOT
ATOM      1  C   UNL A   1      44.101  26.732  30.219  1.00  0.00    -0.036 C 
ATOM      2  H   UNL A   1      44.488  27.699  30.469  1.00  0.00     0.028 H 
ATOM      3  H   UNL A   1      44.640  26.309  29.397  1.00  0.00     0.028 H 
ENDROOT
BRANCH   1   4
ATOM      4  C   UNL A   1      42.653  26.871  29.819  1.00  0.00     0.017 C 
ATOM      5  H   UNL A   1      42.246  25.895  29.652  1.00  0.00     0.049 H 
ATOM      6  H   UNL A   1      42.138  27.375  30.610  1.00  0.00     0.049 H 
BRANCH   4   7
ATOM      7  N   UNL A   1      42.498  27.655  28.611  1.00  0.00    -0.356 N 
ATOM      8  C   UNL A   1      41.714  27.395  27.518  1.00  0.00     0.226 C 
ATOM      9  O   UNL A   1      41.423  28.353  26.813  1.00  0.00    -0.275 OA
ATOM     10  H   UNL A   1      43.027  28.485  28.570  1.00  0.00     0.163 HD
BRANCH   8  11
ATOM     11  C   UNL A   1      41.064  26.013  27.386  1.00  0.00     0.049 C 
BRANCH  11  12
ATOM     12  C   UNL A   1      41.834  24.793  27.979  1.00  0.00     0.003 C 
ATOM     13  H   UNL A   1      42.777  25.150  28.336  1.00  0.00     0.034 H 
ATOM     14  H   UNL A   1      41.184  24.396  28.730  1.00  0.00     0.034 H 
BRANCH  12  15
ATOM     15  C   UNL A   1      42.103  23.663  27.078  1.00  0.00     0.034 A 
ATOM     16  C   UNL A   1      43.833  19.801  25.155  1.00  0.00    -0.045 A 
ATOM     17  C   UNL A   1      42.641  19.307  25.698  1.00  0.00    -0.057 A 
ATOM     18  C   UNL A   1      44.060  21.192  25.246  1.00  0.00    -0.048 A 
ATOM     19  C   UNL A   1      41.703  20.138  26.327  1.00  0.00    -0.037 A 
ATOM     20  H   UNL A   1      42.446  18.296  25.633  1.00  0.00     0.063 H 
ATOM     21  C   UNL A   1      43.142  22.068  25.891  1.00  0.00     0.014 A 
ATOM     22  H   UNL A   1      44.918  21.586  24.831  1.00  0.00     0.063 H 
ATOM     23  C   UNL A   1      41.986  21.506  26.444  1.00  0.00     0.050 A 
ATOM     24  H   UNL A   1      40.822  19.749  26.697  1.00  0.00     0.065 H 
ATOM     25  C   UNL A   1      43.142  23.486  26.175  1.00  0.00     0.037 A 
ATOM     26  N   UNL A   1      41.290  22.530  27.067  1.00  0.00    -0.339 N 
BRANCH  16  27
ATOM     27  C   UNL A   1      44.907  18.860  24.600  1.00  0.00    -0.022 C 
ATOM     28  H   UNL A   1      44.433  17.905  24.694  1.00  0.00     0.035 H 
BRANCH  27  29
ATOM     29  C   UNL A   1      45.260  19.096  23.123  1.00  0.00    -0.059 C 
ATOM     30  H   UNL A   1      46.234  18.699  22.922  1.00  0.00     0.024 H 
ATOM     31  H   UNL A   1      45.253  20.146  22.917  1.00  0.00     0.024 H 
ATOM     32  H   UNL A   1      44.541  18.606  22.501  1.00  0.00     0.024 H 
ENDBRANCH  27  29
BRANCH  27  33
ATOM     33  C   UNL A   1      46.216  18.861  25.405  1.00  0.00    -0.059 C 
ATOM     34  H   UNL A   1      46.774  19.745  25.177  1.00  0.00     0.024 H 
ATOM     35  H   UNL A   1      46.793  17.999  25.149  1.00  0.00     0.024 H 
ATOM     36  H   UNL A   1      45.991  18.842  26.451  1.00  0.00     0.024 H 
ENDBRANCH  27  33
ENDBRANCH  16  27
BRANCH  25  37
ATOM     37  S   UNL A   1      44.480  24.524  25.623  1.00  0.00    -0.118 SA
BRANCH  37  38
ATOM     38  C   UNL A   1      45.820  25.039  26.817  1.00  0.00     0.012 C 
BRANCH  38  39
ATOM     39  C   UNL A   1      45.773  26.547  27.080  1.00  0.00    -0.051 C 
ATOM     40  H   UNL A   1      46.766  26.913  27.235  1.00  0.00     0.024 H 
ATOM     41  H   UNL A   1      45.182  26.739  27.950  1.00  0.00     0.024 H 
ATOM     42  H   UNL A   1      45.338  27.042  26.236  1.00  0.00     0.024 H 
ENDBRANCH  38  39
BRANCH  38  43
ATOM     43  C   UNL A   1      46.062  24.315  28.162  1.00  0.00    -0.051 C 
ATOM     44  H   UNL A   1      45.398  23.480  28.242  1.00  0.00     0.024 H 
ATOM     45  H   UNL A   1      45.882  24.993  28.969  1.00  0.00     0.024 H 
ATOM     46  H   UNL A   1      47.074  23.971  28.204  1.00  0.00     0.024 H 
ENDBRANCH  38  43
BRANCH  38  47
ATOM     47  C   UNL A   1      47.117  24.690  26.036  1.00  0.00    -0.051 C 
ATOM     48  H   UNL A   1      46.867  24.112  25.170  1.00  0.00     0.024 H 
ATOM     49  H   UNL A   1      47.770  24.123  26.665  1.00  0.00     0.024 H 
ATOM     50  H   UNL A   1      47.605  25.592  25.733  1.00  0.00     0.024 H 
ENDBRANCH  38  47
ENDBRANCH  37  38
ENDBRANCH  25  37
BRANCH  26  51
ATOM     51  C   UNL A   1      39.850  22.447  27.436  1.00  0.00     0.048 C 
ATOM     52  H   UNL A   1      39.654  23.240  28.127  1.00  0.00     0.055 H 
ATOM     53  H   UNL A   1      39.731  21.454  27.817  1.00  0.00     0.055 H 
BRANCH  51  54
ATOM     54  C   UNL A   1      38.816  22.551  26.327  1.00  0.00    -0.028 A 
ATOM     55  C   UNL A   1      38.117  23.755  26.099  1.00  0.00    -0.056 A 
ATOM     56  C   UNL A   1      38.499  21.451  25.512  1.00  0.00    -0.056 A 
ATOM     57  C   UNL A   1      37.016  23.804  25.238  1.00  0.00    -0.043 A 
ATOM     58  H   UNL A   1      38.425  24.615  26.576  1.00  0.00     0.063 H 
ATOM     59  C   UNL A   1      37.426  21.514  24.607  1.00  0.00    -0.043 A 
ATOM     60  H   UNL A   1      39.060  20.587  25.580  1.00  0.00     0.063 H 
ATOM     61  C   UNL A   1      36.659  22.673  24.515  1.00  0.00     0.041 A 
ATOM     62  H   UNL A   1      36.472  24.676  25.142  1.00  0.00     0.064 H 
ATOM     63  H   UNL A   1      37.206  20.701  24.011  1.00  0.00     0.064 H 
ATOM     64  Cl  UNL A   1      35.243  22.701  23.535  1.00  0.00    -0.084 Cl
ENDBRANCH  51  54
ENDBRANCH  26  51
ENDBRANCH  12  15
ENDBRANCH  11  12
BRANCH  11  65
ATOM     65  C   UNL A   1      40.990  25.957  25.841  1.00  0.00    -0.051 C 
ATOM     66  H   UNL A   1      40.029  26.299  25.517  1.00  0.00     0.024 H 
ATOM     67  H   UNL A   1      41.140  24.950  25.512  1.00  0.00     0.024 H 
ATOM     68  H   UNL A   1      41.749  26.585  25.425  1.00  0.00     0.024 H 
ENDBRANCH  11  65
BRANCH  11  69
ATOM     69  C   UNL A   1      39.743  25.994  28.214  1.00  0.00    -0.051 C 
ATOM     70  H   UNL A   1      38.968  25.531  27.639  1.00  0.00     0.024 H 
ATOM     71  H   UNL A   1      39.459  26.997  28.455  1.00  0.00     0.024 H 
ATOM     72  H   UNL A   1      39.896  25.440  29.117  1.00  0.00     0.024 H 
ENDBRANCH  11  69
ENDBRANCH   8  11
ENDBRANCH   4   7
ENDBRANCH   1   4
BRANCH   1  73
ATOM     73  C   UNL A   1      44.259  25.812  31.420  1.00  0.00    -0.052 C 
ATOM     74  H   UNL A   1      43.739  24.899  31.215  1.00  0.00     0.027 H 
ATOM     75  H   UNL A   1      43.858  26.332  32.265  1.00  0.00     0.027 H 
BRANCH  73  76
ATOM     76  C   UNL A   1      45.716  25.471  31.756  1.00  0.00    -0.052 C 
ATOM     77  H   UNL A   1      46.231  26.385  31.969  1.00  0.00     0.027 H 
ATOM     78  H   UNL A   1      46.107  24.953  30.906  1.00  0.00     0.027 H 
BRANCH  76  79
ATOM     79  C   UNL A   1      45.900  24.531  32.956  1.00  0.00    -0.036 C 
ATOM     80  H   UNL A   1      46.179  25.118  33.806  1.00  0.00     0.028 H 
ATOM     81  H   UNL A   1      46.653  23.821  32.685  1.00  0.00     0.028 H 
BRANCH  79  82
ATOM     82  C   UNL A   1      44.643  23.735  33.311  1.00  0.00     0.018 C 
ATOM     83  H   UNL A   1      44.807  22.708  33.059  1.00  0.00     0.049 H 
ATOM     84  H   UNL A   1      43.829  24.156  32.758  1.00  0.00     0.049 H 
BRANCH  82  85
ATOM     85  N   UNL A   1      44.302  23.815  34.712  1.00  0.00    -0.352 N 
ATOM     86  C   UNL A   1      43.755  24.779  35.508  1.00  0.00     0.251 C 
ATOM     87  H   UNL A   1      44.512  22.989  35.204  1.00  0.00     0.163 HD
ATOM     88  O   UNL A   1      43.683  24.519  36.711  1.00  0.00    -0.269 OA
BRANCH  86  89
ATOM     89  C   UNL A   1      43.286  26.103  35.028  1.00  0.00     0.039 A 
ATOM     90  C   UNL A   1      41.973  26.428  34.688  1.00  0.00    -0.049 A 
ATOM     91  C   UNL A   1      44.272  27.100  34.921  1.00  0.00    -0.049 A 
ATOM     92  C   UNL A   1      41.660  27.681  34.180  1.00  0.00    -0.053 A 
ATOM     93  H   UNL A   1      41.225  25.728  34.817  1.00  0.00     0.063 H 
ATOM     94  C   UNL A   1      43.958  28.371  34.456  1.00  0.00    -0.053 A 
ATOM     95  H   UNL A   1      45.244  26.885  35.194  1.00  0.00     0.063 H 
ATOM     96  C   UNL A   1      42.655  28.647  34.048  1.00  0.00    -0.014 A 
ATOM     97  H   UNL A   1      40.690  27.897  33.900  1.00  0.00     0.063 H 
ATOM     98  H   UNL A   1      44.684  29.104  34.412  1.00  0.00     0.063 H 
BRANCH  96  99
ATOM     99  C   UNL A   1      42.251  29.962  33.562  1.00  0.00     0.031 A 
ATOM    100  C   UNL A   1      41.533  30.827  34.546  1.00  0.00     0.074 A 
ATOM    101  C   UNL A   1      42.601  30.428  32.349  1.00  0.00     0.049 A 
ATOM    102  N   UNL A   1      40.390  31.424  34.420  1.00  0.00    -0.248 NA
ATOM    103  C   UNL A   1      42.153  30.999  35.872  1.00  0.00    -0.034 C 
ATOM    104  C   UNL A   1      43.530  29.822  31.391  1.00  0.00    -0.036 A 
ATOM    105  N   UNL A   1      42.281  31.617  31.764  1.00  0.00    -0.354 N 
ATOM    106  C   UNL A   1      40.208  32.160  35.590  1.00  0.00     0.074 A 
ATOM    107  C   UNL A   1      41.274  31.792  36.484  1.00  0.00    -0.034 C 
ATOM    108  H   UNL A   1      43.036  30.606  36.233  1.00  0.00     0.065 H 
ATOM    109  C   UNL A   1      43.873  30.743  30.465  1.00  0.00    -0.036 A 
ATOM    110  H   UNL A   1      43.867  28.847  31.419  1.00  0.00     0.065 H 
ATOM    111  C   UNL A   1      43.088  31.945  30.687  1.00  0.00     0.049 A 
ATOM    112  H   UNL A   1      41.543  32.190  32.079  1.00  0.00     0.167 HD
ATOM    113  C   UNL A   1      39.292  33.160  35.691  1.00  0.00     0.037 A 
ATOM    114  H   UNL A   1      41.348  32.101  37.466  1.00  0.00     0.065 H 
ATOM    115  H   UNL A   1      44.577  30.614  29.722  1.00  0.00     0.065 H 
ATOM    116  C   UNL A   1      43.164  33.149  30.075  1.00  0.00     0.037 A 
ATOM    117  C   UNL A   1      38.285  33.086  34.674  1.00  0.00     0.049 A 
ATOM    118  C   UNL A   1      41.928  33.900  30.391  1.00  0.00     0.074 A 
ATOM    119  C   UNL A   1      37.254  32.221  34.375  1.00  0.00    -0.036 A 
ATOM    120  N   UNL A   1      38.441  33.890  33.577  1.00  0.00    -0.354 N 
ATOM    121  N   UNL A   1      40.741  33.591  29.952  1.00  0.00    -0.248 NA
ATOM    122  C   UNL A   1      41.956  34.853  31.491  1.00  0.00    -0.034 C 
ATOM    123  C   UNL A   1      37.120  32.270  32.956  1.00  0.00    -0.036 A 
ATOM    124  H   UNL A   1      36.698  31.658  35.037  1.00  0.00     0.065 H 
ATOM    125  C   UNL A   1      38.066  33.174  32.471  1.00  0.00     0.049 A 
ATOM    126  H   UNL A   1      38.765  34.819  33.581  1.00  0.00     0.167 HD
ATOM    127  C   UNL A   1      39.882  33.971  30.969  1.00  0.00     0.074 A 
ATOM    128  C   UNL A   1      40.659  34.874  31.806  1.00  0.00    -0.034 C 
ATOM    129  H   UNL A   1      42.750  35.365  31.908  1.00  0.00     0.065 H 
ATOM    130  H   UNL A   1      36.444  31.734  32.390  1.00  0.00     0.065 H 
ATOM    131  C   UNL A   1      38.717  33.294  31.187  1.00  0.00     0.037 A 
ATOM    132  H   UNL A   1      40.257  35.459  32.553  1.00  0.00     0.065 H 
BRANCH 113 133
ATOM    133  C   UNL A   1      39.496  34.401  36.520  1.00  0.00     0.064 A 
ATOM    134  C   UNL A   1      40.533  35.301  36.206  1.00  0.00     0.173 A 
ATOM    135  C   UNL A   1      38.892  34.576  37.783  1.00  0.00     0.173 A 
ATOM    136  F   UNL A   1      41.205  35.193  35.050  1.00  0.00    -0.203 F 
ATOM    137  C   UNL A   1      40.954  36.283  37.109  1.00  0.00     0.198 A 
ATOM    138  C   UNL A   1      39.281  35.586  38.661  1.00  0.00     0.198 A 
ATOM    139  F   UNL A   1      37.985  33.709  38.253  1.00  0.00    -0.203 F 
ATOM    140  F   UNL A   1      42.011  37.052  36.814  1.00  0.00    -0.200 F 
ATOM    141  C   UNL A   1      40.327  36.424  38.336  1.00  0.00     0.200 A 
ATOM    142  F   UNL A   1      38.681  35.690  39.855  1.00  0.00    -0.200 F 
ATOM    143  F   UNL A   1      40.760  37.331  39.221  1.00  0.00    -0.200 F 
ENDBRANCH 113 133
BRANCH 116 144
ATOM    144  C   UNL A   1      44.359  33.800  29.494  1.00  0.00     0.064 A 
ATOM    145  C   UNL A   1      44.390  34.165  28.139  1.00  0.00     0.173 A 
ATOM    146  C   UNL A   1      45.375  34.331  30.312  1.00  0.00     0.173 A 
ATOM    147  F   UNL A   1      43.434  33.735  27.302  1.00  0.00    -0.203 F 
ATOM    148  C   UNL A   1      45.359  35.040  27.640  1.00  0.00     0.198 A 
ATOM    149  C   UNL A   1      46.349  35.194  29.810  1.00  0.00     0.198 A 
ATOM    150  F   UNL A   1      45.386  34.106  31.634  1.00  0.00    -0.203 F 
ATOM    151  F   UNL A   1      45.312  35.426  26.357  1.00  0.00    -0.200 F 
ATOM    152  C   UNL A   1      46.330  35.563  28.478  1.00  0.00     0.200 A 
ATOM    153  F   UNL A   1      47.262  35.720  30.639  1.00  0.00    -0.200 F 
ATOM    154  F   UNL A   1      47.218  36.453  28.015  1.00  0.00    -0.200 F 
ENDBRANCH 116 144
BRANCH 131 155
ATOM    155  C   UNL A   1      38.219  32.406  30.083  1.00  0.00     0.064 A 
ATOM    156  C   UNL A   1      38.641  31.081  29.889  1.00  0.00     0.173 A 
ATOM    157  C   UNL A   1      37.184  32.883  29.266  1.00  0.00     0.173 A 
ATOM    158  F   UNL A   1      39.552  30.522  30.695  1.00  0.00    -0.203 F 
ATOM    159  C   UNL A   1      38.085  30.287  28.887  1.00  0.00     0.198 A 
ATOM    160  C   UNL A   1      36.603  32.074  28.293  1.00  0.00     0.198 A 
ATOM    161  F   UNL A   1      36.701  34.122  29.446  1.00  0.00    -0.203 F 
ATOM    162  F   UNL A   1      38.517  29.030  28.708  1.00  0.00    -0.200 F 
ATOM    163  C   UNL A   1      37.063  30.783  28.095  1.00  0.00     0.200 A 
ATOM    164  F   UNL A   1      35.580  32.541  27.564  1.00  0.00    -0.200 F 
ATOM    165  F   UNL A   1      36.499  30.005  27.160  1.00  0.00    -0.200 F 
ENDBRANCH 131 155
ENDBRANCH  96  99
ENDBRANCH  86  89
ENDBRANCH  82  85
ENDBRANCH  79  82
ENDBRANCH  76  79
ENDBRANCH  73  76
ENDBRANCH   1  73
TORSDOF 27
ENDMDL
MODEL 7
REMARK VINA RESULT:     -10.1      5.973     11.084
REMARK SMILES CC(C)c1ccc2c(c1)c(SC(C)(C)C)c(CC(C)(C)C(=O)NCCCCCCNC(=O)c1ccc(-c3c4nc(c(-c5c(F)c(F)c(F)c(F)c5F)c5ccc([nH]5)c(-c5c(F)c(F)c(F)c(F)c5F)c5nc(c(-c6c(F)c(F)c(F)c(F)c6F)c6ccc3[nH]6)C=C5)C=C4)cc1)n2Cc1ccc(Cl)cc1
REMARK SMILES IDX 25 1 24 4 23 7 21 8 22 9 18 11 17 12 16 15 4 16 5 17 9 18
REMARK SMILES IDX 6 19 8 21 7 23 10 25 96 26 2 27 1 29 3 33 11 37 12 38 13 39
REMARK SMILES IDX 14 43 15 47 97 51 98 54 99 55 104 56 100 57 103 59 101 61
REMARK SMILES IDX 102 64 19 65 20 69 26 73 27 76 28 79 29 82 30 85 31 86 32 88
REMARK SMILES IDX 33 89 34 90 95 91 35 92 94 94 36 96 37 99 38 100 88 101
REMARK SMILES IDX 39 102 93 103 87 104 89 105 40 106 92 107 86 109 85 111
REMARK SMILES IDX 41 113 73 116 53 117 72 118 54 119 57 120 71 121 90 122
REMARK SMILES IDX 55 123 56 125 70 127 91 128 58 131 42 133 43 134 51 135
REMARK SMILES IDX 44 136 45 137 49 138 52 139 46 140 47 141 50 142 48 143
REMARK SMILES IDX 74 144 75 145 83 146 76 147 77 148 81 149 84 150 78 151
REMARK SMILES IDX 79 152 82 153 80 154 59 155 60 156 68 157 61 158 62 159
REMARK SMILES IDX 66 160 69 161 63 162 64 163 67 164 65 165
REMARK H PARENT 25 2 25 3 24 5 24 6 23 10 17 13 17 14 5 20 9 22 6 24 2 28 1 30
REMARK H PARENT 1 31 1 32 3 34 3 35 3 36 13 40 13 41 13 42 14 44 14 45 14 46
REMARK H PARENT 15 48 15 49 15 50 97 52 97 53 99 58 104 60 100 62 103 63 19 66
REMARK H PARENT 19 67 19 68 20 70 20 71 20 72 26 74 26 75 27 77 27 78 28 80
REMARK H PARENT 28 81 29 83 29 84 30 87 34 93 95 95 35 97 94 98 93 108 87 110
REMARK H PARENT 89 112 92 114 86 115 54 124 57 126 90 129 55 130 91 132
REMARK Flexibility Score: inf
ROOT
ATOM      1  C   UNL A   1      43.942  32.271  27.795  1.00  0.00    -0.036 C 
ATOM      2  H   UNL A   1      44.221  32.490  28.805  1.00  0.00     0.028 H 
ATOM      3  H   UNL A   1      42.899  32.455  27.642  1.00  0.00     0.028 H 
ENDROOT
BRANCH   1   4
ATOM      4  C   UNL A   1      44.214  30.813  27.516  1.00  0.00     0.017 C 
ATOM      5  H   UNL A   1      45.268  30.676  27.393  1.00  0.00     0.049 H 
ATOM      6  H   UNL A   1      43.843  30.243  28.343  1.00  0.00     0.049 H 
BRANCH   4   7
ATOM      7  N   UNL A   1      43.540  30.356  26.318  1.00  0.00    -0.356 N 
ATOM      8  C   UNL A   1      42.915  29.157  26.094  1.00  0.00     0.226 C 
ATOM      9  O   UNL A   1      42.085  29.133  25.194  1.00  0.00    -0.275 OA
ATOM     10  H   UNL A   1      43.530  30.991  25.566  1.00  0.00     0.163 HD
BRANCH   8  11
ATOM     11  C   UNL A   1      43.105  28.023  27.108  1.00  0.00     0.049 C 
BRANCH  11  12
ATOM     12  C   UNL A   1      44.554  27.496  27.340  1.00  0.00     0.003 C 
ATOM     13  H   UNL A   1      44.806  26.870  26.509  1.00  0.00     0.034 H 
ATOM     14  H   UNL A   1      45.153  28.376  27.445  1.00  0.00     0.034 H 
BRANCH  12  15
ATOM     15  C   UNL A   1      44.802  26.722  28.565  1.00  0.00     0.034 A 
ATOM     16  C   UNL A   1      44.403  24.741  32.751  1.00  0.00    -0.045 A 
ATOM     17  C   UNL A   1      44.098  23.655  31.921  1.00  0.00    -0.057 A 
ATOM     18  C   UNL A   1      44.809  25.941  32.126  1.00  0.00    -0.048 A 
ATOM     19  C   UNL A   1      44.169  23.736  30.524  1.00  0.00    -0.037 A 
ATOM     20  H   UNL A   1      43.810  22.764  32.354  1.00  0.00     0.063 H 
ATOM     21  C   UNL A   1      44.879  26.071  30.711  1.00  0.00     0.014 A 
ATOM     22  H   UNL A   1      45.065  26.748  32.714  1.00  0.00     0.063 H 
ATOM     23  C   UNL A   1      44.527  24.959  29.937  1.00  0.00     0.050 A 
ATOM     24  H   UNL A   1      43.961  22.912  29.938  1.00  0.00     0.065 H 
ATOM     25  C   UNL A   1      45.198  27.164  29.820  1.00  0.00     0.037 A 
ATOM     26  N   UNL A   1      44.608  25.342  28.607  1.00  0.00    -0.339 N 
BRANCH  16  27
ATOM     27  C   UNL A   1      44.182  24.674  34.265  1.00  0.00    -0.022 C 
ATOM     28  H   UNL A   1      45.184  24.590  34.632  1.00  0.00     0.035 H 
BRANCH  27  29
ATOM     29  C   UNL A   1      43.534  25.930  34.872  1.00  0.00    -0.059 C 
ATOM     30  H   UNL A   1      43.821  26.018  35.899  1.00  0.00     0.024 H 
ATOM     31  H   UNL A   1      42.469  25.851  34.803  1.00  0.00     0.024 H 
ATOM     32  H   UNL A   1      43.862  26.795  34.335  1.00  0.00     0.024 H 
ENDBRANCH  27  29
BRANCH  27  33
ATOM     33  C   UNL A   1      43.367  23.455  34.724  1.00  0.00    -0.059 C 
ATOM     34  H   UNL A   1      43.161  22.826  33.883  1.00  0.00     0.024 H 
ATOM     35  H   UNL A   1      42.446  23.784  35.157  1.00  0.00     0.024 H 
ATOM     36  H   UNL A   1      43.927  22.905  35.452  1.00  0.00     0.024 H 
ENDBRANCH  27  33
ENDBRANCH  16  27
BRANCH  25  37
ATOM     37  S   UNL A   1      45.684  28.752  30.466  1.00  0.00    -0.118 SA
BRANCH  37  38
ATOM     38  C   UNL A   1      47.324  29.499  29.978  1.00  0.00     0.012 C 
BRANCH  38  39
ATOM     39  C   UNL A   1      47.544  29.402  28.466  1.00  0.00    -0.051 C 
ATOM     40  H   UNL A   1      46.648  29.051  27.998  1.00  0.00     0.024 H 
ATOM     41  H   UNL A   1      48.342  28.720  28.264  1.00  0.00     0.024 H 
ATOM     42  H   UNL A   1      47.792  30.368  28.080  1.00  0.00     0.024 H 
ENDBRANCH  38  39
BRANCH  38  43
ATOM     43  C   UNL A   1      47.776  30.900  30.450  1.00  0.00    -0.051 C 
ATOM     44  H   UNL A   1      47.957  30.880  31.504  1.00  0.00     0.024 H 
ATOM     45  H   UNL A   1      47.010  31.614  30.233  1.00  0.00     0.024 H 
ATOM     46  H   UNL A   1      48.675  31.174  29.940  1.00  0.00     0.024 H 
ENDBRANCH  38  43
BRANCH  38  47
ATOM     47  C   UNL A   1      48.341  28.579  30.709  1.00  0.00    -0.051 C 
ATOM     48  H   UNL A   1      47.956  28.317  31.673  1.00  0.00     0.024 H 
ATOM     49  H   UNL A   1      49.270  29.096  30.825  1.00  0.00     0.024 H 
ATOM     50  H   UNL A   1      48.496  27.690  30.134  1.00  0.00     0.024 H 
ENDBRANCH  38  47
ENDBRANCH  37  38
ENDBRANCH  25  37
BRANCH  26  51
ATOM     51  C   UNL A   1      44.692  24.382  27.473  1.00  0.00     0.048 C 
ATOM     52  H   UNL A   1      45.393  23.623  27.752  1.00  0.00     0.055 H 
ATOM     53  H   UNL A   1      44.965  24.986  26.634  1.00  0.00     0.055 H 
BRANCH  51  54
ATOM     54  C   UNL A   1      43.419  23.677  27.031  1.00  0.00    -0.028 A 
ATOM     55  C   UNL A   1      42.173  24.005  27.607  1.00  0.00    -0.056 A 
ATOM     56  C   UNL A   1      43.440  22.661  26.061  1.00  0.00    -0.056 A 
ATOM     57  C   UNL A   1      41.038  23.221  27.375  1.00  0.00    -0.043 A 
ATOM     58  H   UNL A   1      42.099  24.838  28.210  1.00  0.00     0.063 H 
ATOM     59  C   UNL A   1      42.287  21.907  25.787  1.00  0.00    -0.043 A 
ATOM     60  H   UNL A   1      44.312  22.467  25.545  1.00  0.00     0.063 H 
ATOM     61  C   UNL A   1      41.107  22.158  26.484  1.00  0.00     0.041 A 
ATOM     62  H   UNL A   1      40.153  23.433  27.864  1.00  0.00     0.064 H 
ATOM     63  H   UNL A   1      42.314  21.167  25.069  1.00  0.00     0.064 H 
ATOM     64  Cl  UNL A   1      39.741  21.131  26.277  1.00  0.00    -0.084 Cl
ENDBRANCH  51  54
ENDBRANCH  26  51
ENDBRANCH  12  15
ENDBRANCH  11  12
BRANCH  11  65
ATOM     65  C   UNL A   1      42.206  26.967  26.419  1.00  0.00    -0.051 C 
ATOM     66  H   UNL A   1      41.290  27.426  26.110  1.00  0.00     0.024 H 
ATOM     67  H   UNL A   1      41.993  26.176  27.107  1.00  0.00     0.024 H 
ATOM     68  H   UNL A   1      42.712  26.571  25.565  1.00  0.00     0.024 H 
ENDBRANCH  11  65
BRANCH  11  69
ATOM     69  C   UNL A   1      42.721  28.543  28.526  1.00  0.00    -0.051 C 
ATOM     70  H   UNL A   1      43.246  29.453  28.727  1.00  0.00     0.024 H 
ATOM     71  H   UNL A   1      42.984  27.809  29.259  1.00  0.00     0.024 H 
ATOM     72  H   UNL A   1      41.667  28.724  28.567  1.00  0.00     0.024 H 
ENDBRANCH  11  69
ENDBRANCH   8  11
ENDBRANCH   4   7
ENDBRANCH   1   4
BRANCH   1  73
ATOM     73  C   UNL A   1      44.731  33.172  26.858  1.00  0.00    -0.052 C 
ATOM     74  H   UNL A   1      44.328  34.161  26.922  1.00  0.00     0.027 H 
ATOM     75  H   UNL A   1      44.641  32.754  25.877  1.00  0.00     0.027 H 
BRANCH  73  76
ATOM     76  C   UNL A   1      46.230  33.241  27.177  1.00  0.00    -0.052 C 
ATOM     77  H   UNL A   1      46.719  32.448  26.651  1.00  0.00     0.027 H 
ATOM     78  H   UNL A   1      46.315  33.159  28.240  1.00  0.00     0.027 H 
BRANCH  76  79
ATOM     79  C   UNL A   1      46.912  34.561  26.792  1.00  0.00    -0.036 C 
ATOM     80  H   UNL A   1      47.808  34.333  26.252  1.00  0.00     0.028 H 
ATOM     81  H   UNL A   1      47.108  35.090  27.701  1.00  0.00     0.028 H 
BRANCH  79  82
ATOM     82  C   UNL A   1      46.043  35.472  25.924  1.00  0.00     0.018 C 
ATOM     83  H   UNL A   1      45.088  35.007  25.790  1.00  0.00     0.049 H 
ATOM     84  H   UNL A   1      46.553  35.610  24.993  1.00  0.00     0.049 H 
BRANCH  82  85
ATOM     85  N   UNL A   1      45.841  36.779  26.505  1.00  0.00    -0.352 N 
ATOM     86  C   UNL A   1      45.009  37.280  27.463  1.00  0.00     0.251 C 
ATOM     87  H   UNL A   1      46.438  37.462  26.124  1.00  0.00     0.163 HD
ATOM     88  O   UNL A   1      45.060  38.497  27.650  1.00  0.00    -0.269 OA
BRANCH  86  89
ATOM     89  C   UNL A   1      44.044  36.470  28.249  1.00  0.00     0.039 A 
ATOM     90  C   UNL A   1      42.698  36.280  27.938  1.00  0.00    -0.049 A 
ATOM     91  C   UNL A   1      44.561  35.846  29.398  1.00  0.00    -0.049 A 
ATOM     92  C   UNL A   1      41.868  35.559  28.786  1.00  0.00    -0.053 A 
ATOM     93  H   UNL A   1      42.315  36.679  27.067  1.00  0.00     0.063 H 
ATOM     94  C   UNL A   1      43.747  35.086  30.228  1.00  0.00    -0.053 A 
ATOM     95  H   UNL A   1      45.561  35.954  29.629  1.00  0.00     0.063 H 
ATOM     96  C   UNL A   1      42.388  34.976  29.939  1.00  0.00    -0.014 A 
ATOM     97  H   UNL A   1      40.866  35.455  28.562  1.00  0.00     0.063 H 
ATOM     98  H   UNL A   1      44.144  34.607  31.052  1.00  0.00     0.063 H 
BRANCH  96  99
ATOM     99  C   UNL A   1      41.477  34.183  30.758  1.00  0.00     0.031 A 
ATOM    100  C   UNL A   1      42.025  33.703  32.062  1.00  0.00     0.074 A 
ATOM    101  C   UNL A   1      40.186  33.991  30.430  1.00  0.00     0.049 A 
ATOM    102  N   UNL A   1      42.062  32.495  32.531  1.00  0.00    -0.248 NA
ATOM    103  C   UNL A   1      42.671  34.701  32.932  1.00  0.00    -0.034 C 
ATOM    104  C   UNL A   1      39.434  34.625  29.343  1.00  0.00    -0.036 A 
ATOM    105  N   UNL A   1      39.237  33.264  31.085  1.00  0.00    -0.354 N 
ATOM    106  C   UNL A   1      42.605  32.595  33.811  1.00  0.00     0.074 A 
ATOM    107  C   UNL A   1      43.046  33.956  33.972  1.00  0.00    -0.034 C 
ATOM    108  H   UNL A   1      42.801  35.713  32.776  1.00  0.00     0.065 H 
ATOM    109  C   UNL A   1      38.113  34.439  29.552  1.00  0.00    -0.036 A 
ATOM    110  H   UNL A   1      39.848  35.131  28.545  1.00  0.00     0.065 H 
ATOM    111  C   UNL A   1      37.940  33.566  30.701  1.00  0.00     0.049 A 
ATOM    112  H   UNL A   1      39.453  32.588  31.767  1.00  0.00     0.167 HD
ATOM    113  C   UNL A   1      42.503  31.598  34.731  1.00  0.00     0.037 A 
ATOM    114  H   UNL A   1      43.579  34.308  34.783  1.00  0.00     0.065 H 
ATOM    115  H   UNL A   1      37.352  34.849  28.990  1.00  0.00     0.065 H 
ATOM    116  C   UNL A   1      36.805  33.190  31.334  1.00  0.00     0.037 A 
ATOM    117  C   UNL A   1      42.186  30.334  34.135  1.00  0.00     0.049 A 
ATOM    118  C   UNL A   1      37.123  32.022  32.187  1.00  0.00     0.074 A 
ATOM    119  C   UNL A   1      42.839  29.450  33.302  1.00  0.00    -0.036 A 
ATOM    120  N   UNL A   1      40.875  29.940  34.159  1.00  0.00    -0.354 N 
ATOM    121  N   UNL A   1      37.435  30.840  31.737  1.00  0.00    -0.248 NA
ATOM    122  C   UNL A   1      37.414  32.249  33.595  1.00  0.00    -0.034 C 
ATOM    123  C   UNL A   1      41.813  28.822  32.538  1.00  0.00    -0.036 A 
ATOM    124  H   UNL A   1      43.856  29.280  33.245  1.00  0.00     0.065 H 
ATOM    125  C   UNL A   1      40.590  29.347  32.957  1.00  0.00     0.049 A 
ATOM    126  H   UNL A   1      40.249  30.060  34.908  1.00  0.00     0.167 HD
ATOM    127  C   UNL A   1      38.325  30.334  32.669  1.00  0.00     0.074 A 
ATOM    128  C   UNL A   1      38.150  31.166  33.851  1.00  0.00    -0.034 C 
ATOM    129  H   UNL A   1      37.134  33.024  34.216  1.00  0.00     0.065 H 
ATOM    130  H   UNL A   1      41.950  28.108  31.806  1.00  0.00     0.065 H 
ATOM    131  C   UNL A   1      39.313  29.472  32.292  1.00  0.00     0.037 A 
ATOM    132  H   UNL A   1      38.549  30.945  34.776  1.00  0.00     0.065 H 
BRANCH 113 133
ATOM    133  C   UNL A   1      42.367  31.837  36.211  1.00  0.00     0.064 A 
ATOM    134  C   UNL A   1      41.230  32.492  36.723  1.00  0.00     0.173 A 
ATOM    135  C   UNL A   1      43.453  31.704  37.103  1.00  0.00     0.173 A 
ATOM    136  F   UNL A   1      40.160  32.713  35.945  1.00  0.00    -0.203 F 
ATOM    137  C   UNL A   1      41.200  33.007  38.024  1.00  0.00     0.198 A 
ATOM    138  C   UNL A   1      43.402  32.173  38.414  1.00  0.00     0.198 A 
ATOM    139  F   UNL A   1      44.634  31.216  36.701  1.00  0.00    -0.203 F 
ATOM    140  F   UNL A   1      40.140  33.713  38.438  1.00  0.00    -0.200 F 
ATOM    141  C   UNL A   1      42.287  32.846  38.868  1.00  0.00     0.200 A 
ATOM    142  F   UNL A   1      44.474  32.033  39.207  1.00  0.00    -0.200 F 
ATOM    143  F   UNL A   1      42.279  33.379  40.096  1.00  0.00    -0.200 F 
ENDBRANCH 113 133
BRANCH 116 144
ATOM    144  C   UNL A   1      35.548  33.957  31.480  1.00  0.00     0.064 A 
ATOM    145  C   UNL A   1      35.424  34.951  32.463  1.00  0.00     0.173 A 
ATOM    146  C   UNL A   1      34.553  33.931  30.483  1.00  0.00     0.173 A 
ATOM    147  F   UNL A   1      36.353  35.070  33.423  1.00  0.00    -0.203 F 
ATOM    148  C   UNL A   1      34.386  35.887  32.430  1.00  0.00     0.198 A 
ATOM    149  C   UNL A   1      33.511  34.857  30.458  1.00  0.00     0.198 A 
ATOM    150  F   UNL A   1      34.626  33.071  29.457  1.00  0.00    -0.203 F 
ATOM    151  F   UNL A   1      34.342  36.867  33.343  1.00  0.00    -0.200 F 
ATOM    152  C   UNL A   1      33.437  35.845  31.421  1.00  0.00     0.200 A 
ATOM    153  F   UNL A   1      32.619  34.826  29.458  1.00  0.00    -0.200 F 
ATOM    154  F   UNL A   1      32.481  36.781  31.351  1.00  0.00    -0.200 F 
ENDBRANCH 116 144
BRANCH 131 155
ATOM    155  C   UNL A   1      39.171  28.800  30.957  1.00  0.00     0.064 A 
ATOM    156  C   UNL A   1      39.486  29.411  29.732  1.00  0.00     0.173 A 
ATOM    157  C   UNL A   1      38.815  27.445  30.932  1.00  0.00     0.173 A 
ATOM    158  F   UNL A   1      39.932  30.673  29.685  1.00  0.00    -0.203 F 
ATOM    159  C   UNL A   1      39.398  28.706  28.532  1.00  0.00     0.198 A 
ATOM    160  C   UNL A   1      38.768  26.733  29.737  1.00  0.00     0.198 A 
ATOM    161  F   UNL A   1      38.560  26.795  32.079  1.00  0.00    -0.203 F 
ATOM    162  F   UNL A   1      39.687  29.315  27.373  1.00  0.00    -0.200 F 
ATOM    163  C   UNL A   1      39.046  27.367  28.537  1.00  0.00     0.200 A 
ATOM    164  F   UNL A   1      38.477  25.425  29.752  1.00  0.00    -0.200 F 
ATOM    165  F   UNL A   1      39.004  26.678  27.388  1.00  0.00    -0.200 F 
ENDBRANCH 131 155
ENDBRANCH  96  99
ENDBRANCH  86  89
ENDBRANCH  82  85
ENDBRANCH  79  82
ENDBRANCH  76  79
ENDBRANCH  73  76
ENDBRANCH   1  73
TORSDOF 27
ENDMDL
MODEL 8
REMARK VINA RESULT:     -10.0      3.556      8.134
REMARK SMILES CC(C)c1ccc2c(c1)c(SC(C)(C)C)c(CC(C)(C)C(=O)NCCCCCCNC(=O)c1ccc(-c3c4nc(c(-c5c(F)c(F)c(F)c(F)c5F)c5ccc([nH]5)c(-c5c(F)c(F)c(F)c(F)c5F)c5nc(c(-c6c(F)c(F)c(F)c(F)c6F)c6ccc3[nH]6)C=C5)C=C4)cc1)n2Cc1ccc(Cl)cc1
REMARK SMILES IDX 25 1 24 4 23 7 21 8 22 9 18 11 17 12 16 15 4 16 5 17 9 18
REMARK SMILES IDX 6 19 8 21 7 23 10 25 96 26 2 27 1 29 3 33 11 37 12 38 13 39
REMARK SMILES IDX 14 43 15 47 97 51 98 54 99 55 104 56 100 57 103 59 101 61
REMARK SMILES IDX 102 64 19 65 20 69 26 73 27 76 28 79 29 82 30 85 31 86 32 88
REMARK SMILES IDX 33 89 34 90 95 91 35 92 94 94 36 96 37 99 38 100 88 101
REMARK SMILES IDX 39 102 93 103 87 104 89 105 40 106 92 107 86 109 85 111
REMARK SMILES IDX 41 113 73 116 53 117 72 118 54 119 57 120 71 121 90 122
REMARK SMILES IDX 55 123 56 125 70 127 91 128 58 131 42 133 43 134 51 135
REMARK SMILES IDX 44 136 45 137 49 138 52 139 46 140 47 141 50 142 48 143
REMARK SMILES IDX 74 144 75 145 83 146 76 147 77 148 81 149 84 150 78 151
REMARK SMILES IDX 79 152 82 153 80 154 59 155 60 156 68 157 61 158 62 159
REMARK SMILES IDX 66 160 69 161 63 162 64 163 67 164 65 165
REMARK H PARENT 25 2 25 3 24 5 24 6 23 10 17 13 17 14 5 20 9 22 6 24 2 28 1 30
REMARK H PARENT 1 31 1 32 3 34 3 35 3 36 13 40 13 41 13 42 14 44 14 45 14 46
REMARK H PARENT 15 48 15 49 15 50 97 52 97 53 99 58 104 60 100 62 103 63 19 66
REMARK H PARENT 19 67 19 68 20 70 20 71 20 72 26 74 26 75 27 77 27 78 28 80
REMARK H PARENT 28 81 29 83 29 84 30 87 34 93 95 95 35 97 94 98 93 108 87 110
REMARK H PARENT 89 112 92 114 86 115 54 124 57 126 90 129 55 130 91 132
REMARK Flexibility Score: inf
ROOT
ATOM      1  C   UNL A   1      36.331  23.323  25.259  1.00  0.00    -0.036 C 
ATOM      2  H   UNL A   1      36.549  22.531  24.573  1.00  0.00     0.028 H 
ATOM      3  H   UNL A   1      35.940  22.933  26.176  1.00  0.00     0.028 H 
ENDROOT
BRANCH   1   4
ATOM      4  C   UNL A   1      35.294  24.231  24.647  1.00  0.00     0.017 C 
ATOM      5  H   UNL A   1      34.576  24.491  25.398  1.00  0.00     0.049 H 
ATOM      6  H   UNL A   1      35.794  25.100  24.273  1.00  0.00     0.049 H 
BRANCH   4   7
ATOM      7  N   UNL A   1      34.605  23.599  23.541  1.00  0.00    -0.356 N 
ATOM      8  C   UNL A   1      33.793  24.174  22.599  1.00  0.00     0.226 C 
ATOM      9  O   UNL A   1      33.650  23.558  21.550  1.00  0.00    -0.275 OA
ATOM     10  H   UNL A   1      34.738  22.627  23.455  1.00  0.00     0.163 HD
BRANCH   8  11
ATOM     11  C   UNL A   1      33.328  25.620  22.807  1.00  0.00     0.049 C 
BRANCH  11  12
ATOM     12  C   UNL A   1      32.724  25.992  24.196  1.00  0.00     0.003 C 
ATOM     13  H   UNL A   1      32.376  25.088  24.648  1.00  0.00     0.034 H 
ATOM     14  H   UNL A   1      33.517  26.487  24.716  1.00  0.00     0.034 H 
BRANCH  12  15
ATOM     15  C   UNL A   1      31.608  26.950  24.211  1.00  0.00     0.034 A 
ATOM     16  C   UNL A   1      28.550  30.259  23.069  1.00  0.00    -0.045 A 
ATOM     17  C   UNL A   1      27.787  29.109  22.832  1.00  0.00    -0.057 A 
ATOM     18  C   UNL A   1      29.833  30.081  23.633  1.00  0.00    -0.048 A 
ATOM     19  C   UNL A   1      28.262  27.822  23.118  1.00  0.00    -0.037 A 
ATOM     20  H   UNL A   1      26.842  29.214  22.431  1.00  0.00     0.063 H 
ATOM     21  C   UNL A   1      30.359  28.791  23.924  1.00  0.00     0.014 A 
ATOM     22  H   UNL A   1      30.406  30.912  23.842  1.00  0.00     0.063 H 
ATOM     23  C   UNL A   1      29.560  27.681  23.631  1.00  0.00     0.050 A 
ATOM     24  H   UNL A   1      27.667  26.994  22.955  1.00  0.00     0.065 H 
ATOM     25  C   UNL A   1      31.626  28.319  24.436  1.00  0.00     0.037 A 
ATOM     26  N   UNL A   1      30.301  26.549  23.933  1.00  0.00    -0.339 N 
BRANCH  16  27
ATOM     27  C   UNL A   1      28.070  31.641  22.617  1.00  0.00    -0.022 C 
ATOM     28  H   UNL A   1      27.079  31.674  23.021  1.00  0.00     0.035 H 
BRANCH  27  29
ATOM     29  C   UNL A   1      28.879  32.816  23.190  1.00  0.00    -0.059 C 
ATOM     30  H   UNL A   1      28.826  33.647  22.518  1.00  0.00     0.024 H 
ATOM     31  H   UNL A   1      29.901  32.521  23.312  1.00  0.00     0.024 H 
ATOM     32  H   UNL A   1      28.475  33.099  24.139  1.00  0.00     0.024 H 
ENDBRANCH  27  29
BRANCH  27  33
ATOM     33  C   UNL A   1      28.005  31.813  21.091  1.00  0.00    -0.059 C 
ATOM     34  H   UNL A   1      27.943  32.853  20.852  1.00  0.00     0.024 H 
ATOM     35  H   UNL A   1      27.142  31.307  20.712  1.00  0.00     0.024 H 
ATOM     36  H   UNL A   1      28.886  31.397  20.648  1.00  0.00     0.024 H 
ENDBRANCH  27  33
ENDBRANCH  16  27
BRANCH  25  37
ATOM     37  S   UNL A   1      32.902  29.470  24.907  1.00  0.00    -0.118 SA
BRANCH  37  38
ATOM     38  C   UNL A   1      33.227  29.819  26.713  1.00  0.00     0.012 C 
BRANCH  38  39
ATOM     39  C   UNL A   1      32.674  28.698  27.597  1.00  0.00    -0.051 C 
ATOM     40  H   UNL A   1      32.276  27.920  26.980  1.00  0.00     0.024 H 
ATOM     41  H   UNL A   1      31.898  29.087  28.223  1.00  0.00     0.024 H 
ATOM     42  H   UNL A   1      33.460  28.303  28.206  1.00  0.00     0.024 H 
ENDBRANCH  38  39
BRANCH  38  43
ATOM     43  C   UNL A   1      34.621  30.221  27.248  1.00  0.00    -0.051 C 
ATOM     44  H   UNL A   1      35.093  29.368  27.689  1.00  0.00     0.024 H 
ATOM     45  H   UNL A   1      34.512  30.989  27.983  1.00  0.00     0.024 H 
ATOM     46  H   UNL A   1      35.221  30.582  26.440  1.00  0.00     0.024 H 
ENDBRANCH  38  43
BRANCH  38  47
ATOM     47  C   UNL A   1      32.411  31.119  26.954  1.00  0.00    -0.051 C 
ATOM     48  H   UNL A   1      32.979  31.963  26.620  1.00  0.00     0.024 H 
ATOM     49  H   UNL A   1      32.203  31.220  27.998  1.00  0.00     0.024 H 
ATOM     50  H   UNL A   1      31.492  31.070  26.409  1.00  0.00     0.024 H 
ENDBRANCH  38  47
ENDBRANCH  37  38
ENDBRANCH  25  37
BRANCH  26  51
ATOM     51  C   UNL A   1      29.707  25.200  24.134  1.00  0.00     0.048 C 
ATOM     52  H   UNL A   1      29.520  24.789  23.164  1.00  0.00     0.055 H 
ATOM     53  H   UNL A   1      28.844  25.377  24.741  1.00  0.00     0.055 H 
BRANCH  51  54
ATOM     54  C   UNL A   1      30.509  24.169  24.912  1.00  0.00    -0.028 A 
ATOM     55  C   UNL A   1      30.815  24.368  26.274  1.00  0.00    -0.056 A 
ATOM     56  C   UNL A   1      30.997  23.002  24.300  1.00  0.00    -0.056 A 
ATOM     57  C   UNL A   1      31.730  23.547  26.941  1.00  0.00    -0.043 A 
ATOM     58  H   UNL A   1      30.354  25.134  26.789  1.00  0.00     0.063 H 
ATOM     59  C   UNL A   1      31.875  22.146  24.985  1.00  0.00    -0.043 A 
ATOM     60  H   UNL A   1      30.707  22.772  23.336  1.00  0.00     0.063 H 
ATOM     61  C   UNL A   1      32.277  22.453  26.283  1.00  0.00     0.041 A 
ATOM     62  H   UNL A   1      31.998  23.754  27.917  1.00  0.00     0.064 H 
ATOM     63  H   UNL A   1      32.222  21.289  24.526  1.00  0.00     0.064 H 
ATOM     64  Cl  UNL A   1      33.481  21.503  27.066  1.00  0.00    -0.084 Cl
ENDBRANCH  51  54
ENDBRANCH  26  51
ENDBRANCH  12  15
ENDBRANCH  11  12
BRANCH  11  65
ATOM     65  C   UNL A   1      32.267  25.669  21.680  1.00  0.00    -0.051 C 
ATOM     66  H   UNL A   1      32.517  24.953  20.924  1.00  0.00     0.024 H 
ATOM     67  H   UNL A   1      32.246  26.648  21.251  1.00  0.00     0.024 H 
ATOM     68  H   UNL A   1      31.305  25.436  22.086  1.00  0.00     0.024 H 
ENDBRANCH  11  65
BRANCH  11  69
ATOM     69  C   UNL A   1      34.565  26.565  22.730  1.00  0.00    -0.051 C 
ATOM     70  H   UNL A   1      34.329  27.413  22.121  1.00  0.00     0.024 H 
ATOM     71  H   UNL A   1      35.392  26.037  22.301  1.00  0.00     0.024 H 
ATOM     72  H   UNL A   1      34.825  26.894  23.715  1.00  0.00     0.024 H 
ENDBRANCH  11  69
ENDBRANCH   8  11
ENDBRANCH   4   7
ENDBRANCH   1   4
BRANCH   1  73
ATOM     73  C   UNL A   1      37.616  24.077  25.568  1.00  0.00    -0.052 C 
ATOM     74  H   UNL A   1      37.357  25.008  26.028  1.00  0.00     0.027 H 
ATOM     75  H   UNL A   1      38.130  24.206  24.639  1.00  0.00     0.027 H 
BRANCH  73  76
ATOM     76  C   UNL A   1      38.569  23.324  26.504  1.00  0.00    -0.052 C 
ATOM     77  H   UNL A   1      38.096  23.237  27.461  1.00  0.00     0.027 H 
ATOM     78  H   UNL A   1      39.475  23.892  26.530  1.00  0.00     0.027 H 
BRANCH  76  79
ATOM     79  C   UNL A   1      38.958  21.915  26.035  1.00  0.00    -0.036 C 
ATOM     80  H   UNL A   1      39.106  21.941  24.975  1.00  0.00     0.028 H 
ATOM     81  H   UNL A   1      38.161  21.259  26.318  1.00  0.00     0.028 H 
BRANCH  79  82
ATOM     82  C   UNL A   1      40.232  21.378  26.688  1.00  0.00     0.018 C 
ATOM     83  H   UNL A   1      40.094  20.338  26.901  1.00  0.00     0.049 H 
ATOM     84  H   UNL A   1      40.401  21.948  27.578  1.00  0.00     0.049 H 
BRANCH  82  85
ATOM     85  N   UNL A   1      41.400  21.525  25.851  1.00  0.00    -0.352 N 
ATOM     86  C   UNL A   1      42.380  22.467  25.736  1.00  0.00     0.251 C 
ATOM     87  H   UNL A   1      41.515  20.777  25.221  1.00  0.00     0.163 HD
ATOM     88  O   UNL A   1      43.197  22.299  24.829  1.00  0.00    -0.269 OA
BRANCH  86  89
ATOM     89  C   UNL A   1      42.495  23.673  26.595  1.00  0.00     0.039 A 
ATOM     90  C   UNL A   1      41.647  24.003  27.652  1.00  0.00    -0.049 A 
ATOM     91  C   UNL A   1      43.563  24.537  26.298  1.00  0.00    -0.049 A 
ATOM     92  C   UNL A   1      41.806  25.196  28.344  1.00  0.00    -0.053 A 
ATOM     93  H   UNL A   1      40.894  23.352  27.924  1.00  0.00     0.063 H 
ATOM     94  C   UNL A   1      43.756  25.712  27.014  1.00  0.00    -0.053 A 
ATOM     95  H   UNL A   1      44.216  24.295  25.536  1.00  0.00     0.063 H 
ATOM     96  C   UNL A   1      42.849  26.058  28.014  1.00  0.00    -0.014 A 
ATOM     97  H   UNL A   1      41.151  25.445  29.102  1.00  0.00     0.063 H 
ATOM     98  H   UNL A   1      44.562  26.322  26.808  1.00  0.00     0.063 H 
BRANCH  96  99
ATOM     99  C   UNL A   1      42.997  27.268  28.817  1.00  0.00     0.031 A 
ATOM    100  C   UNL A   1      43.197  27.057  30.282  1.00  0.00     0.074 A 
ATOM    101  C   UNL A   1      43.072  28.497  28.271  1.00  0.00     0.049 A 
ATOM    102  N   UNL A   1      42.533  27.563  31.273  1.00  0.00    -0.248 NA
ATOM    103  C   UNL A   1      44.247  26.107  30.689  1.00  0.00    -0.034 C 
ATOM    104  C   UNL A   1      43.175  28.841  26.851  1.00  0.00    -0.036 A 
ATOM    105  N   UNL A   1      43.189  29.703  28.896  1.00  0.00    -0.354 N 
ATOM    106  C   UNL A   1      43.163  27.109  32.431  1.00  0.00     0.074 A 
ATOM    107  C   UNL A   1      44.151  26.147  32.018  1.00  0.00    -0.034 C 
ATOM    108  H   UNL A   1      44.887  25.553  30.100  1.00  0.00     0.065 H 
ATOM    109  C   UNL A   1      43.569  30.128  26.736  1.00  0.00    -0.036 A 
ATOM    110  H   UNL A   1      42.978  28.203  26.064  1.00  0.00     0.065 H 
ATOM    111  C   UNL A   1      43.609  30.725  28.060  1.00  0.00     0.049 A 
ATOM    112  H   UNL A   1      42.993  29.836  29.851  1.00  0.00     0.167 HD
ATOM    113  C   UNL A   1      42.958  27.680  33.648  1.00  0.00     0.037 A 
ATOM    114  H   UNL A   1      44.711  25.568  32.664  1.00  0.00     0.065 H 
ATOM    115  H   UNL A   1      43.803  30.608  25.853  1.00  0.00     0.065 H 
ATOM    116  C   UNL A   1      44.040  31.950  28.439  1.00  0.00     0.037 A 
ATOM    117  C   UNL A   1      41.757  28.462  33.691  1.00  0.00     0.049 A 
ATOM    118  C   UNL A   1      43.534  32.208  29.807  1.00  0.00     0.074 A 
ATOM    119  C   UNL A   1      40.407  28.191  33.630  1.00  0.00    -0.036 A 
ATOM    120  N   UNL A   1      41.884  29.815  33.530  1.00  0.00    -0.354 N 
ATOM    121  N   UNL A   1      42.281  32.396  30.110  1.00  0.00    -0.248 NA
ATOM    122  C   UNL A   1      44.414  31.937  30.936  1.00  0.00    -0.034 C 
ATOM    123  C   UNL A   1      39.819  29.336  33.017  1.00  0.00    -0.036 A 
ATOM    124  H   UNL A   1      39.925  27.340  33.959  1.00  0.00     0.065 H 
ATOM    125  C   UNL A   1      40.842  30.248  32.753  1.00  0.00     0.049 A 
ATOM    126  H   UNL A   1      42.598  30.379  33.906  1.00  0.00     0.167 HD
ATOM    127  C   UNL A   1      42.144  31.863  31.380  1.00  0.00     0.074 A 
ATOM    128  C   UNL A   1      43.502  31.744  31.891  1.00  0.00    -0.034 C 
ATOM    129  H   UNL A   1      45.444  31.904  30.983  1.00  0.00     0.065 H 
ATOM    130  H   UNL A   1      38.817  29.467  32.807  1.00  0.00     0.065 H 
ATOM    131  C   UNL A   1      40.963  31.308  31.778  1.00  0.00     0.037 A 
ATOM    132  H   UNL A   1      43.733  31.535  32.874  1.00  0.00     0.065 H 
BRANCH 113 133
ATOM    133  C   UNL A   1      44.021  27.796  34.708  1.00  0.00     0.064 A 
ATOM    134  C   UNL A   1      45.170  28.578  34.479  1.00  0.00     0.173 A 
ATOM    135  C   UNL A   1      44.082  26.926  35.818  1.00  0.00     0.173 A 
ATOM    136  F   UNL A   1      45.235  29.403  33.423  1.00  0.00    -0.203 F 
ATOM    137  C   UNL A   1      46.307  28.469  35.285  1.00  0.00     0.198 A 
ATOM    138  C   UNL A   1      45.198  26.857  36.649  1.00  0.00     0.198 A 
ATOM    139  F   UNL A   1      43.109  26.039  36.068  1.00  0.00    -0.203 F 
ATOM    140  F   UNL A   1      47.415  29.156  34.973  1.00  0.00    -0.200 F 
ATOM    141  C   UNL A   1      46.320  27.609  36.370  1.00  0.00     0.200 A 
ATOM    142  F   UNL A   1      45.202  25.997  37.678  1.00  0.00    -0.200 F 
ATOM    143  F   UNL A   1      47.424  27.468  37.115  1.00  0.00    -0.200 F 
ENDBRANCH 113 133
BRANCH 116 144
ATOM    144  C   UNL A   1      45.103  32.772  27.821  1.00  0.00     0.064 A 
ATOM    145  C   UNL A   1      46.402  32.266  27.662  1.00  0.00     0.173 A 
ATOM    146  C   UNL A   1      44.799  33.956  27.119  1.00  0.00     0.173 A 
ATOM    147  F   UNL A   1      46.758  31.121  28.263  1.00  0.00    -0.203 F 
ATOM    148  C   UNL A   1      47.331  32.886  26.822  1.00  0.00     0.198 A 
ATOM    149  C   UNL A   1      45.731  34.580  26.291  1.00  0.00     0.198 A 
ATOM    150  F   UNL A   1      43.563  34.475  27.142  1.00  0.00    -0.203 F 
ATOM    151  F   UNL A   1      48.538  32.331  26.637  1.00  0.00    -0.200 F 
ATOM    152  C   UNL A   1      46.991  34.036  26.129  1.00  0.00     0.200 A 
ATOM    153  F   UNL A   1      45.378  35.673  25.599  1.00  0.00    -0.200 F 
ATOM    154  F   UNL A   1      47.858  34.593  25.272  1.00  0.00    -0.200 F 
ENDBRANCH 116 144
BRANCH 131 155
ATOM    155  C   UNL A   1      39.739  31.636  30.972  1.00  0.00     0.064 A 
ATOM    156  C   UNL A   1      39.336  30.924  29.830  1.00  0.00     0.173 A 
ATOM    157  C   UNL A   1      38.881  32.637  31.448  1.00  0.00     0.173 A 
ATOM    158  F   UNL A   1      40.052  29.888  29.375  1.00  0.00    -0.203 F 
ATOM    159  C   UNL A   1      38.150  31.237  29.168  1.00  0.00     0.198 A 
ATOM    160  C   UNL A   1      37.677  32.919  30.808  1.00  0.00     0.198 A 
ATOM    161  F   UNL A   1      39.187  33.309  32.568  1.00  0.00    -0.203 F 
ATOM    162  F   UNL A   1      37.794  30.555  28.069  1.00  0.00    -0.200 F 
ATOM    163  C   UNL A   1      37.319  32.229  29.662  1.00  0.00     0.200 A 
ATOM    164  F   UNL A   1      36.852  33.844  31.319  1.00  0.00    -0.200 F 
ATOM    165  F   UNL A   1      36.158  32.500  29.050  1.00  0.00    -0.200 F 
ENDBRANCH 131 155
ENDBRANCH  96  99
ENDBRANCH  86  89
ENDBRANCH  82  85
ENDBRANCH  79  82
ENDBRANCH  76  79
ENDBRANCH  73  76
ENDBRANCH   1  73
TORSDOF 27
ENDMDL
MODEL 9
REMARK VINA RESULT:     -10.0      5.495     10.534
REMARK SMILES CC(C)c1ccc2c(c1)c(SC(C)(C)C)c(CC(C)(C)C(=O)NCCCCCCNC(=O)c1ccc(-c3c4nc(c(-c5c(F)c(F)c(F)c(F)c5F)c5ccc([nH]5)c(-c5c(F)c(F)c(F)c(F)c5F)c5nc(c(-c6c(F)c(F)c(F)c(F)c6F)c6ccc3[nH]6)C=C5)C=C4)cc1)n2Cc1ccc(Cl)cc1
REMARK SMILES IDX 25 1 24 4 23 7 21 8 22 9 18 11 17 12 16 15 4 16 5 17 9 18
REMARK SMILES IDX 6 19 8 21 7 23 10 25 96 26 2 27 1 29 3 33 11 37 12 38 13 39
REMARK SMILES IDX 14 43 15 47 97 51 98 54 99 55 104 56 100 57 103 59 101 61
REMARK SMILES IDX 102 64 19 65 20 69 26 73 27 76 28 79 29 82 30 85 31 86 32 88
REMARK SMILES IDX 33 89 34 90 95 91 35 92 94 94 36 96 37 99 38 100 88 101
REMARK SMILES IDX 39 102 93 103 87 104 89 105 40 106 92 107 86 109 85 111
REMARK SMILES IDX 41 113 73 116 53 117 72 118 54 119 57 120 71 121 90 122
REMARK SMILES IDX 55 123 56 125 70 127 91 128 58 131 42 133 43 134 51 135
REMARK SMILES IDX 44 136 45 137 49 138 52 139 46 140 47 141 50 142 48 143
REMARK SMILES IDX 74 144 75 145 83 146 76 147 77 148 81 149 84 150 78 151
REMARK SMILES IDX 79 152 82 153 80 154 59 155 60 156 68 157 61 158 62 159
REMARK SMILES IDX 66 160 69 161 63 162 64 163 67 164 65 165
REMARK H PARENT 25 2 25 3 24 5 24 6 23 10 17 13 17 14 5 20 9 22 6 24 2 28 1 30
REMARK H PARENT 1 31 1 32 3 34 3 35 3 36 13 40 13 41 13 42 14 44 14 45 14 46
REMARK H PARENT 15 48 15 49 15 50 97 52 97 53 99 58 104 60 100 62 103 63 19 66
REMARK H PARENT 19 67 19 68 20 70 20 71 20 72 26 74 26 75 27 77 27 78 28 80
REMARK H PARENT 28 81 29 83 29 84 30 87 34 93 95 95 35 97 94 98 93 108 87 110
REMARK H PARENT 89 112 92 114 86 115 54 124 57 126 90 129 55 130 91 132
REMARK Flexibility Score: inf
ROOT
ATOM      1  C   UNL A   1      39.231  31.759  32.689  1.00  0.00    -0.036 C 
ATOM      2  H   UNL A   1      39.435  31.466  33.698  1.00  0.00     0.028 H 
ATOM      3  H   UNL A   1      39.044  30.903  32.075  1.00  0.00     0.028 H 
ENDROOT
BRANCH   1   4
ATOM      4  C   UNL A   1      40.432  32.487  32.137  1.00  0.00     0.017 C 
ATOM      5  H   UNL A   1      40.949  32.961  32.945  1.00  0.00     0.049 H 
ATOM      6  H   UNL A   1      41.056  31.770  31.646  1.00  0.00     0.049 H 
BRANCH   4   7
ATOM      7  N   UNL A   1      40.056  33.495  31.167  1.00  0.00    -0.356 N 
ATOM      8  C   UNL A   1      40.868  34.274  30.385  1.00  0.00     0.226 C 
ATOM      9  O   UNL A   1      40.364  34.749  29.376  1.00  0.00    -0.275 OA
ATOM     10  H   UNL A   1      39.089  33.639  31.055  1.00  0.00     0.163 HD
BRANCH   8  11
ATOM     11  C   UNL A   1      42.373  34.299  30.678  1.00  0.00     0.049 C 
BRANCH  11  12
ATOM     12  C   UNL A   1      43.113  35.665  30.543  1.00  0.00     0.003 C 
ATOM     13  H   UNL A   1      42.379  36.407  30.308  1.00  0.00     0.034 H 
ATOM     14  H   UNL A   1      43.614  35.800  31.478  1.00  0.00     0.034 H 
BRANCH  12  15
ATOM     15  C   UNL A   1      44.174  35.759  29.529  1.00  0.00     0.034 A 
ATOM     16  C   UNL A   1      47.501  34.754  26.443  1.00  0.00    -0.045 A 
ATOM     17  C   UNL A   1      46.422  35.008  25.587  1.00  0.00    -0.057 A 
ATOM     18  C   UNL A   1      47.298  34.973  27.823  1.00  0.00    -0.048 A 
ATOM     19  C   UNL A   1      45.178  35.447  26.059  1.00  0.00    -0.037 A 
ATOM     20  H   UNL A   1      46.549  34.868  24.572  1.00  0.00     0.063 H 
ATOM     21  C   UNL A   1      46.047  35.402  28.346  1.00  0.00     0.014 A 
ATOM     22  H   UNL A   1      48.084  34.817  28.474  1.00  0.00     0.063 H 
ATOM     23  C   UNL A   1      44.999  35.605  27.441  1.00  0.00     0.050 A 
ATOM     24  H   UNL A   1      44.408  35.650  25.402  1.00  0.00     0.065 H 
ATOM     25  C   UNL A   1      45.549  35.645  29.682  1.00  0.00     0.037 A 
ATOM     26  N   UNL A   1      43.878  35.950  28.180  1.00  0.00    -0.339 N 
BRANCH  16  27
ATOM     27  C   UNL A   1      48.804  34.140  25.922  1.00  0.00    -0.022 C 
ATOM     28  H   UNL A   1      48.442  33.372  25.270  1.00  0.00     0.035 H 
BRANCH  27  29
ATOM     29  C   UNL A   1      49.685  35.106  25.112  1.00  0.00    -0.059 C 
ATOM     30  H   UNL A   1      50.478  34.559  24.646  1.00  0.00     0.024 H 
ATOM     31  H   UNL A   1      50.097  35.847  25.765  1.00  0.00     0.024 H 
ATOM     32  H   UNL A   1      49.092  35.583  24.361  1.00  0.00     0.024 H 
ENDBRANCH  27  29
BRANCH  27  33
ATOM     33  C   UNL A   1      49.679  33.510  27.017  1.00  0.00    -0.059 C 
ATOM     34  H   UNL A   1      50.694  33.469  26.683  1.00  0.00     0.024 H 
ATOM     35  H   UNL A   1      49.331  32.520  27.225  1.00  0.00     0.024 H 
ATOM     36  H   UNL A   1      49.620  34.102  27.906  1.00  0.00     0.024 H 
ENDBRANCH  27  33
ENDBRANCH  16  27
BRANCH  25  37
ATOM     37  S   UNL A   1      46.618  35.470  31.096  1.00  0.00    -0.118 SA
BRANCH  37  38
ATOM     38  C   UNL A   1      47.377  33.811  31.496  1.00  0.00     0.012 C 
BRANCH  38  39
ATOM     39  C   UNL A   1      48.831  33.744  31.023  1.00  0.00    -0.051 C 
ATOM     40  H   UNL A   1      49.082  34.649  30.510  1.00  0.00     0.024 H 
ATOM     41  H   UNL A   1      48.953  32.913  30.360  1.00  0.00     0.024 H 
ATOM     42  H   UNL A   1      49.476  33.623  31.868  1.00  0.00     0.024 H 
ENDBRANCH  38  39
BRANCH  38  43
ATOM     43  C   UNL A   1      47.289  33.169  32.900  1.00  0.00    -0.051 C 
ATOM     44  H   UNL A   1      48.165  32.583  33.080  1.00  0.00     0.024 H 
ATOM     45  H   UNL A   1      46.423  32.543  32.952  1.00  0.00     0.024 H 
ATOM     46  H   UNL A   1      47.218  33.939  33.639  1.00  0.00     0.024 H 
ENDBRANCH  38  43
BRANCH  38  47
ATOM     47  C   UNL A   1      46.512  32.835  30.651  1.00  0.00    -0.051 C 
ATOM     48  H   UNL A   1      46.833  31.830  30.827  1.00  0.00     0.024 H 
ATOM     49  H   UNL A   1      46.624  33.069  29.612  1.00  0.00     0.024 H 
ATOM     50  H   UNL A   1      45.484  32.935  30.931  1.00  0.00     0.024 H 
ENDBRANCH  38  47
ENDBRANCH  37  38
ENDBRANCH  25  37
BRANCH  26  51
ATOM     51  C   UNL A   1      42.678  36.614  27.603  1.00  0.00     0.048 C 
ATOM     52  H   UNL A   1      41.905  36.569  28.341  1.00  0.00     0.055 H 
ATOM     53  H   UNL A   1      42.490  36.079  26.695  1.00  0.00     0.055 H 
BRANCH  51  54
ATOM     54  C   UNL A   1      42.799  38.065  27.166  1.00  0.00    -0.028 A 
ATOM     55  C   UNL A   1      41.655  38.813  26.817  1.00  0.00    -0.056 A 
ATOM     56  C   UNL A   1      44.048  38.700  27.065  1.00  0.00    -0.056 A 
ATOM     57  C   UNL A   1      41.766  40.067  26.206  1.00  0.00    -0.043 A 
ATOM     58  H   UNL A   1      40.719  38.429  27.018  1.00  0.00     0.063 H 
ATOM     59  C   UNL A   1      44.156  39.982  26.500  1.00  0.00    -0.043 A 
ATOM     60  H   UNL A   1      44.894  38.220  27.409  1.00  0.00     0.063 H 
ATOM     61  C   UNL A   1      43.020  40.635  26.027  1.00  0.00     0.041 A 
ATOM     62  H   UNL A   1      40.919  40.566  25.891  1.00  0.00     0.064 H 
ATOM     63  H   UNL A   1      45.079  40.441  26.437  1.00  0.00     0.064 H 
ATOM     64  Cl  UNL A   1      43.166  42.128  25.183  1.00  0.00    -0.084 Cl
ENDBRANCH  51  54
ENDBRANCH  26  51
ENDBRANCH  12  15
ENDBRANCH  11  12
BRANCH  11  65
ATOM     65  C   UNL A   1      42.819  33.287  29.594  1.00  0.00    -0.051 C 
ATOM     66  H   UNL A   1      43.183  33.817  28.739  1.00  0.00     0.024 H 
ATOM     67  H   UNL A   1      41.987  32.679  29.309  1.00  0.00     0.024 H 
ATOM     68  H   UNL A   1      43.598  32.666  29.985  1.00  0.00     0.024 H 
ENDBRANCH  11  65
BRANCH  11  69
ATOM     69  C   UNL A   1      42.602  33.956  32.181  1.00  0.00    -0.051 C 
ATOM     70  H   UNL A   1      43.055  34.792  32.673  1.00  0.00     0.024 H 
ATOM     71  H   UNL A   1      43.245  33.104  32.259  1.00  0.00     0.024 H 
ATOM     72  H   UNL A   1      41.662  33.736  32.644  1.00  0.00     0.024 H 
ENDBRANCH  11  69
ENDBRANCH   8  11
ENDBRANCH   4   7
ENDBRANCH   1   4
BRANCH   1  73
ATOM     73  C   UNL A   1      37.991  32.640  32.671  1.00  0.00    -0.052 C 
ATOM     74  H   UNL A   1      37.793  32.923  31.658  1.00  0.00     0.027 H 
ATOM     75  H   UNL A   1      38.200  33.481  33.299  1.00  0.00     0.027 H 
BRANCH  73  76
ATOM     76  C   UNL A   1      36.738  31.962  33.237  1.00  0.00    -0.052 C 
ATOM     77  H   UNL A   1      36.805  31.976  34.305  1.00  0.00     0.027 H 
ATOM     78  H   UNL A   1      36.720  30.974  32.827  1.00  0.00     0.027 H 
BRANCH  76  79
ATOM     79  C   UNL A   1      35.410  32.619  32.834  1.00  0.00    -0.036 C 
ATOM     80  H   UNL A   1      35.092  33.256  33.633  1.00  0.00     0.028 H 
ATOM     81  H   UNL A   1      34.715  31.828  32.642  1.00  0.00     0.028 H 
BRANCH  79  82
ATOM     82  C   UNL A   1      35.500  33.454  31.556  1.00  0.00     0.018 C 
ATOM     83  H   UNL A   1      36.532  33.626  31.333  1.00  0.00     0.049 H 
ATOM     84  H   UNL A   1      34.973  34.369  31.733  1.00  0.00     0.049 H 
BRANCH  82  85
ATOM     85  N   UNL A   1      34.884  32.812  30.419  1.00  0.00    -0.352 N 
ATOM     86  C   UNL A   1      35.260  31.819  29.563  1.00  0.00     0.251 C 
ATOM     87  H   UNL A   1      33.991  33.172  30.214  1.00  0.00     0.163 HD
ATOM     88  O   UNL A   1      34.491  31.578  28.631  1.00  0.00    -0.269 OA
BRANCH  86  89
ATOM     89  C   UNL A   1      36.529  31.054  29.665  1.00  0.00     0.039 A 
ATOM     90  C   UNL A   1      37.780  31.490  29.228  1.00  0.00    -0.049 A 
ATOM     91  C   UNL A   1      36.433  29.786  30.265  1.00  0.00    -0.049 A 
ATOM     92  C   UNL A   1      38.890  30.660  29.309  1.00  0.00    -0.053 A 
ATOM     93  H   UNL A   1      37.882  32.441  28.842  1.00  0.00     0.063 H 
ATOM     94  C   UNL A   1      37.548  28.967  30.390  1.00  0.00    -0.053 A 
ATOM     95  H   UNL A   1      35.521  29.458  30.618  1.00  0.00     0.063 H 
ATOM     96  C   UNL A   1      38.771  29.392  29.874  1.00  0.00    -0.014 A 
ATOM     97  H   UNL A   1      39.803  30.981  28.951  1.00  0.00     0.063 H 
ATOM     98  H   UNL A   1      37.472  28.051  30.860  1.00  0.00     0.063 H 
BRANCH  96  99
ATOM     99  C   UNL A   1      39.986  28.591  29.983  1.00  0.00     0.031 A 
ATOM    100  C   UNL A   1      40.532  28.421  31.363  1.00  0.00     0.074 A 
ATOM    101  C   UNL A   1      40.522  27.939  28.935  1.00  0.00     0.049 A 
ATOM    102  N   UNL A   1      41.729  28.662  31.796  1.00  0.00    -0.248 NA
ATOM    103  C   UNL A   1      39.596  27.978  32.410  1.00  0.00    -0.034 C 
ATOM    104  C   UNL A   1      39.953  27.777  27.594  1.00  0.00    -0.036 A 
ATOM    105  N   UNL A   1      41.653  27.179  28.888  1.00  0.00    -0.354 N 
ATOM    106  C   UNL A   1      41.741  28.270  33.134  1.00  0.00     0.074 A 
ATOM    107  C   UNL A   1      40.383  27.943  33.484  1.00  0.00    -0.034 C 
ATOM    108  H   UNL A   1      38.591  27.753  32.332  1.00  0.00     0.065 H 
ATOM    109  C   UNL A   1      40.614  26.792  26.949  1.00  0.00    -0.036 A 
ATOM    110  H   UNL A   1      39.172  28.328  27.204  1.00  0.00     0.065 H 
ATOM    111  C   UNL A   1      41.727  26.357  27.775  1.00  0.00     0.049 A 
ATOM    112  H   UNL A   1      42.351  27.211  29.582  1.00  0.00     0.167 HD
ATOM    113  C   UNL A   1      42.893  28.067  33.829  1.00  0.00     0.037 A 
ATOM    114  H   UNL A   1      40.063  27.713  34.439  1.00  0.00     0.065 H 
ATOM    115  H   UNL A   1      40.369  26.410  26.023  1.00  0.00     0.065 H 
ATOM    116  C   UNL A   1      42.594  25.336  27.585  1.00  0.00     0.037 A 
ATOM    117  C   UNL A   1      44.023  28.695  33.210  1.00  0.00     0.049 A 
ATOM    118  C   UNL A   1      43.746  25.540  28.492  1.00  0.00     0.074 A 
ATOM    119  C   UNL A   1      44.426  29.994  32.990  1.00  0.00    -0.036 A 
ATOM    120  N   UNL A   1      44.830  27.907  32.433  1.00  0.00    -0.354 N 
ATOM    121  N   UNL A   1      44.622  26.497  28.374  1.00  0.00    -0.248 NA
ATOM    122  C   UNL A   1      43.755  24.843  29.771  1.00  0.00    -0.034 C 
ATOM    123  C   UNL A   1      45.175  29.958  31.778  1.00  0.00    -0.036 A 
ATOM    124  H   UNL A   1      44.227  30.818  33.579  1.00  0.00     0.065 H 
ATOM    125  C   UNL A   1      45.200  28.636  31.333  1.00  0.00     0.049 A 
ATOM    126  H   UNL A   1      45.098  26.981  32.630  1.00  0.00     0.167 HD
ATOM    127  C   UNL A   1      44.994  26.795  29.673  1.00  0.00     0.074 A 
ATOM    128  C   UNL A   1      44.555  25.654  30.465  1.00  0.00    -0.034 C 
ATOM    129  H   UNL A   1      43.279  23.974  30.058  1.00  0.00     0.065 H 
ATOM    130  H   UNL A   1      45.619  30.765  31.313  1.00  0.00     0.065 H 
ATOM    131  C   UNL A   1      45.366  28.061  30.018  1.00  0.00     0.037 A 
ATOM    132  H   UNL A   1      44.830  25.492  31.446  1.00  0.00     0.065 H 
BRANCH 113 133
ATOM    133  C   UNL A   1      43.051  27.020  34.900  1.00  0.00     0.064 A 
ATOM    134  C   UNL A   1      43.280  27.401  36.236  1.00  0.00     0.173 A 
ATOM    135  C   UNL A   1      43.277  25.660  34.601  1.00  0.00     0.173 A 
ATOM    136  F   UNL A   1      43.140  28.680  36.616  1.00  0.00    -0.203 F 
ATOM    137  C   UNL A   1      43.736  26.488  37.193  1.00  0.00     0.198 A 
ATOM    138  C   UNL A   1      43.684  24.743  35.568  1.00  0.00     0.198 A 
ATOM    139  F   UNL A   1      43.220  25.199  33.344  1.00  0.00    -0.203 F 
ATOM    140  F   UNL A   1      44.039  26.912  38.428  1.00  0.00    -0.200 F 
ATOM    141  C   UNL A   1      43.937  25.160  36.858  1.00  0.00     0.200 A 
ATOM    142  F   UNL A   1      43.900  23.467  35.218  1.00  0.00    -0.200 F 
ATOM    143  F   UNL A   1      44.419  24.296  37.760  1.00  0.00    -0.200 F 
ENDBRANCH 113 133
BRANCH 116 144
ATOM    144  C   UNL A   1      42.347  24.050  26.896  1.00  0.00     0.064 A 
ATOM    145  C   UNL A   1      43.243  23.570  25.929  1.00  0.00     0.173 A 
ATOM    146  C   UNL A   1      41.387  23.136  27.374  1.00  0.00     0.173 A 
ATOM    147  F   UNL A   1      44.213  24.365  25.453  1.00  0.00    -0.203 F 
ATOM    148  C   UNL A   1      43.204  22.243  25.491  1.00  0.00     0.198 A 
ATOM    149  C   UNL A   1      41.342  21.816  26.927  1.00  0.00     0.198 A 
ATOM    150  F   UNL A   1      40.539  23.474  28.355  1.00  0.00    -0.203 F 
ATOM    151  F   UNL A   1      44.123  21.800  24.621  1.00  0.00    -0.200 F 
ATOM    152  C   UNL A   1      42.261  21.364  25.999  1.00  0.00     0.200 A 
ATOM    153  F   UNL A   1      40.446  20.967  27.452  1.00  0.00    -0.200 F 
ATOM    154  F   UNL A   1      42.266  20.076  25.631  1.00  0.00    -0.200 F 
ENDBRANCH 116 144
BRANCH 131 155
ATOM    155  C   UNL A   1      45.730  29.001  28.905  1.00  0.00     0.064 A 
ATOM    156  C   UNL A   1      44.812  29.838  28.249  1.00  0.00     0.173 A 
ATOM    157  C   UNL A   1      47.086  29.141  28.574  1.00  0.00     0.173 A 
ATOM    158  F   UNL A   1      43.515  29.834  28.584  1.00  0.00    -0.203 F 
ATOM    159  C   UNL A   1      45.229  30.739  27.271  1.00  0.00     0.198 A 
ATOM    160  C   UNL A   1      47.503  30.071  27.625  1.00  0.00     0.198 A 
ATOM    161  F   UNL A   1      48.013  28.408  29.209  1.00  0.00    -0.203 F 
ATOM    162  F   UNL A   1      44.332  31.516  26.647  1.00  0.00    -0.200 F 
ATOM    163  C   UNL A   1      46.575  30.859  26.966  1.00  0.00     0.200 A 
ATOM    164  F   UNL A   1      48.811  30.219  27.370  1.00  0.00    -0.200 F 
ATOM    165  F   UNL A   1      46.981  31.755  26.056  1.00  0.00    -0.200 F 
ENDBRANCH 131 155
ENDBRANCH  96  99
ENDBRANCH  86  89
ENDBRANCH  82  85
ENDBRANCH  79  82
ENDBRANCH  76  79
ENDBRANCH  73  76
ENDBRANCH   1  73
TORSDOF 27
ENDMDL
MODEL 10
REMARK VINA RESULT:      -9.9      5.541     11.180
REMARK SMILES CC(C)c1ccc2c(c1)c(SC(C)(C)C)c(CC(C)(C)C(=O)NCCCCCCNC(=O)c1ccc(-c3c4nc(c(-c5c(F)c(F)c(F)c(F)c5F)c5ccc([nH]5)c(-c5c(F)c(F)c(F)c(F)c5F)c5nc(c(-c6c(F)c(F)c(F)c(F)c6F)c6ccc3[nH]6)C=C5)C=C4)cc1)n2Cc1ccc(Cl)cc1
REMARK SMILES IDX 25 1 24 4 23 7 21 8 22 9 18 11 17 12 16 15 4 16 5 17 9 18
REMARK SMILES IDX 6 19 8 21 7 23 10 25 96 26 2 27 1 29 3 33 11 37 12 38 13 39
REMARK SMILES IDX 14 43 15 47 97 51 98 54 99 55 104 56 100 57 103 59 101 61
REMARK SMILES IDX 102 64 19 65 20 69 26 73 27 76 28 79 29 82 30 85 31 86 32 88
REMARK SMILES IDX 33 89 34 90 95 91 35 92 94 94 36 96 37 99 38 100 88 101
REMARK SMILES IDX 39 102 93 103 87 104 89 105 40 106 92 107 86 109 85 111
REMARK SMILES IDX 41 113 73 116 53 117 72 118 54 119 57 120 71 121 90 122
REMARK SMILES IDX 55 123 56 125 70 127 91 128 58 131 42 133 43 134 51 135
REMARK SMILES IDX 44 136 45 137 49 138 52 139 46 140 47 141 50 142 48 143
REMARK SMILES IDX 74 144 75 145 83 146 76 147 77 148 81 149 84 150 78 151
REMARK SMILES IDX 79 152 82 153 80 154 59 155 60 156 68 157 61 158 62 159
REMARK SMILES IDX 66 160 69 161 63 162 64 163 67 164 65 165
REMARK H PARENT 25 2 25 3 24 5 24 6 23 10 17 13 17 14 5 20 9 22 6 24 2 28 1 30
REMARK H PARENT 1 31 1 32 3 34 3 35 3 36 13 40 13 41 13 42 14 44 14 45 14 46
REMARK H PARENT 15 48 15 49 15 50 97 52 97 53 99 58 104 60 100 62 103 63 19 66
REMARK H PARENT 19 67 19 68 20 70 20 71 20 72 26 74 26 75 27 77 27 78 28 80
REMARK H PARENT 28 81 29 83 29 84 30 87 34 93 95 95 35 97 94 98 93 108 87 110
REMARK H PARENT 89 112 92 114 86 115 54 124 57 126 90 129 55 130 91 132
REMARK Flexibility Score: inf
ROOT
ATOM      1  C   UNL A   1      39.039  31.548  32.971  1.00  0.00    -0.036 C 
ATOM      2  H   UNL A   1      39.191  31.415  34.022  1.00  0.00     0.028 H 
ATOM      3  H   UNL A   1      38.828  30.613  32.497  1.00  0.00     0.028 H 
ENDROOT
BRANCH   1   4
ATOM      4  C   UNL A   1      40.297  32.117  32.362  1.00  0.00     0.017 C 
ATOM      5  H   UNL A   1      41.042  32.203  33.125  1.00  0.00     0.049 H 
ATOM      6  H   UNL A   1      40.615  31.456  31.583  1.00  0.00     0.049 H 
BRANCH   4   7
ATOM      7  N   UNL A   1      40.073  33.424  31.779  1.00  0.00    -0.356 N 
ATOM      8  C   UNL A   1      40.809  34.069  30.819  1.00  0.00     0.226 C 
ATOM      9  O   UNL A   1      40.238  34.953  30.194  1.00  0.00    -0.275 OA
ATOM     10  H   UNL A   1      39.288  33.913  32.116  1.00  0.00     0.163 HD
BRANCH   8  11
ATOM     11  C   UNL A   1      42.178  33.498  30.429  1.00  0.00     0.049 C 
BRANCH  11  12
ATOM     12  C   UNL A   1      43.344  33.652  31.454  1.00  0.00     0.003 C 
ATOM     13  H   UNL A   1      43.088  33.079  32.321  1.00  0.00     0.034 H 
ATOM     14  H   UNL A   1      44.215  33.321  30.930  1.00  0.00     0.034 H 
BRANCH  12  15
ATOM     15  C   UNL A   1      43.668  35.013  31.906  1.00  0.00     0.034 A 
ATOM     16  C   UNL A   1      43.617  39.601  32.648  1.00  0.00    -0.045 A 
ATOM     17  C   UNL A   1      43.096  39.137  33.862  1.00  0.00    -0.057 A 
ATOM     18  C   UNL A   1      44.060  38.633  31.721  1.00  0.00    -0.048 A 
ATOM     19  C   UNL A   1      42.992  37.772  34.161  1.00  0.00    -0.037 A 
ATOM     20  H   UNL A   1      42.777  39.826  34.562  1.00  0.00     0.063 H 
ATOM     21  C   UNL A   1      43.957  37.237  31.977  1.00  0.00     0.014 A 
ATOM     22  H   UNL A   1      44.472  38.948  30.829  1.00  0.00     0.063 H 
ATOM     23  C   UNL A   1      43.394  36.839  33.194  1.00  0.00     0.050 A 
ATOM     24  H   UNL A   1      42.625  37.460  35.073  1.00  0.00     0.065 H 
ATOM     25  C   UNL A   1      44.268  36.052  31.208  1.00  0.00     0.037 A 
ATOM     26  N   UNL A   1      43.339  35.454  33.188  1.00  0.00    -0.339 N 
BRANCH  16  27
ATOM     27  C   UNL A   1      43.590  41.089  32.286  1.00  0.00    -0.022 C 
ATOM     28  H   UNL A   1      43.438  41.547  33.241  1.00  0.00     0.035 H 
BRANCH  27  29
ATOM     29  C   UNL A   1      44.900  41.623  31.683  1.00  0.00    -0.059 C 
ATOM     30  H   UNL A   1      45.018  41.239  30.691  1.00  0.00     0.024 H 
ATOM     31  H   UNL A   1      45.726  41.309  32.287  1.00  0.00     0.024 H 
ATOM     32  H   UNL A   1      44.869  42.691  31.650  1.00  0.00     0.024 H 
ENDBRANCH  27  29
BRANCH  27  33
ATOM     33  C   UNL A   1      42.442  41.482  31.343  1.00  0.00    -0.059 C 
ATOM     34  H   UNL A   1      41.900  42.303  31.764  1.00  0.00     0.024 H 
ATOM     35  H   UNL A   1      41.785  40.648  31.215  1.00  0.00     0.024 H 
ATOM     36  H   UNL A   1      42.843  41.769  30.393  1.00  0.00     0.024 H 
ENDBRANCH  27  33
ENDBRANCH  16  27
BRANCH  25  37
ATOM     37  S   UNL A   1      44.996  36.185  29.587  1.00  0.00    -0.118 SA
BRANCH  37  38
ATOM     38  C   UNL A   1      44.422  37.515  28.410  1.00  0.00     0.012 C 
BRANCH  38  39
ATOM     39  C   UNL A   1      42.904  37.700  28.487  1.00  0.00    -0.051 C 
ATOM     40  H   UNL A   1      42.523  37.934  27.514  1.00  0.00     0.024 H 
ATOM     41  H   UNL A   1      42.675  38.499  29.161  1.00  0.00     0.024 H 
ATOM     42  H   UNL A   1      42.452  36.796  28.838  1.00  0.00     0.024 H 
ENDBRANCH  38  39
BRANCH  38  43
ATOM     43  C   UNL A   1      45.082  38.912  28.343  1.00  0.00    -0.051 C 
ATOM     44  H   UNL A   1      46.086  38.815  27.986  1.00  0.00     0.024 H 
ATOM     45  H   UNL A   1      45.091  39.349  29.319  1.00  0.00     0.024 H 
ATOM     46  H   UNL A   1      44.526  39.537  27.676  1.00  0.00     0.024 H 
ENDBRANCH  38  43
BRANCH  38  47
ATOM     47  C   UNL A   1      44.802  36.923  27.025  1.00  0.00    -0.051 C 
ATOM     48  H   UNL A   1      44.868  37.712  26.305  1.00  0.00     0.024 H 
ATOM     49  H   UNL A   1      44.052  36.224  26.719  1.00  0.00     0.024 H 
ATOM     50  H   UNL A   1      45.746  36.425  27.096  1.00  0.00     0.024 H 
ENDBRANCH  38  47
ENDBRANCH  37  38
ENDBRANCH  25  37
BRANCH  26  51
ATOM     51  C   UNL A   1      43.175  34.626  34.414  1.00  0.00     0.048 C 
ATOM     52  H   UNL A   1      43.638  35.156  35.219  1.00  0.00     0.055 H 
ATOM     53  H   UNL A   1      43.614  33.684  34.159  1.00  0.00     0.055 H 
BRANCH  51  54
ATOM     54  C   UNL A   1      41.765  34.274  34.860  1.00  0.00    -0.028 A 
ATOM     55  C   UNL A   1      40.680  35.127  34.569  1.00  0.00    -0.056 A 
ATOM     56  C   UNL A   1      41.497  33.109  35.598  1.00  0.00    -0.056 A 
ATOM     57  C   UNL A   1      39.425  34.933  35.157  1.00  0.00    -0.043 A 
ATOM     58  H   UNL A   1      40.813  35.908  33.910  1.00  0.00     0.063 H 
ATOM     59  C   UNL A   1      40.223  32.884  36.146  1.00  0.00    -0.043 A 
ATOM     60  H   UNL A   1      42.244  32.412  35.740  1.00  0.00     0.063 H 
ATOM     61  C   UNL A   1      39.210  33.824  35.965  1.00  0.00     0.041 A 
ATOM     62  H   UNL A   1      38.664  35.610  34.991  1.00  0.00     0.064 H 
ATOM     63  H   UNL A   1      40.037  32.022  36.682  1.00  0.00     0.064 H 
ATOM     64  Cl  UNL A   1      37.701  33.639  36.773  1.00  0.00    -0.084 Cl
ENDBRANCH  51  54
ENDBRANCH  26  51
ENDBRANCH  12  15
ENDBRANCH  11  12
BRANCH  11  65
ATOM     65  C   UNL A   1      42.409  34.348  29.155  1.00  0.00    -0.051 C 
ATOM     66  H   UNL A   1      42.233  35.380  29.378  1.00  0.00     0.024 H 
ATOM     67  H   UNL A   1      41.737  34.029  28.387  1.00  0.00     0.024 H 
ATOM     68  H   UNL A   1      43.418  34.223  28.822  1.00  0.00     0.024 H 
ENDBRANCH  11  65
BRANCH  11  69
ATOM     69  C   UNL A   1      42.063  31.950  30.302  1.00  0.00    -0.051 C 
ATOM     70  H   UNL A   1      41.288  31.705  29.606  1.00  0.00     0.024 H 
ATOM     71  H   UNL A   1      41.829  31.530  31.259  1.00  0.00     0.024 H 
ATOM     72  H   UNL A   1      42.993  31.549  29.955  1.00  0.00     0.024 H 
ENDBRANCH  11  69
ENDBRANCH   8  11
ENDBRANCH   4   7
ENDBRANCH   1   4
BRANCH   1  73
ATOM     73  C   UNL A   1      37.851  32.474  32.757  1.00  0.00    -0.052 C 
ATOM     74  H   UNL A   1      37.767  32.677  31.710  1.00  0.00     0.027 H 
ATOM     75  H   UNL A   1      38.037  33.356  33.333  1.00  0.00     0.027 H 
BRANCH  73  76
ATOM     76  C   UNL A   1      36.517  31.896  33.245  1.00  0.00    -0.052 C 
ATOM     77  H   UNL A   1      36.517  31.916  34.315  1.00  0.00     0.027 H 
ATOM     78  H   UNL A   1      36.452  30.908  32.840  1.00  0.00     0.027 H 
BRANCH  76  79
ATOM     79  C   UNL A   1      35.270  32.645  32.754  1.00  0.00    -0.036 C 
ATOM     80  H   UNL A   1      34.984  33.352  33.504  1.00  0.00     0.028 H 
ATOM     81  H   UNL A   1      34.513  31.911  32.576  1.00  0.00     0.028 H 
BRANCH  79  82
ATOM     82  C   UNL A   1      35.482  33.396  31.438  1.00  0.00     0.018 C 
ATOM     83  H   UNL A   1      36.532  33.444  31.238  1.00  0.00     0.049 H 
ATOM     84  H   UNL A   1      35.052  34.369  31.551  1.00  0.00     0.049 H 
BRANCH  82  85
ATOM     85  N   UNL A   1      34.829  32.762  30.316  1.00  0.00    -0.352 N 
ATOM     86  C   UNL A   1      35.149  31.729  29.484  1.00  0.00     0.251 C 
ATOM     87  H   UNL A   1      33.957  33.166  30.104  1.00  0.00     0.163 HD
ATOM     88  O   UNL A   1      34.365  31.510  28.558  1.00  0.00    -0.269 OA
BRANCH  86  89
ATOM     89  C   UNL A   1      36.373  30.898  29.604  1.00  0.00     0.039 A 
ATOM     90  C   UNL A   1      36.420  29.578  30.052  1.00  0.00    -0.049 A 
ATOM     91  C   UNL A   1      37.575  31.518  29.219  1.00  0.00    -0.049 A 
ATOM     92  C   UNL A   1      37.633  28.918  30.192  1.00  0.00    -0.053 A 
ATOM     93  H   UNL A   1      35.543  29.086  30.280  1.00  0.00     0.063 H 
ATOM     94  C   UNL A   1      38.789  30.850  29.314  1.00  0.00    -0.053 A 
ATOM     95  H   UNL A   1      37.555  32.486  28.860  1.00  0.00     0.063 H 
ATOM     96  C   UNL A   1      38.819  29.560  29.839  1.00  0.00    -0.014 A 
ATOM     97  H   UNL A   1      37.658  27.953  30.558  1.00  0.00     0.063 H 
ATOM     98  H   UNL A   1      39.660  31.304  28.999  1.00  0.00     0.063 H 
BRANCH  96  99
ATOM     99  C   UNL A   1      40.055  28.792  29.955  1.00  0.00     0.031 A 
ATOM    100  C   UNL A   1      40.578  28.606  31.342  1.00  0.00     0.074 A 
ATOM    101  C   UNL A   1      40.632  28.182  28.904  1.00  0.00     0.049 A 
ATOM    102  N   UNL A   1      41.758  28.872  31.806  1.00  0.00    -0.248 NA
ATOM    103  C   UNL A   1      39.634  28.110  32.358  1.00  0.00    -0.034 C 
ATOM    104  C   UNL A   1      40.096  28.035  27.548  1.00  0.00    -0.036 A 
ATOM    105  N   UNL A   1      41.786  27.457  28.864  1.00  0.00    -0.354 N 
ATOM    106  C   UNL A   1      41.754  28.449  33.135  1.00  0.00     0.074 A 
ATOM    107  C   UNL A   1      40.400  28.074  33.448  1.00  0.00    -0.034 C 
ATOM    108  H   UNL A   1      38.639  27.858  32.254  1.00  0.00     0.065 H 
ATOM    109  C   UNL A   1      40.799  27.086  26.895  1.00  0.00    -0.036 A 
ATOM    110  H   UNL A   1      39.307  28.572  27.155  1.00  0.00     0.065 H 
ATOM    111  C   UNL A   1      41.908  26.665  27.734  1.00  0.00     0.049 A 
ATOM    112  H   UNL A   1      42.469  27.493  29.573  1.00  0.00     0.167 HD
ATOM    113  C   UNL A   1      42.897  28.264  33.849  1.00  0.00     0.037 A 
ATOM    114  H   UNL A   1      40.068  27.811  34.390  1.00  0.00     0.065 H 
ATOM    115  H   UNL A   1      40.585  26.718  25.955  1.00  0.00     0.065 H 
ATOM    116  C   UNL A   1      42.809  25.675  27.538  1.00  0.00     0.037 A 
ATOM    117  C   UNL A   1      44.021  28.939  33.268  1.00  0.00     0.049 A 
ATOM    118  C   UNL A   1      43.936  25.891  28.475  1.00  0.00     0.074 A 
ATOM    119  C   UNL A   1      44.388  30.255  33.088  1.00  0.00    -0.036 A 
ATOM    120  N   UNL A   1      44.867  28.195  32.491  1.00  0.00    -0.354 N 
ATOM    121  N   UNL A   1      44.785  26.876  28.397  1.00  0.00    -0.248 NA
ATOM    122  C   UNL A   1      43.939  25.164  29.737  1.00  0.00    -0.034 C 
ATOM    123  C   UNL A   1      45.163  30.270  31.891  1.00  0.00    -0.036 A 
ATOM    124  H   UNL A   1      44.152  31.059  33.691  1.00  0.00     0.065 H 
ATOM    125  C   UNL A   1      45.237  28.960  31.417  1.00  0.00     0.049 A 
ATOM    126  H   UNL A   1      45.159  27.273  32.672  1.00  0.00     0.167 HD
ATOM    127  C   UNL A   1      45.121  27.154  29.710  1.00  0.00     0.074 A 
ATOM    128  C   UNL A   1      44.701  25.982  30.466  1.00  0.00    -0.034 C 
ATOM    129  H   UNL A   1      43.484  24.275  29.993  1.00  0.00     0.065 H 
ATOM    130  H   UNL A   1      45.591  31.101  31.454  1.00  0.00     0.065 H 
ATOM    131  C   UNL A   1      45.447  28.422  30.092  1.00  0.00     0.037 A 
ATOM    132  H   UNL A   1      44.960  25.806  31.448  1.00  0.00     0.065 H 
BRANCH 113 133
ATOM    133  C   UNL A   1      43.065  27.197  34.898  1.00  0.00     0.064 A 
ATOM    134  C   UNL A   1      43.299  27.553  36.241  1.00  0.00     0.173 A 
ATOM    135  C   UNL A   1      43.296  25.844  34.572  1.00  0.00     0.173 A 
ATOM    136  F   UNL A   1      43.154  28.823  36.646  1.00  0.00    -0.203 F 
ATOM    137  C   UNL A   1      43.763  26.624  37.178  1.00  0.00     0.198 A 
ATOM    138  C   UNL A   1      43.711  24.910  35.519  1.00  0.00     0.198 A 
ATOM    139  F   UNL A   1      43.235  25.407  33.306  1.00  0.00    -0.203 F 
ATOM    140  F   UNL A   1      44.070  27.024  38.419  1.00  0.00    -0.200 F 
ATOM    141  C   UNL A   1      43.969  25.303  36.816  1.00  0.00     0.200 A 
ATOM    142  F   UNL A   1      43.932  23.642  35.143  1.00  0.00    -0.200 F 
ATOM    143  F   UNL A   1      44.459  24.423  37.699  1.00  0.00    -0.200 F 
ENDBRANCH 113 133
BRANCH 116 144
ATOM    144  C   UNL A   1      42.616  24.398  26.815  1.00  0.00     0.064 A 
ATOM    145  C   UNL A   1      43.309  24.136  25.624  1.00  0.00     0.173 A 
ATOM    146  C   UNL A   1      41.969  23.303  27.422  1.00  0.00     0.173 A 
ATOM    147  F   UNL A   1      43.986  25.115  25.006  1.00  0.00    -0.203 F 
ATOM    148  C   UNL A   1      43.384  22.845  25.091  1.00  0.00     0.198 A 
ATOM    149  C   UNL A   1      42.034  22.019  26.882  1.00  0.00     0.198 A 
ATOM    150  F   UNL A   1      41.348  23.435  28.602  1.00  0.00    -0.203 F 
ATOM    151  F   UNL A   1      44.118  22.619  23.993  1.00  0.00    -0.200 F 
ATOM    152  C   UNL A   1      42.756  21.787  25.727  1.00  0.00     0.200 A 
ATOM    153  F   UNL A   1      41.450  20.998  27.526  1.00  0.00    -0.200 F 
ATOM    154  F   UNL A   1      42.882  20.540  25.253  1.00  0.00    -0.200 F 
ENDBRANCH 116 144
BRANCH 131 155
ATOM    155  C   UNL A   1      45.806  29.398  29.009  1.00  0.00     0.064 A 
ATOM    156  C   UNL A   1      47.111  29.594  28.527  1.00  0.00     0.173 A 
ATOM    157  C   UNL A   1      44.766  30.072  28.354  1.00  0.00     0.173 A 
ATOM    158  F   UNL A   1      48.143  28.909  29.034  1.00  0.00    -0.203 F 
ATOM    159  C   UNL A   1      47.365  30.466  27.469  1.00  0.00     0.198 A 
ATOM    160  C   UNL A   1      45.019  30.911  27.271  1.00  0.00     0.198 A 
ATOM    161  F   UNL A   1      43.494  29.878  28.734  1.00  0.00    -0.203 F 
ATOM    162  F   UNL A   1      48.621  30.650  27.037  1.00  0.00    -0.200 F 
ATOM    163  C   UNL A   1      46.318  31.117  26.839  1.00  0.00     0.200 A 
ATOM    164  F   UNL A   1      43.998  31.498  26.632  1.00  0.00    -0.200 F 
ATOM    165  F   UNL A   1      46.558  31.922  25.794  1.00  0.00    -0.200 F 
ENDBRANCH 131 155
ENDBRANCH  96  99
ENDBRANCH  86  89
ENDBRANCH  82  85
ENDBRANCH  79  82
ENDBRANCH  76  79
ENDBRANCH  73  76
ENDBRANCH   1  73
TORSDOF 27
ENDMDL
