MODEL 1
REMARK VINA RESULT:     -12.3      0.000      0.000
REMARK SMILES Cc1cc(=O)c(Oc2ccc(C(=O)NCCCCCCNC(=O)c3ccc(-c4c5nc(c(-c6c(F)c(F)c(F)c(F)c6F)c6ccc([nH]6)c(-c6c(F)c(F)c(F)c(F)c6F)c6nc(c(-c7c(F)c(F)c(F)c(F)c7F)c7ccc4[nH]7)C=C6)C=C5)cc3)cc2)c(-c2ccc(S(C)(=O)=O)cc2)o1
REMARK SMILES IDX 16 1 15 4 14 7 12 8 13 9 11 11 8 12 9 13 88 14 10 15 87 17
REMARK SMILES IDX 7 21 6 22 2 23 3 24 100 25 4 26 89 28 5 29 1 30 90 34 91 35
REMARK SMILES IDX 99 36 92 37 98 39 93 41 94 44 96 45 97 46 95 47 17 51 18 54
REMARK SMILES IDX 19 57 20 60 21 63 22 64 23 66 24 67 25 68 86 69 26 70 85 72
REMARK SMILES IDX 27 74 28 77 29 78 79 79 30 80 84 81 78 82 80 83 31 84 83 85
REMARK SMILES IDX 77 87 76 89 32 91 64 94 44 95 63 96 45 97 48 98 62 99 81 100
REMARK SMILES IDX 46 101 47 103 61 105 82 106 49 109 33 111 34 112 42 113
REMARK SMILES IDX 35 114 36 115 40 116 43 117 37 118 38 119 41 120 39 121
REMARK SMILES IDX 65 122 66 123 74 124 67 125 68 126 72 127 75 128 69 129
REMARK SMILES IDX 70 130 73 131 71 132 50 133 51 134 59 135 52 136 53 137
REMARK SMILES IDX 57 138 60 139 54 140 55 141 58 142 56 143
REMARK H PARENT 16 2 16 3 15 5 15 6 14 10 9 16 88 18 10 19 87 20 3 27 1 31
REMARK H PARENT 1 32 1 33 91 38 99 40 92 42 98 43 95 48 95 49 95 50 17 52
REMARK H PARENT 17 53 18 55 18 56 19 58 19 59 20 61 20 62 21 65 25 71 86 73
REMARK H PARENT 26 75 85 76 84 86 78 88 80 90 83 92 77 93 45 102 48 104 81 107
REMARK H PARENT 46 108 82 110
REMARK Flexibility Score: inf
ROOT
ATOM      1  C   UNL A   1      40.488  22.466  27.239  1.00  0.00    -0.036 C 
ATOM      2  H   UNL A   1      40.181  21.973  28.138  1.00  0.00     0.028 H 
ATOM      3  H   UNL A   1      40.814  23.479  27.358  1.00  0.00     0.028 H 
ENDROOT
BRANCH   1   4
ATOM      4  C   UNL A   1      39.267  22.556  26.329  1.00  0.00     0.018 C 
ATOM      5  H   UNL A   1      38.477  23.018  26.886  1.00  0.00     0.049 H 
ATOM      6  H   UNL A   1      39.583  23.116  25.475  1.00  0.00     0.049 H 
BRANCH   4   7
ATOM      7  N   UNL A   1      38.769  21.299  25.812  1.00  0.00    -0.352 N 
ATOM      8  C   UNL A   1      37.636  21.012  25.083  1.00  0.00     0.251 C 
ATOM      9  O   UNL A   1      37.484  19.874  24.640  1.00  0.00    -0.269 OA
ATOM     10  H   UNL A   1      39.335  20.520  26.014  1.00  0.00     0.163 HD
BRANCH   8  11
ATOM     11  C   UNL A   1      36.537  22.004  24.916  1.00  0.00     0.040 A 
ATOM     12  C   UNL A   1      34.903  24.257  24.869  1.00  0.00     0.127 A 
ATOM     13  C   UNL A   1      34.990  23.507  26.035  1.00  0.00    -0.019 A 
ATOM     14  C   UNL A   1      35.432  23.757  23.680  1.00  0.00    -0.019 A 
ATOM     15  C   UNL A   1      35.842  22.399  26.069  1.00  0.00    -0.046 A 
ATOM     16  H   UNL A   1      34.432  23.762  26.864  1.00  0.00     0.066 H 
ATOM     17  C   UNL A   1      36.220  22.607  23.698  1.00  0.00    -0.046 A 
ATOM     18  H   UNL A   1      35.241  24.239  22.787  1.00  0.00     0.066 H 
ATOM     19  H   UNL A   1      35.960  21.870  26.947  1.00  0.00     0.063 H 
ATOM     20  H   UNL A   1      36.567  22.203  22.815  1.00  0.00     0.063 H 
BRANCH  12  21
ATOM     21  O   UNL A   1      34.243  25.447  24.798  1.00  0.00    -0.449 OA
BRANCH  21  22
ATOM     22  C   UNL A   1      32.868  25.565  24.632  1.00  0.00     0.217 A 
ATOM     23  C   UNL A   1      30.158  26.294  24.209  1.00  0.00     0.105 A 
ATOM     24  C   UNL A   1      31.003  27.299  24.448  1.00  0.00     0.028 A 
ATOM     25  O   UNL A   1      30.552  24.973  24.240  1.00  0.00    -0.457 OA
ATOM     26  C   UNL A   1      32.413  26.991  24.719  1.00  0.00     0.228 A 
ATOM     27  H   UNL A   1      30.671  28.276  24.442  1.00  0.00     0.070 H 
ATOM     28  C   UNL A   1      31.888  24.638  24.447  1.00  0.00     0.180 A 
ATOM     29  O   UNL A   1      33.179  27.906  25.009  1.00  0.00    -0.285 OA
BRANCH  23  30
ATOM     30  C   UNL A   1      28.713  26.502  23.889  1.00  0.00    -0.006 C 
ATOM     31  H   UNL A   1      28.134  26.422  24.786  1.00  0.00     0.031 H 
ATOM     32  H   UNL A   1      28.392  25.758  23.190  1.00  0.00     0.031 H 
ATOM     33  H   UNL A   1      28.578  27.473  23.462  1.00  0.00     0.031 H 
ENDBRANCH  23  30
BRANCH  28  34
ATOM     34  C   UNL A   1      32.035  23.171  24.399  1.00  0.00     0.021 A 
ATOM     35  C   UNL A   1      32.243  22.535  23.162  1.00  0.00    -0.050 A 
ATOM     36  C   UNL A   1      31.954  22.389  25.562  1.00  0.00    -0.050 A 
ATOM     37  C   UNL A   1      32.459  21.155  23.096  1.00  0.00    -0.043 A 
ATOM     38  H   UNL A   1      32.236  23.093  22.294  1.00  0.00     0.063 H 
ATOM     39  C   UNL A   1      32.158  21.006  25.500  1.00  0.00    -0.043 A 
ATOM     40  H   UNL A   1      31.744  22.837  26.467  1.00  0.00     0.063 H 
ATOM     41  C   UNL A   1      32.424  20.399  24.270  1.00  0.00     0.067 A 
ATOM     42  H   UNL A   1      32.642  20.700  22.189  1.00  0.00     0.064 H 
ATOM     43  H   UNL A   1      32.111  20.437  26.360  1.00  0.00     0.064 H 
BRANCH  41  44
ATOM     44  S   UNL A   1      32.831  18.668  24.194  1.00  0.00     0.175 S 
ATOM     45  O   UNL A   1      34.272  18.560  24.292  1.00  0.00    -0.224 OA
ATOM     46  O   UNL A   1      31.956  17.962  25.114  1.00  0.00    -0.224 OA
BRANCH  44  47
ATOM     47  C   UNL A   1      32.364  18.195  22.554  1.00  0.00     0.043 C 
ATOM     48  H   UNL A   1      31.457  18.693  22.284  1.00  0.00     0.040 H 
ATOM     49  H   UNL A   1      32.213  17.136  22.518  1.00  0.00     0.040 H 
ATOM     50  H   UNL A   1      33.140  18.468  21.870  1.00  0.00     0.040 H 
ENDBRANCH  44  47
ENDBRANCH  41  44
ENDBRANCH  28  34
ENDBRANCH  21  22
ENDBRANCH  12  21
ENDBRANCH   8  11
ENDBRANCH   4   7
ENDBRANCH   1   4
BRANCH   1  51
ATOM     51  C   UNL A   1      41.714  21.724  26.707  1.00  0.00    -0.052 C 
ATOM     52  H   UNL A   1      42.581  22.262  27.029  1.00  0.00     0.027 H 
ATOM     53  H   UNL A   1      41.577  21.684  25.647  1.00  0.00     0.027 H 
BRANCH  51  54
ATOM     54  C   UNL A   1      41.886  20.268  27.142  1.00  0.00    -0.052 C 
ATOM     55  H   UNL A   1      40.975  19.959  27.611  1.00  0.00     0.027 H 
ATOM     56  H   UNL A   1      42.741  20.263  27.784  1.00  0.00     0.027 H 
BRANCH  54  57
ATOM     57  C   UNL A   1      42.203  19.260  26.039  1.00  0.00    -0.036 C 
ATOM     58  H   UNL A   1      42.106  19.761  25.099  1.00  0.00     0.028 H 
ATOM     59  H   UNL A   1      41.515  18.453  26.178  1.00  0.00     0.028 H 
BRANCH  57  60
ATOM     60  C   UNL A   1      43.589  18.631  26.091  1.00  0.00     0.018 C 
ATOM     61  H   UNL A   1      43.493  17.629  26.452  1.00  0.00     0.049 H 
ATOM     62  H   UNL A   1      44.186  19.241  26.736  1.00  0.00     0.049 H 
BRANCH  60  63
ATOM     63  N   UNL A   1      44.259  18.594  24.800  1.00  0.00    -0.352 N 
ATOM     64  C   UNL A   1      44.793  19.620  24.055  1.00  0.00     0.251 C 
ATOM     65  H   UNL A   1      44.343  17.698  24.398  1.00  0.00     0.163 HD
ATOM     66  O   UNL A   1      45.221  19.405  22.925  1.00  0.00    -0.269 OA
BRANCH  64  67
ATOM     67  C   UNL A   1      44.818  20.997  24.598  1.00  0.00     0.039 A 
ATOM     68  C   UNL A   1      44.253  22.058  23.891  1.00  0.00    -0.049 A 
ATOM     69  C   UNL A   1      45.436  21.233  25.831  1.00  0.00    -0.049 A 
ATOM     70  C   UNL A   1      44.476  23.365  24.312  1.00  0.00    -0.053 A 
ATOM     71  H   UNL A   1      43.672  21.875  23.058  1.00  0.00     0.063 H 
ATOM     72  C   UNL A   1      45.566  22.542  26.307  1.00  0.00    -0.053 A 
ATOM     73  H   UNL A   1      45.795  20.442  26.388  1.00  0.00     0.063 H 
ATOM     74  C   UNL A   1      45.137  23.625  25.525  1.00  0.00    -0.014 A 
ATOM     75  H   UNL A   1      44.153  24.152  23.728  1.00  0.00     0.063 H 
ATOM     76  H   UNL A   1      45.981  22.712  27.237  1.00  0.00     0.063 H 
BRANCH  74  77
ATOM     77  C   UNL A   1      45.356  25.035  25.947  1.00  0.00     0.031 A 
ATOM     78  C   UNL A   1      44.248  25.839  26.577  1.00  0.00     0.074 A 
ATOM     79  C   UNL A   1      46.583  25.575  25.818  1.00  0.00     0.049 A 
ATOM     80  N   UNL A   1      44.283  27.060  27.050  1.00  0.00    -0.248 NA
ATOM     81  C   UNL A   1      42.931  25.194  26.685  1.00  0.00    -0.034 C 
ATOM     82  C   UNL A   1      47.738  24.896  25.226  1.00  0.00    -0.036 A 
ATOM     83  N   UNL A   1      47.077  26.797  26.200  1.00  0.00    -0.354 N 
ATOM     84  C   UNL A   1      42.996  27.332  27.500  1.00  0.00     0.074 A 
ATOM     85  C   UNL A   1      42.193  26.165  27.207  1.00  0.00    -0.034 C 
ATOM     86  H   UNL A   1      42.653  24.235  26.425  1.00  0.00     0.065 H 
ATOM     87  C   UNL A   1      48.817  25.682  25.343  1.00  0.00    -0.036 A 
ATOM     88  H   UNL A   1      47.723  23.961  24.788  1.00  0.00     0.065 H 
ATOM     89  C   UNL A   1      48.419  26.947  25.951  1.00  0.00     0.049 A 
ATOM     90  H   UNL A   1      46.521  27.498  26.611  1.00  0.00     0.167 HD
ATOM     91  C   UNL A   1      42.534  28.445  28.118  1.00  0.00     0.037 A 
ATOM     92  H   UNL A   1      41.178  26.097  27.380  1.00  0.00     0.065 H 
ATOM     93  H   UNL A   1      49.774  25.433  25.048  1.00  0.00     0.065 H 
ATOM     94  C   UNL A   1      49.242  27.989  26.178  1.00  0.00     0.037 A 
ATOM     95  C   UNL A   1      43.341  29.599  28.424  1.00  0.00     0.049 A 
ATOM     96  C   UNL A   1      48.692  29.233  26.817  1.00  0.00     0.074 A 
ATOM     97  C   UNL A   1      42.969  30.763  29.073  1.00  0.00    -0.036 A 
ATOM     98  N   UNL A   1      44.683  29.736  28.097  1.00  0.00    -0.354 N 
ATOM     99  N   UNL A   1      47.482  29.464  27.262  1.00  0.00    -0.248 NA
ATOM    100  C   UNL A   1      49.617  30.361  26.976  1.00  0.00    -0.034 C 
ATOM    101  C   UNL A   1      44.067  31.627  29.088  1.00  0.00    -0.036 A 
ATOM    102  H   UNL A   1      42.040  30.959  29.477  1.00  0.00     0.065 H 
ATOM    103  C   UNL A   1      45.143  30.979  28.504  1.00  0.00     0.049 A 
ATOM    104  H   UNL A   1      45.227  29.052  27.644  1.00  0.00     0.167 HD
ATOM    105  C   UNL A   1      47.502  30.755  27.769  1.00  0.00     0.074 A 
ATOM    106  C   UNL A   1      48.852  31.252  27.593  1.00  0.00    -0.034 C 
ATOM    107  H   UNL A   1      50.605  30.441  26.687  1.00  0.00     0.065 H 
ATOM    108  H   UNL A   1      44.074  32.586  29.468  1.00  0.00     0.065 H 
ATOM    109  C   UNL A   1      46.490  31.463  28.327  1.00  0.00     0.037 A 
ATOM    110  H   UNL A   1      49.175  32.180  27.908  1.00  0.00     0.065 H 
BRANCH  91 111
ATOM    111  C   UNL A   1      41.082  28.483  28.507  1.00  0.00     0.064 A 
ATOM    112  C   UNL A   1      40.650  28.085  29.781  1.00  0.00     0.173 A 
ATOM    113  C   UNL A   1      40.119  28.987  27.618  1.00  0.00     0.173 A 
ATOM    114  F   UNL A   1      41.526  27.589  30.668  1.00  0.00    -0.203 F 
ATOM    115  C   UNL A   1      39.307  28.169  30.143  1.00  0.00     0.198 A 
ATOM    116  C   UNL A   1      38.783  29.099  27.994  1.00  0.00     0.198 A 
ATOM    117  F   UNL A   1      40.478  29.391  26.391  1.00  0.00    -0.203 F 
ATOM    118  F   UNL A   1      38.912  27.744  31.351  1.00  0.00    -0.200 F 
ATOM    119  C   UNL A   1      38.377  28.684  29.252  1.00  0.00     0.200 A 
ATOM    120  F   UNL A   1      37.889  29.615  27.139  1.00  0.00    -0.200 F 
ATOM    121  F   UNL A   1      37.087  28.779  29.608  1.00  0.00    -0.200 F 
ENDBRANCH  91 111
BRANCH  94 122
ATOM    122  C   UNL A   1      50.676  27.877  25.808  1.00  0.00     0.064 A 
ATOM    123  C   UNL A   1      51.645  27.560  26.769  1.00  0.00     0.173 A 
ATOM    124  C   UNL A   1      51.101  28.027  24.479  1.00  0.00     0.173 A 
ATOM    125  F   UNL A   1      51.292  27.424  28.055  1.00  0.00    -0.203 F 
ATOM    126  C   UNL A   1      52.982  27.394  26.415  1.00  0.00     0.198 A 
ATOM    127  C   UNL A   1      52.432  27.831  24.120  1.00  0.00     0.198 A 
ATOM    128  F   UNL A   1      50.211  28.325  23.519  1.00  0.00    -0.203 F 
ATOM    129  F   UNL A   1      53.892  27.113  27.357  1.00  0.00    -0.200 F 
ATOM    130  C   UNL A   1      53.372  27.518  25.090  1.00  0.00     0.200 A 
ATOM    131  F   UNL A   1      52.800  27.930  22.836  1.00  0.00    -0.200 F 
ATOM    132  F   UNL A   1      54.654  27.334  24.746  1.00  0.00    -0.200 F 
ENDBRANCH  94 122
BRANCH 109 133
ATOM    133  C   UNL A   1      46.792  32.852  28.810  1.00  0.00     0.064 A 
ATOM    134  C   UNL A   1      47.285  33.088  30.102  1.00  0.00     0.173 A 
ATOM    135  C   UNL A   1      46.673  33.948  27.942  1.00  0.00     0.173 A 
ATOM    136  F   UNL A   1      47.403  32.076  30.974  1.00  0.00    -0.203 F 
ATOM    137  C   UNL A   1      47.639  34.372  30.509  1.00  0.00     0.198 A 
ATOM    138  C   UNL A   1      47.057  35.224  28.342  1.00  0.00     0.198 A 
ATOM    139  F   UNL A   1      46.213  33.775  26.693  1.00  0.00    -0.203 F 
ATOM    140  F   UNL A   1      48.079  34.579  31.757  1.00  0.00    -0.200 F 
ATOM    141  C   UNL A   1      47.537  35.436  29.625  1.00  0.00     0.200 A 
ATOM    142  F   UNL A   1      46.975  36.249  27.481  1.00  0.00    -0.200 F 
ATOM    143  F   UNL A   1      47.902  36.667  30.011  1.00  0.00    -0.200 F 
ENDBRANCH 109 133
ENDBRANCH  74  77
ENDBRANCH  64  67
ENDBRANCH  60  63
ENDBRANCH  57  60
ENDBRANCH  54  57
ENDBRANCH  51  54
ENDBRANCH   1  51
TORSDOF 19
ENDMDL
MODEL 2
REMARK VINA RESULT:     -12.3      0.249      6.820
REMARK SMILES Cc1cc(=O)c(Oc2ccc(C(=O)NCCCCCCNC(=O)c3ccc(-c4c5nc(c(-c6c(F)c(F)c(F)c(F)c6F)c6ccc([nH]6)c(-c6c(F)c(F)c(F)c(F)c6F)c6nc(c(-c7c(F)c(F)c(F)c(F)c7F)c7ccc4[nH]7)C=C6)C=C5)cc3)cc2)c(-c2ccc(S(C)(=O)=O)cc2)o1
REMARK SMILES IDX 16 1 15 4 14 7 12 8 13 9 11 11 8 12 9 13 88 14 10 15 87 17
REMARK SMILES IDX 7 21 6 22 2 23 3 24 100 25 4 26 89 28 5 29 1 30 90 34 91 35
REMARK SMILES IDX 99 36 92 37 98 39 93 41 94 44 96 45 97 46 95 47 17 51 18 54
REMARK SMILES IDX 19 57 20 60 21 63 22 64 23 66 24 67 25 68 86 69 26 70 85 72
REMARK SMILES IDX 27 74 28 77 29 78 79 79 30 80 84 81 78 82 80 83 31 84 83 85
REMARK SMILES IDX 77 87 76 89 32 91 64 94 44 95 63 96 45 97 48 98 62 99 81 100
REMARK SMILES IDX 46 101 47 103 61 105 82 106 49 109 33 111 34 112 42 113
REMARK SMILES IDX 35 114 36 115 40 116 43 117 37 118 38 119 41 120 39 121
REMARK SMILES IDX 65 122 66 123 74 124 67 125 68 126 72 127 75 128 69 129
REMARK SMILES IDX 70 130 73 131 71 132 50 133 51 134 59 135 52 136 53 137
REMARK SMILES IDX 57 138 60 139 54 140 55 141 58 142 56 143
REMARK H PARENT 16 2 16 3 15 5 15 6 14 10 9 16 88 18 10 19 87 20 3 27 1 31
REMARK H PARENT 1 32 1 33 91 38 99 40 92 42 98 43 95 48 95 49 95 50 17 52
REMARK H PARENT 17 53 18 55 18 56 19 58 19 59 20 61 20 62 21 65 25 71 86 73
REMARK H PARENT 26 75 85 76 84 86 78 88 80 90 83 92 77 93 45 102 48 104 81 107
REMARK H PARENT 46 108 82 110
REMARK Flexibility Score: inf
ROOT
ATOM      1  C   UNL A   1      40.519  22.496  27.148  1.00  0.00    -0.036 C 
ATOM      2  H   UNL A   1      40.276  22.013  28.072  1.00  0.00     0.028 H 
ATOM      3  H   UNL A   1      40.844  23.513  27.233  1.00  0.00     0.028 H 
ENDROOT
BRANCH   1   4
ATOM      4  C   UNL A   1      39.239  22.567  26.321  1.00  0.00     0.018 C 
ATOM      5  H   UNL A   1      38.472  22.988  26.939  1.00  0.00     0.049 H 
ATOM      6  H   UNL A   1      39.481  23.157  25.463  1.00  0.00     0.049 H 
BRANCH   4   7
ATOM      7  N   UNL A   1      38.749  21.306  25.804  1.00  0.00    -0.352 N 
ATOM      8  C   UNL A   1      37.622  21.012  25.069  1.00  0.00     0.251 C 
ATOM      9  O   UNL A   1      37.478  19.873  24.628  1.00  0.00    -0.269 OA
ATOM     10  H   UNL A   1      39.317  20.529  26.012  1.00  0.00     0.163 HD
BRANCH   8  11
ATOM     11  C   UNL A   1      36.521  21.999  24.892  1.00  0.00     0.040 A 
ATOM     12  C   UNL A   1      34.879  24.247  24.826  1.00  0.00     0.127 A 
ATOM     13  C   UNL A   1      34.962  23.501  25.996  1.00  0.00    -0.019 A 
ATOM     14  C   UNL A   1      35.415  23.743  23.642  1.00  0.00    -0.019 A 
ATOM     15  C   UNL A   1      35.818  22.397  26.039  1.00  0.00    -0.046 A 
ATOM     16  H   UNL A   1      34.398  23.759  26.821  1.00  0.00     0.066 H 
ATOM     17  C   UNL A   1      36.208  22.596  23.670  1.00  0.00    -0.046 A 
ATOM     18  H   UNL A   1      35.227  24.220  22.746  1.00  0.00     0.066 H 
ATOM     19  H   UNL A   1      35.933  21.872  26.920  1.00  0.00     0.063 H 
ATOM     20  H   UNL A   1      36.561  22.190  22.790  1.00  0.00     0.063 H 
BRANCH  12  21
ATOM     21  O   UNL A   1      34.214  25.433  24.747  1.00  0.00    -0.449 OA
BRANCH  21  22
ATOM     22  C   UNL A   1      32.837  25.545  24.597  1.00  0.00     0.217 A 
ATOM     23  C   UNL A   1      30.119  26.263  24.205  1.00  0.00     0.105 A 
ATOM     24  C   UNL A   1      30.962  27.271  24.434  1.00  0.00     0.028 A 
ATOM     25  O   UNL A   1      30.519  24.943  24.232  1.00  0.00    -0.457 OA
ATOM     26  C   UNL A   1      32.377  26.970  24.689  1.00  0.00     0.228 A 
ATOM     27  H   UNL A   1      30.626  28.247  24.432  1.00  0.00     0.070 H 
ATOM     28  C   UNL A   1      31.859  24.614  24.423  1.00  0.00     0.180 A 
ATOM     29  O   UNL A   1      33.142  27.888  24.970  1.00  0.00    -0.285 OA
BRANCH  23  30
ATOM     30  C   UNL A   1      28.669  26.465  23.902  1.00  0.00    -0.006 C 
ATOM     31  H   UNL A   1      28.517  27.459  23.536  1.00  0.00     0.031 H 
ATOM     32  H   UNL A   1      28.095  26.321  24.793  1.00  0.00     0.031 H 
ATOM     33  H   UNL A   1      28.358  25.760  23.160  1.00  0.00     0.031 H 
ENDBRANCH  23  30
BRANCH  28  34
ATOM     34  C   UNL A   1      32.011  23.148  24.373  1.00  0.00     0.021 A 
ATOM     35  C   UNL A   1      32.235  22.515  23.137  1.00  0.00    -0.050 A 
ATOM     36  C   UNL A   1      31.922  22.364  25.534  1.00  0.00    -0.050 A 
ATOM     37  C   UNL A   1      32.456  21.136  23.071  1.00  0.00    -0.043 A 
ATOM     38  H   UNL A   1      32.235  23.075  22.270  1.00  0.00     0.063 H 
ATOM     39  C   UNL A   1      32.130  20.981  25.471  1.00  0.00    -0.043 A 
ATOM     40  H   UNL A   1      31.700  22.809  26.437  1.00  0.00     0.063 H 
ATOM     41  C   UNL A   1      32.411  20.378  24.243  1.00  0.00     0.067 A 
ATOM     42  H   UNL A   1      32.650  20.684  22.164  1.00  0.00     0.064 H 
ATOM     43  H   UNL A   1      32.077  20.410  26.330  1.00  0.00     0.064 H 
BRANCH  41  44
ATOM     44  S   UNL A   1      32.826  18.648  24.168  1.00  0.00     0.175 S 
ATOM     45  O   UNL A   1      34.265  18.545  24.292  1.00  0.00    -0.224 OA
ATOM     46  O   UNL A   1      31.935  17.936  25.068  1.00  0.00    -0.224 OA
BRANCH  44  47
ATOM     47  C   UNL A   1      32.391  18.180  22.517  1.00  0.00     0.043 C 
ATOM     48  H   UNL A   1      32.974  17.333  22.221  1.00  0.00     0.040 H 
ATOM     49  H   UNL A   1      32.585  18.996  21.853  1.00  0.00     0.040 H 
ATOM     50  H   UNL A   1      31.352  17.929  22.480  1.00  0.00     0.040 H 
ENDBRANCH  44  47
ENDBRANCH  41  44
ENDBRANCH  28  34
ENDBRANCH  21  22
ENDBRANCH  12  21
ENDBRANCH   8  11
ENDBRANCH   4   7
ENDBRANCH   1   4
BRANCH   1  51
ATOM     51  C   UNL A   1      41.712  21.756  26.545  1.00  0.00    -0.052 C 
ATOM     52  H   UNL A   1      42.596  22.292  26.819  1.00  0.00     0.027 H 
ATOM     53  H   UNL A   1      41.515  21.720  25.494  1.00  0.00     0.027 H 
BRANCH  51  54
ATOM     54  C   UNL A   1      41.908  20.298  26.963  1.00  0.00    -0.052 C 
ATOM     55  H   UNL A   1      41.019  19.983  27.469  1.00  0.00     0.027 H 
ATOM     56  H   UNL A   1      42.790  20.293  27.568  1.00  0.00     0.027 H 
BRANCH  54  57
ATOM     57  C   UNL A   1      42.181  19.298  25.842  1.00  0.00    -0.036 C 
ATOM     58  H   UNL A   1      42.134  19.826  24.913  1.00  0.00     0.028 H 
ATOM     59  H   UNL A   1      41.440  18.534  25.949  1.00  0.00     0.028 H 
BRANCH  57  60
ATOM     60  C   UNL A   1      43.523  18.581  25.902  1.00  0.00     0.018 C 
ATOM     61  H   UNL A   1      43.349  17.558  26.164  1.00  0.00     0.049 H 
ATOM     62  H   UNL A   1      44.119  19.092  26.630  1.00  0.00     0.049 H 
BRANCH  60  63
ATOM     63  N   UNL A   1      44.258  18.616  24.647  1.00  0.00    -0.352 N 
ATOM     64  C   UNL A   1      44.842  19.680  23.999  1.00  0.00     0.251 C 
ATOM     65  H   UNL A   1      44.352  17.748  24.193  1.00  0.00     0.163 HD
ATOM     66  O   UNL A   1      45.326  19.533  22.881  1.00  0.00    -0.269 OA
BRANCH  64  67
ATOM     67  C   UNL A   1      44.855  21.019  24.632  1.00  0.00     0.039 A 
ATOM     68  C   UNL A   1      44.361  22.136  23.959  1.00  0.00    -0.049 A 
ATOM     69  C   UNL A   1      45.391  21.161  25.916  1.00  0.00    -0.049 A 
ATOM     70  C   UNL A   1      44.578  23.407  24.479  1.00  0.00    -0.053 A 
ATOM     71  H   UNL A   1      43.835  22.020  23.078  1.00  0.00     0.063 H 
ATOM     72  C   UNL A   1      45.512  22.434  26.484  1.00  0.00    -0.053 A 
ATOM     73  H   UNL A   1      45.696  20.329  26.444  1.00  0.00     0.063 H 
ATOM     74  C   UNL A   1      45.158  23.574  25.748  1.00  0.00    -0.014 A 
ATOM     75  H   UNL A   1      44.310  24.238  23.927  1.00  0.00     0.063 H 
ATOM     76  H   UNL A   1      45.865  22.535  27.450  1.00  0.00     0.063 H 
BRANCH  74  77
ATOM     77  C   UNL A   1      45.373  24.949  26.274  1.00  0.00     0.031 A 
ATOM     78  C   UNL A   1      46.716  25.623  26.162  1.00  0.00     0.074 A 
ATOM     79  C   UNL A   1      44.331  25.620  26.801  1.00  0.00     0.049 A 
ATOM     80  N   UNL A   1      47.062  26.836  26.519  1.00  0.00    -0.248 NA
ATOM     81  C   UNL A   1      47.814  24.836  25.582  1.00  0.00    -0.034 C 
ATOM     82  C   UNL A   1      42.981  25.077  26.962  1.00  0.00    -0.036 A 
ATOM     83  N   UNL A   1      44.228  26.906  27.269  1.00  0.00    -0.354 N 
ATOM     84  C   UNL A   1      48.413  26.951  26.217  1.00  0.00     0.074 A 
ATOM     85  C   UNL A   1      48.837  25.674  25.687  1.00  0.00    -0.034 C 
ATOM     86  H   UNL A   1      47.794  23.881  25.192  1.00  0.00     0.065 H 
ATOM     87  C   UNL A   1      42.172  26.038  27.428  1.00  0.00    -0.036 A 
ATOM     88  H   UNL A   1      42.697  24.107  26.749  1.00  0.00     0.065 H 
ATOM     89  C   UNL A   1      42.958  27.244  27.667  1.00  0.00     0.049 A 
ATOM     90  H   UNL A   1      44.992  27.526  27.315  1.00  0.00     0.167 HD
ATOM     91  C   UNL A   1      49.221  28.031  26.353  1.00  0.00     0.037 A 
ATOM     92  H   UNL A   1      49.809  25.444  25.425  1.00  0.00     0.065 H 
ATOM     93  H   UNL A   1      41.158  25.941  27.592  1.00  0.00     0.065 H 
ATOM     94  C   UNL A   1      42.475  28.393  28.177  1.00  0.00     0.037 A 
ATOM     95  C   UNL A   1      48.792  29.307  26.867  1.00  0.00     0.049 A 
ATOM     96  C   UNL A   1      43.404  29.558  28.368  1.00  0.00     0.074 A 
ATOM     97  C   UNL A   1      49.530  30.468  27.016  1.00  0.00    -0.036 A 
ATOM     98  N   UNL A   1      47.511  29.588  27.319  1.00  0.00    -0.354 N 
ATOM     99  N   UNL A   1      44.671  29.662  28.052  1.00  0.00    -0.248 NA
ATOM    100  C   UNL A   1      42.840  30.762  28.992  1.00  0.00    -0.034 C 
ATOM    101  C   UNL A   1      48.714  31.432  27.611  1.00  0.00    -0.036 A 
ATOM    102  H   UNL A   1      50.515  30.598  26.734  1.00  0.00     0.065 H 
ATOM    103  C   UNL A   1      47.448  30.896  27.777  1.00  0.00     0.049 A 
ATOM    104  H   UNL A   1      46.758  28.954  27.316  1.00  0.00     0.167 HD
ATOM    105  C   UNL A   1      45.053  30.943  28.422  1.00  0.00     0.074 A 
ATOM    106  C   UNL A   1      43.877  31.588  28.971  1.00  0.00    -0.034 C 
ATOM    107  H   UNL A   1      41.886  30.923  29.352  1.00  0.00     0.065 H 
ATOM    108  H   UNL A   1      49.006  32.385  27.883  1.00  0.00     0.065 H 
ATOM    109  C   UNL A   1      46.271  31.529  28.318  1.00  0.00     0.037 A 
ATOM    110  H   UNL A   1      43.851  32.565  29.303  1.00  0.00     0.065 H 
BRANCH  91 111
ATOM    111  C   UNL A   1      50.662  27.888  25.947  1.00  0.00     0.064 A 
ATOM    112  C   UNL A   1      51.664  27.586  26.881  1.00  0.00     0.173 A 
ATOM    113  C   UNL A   1      51.035  27.989  24.597  1.00  0.00     0.173 A 
ATOM    114  F   UNL A   1      51.365  27.486  28.185  1.00  0.00    -0.203 F 
ATOM    115  C   UNL A   1      52.988  27.412  26.483  1.00  0.00     0.198 A 
ATOM    116  C   UNL A   1      52.353  27.783  24.199  1.00  0.00     0.198 A 
ATOM    117  F   UNL A   1      50.116  28.265  23.661  1.00  0.00    -0.203 F 
ATOM    118  F   UNL A   1      53.935  27.165  27.399  1.00  0.00    -0.200 F 
ATOM    119  C   UNL A   1      53.330  27.502  25.142  1.00  0.00     0.200 A 
ATOM    120  F   UNL A   1      52.678  27.851  22.900  1.00  0.00    -0.200 F 
ATOM    121  F   UNL A   1      54.601  27.319  24.758  1.00  0.00    -0.200 F 
ENDBRANCH  91 111
BRANCH  94 122
ATOM    122  C   UNL A   1      41.033  28.486  28.523  1.00  0.00     0.064 A 
ATOM    123  C   UNL A   1      40.574  28.118  29.795  1.00  0.00     0.173 A 
ATOM    124  C   UNL A   1      40.095  28.996  27.613  1.00  0.00     0.173 A 
ATOM    125  F   UNL A   1      41.428  27.608  30.694  1.00  0.00    -0.203 F 
ATOM    126  C   UNL A   1      39.232  28.260  30.144  1.00  0.00     0.198 A 
ATOM    127  C   UNL A   1      38.761  29.167  27.972  1.00  0.00     0.198 A 
ATOM    128  F   UNL A   1      40.486  29.368  26.384  1.00  0.00    -0.203 F 
ATOM    129  F   UNL A   1      38.815  27.880  31.359  1.00  0.00    -0.200 F 
ATOM    130  C   UNL A   1      38.330  28.795  29.237  1.00  0.00     0.200 A 
ATOM    131  F   UNL A   1      37.897  29.705  27.101  1.00  0.00    -0.200 F 
ATOM    132  F   UNL A   1      37.045  28.955  29.581  1.00  0.00    -0.200 F 
ENDBRANCH  94 122
BRANCH 109 133
ATOM    133  C   UNL A   1      46.407  32.948  28.790  1.00  0.00     0.064 A 
ATOM    134  C   UNL A   1      46.809  33.249  30.099  1.00  0.00     0.173 A 
ATOM    135  C   UNL A   1      46.221  34.014  27.897  1.00  0.00     0.173 A 
ATOM    136  F   UNL A   1      46.986  32.266  30.994  1.00  0.00    -0.203 F 
ATOM    137  C   UNL A   1      47.012  34.568  30.499  1.00  0.00     0.198 A 
ATOM    138  C   UNL A   1      46.454  35.328  28.292  1.00  0.00     0.198 A 
ATOM    139  F   UNL A   1      45.843  33.780  26.632  1.00  0.00    -0.203 F 
ATOM    140  F   UNL A   1      47.367  34.834  31.764  1.00  0.00    -0.200 F 
ATOM    141  C   UNL A   1      46.847  35.604  29.593  1.00  0.00     0.200 A 
ATOM    142  F   UNL A   1      46.312  36.328  27.410  1.00  0.00    -0.200 F 
ATOM    143  F   UNL A   1      47.066  36.870  29.974  1.00  0.00    -0.200 F 
ENDBRANCH 109 133
ENDBRANCH  74  77
ENDBRANCH  64  67
ENDBRANCH  60  63
ENDBRANCH  57  60
ENDBRANCH  54  57
ENDBRANCH  51  54
ENDBRANCH   1  51
TORSDOF 19
ENDMDL
MODEL 3
REMARK VINA RESULT:     -12.0      2.252      4.064
REMARK SMILES Cc1cc(=O)c(Oc2ccc(C(=O)NCCCCCCNC(=O)c3ccc(-c4c5nc(c(-c6c(F)c(F)c(F)c(F)c6F)c6ccc([nH]6)c(-c6c(F)c(F)c(F)c(F)c6F)c6nc(c(-c7c(F)c(F)c(F)c(F)c7F)c7ccc4[nH]7)C=C6)C=C5)cc3)cc2)c(-c2ccc(S(C)(=O)=O)cc2)o1
REMARK SMILES IDX 16 1 15 4 14 7 12 8 13 9 11 11 8 12 9 13 88 14 10 15 87 17
REMARK SMILES IDX 7 21 6 22 2 23 3 24 100 25 4 26 89 28 5 29 1 30 90 34 91 35
REMARK SMILES IDX 99 36 92 37 98 39 93 41 94 44 96 45 97 46 95 47 17 51 18 54
REMARK SMILES IDX 19 57 20 60 21 63 22 64 23 66 24 67 25 68 86 69 26 70 85 72
REMARK SMILES IDX 27 74 28 77 29 78 79 79 30 80 84 81 78 82 80 83 31 84 83 85
REMARK SMILES IDX 77 87 76 89 32 91 64 94 44 95 63 96 45 97 48 98 62 99 81 100
REMARK SMILES IDX 46 101 47 103 61 105 82 106 49 109 33 111 34 112 42 113
REMARK SMILES IDX 35 114 36 115 40 116 43 117 37 118 38 119 41 120 39 121
REMARK SMILES IDX 65 122 66 123 74 124 67 125 68 126 72 127 75 128 69 129
REMARK SMILES IDX 70 130 73 131 71 132 50 133 51 134 59 135 52 136 53 137
REMARK SMILES IDX 57 138 60 139 54 140 55 141 58 142 56 143
REMARK H PARENT 16 2 16 3 15 5 15 6 14 10 9 16 88 18 10 19 87 20 3 27 1 31
REMARK H PARENT 1 32 1 33 91 38 99 40 92 42 98 43 95 48 95 49 95 50 17 52
REMARK H PARENT 17 53 18 55 18 56 19 58 19 59 20 61 20 62 21 65 25 71 86 73
REMARK H PARENT 26 75 85 76 84 86 78 88 80 90 83 92 77 93 45 102 48 104 81 107
REMARK H PARENT 46 108 82 110
REMARK Flexibility Score: inf
ROOT
ATOM      1  C   UNL A   1      39.269  23.576  26.336  1.00  0.00    -0.036 C 
ATOM      2  H   UNL A   1      39.688  24.334  26.964  1.00  0.00     0.028 H 
ATOM      3  H   UNL A   1      39.574  23.609  25.310  1.00  0.00     0.028 H 
ENDROOT
BRANCH   1   4
ATOM      4  C   UNL A   1      37.760  23.799  26.298  1.00  0.00     0.018 C 
ATOM      5  H   UNL A   1      37.434  24.001  27.297  1.00  0.00     0.049 H 
ATOM      6  H   UNL A   1      37.603  24.607  25.615  1.00  0.00     0.049 H 
BRANCH   4   7
ATOM      7  N   UNL A   1      36.971  22.697  25.788  1.00  0.00    -0.352 N 
ATOM      8  C   UNL A   1      35.630  22.618  25.481  1.00  0.00     0.251 C 
ATOM      9  O   UNL A   1      35.203  21.602  24.934  1.00  0.00    -0.269 OA
ATOM     10  H   UNL A   1      37.477  21.867  25.634  1.00  0.00     0.163 HD
BRANCH   8  11
ATOM     11  C   UNL A   1      34.665  23.674  25.896  1.00  0.00     0.040 A 
ATOM     12  C   UNL A   1      32.620  25.553  26.089  1.00  0.00     0.127 A 
ATOM     13  C   UNL A   1      33.807  25.905  25.458  1.00  0.00    -0.019 A 
ATOM     14  C   UNL A   1      32.546  24.368  26.819  1.00  0.00    -0.019 A 
ATOM     15  C   UNL A   1      34.817  24.947  25.326  1.00  0.00    -0.046 A 
ATOM     16  H   UNL A   1      33.942  26.860  25.093  1.00  0.00     0.066 H 
ATOM     17  C   UNL A   1      33.588  23.443  26.752  1.00  0.00    -0.046 A 
ATOM     18  H   UNL A   1      31.721  24.175  27.408  1.00  0.00     0.066 H 
ATOM     19  H   UNL A   1      35.678  25.179  24.808  1.00  0.00     0.063 H 
ATOM     20  H   UNL A   1      33.562  22.591  27.333  1.00  0.00     0.063 H 
BRANCH  12  21
ATOM     21  O   UNL A   1      31.520  26.357  26.105  1.00  0.00    -0.449 OA
BRANCH  21  22
ATOM     22  C   UNL A   1      31.221  27.284  25.114  1.00  0.00     0.217 A 
ATOM     23  C   UNL A   1      30.277  28.834  22.932  1.00  0.00     0.105 A 
ATOM     24  C   UNL A   1      29.978  27.534  22.897  1.00  0.00     0.028 A 
ATOM     25  O   UNL A   1      31.061  29.387  23.922  1.00  0.00    -0.457 OA
ATOM     26  C   UNL A   1      30.472  26.664  23.972  1.00  0.00     0.228 A 
ATOM     27  H   UNL A   1      29.409  27.147  22.128  1.00  0.00     0.070 H 
ATOM     28  C   UNL A   1      31.512  28.608  24.985  1.00  0.00     0.180 A 
ATOM     29  O   UNL A   1      30.260  25.456  23.907  1.00  0.00    -0.285 OA
BRANCH  23  30
ATOM     30  C   UNL A   1      29.795  29.809  21.906  1.00  0.00    -0.006 C 
ATOM     31  H   UNL A   1      28.759  29.631  21.703  1.00  0.00     0.031 H 
ATOM     32  H   UNL A   1      30.360  29.687  21.005  1.00  0.00     0.031 H 
ATOM     33  H   UNL A   1      29.921  30.805  22.273  1.00  0.00     0.031 H 
ENDBRANCH  23  30
BRANCH  28  34
ATOM     34  C   UNL A   1      32.293  29.452  25.909  1.00  0.00     0.021 A 
ATOM     35  C   UNL A   1      33.573  29.033  26.317  1.00  0.00    -0.050 A 
ATOM     36  C   UNL A   1      31.782  30.661  26.405  1.00  0.00    -0.050 A 
ATOM     37  C   UNL A   1      34.364  29.848  27.132  1.00  0.00    -0.043 A 
ATOM     38  H   UNL A   1      33.930  28.114  26.011  1.00  0.00     0.063 H 
ATOM     39  C   UNL A   1      32.566  31.475  27.231  1.00  0.00    -0.043 A 
ATOM     40  H   UNL A   1      30.823  30.951  26.159  1.00  0.00     0.063 H 
ATOM     41  C   UNL A   1      33.857  31.071  27.577  1.00  0.00     0.067 A 
ATOM     42  H   UNL A   1      35.313  29.548  27.401  1.00  0.00     0.064 H 
ATOM     43  H   UNL A   1      32.190  32.370  27.582  1.00  0.00     0.064 H 
BRANCH  41  44
ATOM     44  S   UNL A   1      34.919  32.160  28.502  1.00  0.00     0.175 S 
ATOM     45  O   UNL A   1      34.629  31.954  29.906  1.00  0.00    -0.224 OA
ATOM     46  O   UNL A   1      36.267  32.020  27.979  1.00  0.00    -0.224 OA
BRANCH  44  47
ATOM     47  C   UNL A   1      34.350  33.778  28.065  1.00  0.00     0.043 C 
ATOM     48  H   UNL A   1      34.470  34.436  28.900  1.00  0.00     0.040 H 
ATOM     49  H   UNL A   1      33.316  33.731  27.794  1.00  0.00     0.040 H 
ATOM     50  H   UNL A   1      34.920  34.145  27.237  1.00  0.00     0.040 H 
ENDBRANCH  44  47
ENDBRANCH  41  44
ENDBRANCH  28  34
ENDBRANCH  21  22
ENDBRANCH  12  21
ENDBRANCH   8  11
ENDBRANCH   4   7
ENDBRANCH   1   4
BRANCH   1  51
ATOM     51  C   UNL A   1      39.773  22.227  26.848  1.00  0.00    -0.052 C 
ATOM     52  H   UNL A   1      38.991  21.513  26.699  1.00  0.00     0.027 H 
ATOM     53  H   UNL A   1      40.038  22.399  27.870  1.00  0.00     0.027 H 
BRANCH  51  54
ATOM     54  C   UNL A   1      41.039  21.668  26.197  1.00  0.00    -0.052 C 
ATOM     55  H   UNL A   1      41.874  21.974  26.793  1.00  0.00     0.027 H 
ATOM     56  H   UNL A   1      41.039  22.054  25.199  1.00  0.00     0.027 H 
BRANCH  54  57
ATOM     57  C   UNL A   1      41.113  20.150  26.044  1.00  0.00    -0.036 C 
ATOM     58  H   UNL A   1      41.006  19.920  25.005  1.00  0.00     0.028 H 
ATOM     59  H   UNL A   1      40.332  19.759  26.662  1.00  0.00     0.028 H 
BRANCH  57  60
ATOM     60  C   UNL A   1      42.396  19.494  26.537  1.00  0.00     0.018 C 
ATOM     61  H   UNL A   1      42.134  18.702  27.208  1.00  0.00     0.049 H 
ATOM     62  H   UNL A   1      42.975  20.257  27.014  1.00  0.00     0.049 H 
BRANCH  60  63
ATOM     63  N   UNL A   1      43.213  18.940  25.469  1.00  0.00    -0.352 N 
ATOM     64  C   UNL A   1      44.177  19.545  24.695  1.00  0.00     0.251 C 
ATOM     65  H   UNL A   1      43.054  17.989  25.270  1.00  0.00     0.163 HD
ATOM     66  O   UNL A   1      44.685  18.939  23.756  1.00  0.00    -0.269 OA
BRANCH  64  67
ATOM     67  C   UNL A   1      44.577  20.945  24.966  1.00  0.00     0.039 A 
ATOM     68  C   UNL A   1      45.349  21.268  26.081  1.00  0.00    -0.049 A 
ATOM     69  C   UNL A   1      44.154  21.955  24.096  1.00  0.00    -0.049 A 
ATOM     70  C   UNL A   1      45.529  22.601  26.433  1.00  0.00    -0.053 A 
ATOM     71  H   UNL A   1      45.784  20.520  26.644  1.00  0.00     0.063 H 
ATOM     72  C   UNL A   1      44.429  23.294  24.396  1.00  0.00    -0.053 A 
ATOM     73  H   UNL A   1      43.641  21.714  23.234  1.00  0.00     0.063 H 
ATOM     74  C   UNL A   1      45.071  23.633  25.596  1.00  0.00    -0.014 A 
ATOM     75  H   UNL A   1      46.006  22.835  27.319  1.00  0.00     0.063 H 
ATOM     76  H   UNL A   1      44.157  24.036  23.731  1.00  0.00     0.063 H 
BRANCH  74  77
ATOM     77  C   UNL A   1      45.284  25.048  26.003  1.00  0.00     0.031 A 
ATOM     78  C   UNL A   1      44.169  25.858  26.612  1.00  0.00     0.074 A 
ATOM     79  C   UNL A   1      46.512  25.587  25.880  1.00  0.00     0.049 A 
ATOM     80  N   UNL A   1      44.197  27.085  27.071  1.00  0.00    -0.248 NA
ATOM     81  C   UNL A   1      42.851  25.214  26.714  1.00  0.00    -0.034 C 
ATOM     82  C   UNL A   1      47.674  24.903  25.309  1.00  0.00    -0.036 A 
ATOM     83  N   UNL A   1      47.001  26.814  26.253  1.00  0.00    -0.354 N 
ATOM     84  C   UNL A   1      42.906  27.361  27.504  1.00  0.00     0.074 A 
ATOM     85  C   UNL A   1      42.107  26.190  27.216  1.00  0.00    -0.034 C 
ATOM     86  H   UNL A   1      42.577  24.251  26.463  1.00  0.00     0.065 H 
ATOM     87  C   UNL A   1      48.751  25.691  25.428  1.00  0.00    -0.036 A 
ATOM     88  H   UNL A   1      47.664  23.963  24.883  1.00  0.00     0.065 H 
ATOM     89  C   UNL A   1      48.345  26.963  26.017  1.00  0.00     0.049 A 
ATOM     90  H   UNL A   1      46.440  27.520  26.650  1.00  0.00     0.167 HD
ATOM     91  C   UNL A   1      42.436  28.481  28.104  1.00  0.00     0.037 A 
ATOM     92  H   UNL A   1      41.090  26.123  27.379  1.00  0.00     0.065 H 
ATOM     93  H   UNL A   1      49.711  25.440  25.146  1.00  0.00     0.065 H 
ATOM     94  C   UNL A   1      49.165  28.008  26.240  1.00  0.00     0.037 A 
ATOM     95  C   UNL A   1      43.239  29.639  28.404  1.00  0.00     0.049 A 
ATOM     96  C   UNL A   1      48.607  29.259  26.857  1.00  0.00     0.074 A 
ATOM     97  C   UNL A   1      42.859  30.811  29.035  1.00  0.00    -0.036 A 
ATOM     98  N   UNL A   1      44.584  29.774  28.089  1.00  0.00    -0.354 N 
ATOM     99  N   UNL A   1      47.392  29.495  27.287  1.00  0.00    -0.248 NA
ATOM    100  C   UNL A   1      49.529  30.391  27.013  1.00  0.00    -0.034 C 
ATOM    101  C   UNL A   1      43.956  31.676  29.050  1.00  0.00    -0.036 A 
ATOM    102  H   UNL A   1      41.925  31.011  29.427  1.00  0.00     0.065 H 
ATOM    103  C   UNL A   1      45.039  31.022  28.487  1.00  0.00     0.049 A 
ATOM    104  H   UNL A   1      45.134  29.085  27.650  1.00  0.00     0.167 HD
ATOM    105  C   UNL A   1      47.405  30.792  27.779  1.00  0.00     0.074 A 
ATOM    106  C   UNL A   1      48.757  31.288  27.611  1.00  0.00    -0.034 C 
ATOM    107  H   UNL A   1      50.520  30.468  26.733  1.00  0.00     0.065 H 
ATOM    108  H   UNL A   1      43.958  32.640  29.419  1.00  0.00     0.065 H 
ATOM    109  C   UNL A   1      46.388  31.505  28.318  1.00  0.00     0.037 A 
ATOM    110  H   UNL A   1      49.076  32.220  27.918  1.00  0.00     0.065 H 
BRANCH  91 111
ATOM    111  C   UNL A   1      40.980  28.522  28.477  1.00  0.00     0.064 A 
ATOM    112  C   UNL A   1      40.537  28.155  29.756  1.00  0.00     0.173 A 
ATOM    113  C   UNL A   1      40.025  28.999  27.566  1.00  0.00     0.173 A 
ATOM    114  F   UNL A   1      41.407  27.685  30.664  1.00  0.00    -0.203 F 
ATOM    115  C   UNL A   1      39.190  28.242  30.102  1.00  0.00     0.198 A 
ATOM    116  C   UNL A   1      38.684  29.115  27.925  1.00  0.00     0.198 A 
ATOM    117  F   UNL A   1      40.394  29.374  26.332  1.00  0.00    -0.203 F 
ATOM    118  F   UNL A   1      38.785  27.846  31.317  1.00  0.00    -0.200 F 
ATOM    119  C   UNL A   1      38.267  28.730  29.189  1.00  0.00     0.200 A 
ATOM    120  F   UNL A   1      37.796  29.604  27.048  1.00  0.00    -0.200 F 
ATOM    121  F   UNL A   1      36.973  28.828  29.529  1.00  0.00    -0.200 F 
ENDBRANCH  91 111
BRANCH  94 122
ATOM    122  C   UNL A   1      50.603  27.893  25.885  1.00  0.00     0.064 A 
ATOM    123  C   UNL A   1      51.560  27.576  26.858  1.00  0.00     0.173 A 
ATOM    124  C   UNL A   1      51.043  28.041  24.561  1.00  0.00     0.173 A 
ATOM    125  F   UNL A   1      51.192  27.443  28.141  1.00  0.00    -0.203 F 
ATOM    126  C   UNL A   1      52.901  27.407  26.519  1.00  0.00     0.198 A 
ATOM    127  C   UNL A   1      52.378  27.842  24.218  1.00  0.00     0.198 A 
ATOM    128  F   UNL A   1      50.165  28.339  23.591  1.00  0.00    -0.203 F 
ATOM    129  F   UNL A   1      53.800  27.126  27.473  1.00  0.00    -0.200 F 
ATOM    130  C   UNL A   1      53.306  27.529  25.199  1.00  0.00     0.200 A 
ATOM    131  F   UNL A   1      52.761  27.939  22.938  1.00  0.00    -0.200 F 
ATOM    132  F   UNL A   1      54.592  27.342  24.870  1.00  0.00    -0.200 F 
ENDBRANCH  94 122
BRANCH 109 133
ATOM    133  C   UNL A   1      46.683  32.901  28.787  1.00  0.00     0.064 A 
ATOM    134  C   UNL A   1      47.204  33.148  30.065  1.00  0.00     0.173 A 
ATOM    135  C   UNL A   1      46.528  33.991  27.917  1.00  0.00     0.173 A 
ATOM    136  F   UNL A   1      47.357  32.142  30.939  1.00  0.00    -0.203 F 
ATOM    137  C   UNL A   1      47.551  34.439  30.457  1.00  0.00     0.198 A 
ATOM    138  C   UNL A   1      46.906  35.274  28.302  1.00  0.00     0.198 A 
ATOM    139  F   UNL A   1      46.041  33.806  26.681  1.00  0.00    -0.203 F 
ATOM    140  F   UNL A   1      48.019  34.657  31.694  1.00  0.00    -0.200 F 
ATOM    141  C   UNL A   1      47.414  35.498  29.572  1.00  0.00     0.200 A 
ATOM    142  F   UNL A   1      46.789  36.293  27.439  1.00  0.00    -0.200 F 
ATOM    143  F   UNL A   1      47.772  36.735  29.944  1.00  0.00    -0.200 F 
ENDBRANCH 109 133
ENDBRANCH  74  77
ENDBRANCH  64  67
ENDBRANCH  60  63
ENDBRANCH  57  60
ENDBRANCH  54  57
ENDBRANCH  51  54
ENDBRANCH   1  51
TORSDOF 19
ENDMDL
MODEL 4
REMARK VINA RESULT:     -12.0      5.176      9.008
REMARK SMILES Cc1cc(=O)c(Oc2ccc(C(=O)NCCCCCCNC(=O)c3ccc(-c4c5nc(c(-c6c(F)c(F)c(F)c(F)c6F)c6ccc([nH]6)c(-c6c(F)c(F)c(F)c(F)c6F)c6nc(c(-c7c(F)c(F)c(F)c(F)c7F)c7ccc4[nH]7)C=C6)C=C5)cc3)cc2)c(-c2ccc(S(C)(=O)=O)cc2)o1
REMARK SMILES IDX 16 1 15 4 14 7 12 8 13 9 11 11 8 12 9 13 88 14 10 15 87 17
REMARK SMILES IDX 7 21 6 22 2 23 3 24 100 25 4 26 89 28 5 29 1 30 90 34 91 35
REMARK SMILES IDX 99 36 92 37 98 39 93 41 94 44 96 45 97 46 95 47 17 51 18 54
REMARK SMILES IDX 19 57 20 60 21 63 22 64 23 66 24 67 25 68 86 69 26 70 85 72
REMARK SMILES IDX 27 74 28 77 29 78 79 79 30 80 84 81 78 82 80 83 31 84 83 85
REMARK SMILES IDX 77 87 76 89 32 91 64 94 44 95 63 96 45 97 48 98 62 99 81 100
REMARK SMILES IDX 46 101 47 103 61 105 82 106 49 109 33 111 34 112 42 113
REMARK SMILES IDX 35 114 36 115 40 116 43 117 37 118 38 119 41 120 39 121
REMARK SMILES IDX 65 122 66 123 74 124 67 125 68 126 72 127 75 128 69 129
REMARK SMILES IDX 70 130 73 131 71 132 50 133 51 134 59 135 52 136 53 137
REMARK SMILES IDX 57 138 60 139 54 140 55 141 58 142 56 143
REMARK H PARENT 16 2 16 3 15 5 15 6 14 10 9 16 88 18 10 19 87 20 3 27 1 31
REMARK H PARENT 1 32 1 33 91 38 99 40 92 42 98 43 95 48 95 49 95 50 17 52
REMARK H PARENT 17 53 18 55 18 56 19 58 19 59 20 61 20 62 21 65 25 71 86 73
REMARK H PARENT 26 75 85 76 84 86 78 88 80 90 83 92 77 93 45 102 48 104 81 107
REMARK H PARENT 46 108 82 110
REMARK Flexibility Score: inf
ROOT
ATOM      1  C   UNL A   1      40.328  25.342  26.311  1.00  0.00    -0.036 C 
ATOM      2  H   UNL A   1      40.254  26.333  26.710  1.00  0.00     0.028 H 
ATOM      3  H   UNL A   1      40.217  25.265  25.249  1.00  0.00     0.028 H 
ENDROOT
BRANCH   1   4
ATOM      4  C   UNL A   1      39.166  24.533  26.881  1.00  0.00     0.018 C 
ATOM      5  H   UNL A   1      39.101  24.748  27.928  1.00  0.00     0.049 H 
ATOM      6  H   UNL A   1      38.305  24.829  26.321  1.00  0.00     0.049 H 
BRANCH   4   7
ATOM      7  N   UNL A   1      39.261  23.097  26.728  1.00  0.00    -0.352 N 
ATOM      8  C   UNL A   1      38.557  22.231  25.921  1.00  0.00     0.251 C 
ATOM      9  O   UNL A   1      38.904  21.052  25.867  1.00  0.00    -0.269 OA
ATOM     10  H   UNL A   1      39.942  22.668  27.295  1.00  0.00     0.163 HD
BRANCH   8  11
ATOM     11  C   UNL A   1      37.322  22.653  25.204  1.00  0.00     0.040 A 
ATOM     12  C   UNL A   1      35.332  23.989  23.788  1.00  0.00     0.127 A 
ATOM     13  C   UNL A   1      35.446  24.196  25.157  1.00  0.00    -0.019 A 
ATOM     14  C   UNL A   1      36.041  22.954  23.181  1.00  0.00    -0.019 A 
ATOM     15  C   UNL A   1      36.471  23.556  25.859  1.00  0.00    -0.046 A 
ATOM     16  H   UNL A   1      34.782  24.814  25.649  1.00  0.00     0.066 H 
ATOM     17  C   UNL A   1      37.013  22.259  23.901  1.00  0.00    -0.046 A 
ATOM     18  H   UNL A   1      35.848  22.703  22.198  1.00  0.00     0.066 H 
ATOM     19  H   UNL A   1      36.602  23.749  26.864  1.00  0.00     0.063 H 
ATOM     20  H   UNL A   1      37.500  21.458  23.473  1.00  0.00     0.063 H 
BRANCH  12  21
ATOM     21  O   UNL A   1      34.484  24.703  22.996  1.00  0.00    -0.449 OA
BRANCH  21  22
ATOM     22  C   UNL A   1      33.143  24.920  23.291  1.00  0.00     0.217 A 
ATOM     23  C   UNL A   1      30.487  25.829  23.712  1.00  0.00     0.105 A 
ATOM     24  C   UNL A   1      31.404  26.777  23.510  1.00  0.00     0.028 A 
ATOM     25  O   UNL A   1      30.812  24.491  23.791  1.00  0.00    -0.457 OA
ATOM     26  C   UNL A   1      32.806  26.381  23.328  1.00  0.00     0.228 A 
ATOM     27  H   UNL A   1      31.132  27.772  23.482  1.00  0.00     0.070 H 
ATOM     28  C   UNL A   1      32.122  24.067  23.578  1.00  0.00     0.180 A 
ATOM     29  O   UNL A   1      33.663  27.254  23.212  1.00  0.00    -0.285 OA
BRANCH  23  30
ATOM     30  C   UNL A   1      29.031  26.124  23.875  1.00  0.00    -0.006 C 
ATOM     31  H   UNL A   1      28.539  25.271  24.294  1.00  0.00     0.031 H 
ATOM     32  H   UNL A   1      28.604  26.347  22.919  1.00  0.00     0.031 H 
ATOM     33  H   UNL A   1      28.907  26.964  24.524  1.00  0.00     0.031 H 
ENDBRANCH  23  30
BRANCH  28  34
ATOM     34  C   UNL A   1      32.181  22.597  23.687  1.00  0.00     0.021 A 
ATOM     35  C   UNL A   1      32.035  21.810  22.530  1.00  0.00    -0.050 A 
ATOM     36  C   UNL A   1      32.363  21.962  24.925  1.00  0.00    -0.050 A 
ATOM     37  C   UNL A   1      32.161  20.419  22.594  1.00  0.00    -0.043 A 
ATOM     38  H   UNL A   1      31.834  22.264  21.626  1.00  0.00     0.063 H 
ATOM     39  C   UNL A   1      32.477  20.569  24.995  1.00  0.00    -0.043 A 
ATOM     40  H   UNL A   1      32.413  22.526  25.787  1.00  0.00     0.063 H 
ATOM     41  C   UNL A   1      32.391  19.807  23.828  1.00  0.00     0.067 A 
ATOM     42  H   UNL A   1      32.084  19.851  21.736  1.00  0.00     0.064 H 
ATOM     43  H   UNL A   1      32.625  20.108  25.907  1.00  0.00     0.064 H 
BRANCH  41  44
ATOM     44  S   UNL A   1      32.682  18.051  23.880  1.00  0.00     0.175 S 
ATOM     45  O   UNL A   1      31.914  17.521  24.988  1.00  0.00    -0.224 OA
ATOM     46  O   UNL A   1      32.524  17.532  22.533  1.00  0.00    -0.224 OA
BRANCH  44  47
ATOM     47  C   UNL A   1      34.397  17.919  24.299  1.00  0.00     0.043 C 
ATOM     48  H   UNL A   1      34.493  17.676  25.336  1.00  0.00     0.040 H 
ATOM     49  H   UNL A   1      34.884  18.852  24.105  1.00  0.00     0.040 H 
ATOM     50  H   UNL A   1      34.850  17.151  23.708  1.00  0.00     0.040 H 
ENDBRANCH  44  47
ENDBRANCH  41  44
ENDBRANCH  28  34
ENDBRANCH  21  22
ENDBRANCH  12  21
ENDBRANCH   8  11
ENDBRANCH   4   7
ENDBRANCH   1   4
BRANCH   1  51
ATOM     51  C   UNL A   1      41.744  24.842  26.591  1.00  0.00    -0.052 C 
ATOM     52  H   UNL A   1      41.661  23.939  27.158  1.00  0.00     0.027 H 
ATOM     53  H   UNL A   1      42.230  25.649  27.098  1.00  0.00     0.027 H 
BRANCH  51  54
ATOM     54  C   UNL A   1      42.628  24.545  25.378  1.00  0.00    -0.052 C 
ATOM     55  H   UNL A   1      43.526  25.118  25.482  1.00  0.00     0.027 H 
ATOM     56  H   UNL A   1      42.034  24.801  24.526  1.00  0.00     0.027 H 
BRANCH  54  57
ATOM     57  C   UNL A   1      43.031  23.088  25.168  1.00  0.00    -0.036 C 
ATOM     58  H   UNL A   1      43.718  23.052  24.350  1.00  0.00     0.028 H 
ATOM     59  H   UNL A   1      42.118  22.557  24.996  1.00  0.00     0.028 H 
BRANCH  57  60
ATOM     60  C   UNL A   1      43.687  22.401  26.359  1.00  0.00     0.018 C 
ATOM     61  H   UNL A   1      43.568  21.344  26.247  1.00  0.00     0.049 H 
ATOM     62  H   UNL A   1      43.208  22.775  27.240  1.00  0.00     0.049 H 
BRANCH  60  63
ATOM     63  N   UNL A   1      45.106  22.693  26.488  1.00  0.00    -0.352 N 
ATOM     64  C   UNL A   1      45.740  23.678  27.210  1.00  0.00     0.251 C 
ATOM     65  H   UNL A   1      45.704  22.096  25.983  1.00  0.00     0.163 HD
ATOM     66  O   UNL A   1      46.952  23.839  27.105  1.00  0.00    -0.269 OA
BRANCH  64  67
ATOM     67  C   UNL A   1      44.956  24.576  28.090  1.00  0.00     0.039 A 
ATOM     68  C   UNL A   1      45.002  25.960  27.928  1.00  0.00    -0.049 A 
ATOM     69  C   UNL A   1      44.174  24.019  29.108  1.00  0.00    -0.049 A 
ATOM     70  C   UNL A   1      44.435  26.786  28.892  1.00  0.00    -0.053 A 
ATOM     71  H   UNL A   1      45.455  26.370  27.097  1.00  0.00     0.063 H 
ATOM     72  C   UNL A   1      43.516  24.855  30.017  1.00  0.00    -0.053 A 
ATOM     73  H   UNL A   1      44.085  22.994  29.190  1.00  0.00     0.063 H 
ATOM     74  C   UNL A   1      43.685  26.245  29.950  1.00  0.00    -0.014 A 
ATOM     75  H   UNL A   1      44.565  27.809  28.829  1.00  0.00     0.063 H 
ATOM     76  H   UNL A   1      42.903  24.445  30.740  1.00  0.00     0.063 H 
BRANCH  74  77
ATOM     77  C   UNL A   1      43.090  27.160  30.962  1.00  0.00     0.031 A 
ATOM     78  C   UNL A   1      43.751  27.377  32.298  1.00  0.00     0.074 A 
ATOM     79  C   UNL A   1      41.977  27.850  30.647  1.00  0.00     0.049 A 
ATOM     80  N   UNL A   1      43.398  28.178  33.273  1.00  0.00    -0.248 NA
ATOM     81  C   UNL A   1      44.961  26.591  32.583  1.00  0.00    -0.034 C 
ATOM     82  C   UNL A   1      41.246  27.729  29.385  1.00  0.00    -0.036 A 
ATOM     83  N   UNL A   1      41.282  28.808  31.342  1.00  0.00    -0.354 N 
ATOM     84  C   UNL A   1      44.330  27.985  34.284  1.00  0.00     0.074 A 
ATOM     85  C   UNL A   1      45.243  26.961  33.824  1.00  0.00    -0.034 C 
ATOM     86  H   UNL A   1      45.462  25.925  31.973  1.00  0.00     0.065 H 
ATOM     87  C   UNL A   1      40.248  28.623  29.367  1.00  0.00    -0.036 A 
ATOM     88  H   UNL A   1      41.465  27.061  28.628  1.00  0.00     0.065 H 
ATOM     89  C   UNL A   1      40.222  29.331  30.642  1.00  0.00     0.049 A 
ATOM     90  H   UNL A   1      41.520  29.092  32.254  1.00  0.00     0.167 HD
ATOM     91  C   UNL A   1      44.427  28.618  35.478  1.00  0.00     0.037 A 
ATOM     92  H   UNL A   1      46.013  26.569  34.389  1.00  0.00     0.065 H 
ATOM     93  H   UNL A   1      39.601  28.784  28.579  1.00  0.00     0.065 H 
ATOM     94  C   UNL A   1      39.320  30.270  30.988  1.00  0.00     0.037 A 
ATOM     95  C   UNL A   1      43.525  29.649  35.926  1.00  0.00     0.049 A 
ATOM     96  C   UNL A   1      39.418  30.918  32.340  1.00  0.00     0.074 A 
ATOM     97  C   UNL A   1      43.559  30.369  37.107  1.00  0.00    -0.036 A 
ATOM     98  N   UNL A   1      42.426  30.104  35.213  1.00  0.00    -0.354 N 
ATOM     99  N   UNL A   1      40.321  30.746  33.273  1.00  0.00    -0.248 NA
ATOM    100  C   UNL A   1      38.368  31.884  32.690  1.00  0.00    -0.034 C 
ATOM    101  C   UNL A   1      42.449  31.216  37.136  1.00  0.00    -0.036 A 
ATOM    102  H   UNL A   1      44.280  30.292  37.842  1.00  0.00     0.065 H 
ATOM    103  C   UNL A   1      41.756  31.073  35.945  1.00  0.00     0.049 A 
ATOM    104  H   UNL A   1      42.160  29.787  34.319  1.00  0.00     0.167 HD
ATOM    105  C   UNL A   1      39.961  31.590  34.313  1.00  0.00     0.074 A 
ATOM    106  C   UNL A   1      38.765  32.290  33.888  1.00  0.00    -0.034 C 
ATOM    107  H   UNL A   1      37.540  32.172  32.146  1.00  0.00     0.065 H 
ATOM    108  H   UNL A   1      42.188  31.842  37.914  1.00  0.00     0.065 H 
ATOM    109  C   UNL A   1      40.568  31.766  35.511  1.00  0.00     0.037 A 
ATOM    110  H   UNL A   1      38.284  33.011  34.448  1.00  0.00     0.065 H 
BRANCH  91 111
ATOM    111  C   UNL A   1      45.544  28.215  36.400  1.00  0.00     0.064 A 
ATOM    112  C   UNL A   1      45.386  27.191  37.346  1.00  0.00     0.173 A 
ATOM    113  C   UNL A   1      46.808  28.815  36.293  1.00  0.00     0.173 A 
ATOM    114  F   UNL A   1      44.196  26.588  37.497  1.00  0.00    -0.203 F 
ATOM    115  C   UNL A   1      46.444  26.798  38.163  1.00  0.00     0.198 A 
ATOM    116  C   UNL A   1      47.872  28.398  37.089  1.00  0.00     0.198 A 
ATOM    117  F   UNL A   1      47.019  29.792  35.399  1.00  0.00    -0.203 F 
ATOM    118  F   UNL A   1      46.256  25.845  39.087  1.00  0.00    -0.200 F 
ATOM    119  C   UNL A   1      47.688  27.395  38.027  1.00  0.00     0.200 A 
ATOM    120  F   UNL A   1      49.079  28.964  36.943  1.00  0.00    -0.200 F 
ATOM    121  F   UNL A   1      48.709  27.005  38.803  1.00  0.00    -0.200 F 
ENDBRANCH  91 111
BRANCH  94 122
ATOM    122  C   UNL A   1      38.262  30.654  30.018  1.00  0.00     0.064 A 
ATOM    123  C   UNL A   1      37.190  29.794  29.746  1.00  0.00     0.173 A 
ATOM    124  C   UNL A   1      38.270  31.907  29.387  1.00  0.00     0.173 A 
ATOM    125  F   UNL A   1      37.148  28.578  30.309  1.00  0.00    -0.203 F 
ATOM    126  C   UNL A   1      36.164  30.175  28.883  1.00  0.00     0.198 A 
ATOM    127  C   UNL A   1      37.229  32.299  28.549  1.00  0.00     0.198 A 
ATOM    128  F   UNL A   1      39.272  32.769  29.619  1.00  0.00    -0.203 F 
ATOM    129  F   UNL A   1      35.162  29.324  28.622  1.00  0.00    -0.200 F 
ATOM    130  C   UNL A   1      36.178  31.430  28.296  1.00  0.00     0.200 A 
ATOM    131  F   UNL A   1      37.236  33.522  28.002  1.00  0.00    -0.200 F 
ATOM    132  F   UNL A   1      35.179  31.805  27.486  1.00  0.00    -0.200 F 
ENDBRANCH  94 122
BRANCH 109 133
ATOM    133  C   UNL A   1      39.968  32.764  36.459  1.00  0.00     0.064 A 
ATOM    134  C   UNL A   1      38.879  32.434  37.279  1.00  0.00     0.173 A 
ATOM    135  C   UNL A   1      40.546  34.034  36.613  1.00  0.00     0.173 A 
ATOM    136  F   UNL A   1      38.282  31.239  37.159  1.00  0.00    -0.203 F 
ATOM    137  C   UNL A   1      38.386  33.342  38.212  1.00  0.00     0.198 A 
ATOM    138  C   UNL A   1      40.070  34.927  37.569  1.00  0.00     0.198 A 
ATOM    139  F   UNL A   1      41.594  34.396  35.858  1.00  0.00    -0.203 F 
ATOM    140  F   UNL A   1      37.325  33.017  38.964  1.00  0.00    -0.200 F 
ATOM    141  C   UNL A   1      38.989  34.582  38.366  1.00  0.00     0.200 A 
ATOM    142  F   UNL A   1      40.665  36.117  37.728  1.00  0.00    -0.200 F 
ATOM    143  F   UNL A   1      38.528  35.444  39.282  1.00  0.00    -0.200 F 
ENDBRANCH 109 133
ENDBRANCH  74  77
ENDBRANCH  64  67
ENDBRANCH  60  63
ENDBRANCH  57  60
ENDBRANCH  54  57
ENDBRANCH  51  54
ENDBRANCH   1  51
TORSDOF 19
ENDMDL
MODEL 5
REMARK VINA RESULT:     -11.7      3.384      8.840
REMARK SMILES Cc1cc(=O)c(Oc2ccc(C(=O)NCCCCCCNC(=O)c3ccc(-c4c5nc(c(-c6c(F)c(F)c(F)c(F)c6F)c6ccc([nH]6)c(-c6c(F)c(F)c(F)c(F)c6F)c6nc(c(-c7c(F)c(F)c(F)c(F)c7F)c7ccc4[nH]7)C=C6)C=C5)cc3)cc2)c(-c2ccc(S(C)(=O)=O)cc2)o1
REMARK SMILES IDX 16 1 15 4 14 7 12 8 13 9 11 11 8 12 9 13 88 14 10 15 87 17
REMARK SMILES IDX 7 21 6 22 2 23 3 24 100 25 4 26 89 28 5 29 1 30 90 34 91 35
REMARK SMILES IDX 99 36 92 37 98 39 93 41 94 44 96 45 97 46 95 47 17 51 18 54
REMARK SMILES IDX 19 57 20 60 21 63 22 64 23 66 24 67 25 68 86 69 26 70 85 72
REMARK SMILES IDX 27 74 28 77 29 78 79 79 30 80 84 81 78 82 80 83 31 84 83 85
REMARK SMILES IDX 77 87 76 89 32 91 64 94 44 95 63 96 45 97 48 98 62 99 81 100
REMARK SMILES IDX 46 101 47 103 61 105 82 106 49 109 33 111 34 112 42 113
REMARK SMILES IDX 35 114 36 115 40 116 43 117 37 118 38 119 41 120 39 121
REMARK SMILES IDX 65 122 66 123 74 124 67 125 68 126 72 127 75 128 69 129
REMARK SMILES IDX 70 130 73 131 71 132 50 133 51 134 59 135 52 136 53 137
REMARK SMILES IDX 57 138 60 139 54 140 55 141 58 142 56 143
REMARK H PARENT 16 2 16 3 15 5 15 6 14 10 9 16 88 18 10 19 87 20 3 27 1 31
REMARK H PARENT 1 32 1 33 91 38 99 40 92 42 98 43 95 48 95 49 95 50 17 52
REMARK H PARENT 17 53 18 55 18 56 19 58 19 59 20 61 20 62 21 65 25 71 86 73
REMARK H PARENT 26 75 85 76 84 86 78 88 80 90 83 92 77 93 45 102 48 104 81 107
REMARK H PARENT 46 108 82 110
REMARK Flexibility Score: inf
ROOT
ATOM      1  C   UNL A   1      36.553  30.706  28.590  1.00  0.00    -0.036 C 
ATOM      2  H   UNL A   1      36.047  31.551  29.008  1.00  0.00     0.028 H 
ATOM      3  H   UNL A   1      37.395  30.935  27.970  1.00  0.00     0.028 H 
ENDROOT
BRANCH   1   4
ATOM      4  C   UNL A   1      35.569  29.997  27.664  1.00  0.00     0.018 C 
ATOM      5  H   UNL A   1      36.099  29.721  26.775  1.00  0.00     0.049 H 
ATOM      6  H   UNL A   1      35.192  29.167  28.223  1.00  0.00     0.049 H 
BRANCH   4   7
ATOM      7  N   UNL A   1      34.408  30.765  27.267  1.00  0.00    -0.352 N 
ATOM      8  C   UNL A   1      33.163  30.357  26.841  1.00  0.00     0.251 C 
ATOM      9  O   UNL A   1      32.283  31.201  26.679  1.00  0.00    -0.269 OA
ATOM     10  H   UNL A   1      34.528  31.741  27.311  1.00  0.00     0.163 HD
BRANCH   8  11
ATOM     11  C   UNL A   1      32.888  28.945  26.459  1.00  0.00     0.040 A 
ATOM     12  C   UNL A   1      32.841  26.177  26.158  1.00  0.00     0.127 A 
ATOM     13  C   UNL A   1      33.769  26.922  25.441  1.00  0.00    -0.019 A 
ATOM     14  C   UNL A   1      31.801  26.821  26.826  1.00  0.00    -0.019 A 
ATOM     15  C   UNL A   1      33.818  28.307  25.624  1.00  0.00    -0.046 A 
ATOM     16  H   UNL A   1      34.414  26.460  24.781  1.00  0.00     0.066 H 
ATOM     17  C   UNL A   1      31.805  28.211  26.945  1.00  0.00    -0.046 A 
ATOM     18  H   UNL A   1      31.030  26.269  27.233  1.00  0.00     0.066 H 
ATOM     19  H   UNL A   1      34.542  28.863  25.143  1.00  0.00     0.063 H 
ATOM     20  H   UNL A   1      31.010  28.694  27.390  1.00  0.00     0.063 H 
BRANCH  12  21
ATOM     21  O   UNL A   1      32.839  24.815  26.180  1.00  0.00    -0.449 OA
BRANCH  21  22
ATOM     22  C   UNL A   1      32.591  24.020  25.067  1.00  0.00     0.217 A 
ATOM     23  C   UNL A   1      32.254  22.018  23.084  1.00  0.00     0.105 A 
ATOM     24  C   UNL A   1      33.040  21.694  24.113  1.00  0.00     0.028 A 
ATOM     25  O   UNL A   1      31.697  23.271  22.944  1.00  0.00    -0.457 OA
ATOM     26  C   UNL A   1      33.294  22.697  25.155  1.00  0.00     0.228 A 
ATOM     27  H   UNL A   1      33.462  20.754  24.176  1.00  0.00     0.070 H 
ATOM     28  C   UNL A   1      31.874  24.238  23.931  1.00  0.00     0.180 A 
ATOM     29  O   UNL A   1      34.072  22.429  26.066  1.00  0.00    -0.285 OA
BRANCH  23  30
ATOM     30  C   UNL A   1      31.907  21.059  21.991  1.00  0.00    -0.006 C 
ATOM     31  H   UNL A   1      31.295  21.552  21.265  1.00  0.00     0.031 H 
ATOM     32  H   UNL A   1      31.371  20.228  22.403  1.00  0.00     0.031 H 
ATOM     33  H   UNL A   1      32.803  20.709  21.525  1.00  0.00     0.031 H 
ENDBRANCH  23  30
BRANCH  28  34
ATOM     34  C   UNL A   1      31.149  25.464  23.545  1.00  0.00     0.021 A 
ATOM     35  C   UNL A   1      29.864  25.703  24.066  1.00  0.00    -0.050 A 
ATOM     36  C   UNL A   1      31.707  26.394  22.655  1.00  0.00    -0.050 A 
ATOM     37  C   UNL A   1      29.187  26.890  23.776  1.00  0.00    -0.043 A 
ATOM     38  H   UNL A   1      29.417  24.993  24.668  1.00  0.00     0.063 H 
ATOM     39  C   UNL A   1      31.027  27.579  22.352  1.00  0.00    -0.043 A 
ATOM     40  H   UNL A   1      32.623  26.202  22.222  1.00  0.00     0.063 H 
ATOM     41  C   UNL A   1      29.778  27.827  22.926  1.00  0.00     0.067 A 
ATOM     42  H   UNL A   1      28.258  27.072  24.186  1.00  0.00     0.064 H 
ATOM     43  H   UNL A   1      31.449  28.266  21.707  1.00  0.00     0.064 H 
BRANCH  41  44
ATOM     44  S   UNL A   1      28.969  29.392  22.669  1.00  0.00     0.175 S 
ATOM     45  O   UNL A   1      29.471  30.306  23.675  1.00  0.00    -0.224 OA
ATOM     46  O   UNL A   1      29.047  29.709  21.254  1.00  0.00    -0.224 OA
BRANCH  44  47
ATOM     47  C   UNL A   1      27.272  29.057  23.042  1.00  0.00     0.043 C 
ATOM     48  H   UNL A   1      27.158  28.022  23.288  1.00  0.00     0.040 H 
ATOM     49  H   UNL A   1      26.668  29.289  22.190  1.00  0.00     0.040 H 
ATOM     50  H   UNL A   1      26.964  29.657  23.872  1.00  0.00     0.040 H 
ENDBRANCH  44  47
ENDBRANCH  41  44
ENDBRANCH  28  34
ENDBRANCH  21  22
ENDBRANCH  12  21
ENDBRANCH   8  11
ENDBRANCH   4   7
ENDBRANCH   1   4
BRANCH   1  51
ATOM     51  C   UNL A   1      37.135  29.902  29.753  1.00  0.00    -0.052 C 
ATOM     52  H   UNL A   1      38.159  30.190  29.863  1.00  0.00     0.027 H 
ATOM     53  H   UNL A   1      36.981  28.877  29.488  1.00  0.00     0.027 H 
BRANCH  51  54
ATOM     54  C   UNL A   1      36.461  30.067  31.116  1.00  0.00    -0.052 C 
ATOM     55  H   UNL A   1      37.205  29.904  31.868  1.00  0.00     0.027 H 
ATOM     56  H   UNL A   1      35.659  29.359  31.123  1.00  0.00     0.027 H 
BRANCH  54  57
ATOM     57  C   UNL A   1      35.809  31.419  31.396  1.00  0.00    -0.036 C 
ATOM     58  H   UNL A   1      34.782  31.354  31.108  1.00  0.00     0.028 H 
ATOM     59  H   UNL A   1      36.375  32.134  30.836  1.00  0.00     0.028 H 
BRANCH  57  60
ATOM     60  C   UNL A   1      35.860  31.896  32.841  1.00  0.00     0.018 C 
ATOM     61  H   UNL A   1      36.489  31.231  33.395  1.00  0.00     0.049 H 
ATOM     62  H   UNL A   1      34.853  31.903  33.205  1.00  0.00     0.049 H 
BRANCH  60  63
ATOM     63  N   UNL A   1      36.377  33.248  32.989  1.00  0.00    -0.352 N 
ATOM     64  C   UNL A   1      37.624  33.750  32.696  1.00  0.00     0.251 C 
ATOM     65  H   UNL A   1      35.738  33.902  33.353  1.00  0.00     0.163 HD
ATOM     66  O   UNL A   1      37.912  34.904  32.998  1.00  0.00    -0.269 OA
BRANCH  64  67
ATOM     67  C   UNL A   1      38.639  32.888  32.049  1.00  0.00     0.039 A 
ATOM     68  C   UNL A   1      39.320  31.912  32.776  1.00  0.00    -0.049 A 
ATOM     69  C   UNL A   1      38.928  33.074  30.693  1.00  0.00    -0.049 A 
ATOM     70  C   UNL A   1      40.413  31.266  32.208  1.00  0.00    -0.053 A 
ATOM     71  H   UNL A   1      39.015  31.669  33.731  1.00  0.00     0.063 H 
ATOM     72  C   UNL A   1      39.961  32.345  30.093  1.00  0.00    -0.053 A 
ATOM     73  H   UNL A   1      38.380  33.749  30.136  1.00  0.00     0.063 H 
ATOM     74  C   UNL A   1      40.750  31.475  30.860  1.00  0.00    -0.014 A 
ATOM     75  H   UNL A   1      40.984  30.626  32.783  1.00  0.00     0.063 H 
ATOM     76  H   UNL A   1      40.144  32.449  29.082  1.00  0.00     0.063 H 
BRANCH  74  77
ATOM     77  C   UNL A   1      41.924  30.764  30.284  1.00  0.00     0.031 A 
ATOM     78  C   UNL A   1      41.779  29.400  29.663  1.00  0.00     0.074 A 
ATOM     79  C   UNL A   1      43.120  31.384  30.265  1.00  0.00     0.049 A 
ATOM     80  N   UNL A   1      42.686  28.664  29.069  1.00  0.00    -0.248 NA
ATOM     81  C   UNL A   1      40.449  28.775  29.719  1.00  0.00    -0.034 C 
ATOM     82  C   UNL A   1      43.386  32.707  30.832  1.00  0.00    -0.036 A 
ATOM     83  N   UNL A   1      44.324  31.006  29.727  1.00  0.00    -0.354 N 
ATOM     84  C   UNL A   1      42.042  27.492  28.693  1.00  0.00     0.074 A 
ATOM     85  C   UNL A   1      40.677  27.594  29.161  1.00  0.00    -0.034 C 
ATOM     86  H   UNL A   1      39.567  29.158  30.095  1.00  0.00     0.065 H 
ATOM     87  C   UNL A   1      44.649  33.058  30.557  1.00  0.00    -0.036 A 
ATOM     88  H   UNL A   1      42.708  33.279  31.361  1.00  0.00     0.065 H 
ATOM     89  C   UNL A   1      45.305  31.959  29.857  1.00  0.00     0.049 A 
ATOM     90  H   UNL A   1      44.471  30.135  29.291  1.00  0.00     0.167 HD
ATOM     91  C   UNL A   1      42.538  26.437  28.004  1.00  0.00     0.037 A 
ATOM     92  H   UNL A   1      39.972  26.845  29.074  1.00  0.00     0.065 H 
ATOM     93  H   UNL A   1      45.088  33.960  30.801  1.00  0.00     0.065 H 
ATOM     94  C   UNL A   1      46.594  31.949  29.465  1.00  0.00     0.037 A 
ATOM     95  C   UNL A   1      43.894  26.346  27.525  1.00  0.00     0.049 A 
ATOM     96  C   UNL A   1      47.134  30.744  28.750  1.00  0.00     0.074 A 
ATOM     97  C   UNL A   1      44.483  25.329  26.793  1.00  0.00    -0.036 A 
ATOM     98  N   UNL A   1      44.874  27.306  27.734  1.00  0.00    -0.354 N 
ATOM     99  N   UNL A   1      46.506  29.657  28.377  1.00  0.00    -0.248 NA
ATOM    100  C   UNL A   1      48.563  30.761  28.409  1.00  0.00    -0.034 C 
ATOM    101  C   UNL A   1      45.831  25.645  26.609  1.00  0.00    -0.036 A 
ATOM    102  H   UNL A   1      44.007  24.483  26.443  1.00  0.00     0.065 H 
ATOM    103  C   UNL A   1      46.071  26.889  27.170  1.00  0.00     0.049 A 
ATOM    104  H   UNL A   1      44.740  28.157  28.210  1.00  0.00     0.167 HD
ATOM    105  C   UNL A   1      47.454  28.866  27.743  1.00  0.00     0.074 A 
ATOM    106  C   UNL A   1      48.699  29.608  27.766  1.00  0.00    -0.034 C 
ATOM    107  H   UNL A   1      49.274  31.480  28.613  1.00  0.00     0.065 H 
ATOM    108  H   UNL A   1      46.530  25.052  26.135  1.00  0.00     0.065 H 
ATOM    109  C   UNL A   1      47.304  27.636  27.196  1.00  0.00     0.037 A 
ATOM    110  H   UNL A   1      49.579  29.281  27.337  1.00  0.00     0.065 H 
BRANCH  91 111
ATOM    111  C   UNL A   1      41.618  25.281  27.725  1.00  0.00     0.064 A 
ATOM    112  C   UNL A   1      40.590  25.371  26.773  1.00  0.00     0.173 A 
ATOM    113  C   UNL A   1      41.807  24.048  28.368  1.00  0.00     0.173 A 
ATOM    114  F   UNL A   1      40.361  26.529  26.134  1.00  0.00    -0.203 F 
ATOM    115  C   UNL A   1      39.774  24.278  26.493  1.00  0.00     0.198 A 
ATOM    116  C   UNL A   1      41.010  22.948  28.061  1.00  0.00     0.198 A 
ATOM    117  F   UNL A   1      42.780  23.902  29.278  1.00  0.00    -0.203 F 
ATOM    118  F   UNL A   1      38.773  24.400  25.609  1.00  0.00    -0.200 F 
ATOM    119  C   UNL A   1      39.990  23.065  27.130  1.00  0.00     0.200 A 
ATOM    120  F   UNL A   1      41.232  21.772  28.665  1.00  0.00    -0.200 F 
ATOM    121  F   UNL A   1      39.214  22.009  26.846  1.00  0.00    -0.200 F 
ENDBRANCH  91 111
BRANCH  94 122
ATOM    122  C   UNL A   1      47.444  33.137  29.736  1.00  0.00     0.064 A 
ATOM    123  C   UNL A   1      47.536  34.182  28.807  1.00  0.00     0.173 A 
ATOM    124  C   UNL A   1      48.135  33.280  30.948  1.00  0.00     0.173 A 
ATOM    125  F   UNL A   1      46.908  34.085  27.626  1.00  0.00    -0.203 F 
ATOM    126  C   UNL A   1      48.284  35.325  29.082  1.00  0.00     0.198 A 
ATOM    127  C   UNL A   1      48.857  34.435  31.235  1.00  0.00     0.198 A 
ATOM    128  F   UNL A   1      48.075  32.310  31.874  1.00  0.00    -0.203 F 
ATOM    129  F   UNL A   1      48.373  36.300  28.167  1.00  0.00    -0.200 F 
ATOM    130  C   UNL A   1      48.933  35.456  30.300  1.00  0.00     0.200 A 
ATOM    131  F   UNL A   1      49.465  34.567  32.422  1.00  0.00    -0.200 F 
ATOM    132  F   UNL A   1      49.632  36.566  30.574  1.00  0.00    -0.200 F 
ENDBRANCH  94 122
BRANCH 109 133
ATOM    133  C   UNL A   1      48.506  27.004  26.556  1.00  0.00     0.064 A 
ATOM    134  C   UNL A   1      48.773  27.159  25.188  1.00  0.00     0.173 A 
ATOM    135  C   UNL A   1      49.446  26.314  27.335  1.00  0.00     0.173 A 
ATOM    136  F   UNL A   1      47.899  27.797  24.397  1.00  0.00    -0.203 F 
ATOM    137  C   UNL A   1      49.935  26.637  24.623  1.00  0.00     0.198 A 
ATOM    138  C   UNL A   1      50.621  25.821  26.773  1.00  0.00     0.198 A 
ATOM    139  F   UNL A   1      49.242  26.145  28.651  1.00  0.00    -0.203 F 
ATOM    140  F   UNL A   1      50.156  26.770  23.308  1.00  0.00    -0.200 F 
ATOM    141  C   UNL A   1      50.863  25.981  25.417  1.00  0.00     0.200 A 
ATOM    142  F   UNL A   1      51.525  25.203  27.546  1.00  0.00    -0.200 F 
ATOM    143  F   UNL A   1      51.991  25.501  24.876  1.00  0.00    -0.200 F 
ENDBRANCH 109 133
ENDBRANCH  74  77
ENDBRANCH  64  67
ENDBRANCH  60  63
ENDBRANCH  57  60
ENDBRANCH  54  57
ENDBRANCH  51  54
ENDBRANCH   1  51
TORSDOF 19
ENDMDL
MODEL 6
REMARK VINA RESULT:     -11.4      3.455      6.337
REMARK SMILES Cc1cc(=O)c(Oc2ccc(C(=O)NCCCCCCNC(=O)c3ccc(-c4c5nc(c(-c6c(F)c(F)c(F)c(F)c6F)c6ccc([nH]6)c(-c6c(F)c(F)c(F)c(F)c6F)c6nc(c(-c7c(F)c(F)c(F)c(F)c7F)c7ccc4[nH]7)C=C6)C=C5)cc3)cc2)c(-c2ccc(S(C)(=O)=O)cc2)o1
REMARK SMILES IDX 16 1 15 4 14 7 12 8 13 9 11 11 8 12 9 13 88 14 10 15 87 17
REMARK SMILES IDX 7 21 6 22 2 23 3 24 100 25 4 26 89 28 5 29 1 30 90 34 91 35
REMARK SMILES IDX 99 36 92 37 98 39 93 41 94 44 96 45 97 46 95 47 17 51 18 54
REMARK SMILES IDX 19 57 20 60 21 63 22 64 23 66 24 67 25 68 86 69 26 70 85 72
REMARK SMILES IDX 27 74 28 77 29 78 79 79 30 80 84 81 78 82 80 83 31 84 83 85
REMARK SMILES IDX 77 87 76 89 32 91 64 94 44 95 63 96 45 97 48 98 62 99 81 100
REMARK SMILES IDX 46 101 47 103 61 105 82 106 49 109 33 111 34 112 42 113
REMARK SMILES IDX 35 114 36 115 40 116 43 117 37 118 38 119 41 120 39 121
REMARK SMILES IDX 65 122 66 123 74 124 67 125 68 126 72 127 75 128 69 129
REMARK SMILES IDX 70 130 73 131 71 132 50 133 51 134 59 135 52 136 53 137
REMARK SMILES IDX 57 138 60 139 54 140 55 141 58 142 56 143
REMARK H PARENT 16 2 16 3 15 5 15 6 14 10 9 16 88 18 10 19 87 20 3 27 1 31
REMARK H PARENT 1 32 1 33 91 38 99 40 92 42 98 43 95 48 95 49 95 50 17 52
REMARK H PARENT 17 53 18 55 18 56 19 58 19 59 20 61 20 62 21 65 25 71 86 73
REMARK H PARENT 26 75 85 76 84 86 78 88 80 90 83 92 77 93 45 102 48 104 81 107
REMARK H PARENT 46 108 82 110
REMARK Flexibility Score: inf
ROOT
ATOM      1  C   UNL A   1      37.536  29.420  28.026  1.00  0.00    -0.036 C 
ATOM      2  H   UNL A   1      37.924  30.409  27.892  1.00  0.00     0.028 H 
ATOM      3  H   UNL A   1      37.419  28.847  27.130  1.00  0.00     0.028 H 
ENDROOT
BRANCH   1   4
ATOM      4  C   UNL A   1      36.123  29.557  28.586  1.00  0.00     0.018 C 
ATOM      5  H   UNL A   1      35.591  28.657  28.351  1.00  0.00     0.049 H 
ATOM      6  H   UNL A   1      36.243  29.733  29.634  1.00  0.00     0.049 H 
BRANCH   4   7
ATOM      7  N   UNL A   1      35.350  30.673  28.086  1.00  0.00    -0.352 N 
ATOM      8  C   UNL A   1      34.102  30.714  27.503  1.00  0.00     0.251 C 
ATOM      9  O   UNL A   1      33.588  31.807  27.271  1.00  0.00    -0.269 OA
ATOM     10  H   UNL A   1      35.788  31.550  28.178  1.00  0.00     0.163 HD
BRANCH   8  11
ATOM     11  C   UNL A   1      33.410  29.479  27.042  1.00  0.00     0.040 A 
ATOM     12  C   UNL A   1      32.456  26.894  26.642  1.00  0.00     0.127 A 
ATOM     13  C   UNL A   1      33.668  27.265  26.073  1.00  0.00    -0.019 A 
ATOM     14  C   UNL A   1      31.623  27.864  27.196  1.00  0.00    -0.019 A 
ATOM     15  C   UNL A   1      34.165  28.550  26.309  1.00  0.00    -0.046 A 
ATOM     16  H   UNL A   1      34.194  26.602  25.483  1.00  0.00     0.066 H 
ATOM     17  C   UNL A   1      32.088  29.169  27.362  1.00  0.00    -0.046 A 
ATOM     18  H   UNL A   1      30.663  27.617  27.484  1.00  0.00     0.066 H 
ATOM     19  H   UNL A   1      35.091  28.817  25.941  1.00  0.00     0.063 H 
ATOM     20  H   UNL A   1      31.456  29.901  27.721  1.00  0.00     0.063 H 
BRANCH  12  21
ATOM     21  O   UNL A   1      31.984  25.616  26.617  1.00  0.00    -0.449 OA
BRANCH  21  22
ATOM     22  C   UNL A   1      31.994  24.806  25.488  1.00  0.00     0.217 A 
ATOM     23  C   UNL A   1      32.186  22.794  23.496  1.00  0.00     0.105 A 
ATOM     24  C   UNL A   1      32.850  22.559  24.629  1.00  0.00     0.028 A 
ATOM     25  O   UNL A   1      31.509  23.972  23.265  1.00  0.00    -0.457 OA
ATOM     26  C   UNL A   1      32.830  23.577  25.687  1.00  0.00     0.228 A 
ATOM     27  H   UNL A   1      33.368  21.676  24.760  1.00  0.00     0.070 H 
ATOM     28  C   UNL A   1      31.425  24.946  24.259  1.00  0.00     0.180 A 
ATOM     29  O   UNL A   1      33.497  23.396  26.702  1.00  0.00    -0.285 OA
BRANCH  23  30
ATOM     30  C   UNL A   1      32.115  21.809  22.373  1.00  0.00    -0.006 C 
ATOM     31  H   UNL A   1      31.844  22.316  21.470  1.00  0.00     0.031 H 
ATOM     32  H   UNL A   1      31.380  21.064  22.598  1.00  0.00     0.031 H 
ATOM     33  H   UNL A   1      33.069  21.341  22.248  1.00  0.00     0.031 H 
ENDBRANCH  23  30
BRANCH  28  34
ATOM     34  C   UNL A   1      30.621  26.078  23.763  1.00  0.00     0.021 A 
ATOM     35  C   UNL A   1      29.247  26.137  24.060  1.00  0.00    -0.050 A 
ATOM     36  C   UNL A   1      31.194  27.096  22.984  1.00  0.00    -0.050 A 
ATOM     37  C   UNL A   1      28.479  27.236  23.666  1.00  0.00    -0.043 A 
ATOM     38  H   UNL A   1      28.803  25.361  24.574  1.00  0.00     0.063 H 
ATOM     39  C   UNL A   1      30.425  28.192  22.576  1.00  0.00    -0.043 A 
ATOM     40  H   UNL A   1      32.186  27.034  22.710  1.00  0.00     0.063 H 
ATOM     41  C   UNL A   1      29.076  28.264  22.932  1.00  0.00     0.067 A 
ATOM     42  H   UNL A   1      27.479  27.286  23.914  1.00  0.00     0.064 H 
ATOM     43  H   UNL A   1      30.854  28.945  22.015  1.00  0.00     0.064 H 
BRANCH  41  44
ATOM     44  S   UNL A   1      28.124  29.719  22.550  1.00  0.00     0.175 S 
ATOM     45  O   UNL A   1      28.238  29.945  21.125  1.00  0.00    -0.224 OA
ATOM     46  O   UNL A   1      26.829  29.586  23.195  1.00  0.00    -0.224 OA
BRANCH  44  47
ATOM     47  C   UNL A   1      28.993  31.021  23.376  1.00  0.00     0.043 C 
ATOM     48  H   UNL A   1      28.615  31.967  23.046  1.00  0.00     0.040 H 
ATOM     49  H   UNL A   1      30.036  30.955  23.146  1.00  0.00     0.040 H 
ATOM     50  H   UNL A   1      28.854  30.929  24.432  1.00  0.00     0.040 H 
ENDBRANCH  44  47
ENDBRANCH  41  44
ENDBRANCH  28  34
ENDBRANCH  21  22
ENDBRANCH  12  21
ENDBRANCH   8  11
ENDBRANCH   4   7
ENDBRANCH   1   4
BRANCH   1  51
ATOM     51  C   UNL A   1      38.554  28.639  28.856  1.00  0.00    -0.052 C 
ATOM     52  H   UNL A   1      38.016  27.913  29.428  1.00  0.00     0.027 H 
ATOM     53  H   UNL A   1      39.068  29.378  29.435  1.00  0.00     0.027 H 
BRANCH  51  54
ATOM     54  C   UNL A   1      39.653  27.900  28.090  1.00  0.00    -0.052 C 
ATOM     55  H   UNL A   1      40.545  27.943  28.679  1.00  0.00     0.027 H 
ATOM     56  H   UNL A   1      39.721  28.395  27.144  1.00  0.00     0.027 H 
BRANCH  54  57
ATOM     57  C   UNL A   1      39.386  26.433  27.761  1.00  0.00    -0.036 C 
ATOM     58  H   UNL A   1      39.473  26.313  26.702  1.00  0.00     0.028 H 
ATOM     59  H   UNL A   1      38.409  26.224  28.146  1.00  0.00     0.028 H 
BRANCH  57  60
ATOM     60  C   UNL A   1      40.313  25.423  28.423  1.00  0.00     0.018 C 
ATOM     61  H   UNL A   1      39.873  25.114  29.348  1.00  0.00     0.049 H 
ATOM     62  H   UNL A   1      41.257  25.909  28.564  1.00  0.00     0.049 H 
BRANCH  60  63
ATOM     63  N   UNL A   1      40.559  24.241  27.613  1.00  0.00    -0.352 N 
ATOM     64  C   UNL A   1      41.601  23.958  26.760  1.00  0.00     0.251 C 
ATOM     65  H   UNL A   1      39.876  23.535  27.685  1.00  0.00     0.163 HD
ATOM     66  O   UNL A   1      41.578  22.945  26.069  1.00  0.00    -0.269 OA
BRANCH  64  67
ATOM     67  C   UNL A   1      42.740  24.898  26.643  1.00  0.00     0.039 A 
ATOM     68  C   UNL A   1      43.617  25.100  27.708  1.00  0.00    -0.049 A 
ATOM     69  C   UNL A   1      42.920  25.605  25.449  1.00  0.00    -0.049 A 
ATOM     70  C   UNL A   1      44.542  26.137  27.654  1.00  0.00    -0.053 A 
ATOM     71  H   UNL A   1      43.581  24.482  28.534  1.00  0.00     0.063 H 
ATOM     72  C   UNL A   1      43.923  26.578  25.359  1.00  0.00    -0.053 A 
ATOM     73  H   UNL A   1      42.315  25.410  24.637  1.00  0.00     0.063 H 
ATOM     74  C   UNL A   1      44.707  26.891  26.479  1.00  0.00    -0.014 A 
ATOM     75  H   UNL A   1      45.114  26.356  28.485  1.00  0.00     0.063 H 
ATOM     76  H   UNL A   1      44.085  27.066  24.464  1.00  0.00     0.063 H 
BRANCH  74  77
ATOM     77  C   UNL A   1      45.708  27.992  26.456  1.00  0.00     0.031 A 
ATOM     78  C   UNL A   1      45.311  29.410  26.771  1.00  0.00     0.074 A 
ATOM     79  C   UNL A   1      46.999  27.698  26.210  1.00  0.00     0.049 A 
ATOM     80  N   UNL A   1      46.064  30.480  26.849  1.00  0.00    -0.248 NA
ATOM     81  C   UNL A   1      43.885  29.667  27.026  1.00  0.00    -0.034 C 
ATOM     82  C   UNL A   1      47.508  26.362  25.895  1.00  0.00    -0.036 A 
ATOM     83  N   UNL A   1      48.121  28.487  26.216  1.00  0.00    -0.354 N 
ATOM     84  C   UNL A   1      45.207  31.531  27.149  1.00  0.00     0.074 A 
ATOM     85  C   UNL A   1      43.870  30.981  27.200  1.00  0.00    -0.034 C 
ATOM     86  H   UNL A   1      43.101  28.997  27.062  1.00  0.00     0.065 H 
ATOM     87  C   UNL A   1      48.844  26.411  25.802  1.00  0.00    -0.036 A 
ATOM     88  H   UNL A   1      46.930  25.517  25.764  1.00  0.00     0.065 H 
ATOM     89  C   UNL A   1      49.282  27.791  25.980  1.00  0.00     0.049 A 
ATOM     90  H   UNL A   1      48.097  29.459  26.374  1.00  0.00     0.167 HD
ATOM     91  C   UNL A   1      45.510  32.830  27.380  1.00  0.00     0.037 A 
ATOM     92  H   UNL A   1      43.014  31.539  27.350  1.00  0.00     0.065 H 
ATOM     93  H   UNL A   1      49.463  25.603  25.631  1.00  0.00     0.065 H 
ATOM     94  C   UNL A   1      50.558  28.214  25.905  1.00  0.00     0.037 A 
ATOM     95  C   UNL A   1      46.846  33.371  27.345  1.00  0.00     0.049 A 
ATOM     96  C   UNL A   1      50.862  29.671  26.113  1.00  0.00     0.074 A 
ATOM     97  C   UNL A   1      47.256  34.669  27.593  1.00  0.00    -0.036 A 
ATOM     98  N   UNL A   1      47.987  32.644  27.038  1.00  0.00    -0.354 N 
ATOM     99  N   UNL A   1      50.046  30.646  26.424  1.00  0.00    -0.248 NA
ATOM    100  C   UNL A   1      52.261  30.086  25.951  1.00  0.00    -0.034 C 
ATOM    101  C   UNL A   1      48.635  34.741  27.381  1.00  0.00    -0.036 A 
ATOM    102  H   UNL A   1      46.647  35.450  27.886  1.00  0.00     0.065 H 
ATOM    103  C   UNL A   1      49.097  33.475  27.061  1.00  0.00     0.049 A 
ATOM    104  H   UNL A   1      48.006  31.681  26.836  1.00  0.00     0.167 HD
ATOM    105  C   UNL A   1      50.830  31.788  26.512  1.00  0.00     0.074 A 
ATOM    106  C   UNL A   1      52.193  31.379  26.239  1.00  0.00    -0.034 C 
ATOM    107  H   UNL A   1      53.083  29.521  25.685  1.00  0.00     0.065 H 
ATOM    108  H   UNL A   1      49.211  35.595  27.449  1.00  0.00     0.065 H 
ATOM    109  C   UNL A   1      50.450  33.058  26.791  1.00  0.00     0.037 A 
ATOM    110  H   UNL A   1      53.007  32.014  26.265  1.00  0.00     0.065 H 
BRANCH  91 111
ATOM    111  C   UNL A   1      44.381  33.774  27.688  1.00  0.00     0.064 A 
ATOM    112  C   UNL A   1      43.827  34.607  26.704  1.00  0.00     0.173 A 
ATOM    113  C   UNL A   1      43.800  33.797  28.966  1.00  0.00     0.173 A 
ATOM    114  F   UNL A   1      44.348  34.630  25.468  1.00  0.00    -0.203 F 
ATOM    115  C   UNL A   1      42.751  35.443  26.993  1.00  0.00     0.198 A 
ATOM    116  C   UNL A   1      42.704  34.610  29.243  1.00  0.00     0.198 A 
ATOM    117  F   UNL A   1      44.282  33.014  29.942  1.00  0.00    -0.203 F 
ATOM    118  F   UNL A   1      42.266  36.260  26.047  1.00  0.00    -0.200 F 
ATOM    119  C   UNL A   1      42.185  35.437  28.259  1.00  0.00     0.200 A 
ATOM    120  F   UNL A   1      42.147  34.590  30.462  1.00  0.00    -0.200 F 
ATOM    121  F   UNL A   1      41.139  36.231  28.531  1.00  0.00    -0.200 F 
ENDBRANCH  91 111
BRANCH  94 122
ATOM    122  C   UNL A   1      51.636  27.227  25.636  1.00  0.00     0.064 A 
ATOM    123  C   UNL A   1      52.009  26.910  24.324  1.00  0.00     0.173 A 
ATOM    124  C   UNL A   1      52.352  26.626  26.682  1.00  0.00     0.173 A 
ATOM    125  F   UNL A   1      51.343  27.445  23.291  1.00  0.00    -0.203 F 
ATOM    126  C   UNL A   1      53.060  26.031  24.068  1.00  0.00     0.198 A 
ATOM    127  C   UNL A   1      53.422  25.771  26.426  1.00  0.00     0.198 A 
ATOM    128  F   UNL A   1      52.037  26.901  27.957  1.00  0.00    -0.203 F 
ATOM    129  F   UNL A   1      53.382  25.727  22.803  1.00  0.00    -0.200 F 
ATOM    130  C   UNL A   1      53.772  25.473  25.118  1.00  0.00     0.200 A 
ATOM    131  F   UNL A   1      54.121  25.251  27.443  1.00  0.00    -0.200 F 
ATOM    132  F   UNL A   1      54.799  24.647  24.871  1.00  0.00    -0.200 F 
ENDBRANCH  94 122
BRANCH 109 133
ATOM    133  C   UNL A   1      51.518  34.113  26.835  1.00  0.00     0.064 A 
ATOM    134  C   UNL A   1      51.832  34.885  25.707  1.00  0.00     0.173 A 
ATOM    135  C   UNL A   1      52.169  34.414  28.041  1.00  0.00     0.173 A 
ATOM    136  F   UNL A   1      51.248  34.626  24.528  1.00  0.00    -0.203 F 
ATOM    137  C   UNL A   1      52.766  35.915  25.784  1.00  0.00     0.198 A 
ATOM    138  C   UNL A   1      53.079  35.465  28.121  1.00  0.00     0.198 A 
ATOM    139  F   UNL A   1      51.900  33.710  29.151  1.00  0.00    -0.203 F 
ATOM    140  F   UNL A   1      53.073  36.621  24.687  1.00  0.00    -0.200 F 
ATOM    141  C   UNL A   1      53.378  36.213  26.992  1.00  0.00     0.200 A 
ATOM    142  F   UNL A   1      53.656  35.763  29.293  1.00  0.00    -0.200 F 
ATOM    143  F   UNL A   1      54.258  37.221  27.069  1.00  0.00    -0.200 F 
ENDBRANCH 109 133
ENDBRANCH  74  77
ENDBRANCH  64  67
ENDBRANCH  60  63
ENDBRANCH  57  60
ENDBRANCH  54  57
ENDBRANCH  51  54
ENDBRANCH   1  51
TORSDOF 19
ENDMDL
MODEL 7
REMARK VINA RESULT:     -11.3      6.549     12.668
REMARK SMILES Cc1cc(=O)c(Oc2ccc(C(=O)NCCCCCCNC(=O)c3ccc(-c4c5nc(c(-c6c(F)c(F)c(F)c(F)c6F)c6ccc([nH]6)c(-c6c(F)c(F)c(F)c(F)c6F)c6nc(c(-c7c(F)c(F)c(F)c(F)c7F)c7ccc4[nH]7)C=C6)C=C5)cc3)cc2)c(-c2ccc(S(C)(=O)=O)cc2)o1
REMARK SMILES IDX 16 1 15 4 14 7 12 8 13 9 11 11 8 12 9 13 88 14 10 15 87 17
REMARK SMILES IDX 7 21 6 22 2 23 3 24 100 25 4 26 89 28 5 29 1 30 90 34 91 35
REMARK SMILES IDX 99 36 92 37 98 39 93 41 94 44 96 45 97 46 95 47 17 51 18 54
REMARK SMILES IDX 19 57 20 60 21 63 22 64 23 66 24 67 25 68 86 69 26 70 85 72
REMARK SMILES IDX 27 74 28 77 29 78 79 79 30 80 84 81 78 82 80 83 31 84 83 85
REMARK SMILES IDX 77 87 76 89 32 91 64 94 44 95 63 96 45 97 48 98 62 99 81 100
REMARK SMILES IDX 46 101 47 103 61 105 82 106 49 109 33 111 34 112 42 113
REMARK SMILES IDX 35 114 36 115 40 116 43 117 37 118 38 119 41 120 39 121
REMARK SMILES IDX 65 122 66 123 74 124 67 125 68 126 72 127 75 128 69 129
REMARK SMILES IDX 70 130 73 131 71 132 50 133 51 134 59 135 52 136 53 137
REMARK SMILES IDX 57 138 60 139 54 140 55 141 58 142 56 143
REMARK H PARENT 16 2 16 3 15 5 15 6 14 10 9 16 88 18 10 19 87 20 3 27 1 31
REMARK H PARENT 1 32 1 33 91 38 99 40 92 42 98 43 95 48 95 49 95 50 17 52
REMARK H PARENT 17 53 18 55 18 56 19 58 19 59 20 61 20 62 21 65 25 71 86 73
REMARK H PARENT 26 75 85 76 84 86 78 88 80 90 83 92 77 93 45 102 48 104 81 107
REMARK H PARENT 46 108 82 110
REMARK Flexibility Score: inf
ROOT
ATOM      1  C   UNL A   1      52.006  23.370  33.193  1.00  0.00    -0.036 C 
ATOM      2  H   UNL A   1      51.966  24.026  34.038  1.00  0.00     0.028 H 
ATOM      3  H   UNL A   1      52.958  22.917  33.008  1.00  0.00     0.028 H 
ENDROOT
BRANCH   1   4
ATOM      4  C   UNL A   1      51.729  24.210  31.950  1.00  0.00     0.018 C 
ATOM      5  H   UNL A   1      52.587  24.144  31.313  1.00  0.00     0.049 H 
ATOM      6  H   UNL A   1      50.835  23.806  31.522  1.00  0.00     0.049 H 
BRANCH   4   7
ATOM      7  N   UNL A   1      51.454  25.612  32.182  1.00  0.00    -0.352 N 
ATOM      8  C   UNL A   1      50.344  26.372  31.885  1.00  0.00     0.251 C 
ATOM      9  O   UNL A   1      50.287  27.530  32.298  1.00  0.00    -0.269 OA
ATOM     10  H   UNL A   1      52.181  26.104  32.627  1.00  0.00     0.163 HD
BRANCH   8  11
ATOM     11  C   UNL A   1      49.269  25.874  30.983  1.00  0.00     0.040 A 
ATOM     12  C   UNL A   1      47.128  25.562  29.231  1.00  0.00     0.127 A 
ATOM     13  C   UNL A   1      46.876  25.728  30.587  1.00  0.00    -0.019 A 
ATOM     14  C   UNL A   1      48.427  25.315  28.791  1.00  0.00    -0.019 A 
ATOM     15  C   UNL A   1      47.950  25.925  31.459  1.00  0.00    -0.046 A 
ATOM     16  H   UNL A   1      45.909  25.706  30.946  1.00  0.00     0.066 H 
ATOM     17  C   UNL A   1      49.497  25.435  29.678  1.00  0.00    -0.046 A 
ATOM     18  H   UNL A   1      48.598  25.044  27.810  1.00  0.00     0.066 H 
ATOM     19  H   UNL A   1      47.772  26.109  32.459  1.00  0.00     0.063 H 
ATOM     20  H   UNL A   1      50.453  25.199  29.371  1.00  0.00     0.063 H 
BRANCH  12  21
ATOM     21  O   UNL A   1      46.144  25.543  28.289  1.00  0.00    -0.449 OA
BRANCH  21  22
ATOM     22  C   UNL A   1      46.293  26.038  26.999  1.00  0.00     0.217 A 
ATOM     23  C   UNL A   1      46.774  27.463  24.592  1.00  0.00     0.105 A 
ATOM     24  C   UNL A   1      46.752  28.194  25.709  1.00  0.00     0.028 A 
ATOM     25  O   UNL A   1      46.504  26.111  24.587  1.00  0.00    -0.457 OA
ATOM     26  C   UNL A   1      46.465  27.528  26.986  1.00  0.00     0.228 A 
ATOM     27  H   UNL A   1      46.934  29.209  25.675  1.00  0.00     0.070 H 
ATOM     28  C   UNL A   1      46.273  25.431  25.780  1.00  0.00     0.180 A 
ATOM     29  O   UNL A   1      46.374  28.207  28.005  1.00  0.00    -0.285 OA
BRANCH  23  30
ATOM     30  C   UNL A   1      47.090  28.038  23.248  1.00  0.00    -0.006 C 
ATOM     31  H   UNL A   1      46.179  28.247  22.727  1.00  0.00     0.031 H 
ATOM     32  H   UNL A   1      47.668  27.334  22.687  1.00  0.00     0.031 H 
ATOM     33  H   UNL A   1      47.649  28.941  23.369  1.00  0.00     0.031 H 
ENDBRANCH  23  30
BRANCH  28  34
ATOM     34  C   UNL A   1      46.047  24.003  25.490  1.00  0.00     0.021 A 
ATOM     35  C   UNL A   1      45.295  23.223  26.387  1.00  0.00    -0.050 A 
ATOM     36  C   UNL A   1      46.581  23.397  24.342  1.00  0.00    -0.050 A 
ATOM     37  C   UNL A   1      45.004  21.886  26.099  1.00  0.00    -0.043 A 
ATOM     38  H   UNL A   1      44.955  23.642  27.267  1.00  0.00     0.063 H 
ATOM     39  C   UNL A   1      46.302  22.055  24.056  1.00  0.00    -0.043 A 
ATOM     40  H   UNL A   1      47.183  23.943  23.707  1.00  0.00     0.063 H 
ATOM     41  C   UNL A   1      45.503  21.312  24.928  1.00  0.00     0.067 A 
ATOM     42  H   UNL A   1      44.425  21.330  26.747  1.00  0.00     0.064 H 
ATOM     43  H   UNL A   1      46.686  21.618  23.204  1.00  0.00     0.064 H 
BRANCH  41  44
ATOM     44  S   UNL A   1      45.017  19.653  24.505  1.00  0.00     0.175 S 
ATOM     45  O   UNL A   1      44.543  19.680  23.136  1.00  0.00    -0.224 OA
ATOM     46  O   UNL A   1      46.082  18.756  24.919  1.00  0.00    -0.224 OA
BRANCH  44  47
ATOM     47  C   UNL A   1      43.625  19.339  25.552  1.00  0.00     0.043 C 
ATOM     48  H   UNL A   1      43.871  18.567  26.251  1.00  0.00     0.040 H 
ATOM     49  H   UNL A   1      42.793  19.028  24.956  1.00  0.00     0.040 H 
ATOM     50  H   UNL A   1      43.370  20.233  26.082  1.00  0.00     0.040 H 
ENDBRANCH  44  47
ENDBRANCH  41  44
ENDBRANCH  28  34
ENDBRANCH  21  22
ENDBRANCH  12  21
ENDBRANCH   8  11
ENDBRANCH   4   7
ENDBRANCH   1   4
BRANCH   1  51
ATOM     51  C   UNL A   1      51.068  22.198  33.480  1.00  0.00    -0.052 C 
ATOM     52  H   UNL A   1      51.545  21.574  34.206  1.00  0.00     0.027 H 
ATOM     53  H   UNL A   1      50.900  21.737  32.530  1.00  0.00     0.027 H 
BRANCH  51  54
ATOM     54  C   UNL A   1      49.674  22.539  34.009  1.00  0.00    -0.052 C 
ATOM     55  H   UNL A   1      49.422  21.813  34.754  1.00  0.00     0.027 H 
ATOM     56  H   UNL A   1      49.036  22.535  33.150  1.00  0.00     0.027 H 
BRANCH  54  57
ATOM     57  C   UNL A   1      49.502  23.921  34.635  1.00  0.00    -0.036 C 
ATOM     58  H   UNL A   1      49.890  24.643  33.949  1.00  0.00     0.028 H 
ATOM     59  H   UNL A   1      50.022  23.882  35.570  1.00  0.00     0.028 H 
BRANCH  57  60
ATOM     60  C   UNL A   1      48.073  24.323  34.977  1.00  0.00     0.018 C 
ATOM     61  H   UNL A   1      47.466  23.442  34.984  1.00  0.00     0.049 H 
ATOM     62  H   UNL A   1      47.760  25.028  34.234  1.00  0.00     0.049 H 
BRANCH  60  63
ATOM     63  N   UNL A   1      47.947  24.980  36.269  1.00  0.00    -0.352 N 
ATOM     64  C   UNL A   1      47.114  26.003  36.659  1.00  0.00     0.251 C 
ATOM     65  H   UNL A   1      48.549  24.641  36.970  1.00  0.00     0.163 HD
ATOM     66  O   UNL A   1      47.232  26.507  37.771  1.00  0.00    -0.269 OA
BRANCH  64  67
ATOM     67  C   UNL A   1      46.094  26.529  35.722  1.00  0.00     0.039 A 
ATOM     68  C   UNL A   1      46.372  27.616  34.894  1.00  0.00    -0.049 A 
ATOM     69  C   UNL A   1      44.829  25.932  35.686  1.00  0.00    -0.049 A 
ATOM     70  C   UNL A   1      45.342  28.225  34.186  1.00  0.00    -0.053 A 
ATOM     71  H   UNL A   1      47.338  27.968  34.807  1.00  0.00     0.063 H 
ATOM     72  C   UNL A   1      43.820  26.484  34.890  1.00  0.00    -0.053 A 
ATOM     73  H   UNL A   1      44.641  25.087  36.248  1.00  0.00     0.063 H 
ATOM     74  C   UNL A   1      44.051  27.668  34.175  1.00  0.00    -0.014 A 
ATOM     75  H   UNL A   1      45.527  29.095  33.662  1.00  0.00     0.063 H 
ATOM     76  H   UNL A   1      42.901  26.017  34.828  1.00  0.00     0.063 H 
BRANCH  74  77
ATOM     77  C   UNL A   1      42.974  28.345  33.403  1.00  0.00     0.031 A 
ATOM     78  C   UNL A   1      42.711  27.993  31.962  1.00  0.00     0.074 A 
ATOM     79  C   UNL A   1      42.183  29.239  34.028  1.00  0.00     0.049 A 
ATOM     80  N   UNL A   1      41.779  28.446  31.160  1.00  0.00    -0.248 NA
ATOM     81  C   UNL A   1      43.611  27.013  31.337  1.00  0.00    -0.034 C 
ATOM     82  C   UNL A   1      42.335  29.661  35.421  1.00  0.00    -0.036 A 
ATOM     83  N   UNL A   1      41.082  29.931  33.590  1.00  0.00    -0.354 N 
ATOM     84  C   UNL A   1      41.988  27.816  29.939  1.00  0.00     0.074 A 
ATOM     85  C   UNL A   1      43.158  26.981  30.091  1.00  0.00    -0.034 C 
ATOM     86  H   UNL A   1      44.391  26.485  31.759  1.00  0.00     0.065 H 
ATOM     87  C   UNL A   1      41.329  30.485  35.744  1.00  0.00    -0.036 A 
ATOM     88  H   UNL A   1      43.097  29.370  36.055  1.00  0.00     0.065 H 
ATOM     89  C   UNL A   1      40.501  30.708  34.563  1.00  0.00     0.049 A 
ATOM     90  H   UNL A   1      40.741  29.875  32.668  1.00  0.00     0.167 HD
ATOM     91  C   UNL A   1      41.258  27.913  28.802  1.00  0.00     0.037 A 
ATOM     92  H   UNL A   1      43.587  26.431  29.329  1.00  0.00     0.065 H 
ATOM     93  H   UNL A   1      41.167  30.897  36.676  1.00  0.00     0.065 H 
ATOM     94  C   UNL A   1      39.427  31.518  34.513  1.00  0.00     0.037 A 
ATOM     95  C   UNL A   1      40.082  28.734  28.659  1.00  0.00     0.049 A 
ATOM     96  C   UNL A   1      38.666  31.649  33.224  1.00  0.00     0.074 A 
ATOM     97  C   UNL A   1      39.259  28.875  27.555  1.00  0.00    -0.036 A 
ATOM     98  N   UNL A   1      39.565  29.556  29.650  1.00  0.00    -0.354 N 
ATOM     99  N   UNL A   1      38.857  31.026  32.088  1.00  0.00    -0.248 NA
ATOM    100  C   UNL A   1      37.546  32.598  33.208  1.00  0.00    -0.034 C 
ATOM    101  C   UNL A   1      38.280  29.825  27.857  1.00  0.00    -0.036 A 
ATOM    102  H   UNL A   1      39.353  28.366  26.662  1.00  0.00     0.065 H 
ATOM    103  C   UNL A   1      38.451  30.230  29.171  1.00  0.00     0.049 A 
ATOM    104  H   UNL A   1      39.932  29.646  30.559  1.00  0.00     0.167 HD
ATOM    105  C   UNL A   1      37.876  31.494  31.226  1.00  0.00     0.074 A 
ATOM    106  C   UNL A   1      37.077  32.441  31.978  1.00  0.00    -0.034 C 
ATOM    107  H   UNL A   1      37.210  33.224  33.958  1.00  0.00     0.065 H 
ATOM    108  H   UNL A   1      37.552  30.167  27.210  1.00  0.00     0.065 H 
ATOM    109  C   UNL A   1      37.661  31.168  29.929  1.00  0.00     0.037 A 
ATOM    110  H   UNL A   1      36.249  32.930  31.603  1.00  0.00     0.065 H 
BRANCH  91 111
ATOM    111  C   UNL A   1      41.704  27.116  27.608  1.00  0.00     0.064 A 
ATOM    112  C   UNL A   1      42.510  27.679  26.606  1.00  0.00     0.173 A 
ATOM    113  C   UNL A   1      41.379  25.755  27.496  1.00  0.00     0.173 A 
ATOM    114  F   UNL A   1      42.845  28.977  26.658  1.00  0.00    -0.203 F 
ATOM    115  C   UNL A   1      42.954  26.915  25.528  1.00  0.00     0.198 A 
ATOM    116  C   UNL A   1      41.851  24.987  26.435  1.00  0.00     0.198 A 
ATOM    117  F   UNL A   1      40.620  25.163  28.430  1.00  0.00    -0.203 F 
ATOM    118  F   UNL A   1      43.689  27.486  24.563  1.00  0.00    -0.200 F 
ATOM    119  C   UNL A   1      42.632  25.569  25.449  1.00  0.00     0.200 A 
ATOM    120  F   UNL A   1      41.553  23.682  26.370  1.00  0.00    -0.200 F 
ATOM    121  F   UNL A   1      43.073  24.832  24.419  1.00  0.00    -0.200 F 
ENDBRANCH  91 111
BRANCH  94 122
ATOM    122  C   UNL A   1      39.011  32.250  35.737  1.00  0.00     0.064 A 
ATOM    123  C   UNL A   1      38.211  31.632  36.708  1.00  0.00     0.173 A 
ATOM    124  C   UNL A   1      39.448  33.559  35.990  1.00  0.00     0.173 A 
ATOM    125  F   UNL A   1      37.753  30.388  36.504  1.00  0.00    -0.203 F 
ATOM    126  C   UNL A   1      37.869  32.293  37.885  1.00  0.00     0.198 A 
ATOM    127  C   UNL A   1      39.131  34.208  37.180  1.00  0.00     0.198 A 
ATOM    128  F   UNL A   1      40.221  34.193  35.094  1.00  0.00    -0.203 F 
ATOM    129  F   UNL A   1      37.084  31.687  38.787  1.00  0.00    -0.200 F 
ATOM    130  C   UNL A   1      38.339  33.575  38.125  1.00  0.00     0.200 A 
ATOM    131  F   UNL A   1      39.606  35.438  37.417  1.00  0.00    -0.200 F 
ATOM    132  F   UNL A   1      38.030  34.202  39.269  1.00  0.00    -0.200 F 
ENDBRANCH  94 122
BRANCH 109 133
ATOM    133  C   UNL A   1      36.506  31.822  29.225  1.00  0.00     0.064 A 
ATOM    134  C   UNL A   1      35.357  31.098  28.875  1.00  0.00     0.173 A 
ATOM    135  C   UNL A   1      36.513  33.204  28.982  1.00  0.00     0.173 A 
ATOM    136  F   UNL A   1      35.308  29.773  29.074  1.00  0.00    -0.203 F 
ATOM    137  C   UNL A   1      34.260  31.734  28.298  1.00  0.00     0.198 A 
ATOM    138  C   UNL A   1      35.403  33.840  28.434  1.00  0.00     0.198 A 
ATOM    139  F   UNL A   1      37.585  33.943  29.305  1.00  0.00    -0.203 F 
ATOM    140  F   UNL A   1      33.185  31.017  27.943  1.00  0.00    -0.200 F 
ATOM    141  C   UNL A   1      34.279  33.104  28.090  1.00  0.00     0.200 A 
ATOM    142  F   UNL A   1      35.415  35.168  28.250  1.00  0.00    -0.200 F 
ATOM    143  F   UNL A   1      33.212  33.717  27.557  1.00  0.00    -0.200 F 
ENDBRANCH 109 133
ENDBRANCH  74  77
ENDBRANCH  64  67
ENDBRANCH  60  63
ENDBRANCH  57  60
ENDBRANCH  54  57
ENDBRANCH  51  54
ENDBRANCH   1  51
TORSDOF 19
ENDMDL
MODEL 8
REMARK VINA RESULT:     -11.2      4.452      7.447
REMARK SMILES Cc1cc(=O)c(Oc2ccc(C(=O)NCCCCCCNC(=O)c3ccc(-c4c5nc(c(-c6c(F)c(F)c(F)c(F)c6F)c6ccc([nH]6)c(-c6c(F)c(F)c(F)c(F)c6F)c6nc(c(-c7c(F)c(F)c(F)c(F)c7F)c7ccc4[nH]7)C=C6)C=C5)cc3)cc2)c(-c2ccc(S(C)(=O)=O)cc2)o1
REMARK SMILES IDX 16 1 15 4 14 7 12 8 13 9 11 11 8 12 9 13 88 14 10 15 87 17
REMARK SMILES IDX 7 21 6 22 2 23 3 24 100 25 4 26 89 28 5 29 1 30 90 34 91 35
REMARK SMILES IDX 99 36 92 37 98 39 93 41 94 44 96 45 97 46 95 47 17 51 18 54
REMARK SMILES IDX 19 57 20 60 21 63 22 64 23 66 24 67 25 68 86 69 26 70 85 72
REMARK SMILES IDX 27 74 28 77 29 78 79 79 30 80 84 81 78 82 80 83 31 84 83 85
REMARK SMILES IDX 77 87 76 89 32 91 64 94 44 95 63 96 45 97 48 98 62 99 81 100
REMARK SMILES IDX 46 101 47 103 61 105 82 106 49 109 33 111 34 112 42 113
REMARK SMILES IDX 35 114 36 115 40 116 43 117 37 118 38 119 41 120 39 121
REMARK SMILES IDX 65 122 66 123 74 124 67 125 68 126 72 127 75 128 69 129
REMARK SMILES IDX 70 130 73 131 71 132 50 133 51 134 59 135 52 136 53 137
REMARK SMILES IDX 57 138 60 139 54 140 55 141 58 142 56 143
REMARK H PARENT 16 2 16 3 15 5 15 6 14 10 9 16 88 18 10 19 87 20 3 27 1 31
REMARK H PARENT 1 32 1 33 91 38 99 40 92 42 98 43 95 48 95 49 95 50 17 52
REMARK H PARENT 17 53 18 55 18 56 19 58 19 59 20 61 20 62 21 65 25 71 86 73
REMARK H PARENT 26 75 85 76 84 86 78 88 80 90 83 92 77 93 45 102 48 104 81 107
REMARK H PARENT 46 108 82 110
REMARK Flexibility Score: inf
ROOT
ATOM      1  C   UNL A   1      37.522  29.493  28.637  1.00  0.00    -0.036 C 
ATOM      2  H   UNL A   1      38.065  30.412  28.711  1.00  0.00     0.028 H 
ATOM      3  H   UNL A   1      37.462  29.072  27.655  1.00  0.00     0.028 H 
ENDROOT
BRANCH   1   4
ATOM      4  C   UNL A   1      36.075  29.786  29.023  1.00  0.00     0.018 C 
ATOM      5  H   UNL A   1      35.493  28.918  28.789  1.00  0.00     0.049 H 
ATOM      6  H   UNL A   1      36.096  30.030  30.064  1.00  0.00     0.049 H 
BRANCH   4   7
ATOM      7  N   UNL A   1      35.463  30.921  28.365  1.00  0.00    -0.352 N 
ATOM      8  C   UNL A   1      34.317  31.010  27.606  1.00  0.00     0.251 C 
ATOM      9  O   UNL A   1      33.921  32.119  27.252  1.00  0.00    -0.269 OA
ATOM     10  H   UNL A   1      35.945  31.771  28.481  1.00  0.00     0.163 HD
BRANCH   8  11
ATOM     11  C   UNL A   1      33.611  29.798  27.104  1.00  0.00     0.040 A 
ATOM     12  C   UNL A   1      32.581  27.250  26.658  1.00  0.00     0.127 A 
ATOM     13  C   UNL A   1      33.850  27.561  26.186  1.00  0.00    -0.019 A 
ATOM     14  C   UNL A   1      31.748  28.264  27.131  1.00  0.00    -0.019 A 
ATOM     15  C   UNL A   1      34.382  28.827  26.446  1.00  0.00    -0.046 A 
ATOM     16  H   UNL A   1      34.393  26.866  25.650  1.00  0.00     0.066 H 
ATOM     17  C   UNL A   1      32.255  29.550  27.319  1.00  0.00    -0.046 A 
ATOM     18  H   UNL A   1      30.759  28.062  27.342  1.00  0.00     0.066 H 
ATOM     19  H   UNL A   1      35.346  29.048  26.152  1.00  0.00     0.063 H 
ATOM     20  H   UNL A   1      31.629  30.314  27.615  1.00  0.00     0.063 H 
BRANCH  12  21
ATOM     21  O   UNL A   1      32.057  25.994  26.610  1.00  0.00    -0.449 OA
BRANCH  21  22
ATOM     22  C   UNL A   1      32.089  25.181  25.483  1.00  0.00     0.217 A 
ATOM     23  C   UNL A   1      32.331  23.168  23.497  1.00  0.00     0.105 A 
ATOM     24  C   UNL A   1      32.993  22.949  24.634  1.00  0.00     0.028 A 
ATOM     25  O   UNL A   1      31.632  24.333  23.260  1.00  0.00    -0.457 OA
ATOM     26  C   UNL A   1      32.947  23.969  25.689  1.00  0.00     0.228 A 
ATOM     27  H   UNL A   1      33.527  22.077  24.771  1.00  0.00     0.070 H 
ATOM     28  C   UNL A   1      31.524  25.307  24.250  1.00  0.00     0.180 A 
ATOM     29  O   UNL A   1      33.612  23.804  26.709  1.00  0.00    -0.285 OA
BRANCH  23  30
ATOM     30  C   UNL A   1      32.286  22.180  22.376  1.00  0.00    -0.006 C 
ATOM     31  H   UNL A   1      31.362  22.283  21.846  1.00  0.00     0.031 H 
ATOM     32  H   UNL A   1      32.359  21.188  22.773  1.00  0.00     0.031 H 
ATOM     33  H   UNL A   1      33.103  22.358  21.710  1.00  0.00     0.031 H 
ENDBRANCH  23  30
BRANCH  28  34
ATOM     34  C   UNL A   1      30.702  26.423  23.747  1.00  0.00     0.021 A 
ATOM     35  C   UNL A   1      29.303  26.374  23.890  1.00  0.00    -0.050 A 
ATOM     36  C   UNL A   1      31.283  27.531  23.110  1.00  0.00    -0.050 A 
ATOM     37  C   UNL A   1      28.507  27.450  23.489  1.00  0.00    -0.043 A 
ATOM     38  H   UNL A   1      28.861  25.534  24.296  1.00  0.00     0.063 H 
ATOM     39  C   UNL A   1      30.488  28.605  22.696  1.00  0.00    -0.043 A 
ATOM     40  H   UNL A   1      32.301  27.552  22.947  1.00  0.00     0.063 H 
ATOM     41  C   UNL A   1      29.107  28.566  22.901  1.00  0.00     0.067 A 
ATOM     42  H   UNL A   1      27.485  27.420  23.626  1.00  0.00     0.064 H 
ATOM     43  H   UNL A   1      30.922  29.424  22.240  1.00  0.00     0.064 H 
BRANCH  41  44
ATOM     44  S   UNL A   1      28.102  29.985  22.517  1.00  0.00     0.175 S 
ATOM     45  O   UNL A   1      28.029  30.081  21.074  1.00  0.00    -0.224 OA
ATOM     46  O   UNL A   1      26.903  29.917  23.333  1.00  0.00    -0.224 OA
BRANCH  44  47
ATOM     47  C   UNL A   1      29.061  31.353  23.101  1.00  0.00     0.043 C 
ATOM     48  H   UNL A   1      29.378  31.948  22.270  1.00  0.00     0.040 H 
ATOM     49  H   UNL A   1      29.919  30.989  23.626  1.00  0.00     0.040 H 
ATOM     50  H   UNL A   1      28.466  31.949  23.761  1.00  0.00     0.040 H 
ENDBRANCH  44  47
ENDBRANCH  41  44
ENDBRANCH  28  34
ENDBRANCH  21  22
ENDBRANCH  12  21
ENDBRANCH   8  11
ENDBRANCH   4   7
ENDBRANCH   1   4
BRANCH   1  51
ATOM     51  C   UNL A   1      38.277  28.449  29.461  1.00  0.00    -0.052 C 
ATOM     52  H   UNL A   1      37.597  27.651  29.672  1.00  0.00     0.027 H 
ATOM     53  H   UNL A   1      38.633  28.977  30.320  1.00  0.00     0.027 H 
BRANCH  51  54
ATOM     54  C   UNL A   1      39.526  27.836  28.825  1.00  0.00    -0.052 C 
ATOM     55  H   UNL A   1      40.242  27.677  29.604  1.00  0.00     0.027 H 
ATOM     56  H   UNL A   1      39.833  28.533  28.074  1.00  0.00     0.027 H 
BRANCH  54  57
ATOM     57  C   UNL A   1      39.336  26.509  28.093  1.00  0.00    -0.036 C 
ATOM     58  H   UNL A   1      39.178  26.725  27.058  1.00  0.00     0.028 H 
ATOM     59  H   UNL A   1      38.507  26.031  28.572  1.00  0.00     0.028 H 
BRANCH  57  60
ATOM     60  C   UNL A   1      40.493  25.523  28.193  1.00  0.00     0.018 C 
ATOM     61  H   UNL A   1      40.129  24.617  28.630  1.00  0.00     0.049 H 
ATOM     62  H   UNL A   1      41.250  25.988  28.790  1.00  0.00     0.049 H 
BRANCH  60  63
ATOM     63  N   UNL A   1      41.097  25.205  26.909  1.00  0.00    -0.352 N 
ATOM     64  C   UNL A   1      41.930  25.962  26.116  1.00  0.00     0.251 C 
ATOM     65  H   UNL A   1      40.878  24.314  26.552  1.00  0.00     0.163 HD
ATOM     66  O   UNL A   1      42.251  25.564  25.001  1.00  0.00    -0.269 OA
BRANCH  64  67
ATOM     67  C   UNL A   1      42.413  27.279  26.591  1.00  0.00     0.039 A 
ATOM     68  C   UNL A   1      43.353  27.373  27.616  1.00  0.00    -0.049 A 
ATOM     69  C   UNL A   1      41.897  28.443  26.010  1.00  0.00    -0.049 A 
ATOM     70  C   UNL A   1      43.628  28.610  28.189  1.00  0.00    -0.053 A 
ATOM     71  H   UNL A   1      43.844  26.528  27.948  1.00  0.00     0.063 H 
ATOM     72  C   UNL A   1      42.257  29.695  26.520  1.00  0.00    -0.053 A 
ATOM     73  H   UNL A   1      41.252  28.378  25.208  1.00  0.00     0.063 H 
ATOM     74  C   UNL A   1      43.083  29.788  27.650  1.00  0.00    -0.014 A 
ATOM     75  H   UNL A   1      44.239  28.663  29.019  1.00  0.00     0.063 H 
ATOM     76  H   UNL A   1      41.913  30.555  26.063  1.00  0.00     0.063 H 
BRANCH  74  77
ATOM     77  C   UNL A   1      43.401  31.094  28.288  1.00  0.00     0.031 A 
ATOM     78  C   UNL A   1      42.596  31.607  29.453  1.00  0.00     0.074 A 
ATOM     79  C   UNL A   1      44.466  31.794  27.851  1.00  0.00     0.049 A 
ATOM     80  N   UNL A   1      42.770  32.696  30.160  1.00  0.00    -0.248 NA
ATOM     81  C   UNL A   1      41.444  30.798  29.879  1.00  0.00    -0.034 C 
ATOM     82  C   UNL A   1      45.325  31.401  26.733  1.00  0.00    -0.036 A 
ATOM     83  N   UNL A   1      45.028  32.960  28.307  1.00  0.00    -0.354 N 
ATOM     84  C   UNL A   1      41.748  32.709  31.101  1.00  0.00     0.074 A 
ATOM     85  C   UNL A   1      40.932  31.541  30.852  1.00  0.00    -0.034 C 
ATOM     86  H   UNL A   1      41.118  29.889  29.516  1.00  0.00     0.065 H 
ATOM     87  C   UNL A   1      46.340  32.270  26.631  1.00  0.00    -0.036 A 
ATOM     88  H   UNL A   1      45.173  30.584  26.121  1.00  0.00     0.065 H 
ATOM     89  C   UNL A   1      46.166  33.321  27.628  1.00  0.00     0.049 A 
ATOM     90  H   UNL A   1      44.651  33.487  29.049  1.00  0.00     0.167 HD
ATOM     91  C   UNL A   1      41.523  33.603  32.094  1.00  0.00     0.037 A 
ATOM     92  H   UNL A   1      40.064  31.315  31.363  1.00  0.00     0.065 H 
ATOM     93  H   UNL A   1      47.117  32.208  25.956  1.00  0.00     0.065 H 
ATOM     94  C   UNL A   1      46.978  34.385  27.781  1.00  0.00     0.037 A 
ATOM     95  C   UNL A   1      42.347  34.757  32.350  1.00  0.00     0.049 A 
ATOM     96  C   UNL A   1      46.675  35.391  28.855  1.00  0.00     0.074 A 
ATOM     97  C   UNL A   1      42.216  35.705  33.349  1.00  0.00    -0.036 A 
ATOM     98  N   UNL A   1      43.454  35.122  31.597  1.00  0.00    -0.354 N 
ATOM     99  N   UNL A   1      45.724  35.374  29.755  1.00  0.00    -0.248 NA
ATOM    100  C   UNL A   1      47.554  36.565  28.931  1.00  0.00    -0.034 C 
ATOM    101  C   UNL A   1      43.206  36.673  33.168  1.00  0.00    -0.036 A 
ATOM    102  H   UNL A   1      41.508  35.697  34.101  1.00  0.00     0.065 H 
ATOM    103  C   UNL A   1      43.996  36.299  32.093  1.00  0.00     0.049 A 
ATOM    104  H   UNL A   1      43.805  34.620  30.826  1.00  0.00     0.167 HD
ATOM    105  C   UNL A   1      45.895  36.523  30.514  1.00  0.00     0.074 A 
ATOM    106  C   UNL A   1      47.056  37.206  29.980  1.00  0.00    -0.034 C 
ATOM    107  H   UNL A   1      48.350  36.824  28.327  1.00  0.00     0.065 H 
ATOM    108  H   UNL A   1      43.328  37.526  33.738  1.00  0.00     0.065 H 
ATOM    109  C   UNL A   1      45.154  36.969  31.556  1.00  0.00     0.037 A 
ATOM    110  H   UNL A   1      47.446  38.080  30.367  1.00  0.00     0.065 H 
BRANCH  91 111
ATOM    111  C   UNL A   1      40.332  33.382  32.985  1.00  0.00     0.064 A 
ATOM    112  C   UNL A   1      40.403  32.558  34.119  1.00  0.00     0.173 A 
ATOM    113  C   UNL A   1      39.124  34.053  32.740  1.00  0.00     0.173 A 
ATOM    114  F   UNL A   1      41.531  31.887  34.396  1.00  0.00    -0.203 F 
ATOM    115  C   UNL A   1      39.305  32.399  34.960  1.00  0.00     0.198 A 
ATOM    116  C   UNL A   1      38.038  33.917  33.601  1.00  0.00     0.198 A 
ATOM    117  F   UNL A   1      39.003  34.861  31.676  1.00  0.00    -0.203 F 
ATOM    118  F   UNL A   1      39.385  31.575  36.015  1.00  0.00    -0.200 F 
ATOM    119  C   UNL A   1      38.127  33.085  34.706  1.00  0.00     0.200 A 
ATOM    120  F   UNL A   1      36.907  34.595  33.363  1.00  0.00    -0.200 F 
ATOM    121  F   UNL A   1      37.076  32.943  35.526  1.00  0.00    -0.200 F 
ENDBRANCH  91 111
BRANCH  94 122
ATOM    122  C   UNL A   1      48.162  34.529  26.895  1.00  0.00     0.064 A 
ATOM    123  C   UNL A   1      48.140  35.406  25.803  1.00  0.00     0.173 A 
ATOM    124  C   UNL A   1      49.355  33.837  27.153  1.00  0.00     0.173 A 
ATOM    125  F   UNL A   1      47.018  36.076  25.504  1.00  0.00    -0.203 F 
ATOM    126  C   UNL A   1      49.269  35.589  25.005  1.00  0.00     0.198 A 
ATOM    127  C   UNL A   1      50.491  34.043  26.374  1.00  0.00     0.198 A 
ATOM    128  F   UNL A   1      49.429  32.989  28.190  1.00  0.00    -0.203 F 
ATOM    129  F   UNL A   1      49.215  36.418  23.953  1.00  0.00    -0.200 F 
ATOM    130  C   UNL A   1      50.445  34.917  25.299  1.00  0.00     0.200 A 
ATOM    131  F   UNL A   1      51.632  33.409  26.675  1.00  0.00    -0.200 F 
ATOM    132  F   UNL A   1      51.537  35.113  24.546  1.00  0.00    -0.200 F 
ENDBRANCH  94 122
BRANCH 109 133
ATOM    133  C   UNL A   1      45.573  38.253  32.213  1.00  0.00     0.064 A 
ATOM    134  C   UNL A   1      44.973  39.476  31.881  1.00  0.00     0.173 A 
ATOM    135  C   UNL A   1      46.520  38.245  33.249  1.00  0.00     0.173 A 
ATOM    136  F   UNL A   1      44.073  39.539  30.888  1.00  0.00    -0.203 F 
ATOM    137  C   UNL A   1      45.312  40.646  32.557  1.00  0.00     0.198 A 
ATOM    138  C   UNL A   1      46.834  39.410  33.942  1.00  0.00     0.198 A 
ATOM    139  F   UNL A   1      47.119  37.100  33.610  1.00  0.00    -0.203 F 
ATOM    140  F   UNL A   1      44.748  41.808  32.202  1.00  0.00    -0.200 F 
ATOM    141  C   UNL A   1      46.232  40.610  33.594  1.00  0.00     0.200 A 
ATOM    142  F   UNL A   1      47.709  39.371  34.956  1.00  0.00    -0.200 F 
ATOM    143  F   UNL A   1      46.538  41.733  34.258  1.00  0.00    -0.200 F 
ENDBRANCH 109 133
ENDBRANCH  74  77
ENDBRANCH  64  67
ENDBRANCH  60  63
ENDBRANCH  57  60
ENDBRANCH  54  57
ENDBRANCH  51  54
ENDBRANCH   1  51
TORSDOF 19
ENDMDL
MODEL 9
REMARK VINA RESULT:     -11.0      3.384      5.735
REMARK SMILES Cc1cc(=O)c(Oc2ccc(C(=O)NCCCCCCNC(=O)c3ccc(-c4c5nc(c(-c6c(F)c(F)c(F)c(F)c6F)c6ccc([nH]6)c(-c6c(F)c(F)c(F)c(F)c6F)c6nc(c(-c7c(F)c(F)c(F)c(F)c7F)c7ccc4[nH]7)C=C6)C=C5)cc3)cc2)c(-c2ccc(S(C)(=O)=O)cc2)o1
REMARK SMILES IDX 16 1 15 4 14 7 12 8 13 9 11 11 8 12 9 13 88 14 10 15 87 17
REMARK SMILES IDX 7 21 6 22 2 23 3 24 100 25 4 26 89 28 5 29 1 30 90 34 91 35
REMARK SMILES IDX 99 36 92 37 98 39 93 41 94 44 96 45 97 46 95 47 17 51 18 54
REMARK SMILES IDX 19 57 20 60 21 63 22 64 23 66 24 67 25 68 86 69 26 70 85 72
REMARK SMILES IDX 27 74 28 77 29 78 79 79 30 80 84 81 78 82 80 83 31 84 83 85
REMARK SMILES IDX 77 87 76 89 32 91 64 94 44 95 63 96 45 97 48 98 62 99 81 100
REMARK SMILES IDX 46 101 47 103 61 105 82 106 49 109 33 111 34 112 42 113
REMARK SMILES IDX 35 114 36 115 40 116 43 117 37 118 38 119 41 120 39 121
REMARK SMILES IDX 65 122 66 123 74 124 67 125 68 126 72 127 75 128 69 129
REMARK SMILES IDX 70 130 73 131 71 132 50 133 51 134 59 135 52 136 53 137
REMARK SMILES IDX 57 138 60 139 54 140 55 141 58 142 56 143
REMARK H PARENT 16 2 16 3 15 5 15 6 14 10 9 16 88 18 10 19 87 20 3 27 1 31
REMARK H PARENT 1 32 1 33 91 38 99 40 92 42 98 43 95 48 95 49 95 50 17 52
REMARK H PARENT 17 53 18 55 18 56 19 58 19 59 20 61 20 62 21 65 25 71 86 73
REMARK H PARENT 26 75 85 76 84 86 78 88 80 90 83 92 77 93 45 102 48 104 81 107
REMARK H PARENT 46 108 82 110
REMARK Flexibility Score: inf
ROOT
ATOM      1  C   UNL A   1      37.058  22.125  24.672  1.00  0.00    -0.036 C 
ATOM      2  H   UNL A   1      36.649  22.122  23.683  1.00  0.00     0.028 H 
ATOM      3  H   UNL A   1      38.007  21.641  24.779  1.00  0.00     0.028 H 
ENDROOT
BRANCH   1   4
ATOM      4  C   UNL A   1      36.111  21.322  25.559  1.00  0.00     0.018 C 
ATOM      5  H   UNL A   1      36.659  20.491  25.953  1.00  0.00     0.049 H 
ATOM      6  H   UNL A   1      35.762  22.007  26.303  1.00  0.00     0.049 H 
BRANCH   4   7
ATOM      7  N   UNL A   1      34.924  20.805  24.912  1.00  0.00    -0.352 N 
ATOM      8  C   UNL A   1      33.701  21.393  24.674  1.00  0.00     0.251 C 
ATOM      9  O   UNL A   1      32.877  20.796  23.984  1.00  0.00    -0.269 OA
ATOM     10  H   UNL A   1      35.004  19.880  24.587  1.00  0.00     0.163 HD
BRANCH   8  11
ATOM     11  C   UNL A   1      33.307  22.676  25.321  1.00  0.00     0.040 A 
ATOM     12  C   UNL A   1      32.170  25.114  26.036  1.00  0.00     0.127 A 
ATOM     13  C   UNL A   1      33.202  25.094  25.107  1.00  0.00    -0.019 A 
ATOM     14  C   UNL A   1      31.875  23.968  26.772  1.00  0.00    -0.019 A 
ATOM     15  C   UNL A   1      33.744  23.865  24.718  1.00  0.00    -0.046 A 
ATOM     16  H   UNL A   1      33.565  25.974  24.708  1.00  0.00     0.066 H 
ATOM     17  C   UNL A   1      32.473  22.753  26.437  1.00  0.00    -0.046 A 
ATOM     18  H   UNL A   1      31.214  24.017  27.563  1.00  0.00     0.066 H 
ATOM     19  H   UNL A   1      34.469  23.833  23.985  1.00  0.00     0.063 H 
ATOM     20  H   UNL A   1      32.300  21.915  27.013  1.00  0.00     0.063 H 
BRANCH  12  21
ATOM     21  O   UNL A   1      31.464  26.239  26.338  1.00  0.00    -0.449 OA
BRANCH  21  22
ATOM     22  C   UNL A   1      31.144  27.228  25.415  1.00  0.00     0.217 A 
ATOM     23  C   UNL A   1      30.094  28.953  23.421  1.00  0.00     0.105 A 
ATOM     24  C   UNL A   1      29.622  27.705  23.421  1.00  0.00     0.028 A 
ATOM     25  O   UNL A   1      31.088  29.369  24.282  1.00  0.00    -0.457 OA
ATOM     26  C   UNL A   1      30.153  26.746  24.397  1.00  0.00     0.228 A 
ATOM     27  H   UNL A   1      28.896  27.419  22.746  1.00  0.00     0.070 H 
ATOM     28  C   UNL A   1      31.587  28.505  25.255  1.00  0.00     0.180 A 
ATOM     29  O   UNL A   1      29.773  25.579  24.355  1.00  0.00    -0.285 OA
BRANCH  23  30
ATOM     30  C   UNL A   1      29.597  30.014  22.492  1.00  0.00    -0.006 C 
ATOM     31  H   UNL A   1      30.372  30.278  21.804  1.00  0.00     0.031 H 
ATOM     32  H   UNL A   1      29.312  30.877  23.056  1.00  0.00     0.031 H 
ATOM     33  H   UNL A   1      28.749  29.646  21.952  1.00  0.00     0.031 H 
ENDBRANCH  23  30
BRANCH  28  34
ATOM     34  C   UNL A   1      32.607  29.211  26.054  1.00  0.00     0.021 A 
ATOM     35  C   UNL A   1      32.358  30.524  26.492  1.00  0.00    -0.050 A 
ATOM     36  C   UNL A   1      33.831  28.606  26.375  1.00  0.00    -0.050 A 
ATOM     37  C   UNL A   1      33.275  31.188  27.313  1.00  0.00    -0.043 A 
ATOM     38  H   UNL A   1      31.490  31.002  26.205  1.00  0.00     0.063 H 
ATOM     39  C   UNL A   1      34.758  29.271  27.186  1.00  0.00    -0.043 A 
ATOM     40  H   UNL A   1      34.050  27.666  26.011  1.00  0.00     0.063 H 
ATOM     41  C   UNL A   1      34.468  30.552  27.662  1.00  0.00     0.067 A 
ATOM     42  H   UNL A   1      33.072  32.139  27.655  1.00  0.00     0.064 H 
ATOM     43  H   UNL A   1      35.652  28.816  27.431  1.00  0.00     0.064 H 
BRANCH  41  44
ATOM     44  S   UNL A   1      35.567  31.350  28.813  1.00  0.00     0.175 S 
ATOM     45  O   UNL A   1      36.465  32.185  28.042  1.00  0.00    -0.224 OA
ATOM     46  O   UNL A   1      34.763  31.898  29.892  1.00  0.00    -0.224 OA
BRANCH  44  47
ATOM     47  C   UNL A   1      36.515  30.016  29.488  1.00  0.00     0.043 C 
ATOM     48  H   UNL A   1      36.599  30.139  30.547  1.00  0.00     0.040 H 
ATOM     49  H   UNL A   1      37.492  30.016  29.051  1.00  0.00     0.040 H 
ATOM     50  H   UNL A   1      36.028  29.089  29.273  1.00  0.00     0.040 H 
ENDBRANCH  44  47
ENDBRANCH  41  44
ENDBRANCH  28  34
ENDBRANCH  21  22
ENDBRANCH  12  21
ENDBRANCH   8  11
ENDBRANCH   4   7
ENDBRANCH   1   4
BRANCH   1  51
ATOM     51  C   UNL A   1      37.321  23.582  25.052  1.00  0.00    -0.052 C 
ATOM     52  H   UNL A   1      36.405  24.119  24.923  1.00  0.00     0.027 H 
ATOM     53  H   UNL A   1      38.121  23.897  24.415  1.00  0.00     0.027 H 
BRANCH  51  54
ATOM     54  C   UNL A   1      37.817  23.849  26.475  1.00  0.00    -0.052 C 
ATOM     55  H   UNL A   1      38.086  22.908  26.907  1.00  0.00     0.027 H 
ATOM     56  H   UNL A   1      37.009  24.350  26.967  1.00  0.00     0.027 H 
BRANCH  54  57
ATOM     57  C   UNL A   1      39.017  24.782  26.614  1.00  0.00    -0.036 C 
ATOM     58  H   UNL A   1      38.700  25.645  27.160  1.00  0.00     0.028 H 
ATOM     59  H   UNL A   1      39.338  24.991  25.615  1.00  0.00     0.028 H 
BRANCH  57  60
ATOM     60  C   UNL A   1      40.233  24.201  27.324  1.00  0.00     0.018 C 
ATOM     61  H   UNL A   1      39.903  23.723  28.223  1.00  0.00     0.049 H 
ATOM     62  H   UNL A   1      40.902  25.014  27.516  1.00  0.00     0.049 H 
BRANCH  60  63
ATOM     63  N   UNL A   1      40.961  23.228  26.525  1.00  0.00    -0.352 N 
ATOM     64  C   UNL A   1      42.177  23.343  25.890  1.00  0.00     0.251 C 
ATOM     65  H   UNL A   1      40.519  22.354  26.424  1.00  0.00     0.163 HD
ATOM     66  O   UNL A   1      42.581  22.443  25.162  1.00  0.00    -0.269 OA
BRANCH  64  67
ATOM     67  C   UNL A   1      42.985  24.574  26.051  1.00  0.00     0.039 A 
ATOM     68  C   UNL A   1      43.025  25.544  25.051  1.00  0.00    -0.049 A 
ATOM     69  C   UNL A   1      43.733  24.749  27.221  1.00  0.00    -0.049 A 
ATOM     70  C   UNL A   1      43.951  26.578  25.128  1.00  0.00    -0.053 A 
ATOM     71  H   UNL A   1      42.369  25.494  24.255  1.00  0.00     0.063 H 
ATOM     72  C   UNL A   1      44.588  25.850  27.343  1.00  0.00    -0.053 A 
ATOM     73  H   UNL A   1      43.655  24.067  27.991  1.00  0.00     0.063 H 
ATOM     74  C   UNL A   1      44.746  26.745  26.275  1.00  0.00    -0.014 A 
ATOM     75  H   UNL A   1      44.055  27.231  24.335  1.00  0.00     0.063 H 
ATOM     76  H   UNL A   1      45.105  26.004  28.224  1.00  0.00     0.063 H 
BRANCH  74  77
ATOM     77  C   UNL A   1      45.725  27.865  26.324  1.00  0.00     0.031 A 
ATOM     78  C   UNL A   1      45.289  29.263  26.678  1.00  0.00     0.074 A 
ATOM     79  C   UNL A   1      47.029  27.605  26.111  1.00  0.00     0.049 A 
ATOM     80  N   UNL A   1      46.018  30.343  26.820  1.00  0.00    -0.248 NA
ATOM     81  C   UNL A   1      43.851  29.482  26.896  1.00  0.00    -0.034 C 
ATOM     82  C   UNL A   1      47.576  26.292  25.763  1.00  0.00    -0.036 A 
ATOM     83  N   UNL A   1      48.134  28.416  26.182  1.00  0.00    -0.354 N 
ATOM     84  C   UNL A   1      45.130  31.365  27.130  1.00  0.00     0.074 A 
ATOM     85  C   UNL A   1      43.803  30.788  27.117  1.00  0.00    -0.034 C 
ATOM     86  H   UNL A   1      43.080  28.796  26.882  1.00  0.00     0.065 H 
ATOM     87  C   UNL A   1      48.912  26.370  25.717  1.00  0.00    -0.036 A 
ATOM     88  H   UNL A   1      47.019  25.441  25.583  1.00  0.00     0.065 H 
ATOM     89  C   UNL A   1      49.316  27.751  25.960  1.00  0.00     0.049 A 
ATOM     90  H   UNL A   1      48.085  29.380  26.375  1.00  0.00     0.167 HD
ATOM     91  C   UNL A   1      45.399  32.661  27.419  1.00  0.00     0.037 A 
ATOM     92  H   UNL A   1      42.932  31.324  27.260  1.00  0.00     0.065 H 
ATOM     93  H   UNL A   1      49.553  25.582  25.536  1.00  0.00     0.065 H 
ATOM     94  C   UNL A   1      50.585  28.201  25.942  1.00  0.00     0.037 A 
ATOM     95  C   UNL A   1      46.723  33.228  27.448  1.00  0.00     0.049 A 
ATOM     96  C   UNL A   1      50.852  29.654  26.213  1.00  0.00     0.074 A 
ATOM     97  C   UNL A   1      47.099  34.524  27.757  1.00  0.00    -0.036 A 
ATOM     98  N   UNL A   1      47.888  32.535  27.152  1.00  0.00    -0.354 N 
ATOM     99  N   UNL A   1      50.006  30.602  26.533  1.00  0.00    -0.248 NA
ATOM    100  C   UNL A   1      52.247  30.103  26.112  1.00  0.00    -0.034 C 
ATOM    101  C   UNL A   1      48.482  34.630  27.592  1.00  0.00    -0.036 A 
ATOM    102  H   UNL A   1      46.465  35.281  28.058  1.00  0.00     0.065 H 
ATOM    103  C   UNL A   1      48.980  33.386  27.242  1.00  0.00     0.049 A 
ATOM    104  H   UNL A   1      47.934  31.581  26.915  1.00  0.00     0.167 HD
ATOM    105  C   UNL A   1      50.763  31.754  26.688  1.00  0.00     0.074 A 
ATOM    106  C   UNL A   1      52.143  31.382  26.445  1.00  0.00    -0.034 C 
ATOM    107  H   UNL A   1      53.088  29.564  25.852  1.00  0.00     0.065 H 
ATOM    108  H   UNL A   1      49.038  35.492  27.711  1.00  0.00     0.065 H 
ATOM    109  C   UNL A   1      50.350  33.005  27.001  1.00  0.00     0.037 A 
ATOM    110  H   UNL A   1      52.942  32.031  26.521  1.00  0.00     0.065 H 
BRANCH  91 111
ATOM    111  C   UNL A   1      44.241  33.570  27.724  1.00  0.00     0.064 A 
ATOM    112  C   UNL A   1      43.647  33.605  28.995  1.00  0.00     0.173 A 
ATOM    113  C   UNL A   1      43.762  34.465  26.754  1.00  0.00     0.173 A 
ATOM    114  F   UNL A   1      44.060  32.767  29.957  1.00  0.00    -0.203 F 
ATOM    115  C   UNL A   1      42.604  34.486  29.276  1.00  0.00     0.198 A 
ATOM    116  C   UNL A   1      42.742  35.365  27.048  1.00  0.00     0.198 A 
ATOM    117  F   UNL A   1      44.300  34.481  25.526  1.00  0.00    -0.203 F 
ATOM    118  F   UNL A   1      42.026  34.472  30.486  1.00  0.00    -0.200 F 
ATOM    119  C   UNL A   1      42.159  35.371  28.306  1.00  0.00     0.200 A 
ATOM    120  F   UNL A   1      42.325  36.232  26.115  1.00  0.00    -0.200 F 
ATOM    121  F   UNL A   1      41.166  36.228  28.583  1.00  0.00    -0.200 F 
ENDBRANCH  91 111
BRANCH  94 122
ATOM    122  C   UNL A   1      51.691  27.246  25.673  1.00  0.00     0.064 A 
ATOM    123  C   UNL A   1      52.112  26.984  24.362  1.00  0.00     0.173 A 
ATOM    124  C   UNL A   1      52.386  26.620  26.718  1.00  0.00     0.173 A 
ATOM    125  F   UNL A   1      51.468  27.544  23.328  1.00  0.00    -0.203 F 
ATOM    126  C   UNL A   1      53.188  26.136  24.108  1.00  0.00     0.198 A 
ATOM    127  C   UNL A   1      53.480  25.797  26.466  1.00  0.00     0.198 A 
ATOM    128  F   UNL A   1      52.025  26.842  27.992  1.00  0.00    -0.203 F 
ATOM    129  F   UNL A   1      53.556  25.885  22.845  1.00  0.00    -0.200 F 
ATOM    130  C   UNL A   1      53.878  25.553  25.160  1.00  0.00     0.200 A 
ATOM    131  F   UNL A   1      54.158  25.253  27.486  1.00  0.00    -0.200 F 
ATOM    132  F   UNL A   1      54.928  24.758  24.916  1.00  0.00    -0.200 F 
ENDBRANCH  94 122
BRANCH 109 133
ATOM    133  C   UNL A   1      51.394  34.078  27.119  1.00  0.00     0.064 A 
ATOM    134  C   UNL A   1      52.088  34.295  28.318  1.00  0.00     0.173 A 
ATOM    135  C   UNL A   1      51.765  34.835  25.997  1.00  0.00     0.173 A 
ATOM    136  F   UNL A   1      51.761  33.608  29.422  1.00  0.00    -0.203 F 
ATOM    137  C   UNL A   1      53.112  35.238  28.390  1.00  0.00     0.198 A 
ATOM    138  C   UNL A   1      52.809  35.753  26.065  1.00  0.00     0.198 A 
ATOM    139  F   UNL A   1      51.136  34.661  24.825  1.00  0.00    -0.203 F 
ATOM    140  F   UNL A   1      53.742  35.450  29.553  1.00  0.00    -0.200 F 
ATOM    141  C   UNL A   1      53.479  35.956  27.262  1.00  0.00     0.200 A 
ATOM    142  F   UNL A   1      53.174  36.434  24.970  1.00  0.00    -0.200 F 
ATOM    143  F   UNL A   1      54.481  36.844  27.329  1.00  0.00    -0.200 F 
ENDBRANCH 109 133
ENDBRANCH  74  77
ENDBRANCH  64  67
ENDBRANCH  60  63
ENDBRANCH  57  60
ENDBRANCH  54  57
ENDBRANCH  51  54
ENDBRANCH   1  51
TORSDOF 19
ENDMDL
MODEL 10
REMARK VINA RESULT:     -10.9      6.616     12.735
REMARK SMILES Cc1cc(=O)c(Oc2ccc(C(=O)NCCCCCCNC(=O)c3ccc(-c4c5nc(c(-c6c(F)c(F)c(F)c(F)c6F)c6ccc([nH]6)c(-c6c(F)c(F)c(F)c(F)c6F)c6nc(c(-c7c(F)c(F)c(F)c(F)c7F)c7ccc4[nH]7)C=C6)C=C5)cc3)cc2)c(-c2ccc(S(C)(=O)=O)cc2)o1
REMARK SMILES IDX 16 1 15 4 14 7 12 8 13 9 11 11 8 12 9 13 88 14 10 15 87 17
REMARK SMILES IDX 7 21 6 22 2 23 3 24 100 25 4 26 89 28 5 29 1 30 90 34 91 35
REMARK SMILES IDX 99 36 92 37 98 39 93 41 94 44 96 45 97 46 95 47 17 51 18 54
REMARK SMILES IDX 19 57 20 60 21 63 22 64 23 66 24 67 25 68 86 69 26 70 85 72
REMARK SMILES IDX 27 74 28 77 29 78 79 79 30 80 84 81 78 82 80 83 31 84 83 85
REMARK SMILES IDX 77 87 76 89 32 91 64 94 44 95 63 96 45 97 48 98 62 99 81 100
REMARK SMILES IDX 46 101 47 103 61 105 82 106 49 109 33 111 34 112 42 113
REMARK SMILES IDX 35 114 36 115 40 116 43 117 37 118 38 119 41 120 39 121
REMARK SMILES IDX 65 122 66 123 74 124 67 125 68 126 72 127 75 128 69 129
REMARK SMILES IDX 70 130 73 131 71 132 50 133 51 134 59 135 52 136 53 137
REMARK SMILES IDX 57 138 60 139 54 140 55 141 58 142 56 143
REMARK H PARENT 16 2 16 3 15 5 15 6 14 10 9 16 88 18 10 19 87 20 3 27 1 31
REMARK H PARENT 1 32 1 33 91 38 99 40 92 42 98 43 95 48 95 49 95 50 17 52
REMARK H PARENT 17 53 18 55 18 56 19 58 19 59 20 61 20 62 21 65 25 71 86 73
REMARK H PARENT 26 75 85 76 84 86 78 88 80 90 83 92 77 93 45 102 48 104 81 107
REMARK H PARENT 46 108 82 110
REMARK Flexibility Score: inf
ROOT
ATOM      1  C   UNL A   1      37.236  30.191  29.069  1.00  0.00    -0.036 C 
ATOM      2  H   UNL A   1      38.285  30.249  28.866  1.00  0.00     0.028 H 
ATOM      3  H   UNL A   1      36.806  31.062  29.520  1.00  0.00     0.028 H 
ENDROOT
BRANCH   1   4
ATOM      4  C   UNL A   1      37.031  29.081  30.096  1.00  0.00     0.018 C 
ATOM      5  H   UNL A   1      36.284  29.411  30.789  1.00  0.00     0.049 H 
ATOM      6  H   UNL A   1      36.752  28.215  29.534  1.00  0.00     0.049 H 
BRANCH   4   7
ATOM      7  N   UNL A   1      38.202  28.697  30.855  1.00  0.00    -0.352 N 
ATOM      8  C   UNL A   1      39.416  28.194  30.441  1.00  0.00     0.251 C 
ATOM      9  O   UNL A   1      40.318  28.060  31.267  1.00  0.00    -0.269 OA
ATOM     10  H   UNL A   1      38.117  28.816  31.828  1.00  0.00     0.163 HD
BRANCH   8  11
ATOM     11  C   UNL A   1      39.630  27.700  29.053  1.00  0.00     0.040 A 
ATOM     12  C   UNL A   1      40.645  26.818  26.615  1.00  0.00     0.127 A 
ATOM     13  C   UNL A   1      40.563  28.183  26.862  1.00  0.00    -0.019 A 
ATOM     14  C   UNL A   1      40.010  25.919  27.469  1.00  0.00    -0.019 A 
ATOM     15  C   UNL A   1      40.092  28.623  28.102  1.00  0.00    -0.046 A 
ATOM     16  H   UNL A   1      40.846  28.863  26.140  1.00  0.00     0.066 H 
ATOM     17  C   UNL A   1      39.469  26.366  28.674  1.00  0.00    -0.046 A 
ATOM     18  H   UNL A   1      39.943  24.922  27.211  1.00  0.00     0.066 H 
ATOM     19  H   UNL A   1      40.082  29.632  28.319  1.00  0.00     0.063 H 
ATOM     20  H   UNL A   1      38.950  25.714  29.282  1.00  0.00     0.063 H 
BRANCH  12  21
ATOM     21  O   UNL A   1      41.256  26.298  25.514  1.00  0.00    -0.449 OA
BRANCH  21  22
ATOM     22  C   UNL A   1      42.633  26.170  25.376  1.00  0.00     0.217 A 
ATOM     23  C   UNL A   1      45.453  26.408  25.163  1.00  0.00     0.105 A 
ATOM     24  C   UNL A   1      44.760  27.542  25.039  1.00  0.00     0.028 A 
ATOM     25  O   UNL A   1      44.843  25.180  25.308  1.00  0.00    -0.457 OA
ATOM     26  C   UNL A   1      43.294  27.486  25.095  1.00  0.00     0.228 A 
ATOM     27  H   UNL A   1      45.247  28.442  24.906  1.00  0.00     0.070 H 
ATOM     28  C   UNL A   1      43.457  25.087  25.413  1.00  0.00     0.180 A 
ATOM     29  O   UNL A   1      42.650  28.516  24.911  1.00  0.00    -0.285 OA
BRANCH  23  30
ATOM     30  C   UNL A   1      46.947  26.361  25.154  1.00  0.00    -0.006 C 
ATOM     31  H   UNL A   1      47.315  26.502  26.149  1.00  0.00     0.031 H 
ATOM     32  H   UNL A   1      47.324  27.138  24.521  1.00  0.00     0.031 H 
ATOM     33  H   UNL A   1      47.272  25.411  24.783  1.00  0.00     0.031 H 
ENDBRANCH  23  30
BRANCH  28  34
ATOM     34  C   UNL A   1      43.078  23.673  25.594  1.00  0.00     0.021 A 
ATOM     35  C   UNL A   1      43.935  22.659  25.129  1.00  0.00    -0.050 A 
ATOM     36  C   UNL A   1      41.868  23.313  26.208  1.00  0.00    -0.050 A 
ATOM     37  C   UNL A   1      43.635  21.313  25.353  1.00  0.00    -0.043 A 
ATOM     38  H   UNL A   1      44.794  22.913  24.616  1.00  0.00     0.063 H 
ATOM     39  C   UNL A   1      41.558  21.966  26.424  1.00  0.00    -0.043 A 
ATOM     40  H   UNL A   1      41.205  24.046  26.502  1.00  0.00     0.063 H 
ATOM     41  C   UNL A   1      42.449  20.974  26.009  1.00  0.00     0.067 A 
ATOM     42  H   UNL A   1      44.284  20.576  25.036  1.00  0.00     0.064 H 
ATOM     43  H   UNL A   1      40.673  21.707  26.889  1.00  0.00     0.064 H 
BRANCH  41  44
ATOM     44  S   UNL A   1      42.141  19.267  26.409  1.00  0.00     0.175 S 
ATOM     45  O   UNL A   1      42.179  19.149  27.852  1.00  0.00    -0.224 OA
ATOM     46  O   UNL A   1      40.986  18.831  25.644  1.00  0.00    -0.224 OA
BRANCH  44  47
ATOM     47  C   UNL A   1      43.553  18.419  25.760  1.00  0.00     0.043 C 
ATOM     48  H   UNL A   1      43.953  18.971  24.936  1.00  0.00     0.040 H 
ATOM     49  H   UNL A   1      43.262  17.444  25.429  1.00  0.00     0.040 H 
ATOM     50  H   UNL A   1      44.296  18.329  26.524  1.00  0.00     0.040 H 
ENDBRANCH  44  47
ENDBRANCH  41  44
ENDBRANCH  28  34
ENDBRANCH  21  22
ENDBRANCH  12  21
ENDBRANCH   8  11
ENDBRANCH   4   7
ENDBRANCH   1   4
BRANCH   1  51
ATOM     51  C   UNL A   1      36.518  30.056  27.727  1.00  0.00    -0.052 C 
ATOM     52  H   UNL A   1      37.023  29.298  27.166  1.00  0.00     0.027 H 
ATOM     53  H   UNL A   1      36.550  31.034  27.294  1.00  0.00     0.027 H 
BRANCH  51  54
ATOM     54  C   UNL A   1      35.034  29.687  27.768  1.00  0.00    -0.052 C 
ATOM     55  H   UNL A   1      34.842  29.219  28.711  1.00  0.00     0.027 H 
ATOM     56  H   UNL A   1      34.875  29.057  26.918  1.00  0.00     0.027 H 
BRANCH  54  57
ATOM     57  C   UNL A   1      34.041  30.836  27.611  1.00  0.00    -0.036 C 
ATOM     58  H   UNL A   1      33.323  30.760  28.400  1.00  0.00     0.028 H 
ATOM     59  H   UNL A   1      33.627  30.728  26.631  1.00  0.00     0.028 H 
BRANCH  57  60
ATOM     60  C   UNL A   1      34.635  32.238  27.655  1.00  0.00     0.018 C 
ATOM     61  H   UNL A   1      34.915  32.518  26.661  1.00  0.00     0.049 H 
ATOM     62  H   UNL A   1      35.472  32.203  28.320  1.00  0.00     0.049 H 
BRANCH  60  63
ATOM     63  N   UNL A   1      33.718  33.241  28.174  1.00  0.00    -0.352 N 
ATOM     64  C   UNL A   1      33.712  33.882  29.392  1.00  0.00     0.251 C 
ATOM     65  H   UNL A   1      32.992  33.501  27.562  1.00  0.00     0.163 HD
ATOM     66  O   UNL A   1      32.783  34.623  29.696  1.00  0.00    -0.269 OA
BRANCH  64  67
ATOM     67  C   UNL A   1      34.810  33.649  30.359  1.00  0.00     0.039 A 
ATOM     68  C   UNL A   1      35.877  34.540  30.462  1.00  0.00    -0.049 A 
ATOM     69  C   UNL A   1      34.778  32.505  31.164  1.00  0.00    -0.049 A 
ATOM     70  C   UNL A   1      36.995  34.195  31.214  1.00  0.00    -0.053 A 
ATOM     71  H   UNL A   1      35.839  35.453  29.982  1.00  0.00     0.063 H 
ATOM     72  C   UNL A   1      35.859  32.212  32.002  1.00  0.00    -0.053 A 
ATOM     73  H   UNL A   1      33.959  31.878  31.139  1.00  0.00     0.063 H 
ATOM     74  C   UNL A   1      37.002  33.025  31.994  1.00  0.00    -0.014 A 
ATOM     75  H   UNL A   1      37.828  34.804  31.200  1.00  0.00     0.063 H 
ATOM     76  H   UNL A   1      35.816  31.393  32.630  1.00  0.00     0.063 H 
BRANCH  74  77
ATOM     77  C   UNL A   1      38.214  32.688  32.789  1.00  0.00     0.031 A 
ATOM     78  C   UNL A   1      39.487  32.247  32.115  1.00  0.00     0.074 A 
ATOM     79  C   UNL A   1      38.184  32.844  34.126  1.00  0.00     0.049 A 
ATOM     80  N   UNL A   1      40.649  31.967  32.651  1.00  0.00    -0.248 NA
ATOM     81  C   UNL A   1      39.453  32.093  30.653  1.00  0.00    -0.034 C 
ATOM     82  C   UNL A   1      37.013  33.268  34.894  1.00  0.00    -0.036 A 
ATOM     83  N   UNL A   1      39.166  32.696  35.074  1.00  0.00    -0.354 N 
ATOM     84  C   UNL A   1      41.476  31.595  31.599  1.00  0.00     0.074 A 
ATOM     85  C   UNL A   1      40.675  31.644  30.396  1.00  0.00    -0.034 C 
ATOM     86  H   UNL A   1      38.680  32.285  29.997  1.00  0.00     0.065 H 
ATOM     87  C   UNL A   1      37.357  33.409  36.181  1.00  0.00    -0.036 A 
ATOM     88  H   UNL A   1      36.070  33.432  34.505  1.00  0.00     0.065 H 
ATOM     89  C   UNL A   1      38.753  33.018  36.344  1.00  0.00     0.049 A 
ATOM     90  H   UNL A   1      40.077  32.387  34.864  1.00  0.00     0.167 HD
ATOM     91  C   UNL A   1      42.789  31.262  31.632  1.00  0.00     0.037 A 
ATOM     92  H   UNL A   1      41.009  31.366  29.460  1.00  0.00     0.065 H 
ATOM     93  H   UNL A   1      36.736  33.740  36.935  1.00  0.00     0.065 H 
ATOM     94  C   UNL A   1      39.419  32.994  37.515  1.00  0.00     0.037 A 
ATOM     95  C   UNL A   1      43.589  31.230  32.830  1.00  0.00     0.049 A 
ATOM     96  C   UNL A   1      40.860  32.570  37.531  1.00  0.00     0.074 A 
ATOM     97  C   UNL A   1      44.935  30.933  32.959  1.00  0.00    -0.036 A 
ATOM     98  N   UNL A   1      43.116  31.502  34.106  1.00  0.00    -0.354 N 
ATOM     99  N   UNL A   1      41.636  32.249  36.525  1.00  0.00    -0.248 NA
ATOM    100  C   UNL A   1      41.515  32.496  38.843  1.00  0.00    -0.034 C 
ATOM    101  C   UNL A   1      45.262  30.967  34.317  1.00  0.00    -0.036 A 
ATOM    102  H   UNL A   1      45.585  30.722  32.185  1.00  0.00     0.065 H 
ATOM    103  C   UNL A   1      44.138  31.347  35.031  1.00  0.00     0.049 A 
ATOM    104  H   UNL A   1      42.193  31.765  34.322  1.00  0.00     0.167 HD
ATOM    105  C   UNL A   1      42.873  31.951  37.077  1.00  0.00     0.074 A 
ATOM    106  C   UNL A   1      42.750  32.147  38.508  1.00  0.00    -0.034 C 
ATOM    107  H   UNL A   1      41.119  32.670  39.780  1.00  0.00     0.065 H 
ATOM    108  H   UNL A   1      46.186  30.744  34.720  1.00  0.00     0.065 H 
ATOM    109  C   UNL A   1      44.006  31.548  36.453  1.00  0.00     0.037 A 
ATOM    110  H   UNL A   1      43.525  32.030  39.180  1.00  0.00     0.065 H 
BRANCH  91 111
ATOM    111  C   UNL A   1      43.456  30.896  30.335  1.00  0.00     0.064 A 
ATOM    112  C   UNL A   1      43.504  29.570  29.879  1.00  0.00     0.173 A 
ATOM    113  C   UNL A   1      43.995  31.892  29.504  1.00  0.00     0.173 A 
ATOM    114  F   UNL A   1      43.011  28.578  30.636  1.00  0.00    -0.203 F 
ATOM    115  C   UNL A   1      44.085  29.252  28.654  1.00  0.00     0.198 A 
ATOM    116  C   UNL A   1      44.546  31.574  28.266  1.00  0.00     0.198 A 
ATOM    117  F   UNL A   1      43.967  33.177  29.885  1.00  0.00    -0.203 F 
ATOM    118  F   UNL A   1      44.155  27.972  28.259  1.00  0.00    -0.200 F 
ATOM    119  C   UNL A   1      44.597  30.255  27.844  1.00  0.00     0.200 A 
ATOM    120  F   UNL A   1      45.023  32.547  27.477  1.00  0.00    -0.200 F 
ATOM    121  F   UNL A   1      45.142  29.949  26.658  1.00  0.00    -0.200 F 
ENDBRANCH  91 111
BRANCH  94 122
ATOM    122  C   UNL A   1      38.717  33.405  38.758  1.00  0.00     0.064 A 
ATOM    123  C   UNL A   1      37.838  32.529  39.410  1.00  0.00     0.173 A 
ATOM    124  C   UNL A   1      38.952  34.654  39.351  1.00  0.00     0.173 A 
ATOM    125  F   UNL A   1      37.567  31.331  38.874  1.00  0.00    -0.203 F 
ATOM    126  C   UNL A   1      37.225  32.888  40.609  1.00  0.00     0.198 A 
ATOM    127  C   UNL A   1      38.363  35.000  40.564  1.00  0.00     0.198 A 
ATOM    128  F   UNL A   1      39.790  35.527  38.768  1.00  0.00    -0.203 F 
ATOM    129  F   UNL A   1      36.371  32.041  41.200  1.00  0.00    -0.200 F 
ATOM    130  C   UNL A   1      37.496  34.116  41.190  1.00  0.00     0.200 A 
ATOM    131  F   UNL A   1      38.645  36.179  41.133  1.00  0.00    -0.200 F 
ATOM    132  F   UNL A   1      36.925  34.450  42.356  1.00  0.00    -0.200 F 
ENDBRANCH  94 122
BRANCH 109 133
ATOM    133  C   UNL A   1      45.222  31.303  37.299  1.00  0.00     0.064 A 
ATOM    134  C   UNL A   1      46.110  32.339  37.621  1.00  0.00     0.173 A 
ATOM    135  C   UNL A   1      45.450  30.040  37.866  1.00  0.00     0.173 A 
ATOM    136  F   UNL A   1      45.944  33.561  37.093  1.00  0.00    -0.203 F 
ATOM    137  C   UNL A   1      47.189  32.116  38.475  1.00  0.00     0.198 A 
ATOM    138  C   UNL A   1      46.510  29.830  38.743  1.00  0.00     0.198 A 
ATOM    139  F   UNL A   1      44.626  29.017  37.595  1.00  0.00    -0.203 F 
ATOM    140  F   UNL A   1      48.042  33.113  38.745  1.00  0.00    -0.200 F 
ATOM    141  C   UNL A   1      47.380  30.867  39.044  1.00  0.00     0.200 A 
ATOM    142  F   UNL A   1      46.684  28.626  39.306  1.00  0.00    -0.200 F 
ATOM    143  F   UNL A   1      48.404  30.661  39.884  1.00  0.00    -0.200 F 
ENDBRANCH 109 133
ENDBRANCH  74  77
ENDBRANCH  64  67
ENDBRANCH  60  63
ENDBRANCH  57  60
ENDBRANCH  54  57
ENDBRANCH  51  54
ENDBRANCH   1  51
TORSDOF 19
ENDMDL
