MODEL 1
REMARK VINA RESULT:      -6.2      0.000      0.000
REMARK SMILES CC/C=C/C/C=C/C/C=C/C/C=C/CCSCCCC(=O)NCCCCCCNC(=O)c1ccc(-c2c3nc(c(-c4c(F)c(F)c(F)c(F)c4F)c4ccc([nH]4)c(-c4c(F)c(F)c(F)c(F)c4F)c4nc(c(-c5c(F)c(F)c(F)c(F)c5F)c5ccc2[nH]5)C=C4)C=C3)cc1
REMARK SMILES IDX 17 1 16 4 15 5 14 8 13 11 12 12 11 15 10 18 9 19 8 22 7 25
REMARK SMILES IDX 6 26 5 29 4 32 3 33 2 36 1 39 18 43 19 46 20 49 21 50 22 51
REMARK SMILES IDX 23 53 24 56 25 59 26 62 27 65 28 68 29 71 30 72 31 74 32 75
REMARK SMILES IDX 33 76 94 77 34 78 93 80 35 82 36 85 37 86 87 87 38 88 92 89
REMARK SMILES IDX 86 90 88 91 39 92 91 93 85 95 84 97 40 99 72 102 52 103
REMARK SMILES IDX 71 104 53 105 56 106 70 107 89 108 54 109 55 111 69 113
REMARK SMILES IDX 90 114 57 117 41 119 42 120 50 121 43 122 44 123 48 124
REMARK SMILES IDX 51 125 45 126 46 127 49 128 47 129 73 130 74 131 82 132
REMARK SMILES IDX 75 133 76 134 80 135 83 136 77 137 78 138 81 139 79 140
REMARK SMILES IDX 58 141 59 142 67 143 60 144 61 145 65 146 68 147 62 148
REMARK SMILES IDX 63 149 66 150 64 151
REMARK H PARENT 17 2 17 3 15 6 15 7 14 9 14 10 12 13 13 14 11 16 11 17 9 20
REMARK H PARENT 10 21 8 23 8 24 6 27 7 28 5 30 5 31 3 34 4 35 2 37 2 38 1 40
REMARK H PARENT 1 41 1 42 18 44 18 45 19 47 19 48 22 52 23 54 23 55 24 57
REMARK H PARENT 24 58 25 60 25 61 26 63 26 64 27 66 27 67 28 69 28 70 29 73
REMARK H PARENT 33 79 94 81 34 83 93 84 92 94 86 96 88 98 91 100 85 101 53 110
REMARK H PARENT 56 112 89 115 54 116 90 118
REMARK Flexibility Score: inf
ROOT
ATOM      1  C   UNL A   1      41.545  33.446  36.117  1.00  0.00    -0.006 C 
ATOM      2  H   UNL A   1      42.178  32.587  36.038  1.00  0.00     0.038 H 
ATOM      3  H   UNL A   1      41.053  33.767  37.010  1.00  0.00     0.038 H 
ENDROOT
BRANCH   1   4
ATOM      4  S   UNL A   1      40.044  33.007  35.125  1.00  0.00    -0.162 SA
BRANCH   4   5
ATOM      5  C   UNL A   1      39.570  31.237  35.363  1.00  0.00    -0.003 C 
ATOM      6  H   UNL A   1      39.042  31.171  36.291  1.00  0.00     0.038 H 
ATOM      7  H   UNL A   1      39.004  30.991  34.488  1.00  0.00     0.038 H 
BRANCH   5   8
ATOM      8  C   UNL A   1      40.707  30.174  35.400  1.00  0.00    -0.026 C 
ATOM      9  H   UNL A   1      41.635  30.685  35.247  1.00  0.00     0.032 H 
ATOM     10  H   UNL A   1      40.620  29.696  36.353  1.00  0.00     0.032 H 
BRANCH   8  11
ATOM     11  C   UNL A   1      40.618  29.066  34.384  1.00  0.00    -0.087 C 
ATOM     12  C   UNL A   1      40.003  29.084  33.187  1.00  0.00    -0.085 C 
ATOM     13  H   UNL A   1      39.311  29.824  32.998  1.00  0.00     0.058 H 
ATOM     14  H   UNL A   1      41.085  28.182  34.638  1.00  0.00     0.057 H 
BRANCH  12  15
ATOM     15  C   UNL A   1      40.290  28.059  32.102  1.00  0.00    -0.017 C 
ATOM     16  H   UNL A   1      41.350  28.008  31.968  1.00  0.00     0.035 H 
ATOM     17  H   UNL A   1      39.855  27.143  32.439  1.00  0.00     0.035 H 
BRANCH  15  18
ATOM     18  C   UNL A   1      39.669  28.346  30.766  1.00  0.00    -0.084 C 
ATOM     19  C   UNL A   1      39.551  27.423  29.795  1.00  0.00    -0.084 C 
ATOM     20  H   UNL A   1      39.868  26.463  30.000  1.00  0.00     0.058 H 
ATOM     21  H   UNL A   1      39.315  29.298  30.583  1.00  0.00     0.058 H 
BRANCH  19  22
ATOM     22  C   UNL A   1      38.988  27.703  28.429  1.00  0.00    -0.017 C 
ATOM     23  H   UNL A   1      39.767  28.041  27.779  1.00  0.00     0.035 H 
ATOM     24  H   UNL A   1      38.561  26.813  28.016  1.00  0.00     0.035 H 
BRANCH  22  25
ATOM     25  C   UNL A   1      37.940  28.766  28.562  1.00  0.00    -0.084 C 
ATOM     26  C   UNL A   1      38.076  30.029  28.132  1.00  0.00    -0.084 C 
ATOM     27  H   UNL A   1      38.879  30.256  27.524  1.00  0.00     0.058 H 
ATOM     28  H   UNL A   1      37.051  28.508  29.018  1.00  0.00     0.058 H 
BRANCH  26  29
ATOM     29  C   UNL A   1      37.119  31.127  28.492  1.00  0.00    -0.017 C 
ATOM     30  H   UNL A   1      37.568  32.076  28.289  1.00  0.00     0.035 H 
ATOM     31  H   UNL A   1      36.224  31.032  27.913  1.00  0.00     0.035 H 
BRANCH  29  32
ATOM     32  C   UNL A   1      36.790  31.030  29.954  1.00  0.00    -0.085 C 
ATOM     33  C   UNL A   1      36.252  32.025  30.676  1.00  0.00    -0.089 C 
ATOM     34  H   UNL A   1      35.972  32.887  30.184  1.00  0.00     0.057 H 
ATOM     35  H   UNL A   1      36.990  30.138  30.435  1.00  0.00     0.058 H 
BRANCH  33  36
ATOM     36  C   UNL A   1      36.035  31.951  32.158  1.00  0.00    -0.038 C 
ATOM     37  H   UNL A   1      36.339  32.874  32.606  1.00  0.00     0.031 H 
ATOM     38  H   UNL A   1      34.998  31.772  32.348  1.00  0.00     0.031 H 
BRANCH  36  39
ATOM     39  C   UNL A   1      36.848  30.812  32.760  1.00  0.00    -0.062 C 
ATOM     40  H   UNL A   1      37.769  31.199  33.145  1.00  0.00     0.023 H 
ATOM     41  H   UNL A   1      37.056  30.085  32.003  1.00  0.00     0.023 H 
ATOM     42  H   UNL A   1      36.293  30.357  33.551  1.00  0.00     0.023 H 
ENDBRANCH  36  39
ENDBRANCH  33  36
ENDBRANCH  29  32
ENDBRANCH  26  29
ENDBRANCH  22  25
ENDBRANCH  19  22
ENDBRANCH  15  18
ENDBRANCH  12  15
ENDBRANCH   8  11
ENDBRANCH   5   8
ENDBRANCH   4   5
ENDBRANCH   1   4
BRANCH   1  43
ATOM     43  C   UNL A   1      42.488  34.633  35.941  1.00  0.00    -0.035 C 
ATOM     44  H   UNL A   1      43.123  34.402  35.112  1.00  0.00     0.028 H 
ATOM     45  H   UNL A   1      42.946  34.726  36.903  1.00  0.00     0.028 H 
BRANCH  43  46
ATOM     46  C   UNL A   1      41.926  36.014  35.689  1.00  0.00     0.027 C 
ATOM     47  H   UNL A   1      41.709  36.077  34.643  1.00  0.00     0.037 H 
ATOM     48  H   UNL A   1      42.685  36.670  36.061  1.00  0.00     0.037 H 
BRANCH  46  49
ATOM     49  C   UNL A   1      40.674  36.450  36.431  1.00  0.00     0.220 C 
ATOM     50  O   UNL A   1      39.589  36.434  35.838  1.00  0.00    -0.275 OA
ATOM     51  N   UNL A   1      40.633  36.803  37.739  1.00  0.00    -0.356 N 
ATOM     52  H   UNL A   1      39.834  37.325  37.982  1.00  0.00     0.163 HD
BRANCH  51  53
ATOM     53  C   UNL A   1      41.531  36.566  38.851  1.00  0.00     0.017 C 
ATOM     54  H   UNL A   1      42.146  35.723  38.617  1.00  0.00     0.049 H 
ATOM     55  H   UNL A   1      40.924  36.395  39.716  1.00  0.00     0.049 H 
BRANCH  53  56
ATOM     56  C   UNL A   1      42.435  37.752  39.163  1.00  0.00    -0.036 C 
ATOM     57  H   UNL A   1      42.641  37.766  40.213  1.00  0.00     0.028 H 
ATOM     58  H   UNL A   1      41.932  38.647  38.863  1.00  0.00     0.028 H 
BRANCH  56  59
ATOM     59  C   UNL A   1      43.762  37.661  38.394  1.00  0.00    -0.052 C 
ATOM     60  H   UNL A   1      44.133  38.656  38.259  1.00  0.00     0.027 H 
ATOM     61  H   UNL A   1      43.537  37.159  37.476  1.00  0.00     0.027 H 
BRANCH  59  62
ATOM     62  C   UNL A   1      44.860  36.832  39.074  1.00  0.00    -0.052 C 
ATOM     63  H   UNL A   1      44.629  36.773  40.116  1.00  0.00     0.027 H 
ATOM     64  H   UNL A   1      45.780  37.337  38.863  1.00  0.00     0.027 H 
BRANCH  62  65
ATOM     65  C   UNL A   1      45.036  35.407  38.549  1.00  0.00    -0.036 C 
ATOM     66  H   UNL A   1      46.085  35.212  38.464  1.00  0.00     0.028 H 
ATOM     67  H   UNL A   1      44.520  35.367  37.612  1.00  0.00     0.028 H 
BRANCH  65  68
ATOM     68  C   UNL A   1      44.422  34.321  39.422  1.00  0.00     0.018 C 
ATOM     69  H   UNL A   1      43.922  33.618  38.790  1.00  0.00     0.049 H 
ATOM     70  H   UNL A   1      43.747  34.799  40.100  1.00  0.00     0.049 H 
BRANCH  68  71
ATOM     71  N   UNL A   1      45.408  33.609  40.217  1.00  0.00    -0.352 N 
ATOM     72  C   UNL A   1      45.972  32.377  39.999  1.00  0.00     0.251 C 
ATOM     73  H   UNL A   1      45.715  34.076  41.028  1.00  0.00     0.163 HD
ATOM     74  O   UNL A   1      46.701  31.873  40.843  1.00  0.00    -0.269 OA
BRANCH  72  75
ATOM     75  C   UNL A   1      45.677  31.649  38.746  1.00  0.00     0.039 A 
ATOM     76  C   UNL A   1      44.398  31.119  38.566  1.00  0.00    -0.049 A 
ATOM     77  C   UNL A   1      46.656  31.473  37.765  1.00  0.00    -0.049 A 
ATOM     78  C   UNL A   1      44.094  30.435  37.388  1.00  0.00    -0.053 A 
ATOM     79  H   UNL A   1      43.680  31.233  39.299  1.00  0.00     0.063 H 
ATOM     80  C   UNL A   1      46.326  30.871  36.556  1.00  0.00    -0.053 A 
ATOM     81  H   UNL A   1      47.623  31.789  37.938  1.00  0.00     0.063 H 
ATOM     82  C   UNL A   1      45.051  30.319  36.368  1.00  0.00    -0.014 A 
ATOM     83  H   UNL A   1      43.160  30.012  37.267  1.00  0.00     0.063 H 
ATOM     84  H   UNL A   1      47.022  30.830  35.795  1.00  0.00     0.063 H 
BRANCH  82  85
ATOM     85  C   UNL A   1      44.751  29.569  35.123  1.00  0.00     0.031 A 
ATOM     86  C   UNL A   1      44.125  30.280  33.954  1.00  0.00     0.074 A 
ATOM     87  C   UNL A   1      45.013  28.250  35.057  1.00  0.00     0.049 A 
ATOM     88  N   UNL A   1      43.775  29.806  32.785  1.00  0.00    -0.248 NA
ATOM     89  C   UNL A   1      43.823  31.710  34.133  1.00  0.00    -0.034 C 
ATOM     90  C   UNL A   1      45.575  27.443  36.141  1.00  0.00    -0.036 A 
ATOM     91  N   UNL A   1      44.843  27.356  34.031  1.00  0.00    -0.354 N 
ATOM     92  C   UNL A   1      43.200  30.870  32.103  1.00  0.00     0.074 A 
ATOM     93  C   UNL A   1      43.186  31.997  33.009  1.00  0.00    -0.034 C 
ATOM     94  H   UNL A   1      44.048  32.328  34.928  1.00  0.00     0.065 H 
ATOM     95  C   UNL A   1      45.738  26.183  35.711  1.00  0.00    -0.036 A 
ATOM     96  H   UNL A   1      45.808  27.789  37.086  1.00  0.00     0.065 H 
ATOM     97  C   UNL A   1      45.260  26.083  34.335  1.00  0.00     0.049 A 
ATOM     98  H   UNL A   1      44.457  27.602  33.159  1.00  0.00     0.167 HD
ATOM     99  C   UNL A   1      42.750  30.913  30.827  1.00  0.00     0.037 A 
ATOM    100  H   UNL A   1      42.740  32.905  32.805  1.00  0.00     0.065 H 
ATOM    101  H   UNL A   1      46.137  25.408  36.264  1.00  0.00     0.065 H 
ATOM    102  C   UNL A   1      45.260  24.966  33.583  1.00  0.00     0.037 A 
ATOM    103  C   UNL A   1      42.795  29.794  29.922  1.00  0.00     0.049 A 
ATOM    104  C   UNL A   1      44.756  25.042  32.166  1.00  0.00     0.074 A 
ATOM    105  C   UNL A   1      42.424  29.745  28.590  1.00  0.00    -0.036 A 
ATOM    106  N   UNL A   1      43.236  28.523  30.262  1.00  0.00    -0.354 N 
ATOM    107  N   UNL A   1      44.287  26.071  31.505  1.00  0.00    -0.248 NA
ATOM    108  C   UNL A   1      44.795  23.797  31.387  1.00  0.00    -0.034 C 
ATOM    109  C   UNL A   1      42.587  28.430  28.141  1.00  0.00    -0.036 A 
ATOM    110  H   UNL A   1      42.087  30.540  28.026  1.00  0.00     0.065 H 
ATOM    111  C   UNL A   1      43.124  27.677  29.171  1.00  0.00     0.049 A 
ATOM    112  H   UNL A   1      43.578  28.262  31.148  1.00  0.00     0.167 HD
ATOM    113  C   UNL A   1      44.016  25.612  30.222  1.00  0.00     0.074 A 
ATOM    114  C   UNL A   1      44.384  24.211  30.197  1.00  0.00    -0.034 C 
ATOM    115  H   UNL A   1      45.070  22.849  31.687  1.00  0.00     0.065 H 
ATOM    116  H   UNL A   1      42.347  28.082  27.200  1.00  0.00     0.065 H 
ATOM    117  C   UNL A   1      43.511  26.288  29.160  1.00  0.00     0.037 A 
ATOM    118  H   UNL A   1      44.332  23.612  29.359  1.00  0.00     0.065 H 
BRANCH  99 119
ATOM    119  C   UNL A   1      42.166  32.208  30.337  1.00  0.00     0.064 A 
ATOM    120  C   UNL A   1      42.962  33.207  29.755  1.00  0.00     0.173 A 
ATOM    121  C   UNL A   1      40.785  32.444  30.429  1.00  0.00     0.173 A 
ATOM    122  F   UNL A   1      44.289  33.040  29.651  1.00  0.00    -0.203 F 
ATOM    123  C   UNL A   1      42.404  34.407  29.318  1.00  0.00     0.198 A 
ATOM    124  C   UNL A   1      40.226  33.630  29.958  1.00  0.00     0.198 A 
ATOM    125  F   UNL A   1      39.975  31.523  30.972  1.00  0.00    -0.203 F 
ATOM    126  F   UNL A   1      43.193  35.370  28.822  1.00  0.00    -0.200 F 
ATOM    127  C   UNL A   1      41.036  34.613  29.414  1.00  0.00     0.200 A 
ATOM    128  F   UNL A   1      38.902  33.822  30.037  1.00  0.00    -0.200 F 
ATOM    129  F   UNL A   1      40.500  35.766  28.987  1.00  0.00    -0.200 F 
ENDBRANCH  99 119
BRANCH 102 130
ATOM    130  C   UNL A   1      45.794  23.694  34.136  1.00  0.00     0.064 A 
ATOM    131  C   UNL A   1      44.931  22.651  34.505  1.00  0.00     0.173 A 
ATOM    132  C   UNL A   1      47.171  23.495  34.319  1.00  0.00     0.173 A 
ATOM    133  F   UNL A   1      43.606  22.798  34.367  1.00  0.00    -0.203 F 
ATOM    134  C   UNL A   1      45.422  21.473  35.064  1.00  0.00     0.198 A 
ATOM    135  C   UNL A   1      47.662  22.303  34.848  1.00  0.00     0.198 A 
ATOM    136  F   UNL A   1      48.040  24.457  33.976  1.00  0.00    -0.203 F 
ATOM    137  F   UNL A   1      44.571  20.516  35.460  1.00  0.00    -0.200 F 
ATOM    138  C   UNL A   1      46.788  21.297  35.231  1.00  0.00     0.200 A 
ATOM    139  F   UNL A   1      48.983  22.132  34.992  1.00  0.00    -0.200 F 
ATOM    140  F   UNL A   1      47.259  20.164  35.768  1.00  0.00    -0.200 F 
ENDBRANCH 102 130
BRANCH 117 141
ATOM    141  C   UNL A   1      43.384  25.538  27.864  1.00  0.00     0.064 A 
ATOM    142  C   UNL A   1      42.262  24.753  27.566  1.00  0.00     0.173 A 
ATOM    143  C   UNL A   1      44.395  25.633  26.894  1.00  0.00     0.173 A 
ATOM    144  F   UNL A   1      41.272  24.619  28.462  1.00  0.00    -0.203 F 
ATOM    145  C   UNL A   1      42.174  24.059  26.361  1.00  0.00     0.198 A 
ATOM    146  C   UNL A   1      44.286  24.969  25.677  1.00  0.00     0.198 A 
ATOM    147  F   UNL A   1      45.485  26.380  27.124  1.00  0.00    -0.203 F 
ATOM    148  F   UNL A   1      41.121  23.263  26.124  1.00  0.00    -0.200 F 
ATOM    149  C   UNL A   1      43.181  24.174  25.416  1.00  0.00     0.200 A 
ATOM    150  F   UNL A   1      45.252  25.098  24.756  1.00  0.00    -0.200 F 
ATOM    151  F   UNL A   1      43.092  23.510  24.255  1.00  0.00    -0.200 F 
ENDBRANCH 117 141
ENDBRANCH  82  85
ENDBRANCH  72  75
ENDBRANCH  68  71
ENDBRANCH  65  68
ENDBRANCH  62  65
ENDBRANCH  59  62
ENDBRANCH  56  59
ENDBRANCH  53  56
ENDBRANCH  51  53
ENDBRANCH  46  49
ENDBRANCH  43  46
ENDBRANCH   1  43
TORSDOF 27
ENDMDL
MODEL 2
REMARK VINA RESULT:      -6.2      6.015      9.386
REMARK SMILES CC/C=C/C/C=C/C/C=C/C/C=C/CCSCCCC(=O)NCCCCCCNC(=O)c1ccc(-c2c3nc(c(-c4c(F)c(F)c(F)c(F)c4F)c4ccc([nH]4)c(-c4c(F)c(F)c(F)c(F)c4F)c4nc(c(-c5c(F)c(F)c(F)c(F)c5F)c5ccc2[nH]5)C=C4)C=C3)cc1
REMARK SMILES IDX 17 1 16 4 15 5 14 8 13 11 12 12 11 15 10 18 9 19 8 22 7 25
REMARK SMILES IDX 6 26 5 29 4 32 3 33 2 36 1 39 18 43 19 46 20 49 21 50 22 51
REMARK SMILES IDX 23 53 24 56 25 59 26 62 27 65 28 68 29 71 30 72 31 74 32 75
REMARK SMILES IDX 33 76 94 77 34 78 93 80 35 82 36 85 37 86 87 87 38 88 92 89
REMARK SMILES IDX 86 90 88 91 39 92 91 93 85 95 84 97 40 99 72 102 52 103
REMARK SMILES IDX 71 104 53 105 56 106 70 107 89 108 54 109 55 111 69 113
REMARK SMILES IDX 90 114 57 117 41 119 42 120 50 121 43 122 44 123 48 124
REMARK SMILES IDX 51 125 45 126 46 127 49 128 47 129 73 130 74 131 82 132
REMARK SMILES IDX 75 133 76 134 80 135 83 136 77 137 78 138 81 139 79 140
REMARK SMILES IDX 58 141 59 142 67 143 60 144 61 145 65 146 68 147 62 148
REMARK SMILES IDX 63 149 66 150 64 151
REMARK H PARENT 17 2 17 3 15 6 15 7 14 9 14 10 12 13 13 14 11 16 11 17 9 20
REMARK H PARENT 10 21 8 23 8 24 6 27 7 28 5 30 5 31 3 34 4 35 2 37 2 38 1 40
REMARK H PARENT 1 41 1 42 18 44 18 45 19 47 19 48 22 52 23 54 23 55 24 57
REMARK H PARENT 24 58 25 60 25 61 26 63 26 64 27 66 27 67 28 69 28 70 29 73
REMARK H PARENT 33 79 94 81 34 83 93 84 92 94 86 96 88 98 91 100 85 101 53 110
REMARK H PARENT 56 112 89 115 54 116 90 118
REMARK Flexibility Score: inf
ROOT
ATOM      1  C   UNL A   1      34.068  32.822  28.286  1.00  0.00    -0.006 C 
ATOM      2  H   UNL A   1      33.640  32.656  29.253  1.00  0.00     0.038 H 
ATOM      3  H   UNL A   1      33.516  32.889  27.373  1.00  0.00     0.038 H 
ENDROOT
BRANCH   1   4
ATOM      4  S   UNL A   1      35.006  31.267  27.921  1.00  0.00    -0.162 SA
BRANCH   4   5
ATOM      5  C   UNL A   1      33.894  29.948  27.257  1.00  0.00    -0.003 C 
ATOM      6  H   UNL A   1      33.383  29.514  28.091  1.00  0.00     0.038 H 
ATOM      7  H   UNL A   1      33.275  30.454  26.545  1.00  0.00     0.038 H 
BRANCH   5   8
ATOM      8  C   UNL A   1      34.541  28.783  26.452  1.00  0.00    -0.026 C 
ATOM      9  H   UNL A   1      35.135  29.215  25.675  1.00  0.00     0.032 H 
ATOM     10  H   UNL A   1      35.097  28.215  27.169  1.00  0.00     0.032 H 
BRANCH   8  11
ATOM     11  C   UNL A   1      33.589  27.805  25.815  1.00  0.00    -0.087 C 
ATOM     12  C   UNL A   1      32.939  26.780  26.396  1.00  0.00    -0.085 C 
ATOM     13  H   UNL A   1      33.269  26.441  27.312  1.00  0.00     0.058 H 
ATOM     14  H   UNL A   1      33.415  27.937  24.806  1.00  0.00     0.057 H 
BRANCH  12  15
ATOM     15  C   UNL A   1      31.737  26.103  25.757  1.00  0.00    -0.017 C 
ATOM     16  H   UNL A   1      32.080  25.213  25.272  1.00  0.00     0.035 H 
ATOM     17  H   UNL A   1      31.045  25.920  26.551  1.00  0.00     0.035 H 
BRANCH  15  18
ATOM     18  C   UNL A   1      30.999  26.927  24.743  1.00  0.00    -0.084 C 
ATOM     19  C   UNL A   1      31.151  26.771  23.416  1.00  0.00    -0.084 C 
ATOM     20  H   UNL A   1      31.776  26.020  23.085  1.00  0.00     0.058 H 
ATOM     21  H   UNL A   1      30.341  27.647  25.080  1.00  0.00     0.058 H 
BRANCH  19  22
ATOM     22  C   UNL A   1      30.467  27.625  22.383  1.00  0.00    -0.017 C 
ATOM     23  H   UNL A   1      31.087  28.461  22.137  1.00  0.00     0.035 H 
ATOM     24  H   UNL A   1      30.290  27.057  21.494  1.00  0.00     0.035 H 
BRANCH  22  25
ATOM     25  C   UNL A   1      29.169  28.106  22.957  1.00  0.00    -0.084 C 
ATOM     26  C   UNL A   1      28.553  29.243  22.600  1.00  0.00    -0.084 C 
ATOM     27  H   UNL A   1      28.894  29.744  21.765  1.00  0.00     0.058 H 
ATOM     28  H   UNL A   1      28.718  27.523  23.678  1.00  0.00     0.058 H 
BRANCH  26  29
ATOM     29  C   UNL A   1      27.391  29.819  23.355  1.00  0.00    -0.017 C 
ATOM     30  H   UNL A   1      26.475  29.506  22.899  1.00  0.00     0.035 H 
ATOM     31  H   UNL A   1      27.413  29.479  24.369  1.00  0.00     0.035 H 
BRANCH  29  32
ATOM     32  C   UNL A   1      27.481  31.318  23.321  1.00  0.00    -0.085 C 
ATOM     33  C   UNL A   1      28.546  32.002  22.872  1.00  0.00    -0.089 C 
ATOM     34  H   UNL A   1      29.323  31.471  22.451  1.00  0.00     0.057 H 
ATOM     35  H   UNL A   1      26.671  31.858  23.664  1.00  0.00     0.058 H 
BRANCH  33  36
ATOM     36  C   UNL A   1      28.665  33.495  22.950  1.00  0.00    -0.038 C 
ATOM     37  H   UNL A   1      28.656  33.901  21.960  1.00  0.00     0.031 H 
ATOM     38  H   UNL A   1      27.843  33.879  23.515  1.00  0.00     0.031 H 
BRANCH  36  39
ATOM     39  C   UNL A   1      29.964  33.890  23.641  1.00  0.00    -0.062 C 
ATOM     40  H   UNL A   1      29.838  34.839  24.119  1.00  0.00     0.023 H 
ATOM     41  H   UNL A   1      30.747  33.957  22.915  1.00  0.00     0.023 H 
ATOM     42  H   UNL A   1      30.216  33.153  24.373  1.00  0.00     0.023 H 
ENDBRANCH  36  39
ENDBRANCH  33  36
ENDBRANCH  29  32
ENDBRANCH  26  29
ENDBRANCH  22  25
ENDBRANCH  19  22
ENDBRANCH  15  18
ENDBRANCH  12  15
ENDBRANCH   8  11
ENDBRANCH   5   8
ENDBRANCH   4   5
ENDBRANCH   1   4
BRANCH   1  43
ATOM     43  C   UNL A   1      34.588  34.256  28.339  1.00  0.00    -0.035 C 
ATOM     44  H   UNL A   1      33.916  34.850  27.757  1.00  0.00     0.028 H 
ATOM     45  H   UNL A   1      35.595  34.164  27.990  1.00  0.00     0.028 H 
BRANCH  43  46
ATOM     46  C   UNL A   1      34.746  34.955  29.671  1.00  0.00     0.027 C 
ATOM     47  H   UNL A   1      34.730  36.007  29.475  1.00  0.00     0.037 H 
ATOM     48  H   UNL A   1      35.657  34.554  30.063  1.00  0.00     0.037 H 
BRANCH  46  49
ATOM     49  C   UNL A   1      33.731  34.691  30.771  1.00  0.00     0.220 C 
ATOM     50  O   UNL A   1      32.647  35.284  30.741  1.00  0.00    -0.275 OA
ATOM     51  N   UNL A   1      33.891  33.790  31.771  1.00  0.00    -0.356 N 
ATOM     52  H   UNL A   1      33.296  33.946  32.540  1.00  0.00     0.163 HD
BRANCH  51  53
ATOM     53  C   UNL A   1      34.762  32.644  31.934  1.00  0.00     0.017 C 
ATOM     54  H   UNL A   1      35.371  32.554  31.059  1.00  0.00     0.049 H 
ATOM     55  H   UNL A   1      34.135  31.788  32.078  1.00  0.00     0.049 H 
BRANCH  53  56
ATOM     56  C   UNL A   1      35.674  32.744  33.150  1.00  0.00    -0.036 C 
ATOM     57  H   UNL A   1      35.816  31.766  33.560  1.00  0.00     0.028 H 
ATOM     58  H   UNL A   1      35.212  33.392  33.865  1.00  0.00     0.028 H 
BRANCH  56  59
ATOM     59  C   UNL A   1      37.042  33.333  32.775  1.00  0.00    -0.052 C 
ATOM     60  H   UNL A   1      36.938  34.397  32.715  1.00  0.00     0.027 H 
ATOM     61  H   UNL A   1      37.317  32.876  31.848  1.00  0.00     0.027 H 
BRANCH  59  62
ATOM     62  C   UNL A   1      38.182  33.022  33.755  1.00  0.00    -0.052 C 
ATOM     63  H   UNL A   1      38.511  33.947  34.182  1.00  0.00     0.027 H 
ATOM     64  H   UNL A   1      38.932  32.520  33.181  1.00  0.00     0.027 H 
BRANCH  62  65
ATOM     65  C   UNL A   1      37.830  32.074  34.902  1.00  0.00    -0.036 C 
ATOM     66  H   UNL A   1      36.768  31.947  34.913  1.00  0.00     0.028 H 
ATOM     67  H   UNL A   1      38.212  32.527  35.793  1.00  0.00     0.028 H 
BRANCH  65  68
ATOM     68  C   UNL A   1      38.471  30.696  34.814  1.00  0.00     0.018 C 
ATOM     69  H   UNL A   1      38.469  30.256  35.789  1.00  0.00     0.049 H 
ATOM     70  H   UNL A   1      39.463  30.827  34.437  1.00  0.00     0.049 H 
BRANCH  68  71
ATOM     71  N   UNL A   1      37.772  29.804  33.903  1.00  0.00    -0.352 N 
ATOM     72  C   UNL A   1      38.046  29.519  32.589  1.00  0.00     0.251 C 
ATOM     73  H   UNL A   1      36.991  29.340  34.282  1.00  0.00     0.163 HD
ATOM     74  O   UNL A   1      37.275  28.832  31.932  1.00  0.00    -0.269 OA
BRANCH  72  75
ATOM     75  C   UNL A   1      39.269  30.062  31.962  1.00  0.00     0.039 A 
ATOM     76  C   UNL A   1      39.252  30.341  30.593  1.00  0.00    -0.049 A 
ATOM     77  C   UNL A   1      40.430  30.279  32.708  1.00  0.00    -0.049 A 
ATOM     78  C   UNL A   1      40.391  30.863  29.980  1.00  0.00    -0.053 A 
ATOM     79  H   UNL A   1      38.400  30.162  30.038  1.00  0.00     0.063 H 
ATOM     80  C   UNL A   1      41.534  30.883  32.116  1.00  0.00    -0.053 A 
ATOM     81  H   UNL A   1      40.468  29.992  33.699  1.00  0.00     0.063 H 
ATOM     82  C   UNL A   1      41.536  31.152  30.740  1.00  0.00    -0.014 A 
ATOM     83  H   UNL A   1      40.393  31.036  28.963  1.00  0.00     0.063 H 
ATOM     84  H   UNL A   1      42.353  31.134  32.690  1.00  0.00     0.063 H 
BRANCH  82  85
ATOM     85  C   UNL A   1      42.764  31.679  30.096  1.00  0.00     0.031 A 
ATOM     86  C   UNL A   1      42.834  33.127  29.691  1.00  0.00     0.074 A 
ATOM     87  C   UNL A   1      43.798  30.852  29.850  1.00  0.00     0.049 A 
ATOM     88  N   UNL A   1      43.808  33.779  29.108  1.00  0.00    -0.248 NA
ATOM     89  C   UNL A   1      41.639  33.945  29.949  1.00  0.00    -0.034 C 
ATOM     90  C   UNL A   1      43.828  29.421  30.153  1.00  0.00    -0.036 A 
ATOM     91  N   UNL A   1      45.026  31.099  29.289  1.00  0.00    -0.354 N 
ATOM     92  C   UNL A   1      43.336  35.070  28.916  1.00  0.00     0.074 A 
ATOM     93  C   UNL A   1      41.968  35.095  29.382  1.00  0.00    -0.034 C 
ATOM     94  H   UNL A   1      40.769  33.689  30.443  1.00  0.00     0.065 H 
ATOM     95  C   UNL A   1      45.027  28.925  29.810  1.00  0.00    -0.036 A 
ATOM     96  H   UNL A   1      43.051  28.880  30.564  1.00  0.00     0.065 H 
ATOM     97  C   UNL A   1      45.836  29.992  29.231  1.00  0.00     0.049 A 
ATOM     98  H   UNL A   1      45.299  31.986  28.959  1.00  0.00     0.167 HD
ATOM     99  C   UNL A   1      43.992  36.147  28.422  1.00  0.00     0.037 A 
ATOM    100  H   UNL A   1      41.332  35.903  29.287  1.00  0.00     0.065 H 
ATOM    101  H   UNL A   1      45.328  27.945  29.935  1.00  0.00     0.065 H 
ATOM    102  C   UNL A   1      47.093  29.860  28.766  1.00  0.00     0.037 A 
ATOM    103  C   UNL A   1      45.363  36.120  27.987  1.00  0.00     0.049 A 
ATOM    104  C   UNL A   1      47.801  31.074  28.223  1.00  0.00     0.074 A 
ATOM    105  C   UNL A   1      46.145  37.166  27.529  1.00  0.00    -0.036 A 
ATOM    106  N   UNL A   1      46.158  34.983  27.955  1.00  0.00    -0.354 N 
ATOM    107  N   UNL A   1      47.373  32.307  28.119  1.00  0.00    -0.248 NA
ATOM    108  C   UNL A   1      49.176  30.875  27.745  1.00  0.00    -0.034 C 
ATOM    109  C   UNL A   1      47.393  36.650  27.164  1.00  0.00    -0.036 A 
ATOM    110  H   UNL A   1      45.857  38.155  27.468  1.00  0.00     0.065 H 
ATOM    111  C   UNL A   1      47.413  35.298  27.460  1.00  0.00     0.049 A 
ATOM    112  H   UNL A   1      45.871  34.085  28.240  1.00  0.00     0.167 HD
ATOM    113  C   UNL A   1      48.436  33.040  27.605  1.00  0.00     0.074 A 
ATOM    114  C   UNL A   1      49.533  32.111  27.431  1.00  0.00    -0.034 C 
ATOM    115  H   UNL A   1      49.721  30.001  27.675  1.00  0.00     0.065 H 
ATOM    116  H   UNL A   1      48.167  37.188  26.745  1.00  0.00     0.065 H 
ATOM    117  C   UNL A   1      48.499  34.362  27.309  1.00  0.00     0.037 A 
ATOM    118  H   UNL A   1      50.474  32.379  27.102  1.00  0.00     0.065 H 
BRANCH  99 119
ATOM    119  C   UNL A   1      43.232  37.440  28.320  1.00  0.00     0.064 A 
ATOM    120  C   UNL A   1      42.425  37.741  27.212  1.00  0.00     0.173 A 
ATOM    121  C   UNL A   1      43.294  38.382  29.359  1.00  0.00     0.173 A 
ATOM    122  F   UNL A   1      42.338  36.883  26.185  1.00  0.00    -0.203 F 
ATOM    123  C   UNL A   1      41.738  38.951  27.131  1.00  0.00     0.198 A 
ATOM    124  C   UNL A   1      42.577  39.574  29.291  1.00  0.00     0.198 A 
ATOM    125  F   UNL A   1      44.046  38.145  30.445  1.00  0.00    -0.203 F 
ATOM    126  F   UNL A   1      41.024  39.242  26.035  1.00  0.00    -0.200 F 
ATOM    127  C   UNL A   1      41.810  39.862  28.174  1.00  0.00     0.200 A 
ATOM    128  F   UNL A   1      42.634  40.447  30.306  1.00  0.00    -0.200 F 
ATOM    129  F   UNL A   1      41.144  41.023  28.097  1.00  0.00    -0.200 F 
ENDBRANCH  99 119
BRANCH 102 130
ATOM    130  C   UNL A   1      47.780  28.544  28.833  1.00  0.00     0.064 A 
ATOM    131  C   UNL A   1      47.720  27.644  27.759  1.00  0.00     0.173 A 
ATOM    132  C   UNL A   1      48.498  28.150  29.973  1.00  0.00     0.173 A 
ATOM    133  F   UNL A   1      47.032  27.965  26.655  1.00  0.00    -0.203 F 
ATOM    134  C   UNL A   1      48.325  26.391  27.834  1.00  0.00     0.198 A 
ATOM    135  C   UNL A   1      49.130  26.909  30.033  1.00  0.00     0.198 A 
ATOM    136  F   UNL A   1      48.593  28.975  31.026  1.00  0.00    -0.203 F 
ATOM    137  F   UNL A   1      48.204  25.529  26.814  1.00  0.00    -0.200 F 
ATOM    138  C   UNL A   1      49.034  26.026  28.968  1.00  0.00     0.200 A 
ATOM    139  F   UNL A   1      49.828  26.568  31.124  1.00  0.00    -0.200 F 
ATOM    140  F   UNL A   1      49.616  24.821  29.039  1.00  0.00    -0.200 F 
ENDBRANCH 102 130
BRANCH 117 141
ATOM    141  C   UNL A   1      49.817  34.895  26.821  1.00  0.00     0.064 A 
ATOM    142  C   UNL A   1      50.905  35.093  27.684  1.00  0.00     0.173 A 
ATOM    143  C   UNL A   1      49.999  35.185  25.460  1.00  0.00     0.173 A 
ATOM    144  F   UNL A   1      50.781  34.843  28.997  1.00  0.00    -0.203 F 
ATOM    145  C   UNL A   1      52.112  35.598  27.209  1.00  0.00     0.198 A 
ATOM    146  C   UNL A   1      51.219  35.654  24.982  1.00  0.00     0.198 A 
ATOM    147  F   UNL A   1      48.995  35.003  24.589  1.00  0.00    -0.203 F 
ATOM    148  F   UNL A   1      53.117  35.840  28.062  1.00  0.00    -0.200 F 
ATOM    149  C   UNL A   1      52.271  35.871  25.859  1.00  0.00     0.200 A 
ATOM    150  F   UNL A   1      51.375  35.897  23.673  1.00  0.00    -0.200 F 
ATOM    151  F   UNL A   1      53.435  36.352  25.402  1.00  0.00    -0.200 F 
ENDBRANCH 117 141
ENDBRANCH  82  85
ENDBRANCH  72  75
ENDBRANCH  68  71
ENDBRANCH  65  68
ENDBRANCH  62  65
ENDBRANCH  59  62
ENDBRANCH  56  59
ENDBRANCH  53  56
ENDBRANCH  51  53
ENDBRANCH  46  49
ENDBRANCH  43  46
ENDBRANCH   1  43
TORSDOF 27
ENDMDL
MODEL 3
REMARK VINA RESULT:      -6.1      5.896     11.929
REMARK SMILES CC/C=C/C/C=C/C/C=C/C/C=C/CCSCCCC(=O)NCCCCCCNC(=O)c1ccc(-c2c3nc(c(-c4c(F)c(F)c(F)c(F)c4F)c4ccc([nH]4)c(-c4c(F)c(F)c(F)c(F)c4F)c4nc(c(-c5c(F)c(F)c(F)c(F)c5F)c5ccc2[nH]5)C=C4)C=C3)cc1
REMARK SMILES IDX 17 1 16 4 15 5 14 8 13 11 12 12 11 15 10 18 9 19 8 22 7 25
REMARK SMILES IDX 6 26 5 29 4 32 3 33 2 36 1 39 18 43 19 46 20 49 21 50 22 51
REMARK SMILES IDX 23 53 24 56 25 59 26 62 27 65 28 68 29 71 30 72 31 74 32 75
REMARK SMILES IDX 33 76 94 77 34 78 93 80 35 82 36 85 37 86 87 87 38 88 92 89
REMARK SMILES IDX 86 90 88 91 39 92 91 93 85 95 84 97 40 99 72 102 52 103
REMARK SMILES IDX 71 104 53 105 56 106 70 107 89 108 54 109 55 111 69 113
REMARK SMILES IDX 90 114 57 117 41 119 42 120 50 121 43 122 44 123 48 124
REMARK SMILES IDX 51 125 45 126 46 127 49 128 47 129 73 130 74 131 82 132
REMARK SMILES IDX 75 133 76 134 80 135 83 136 77 137 78 138 81 139 79 140
REMARK SMILES IDX 58 141 59 142 67 143 60 144 61 145 65 146 68 147 62 148
REMARK SMILES IDX 63 149 66 150 64 151
REMARK H PARENT 17 2 17 3 15 6 15 7 14 9 14 10 12 13 13 14 11 16 11 17 9 20
REMARK H PARENT 10 21 8 23 8 24 6 27 7 28 5 30 5 31 3 34 4 35 2 37 2 38 1 40
REMARK H PARENT 1 41 1 42 18 44 18 45 19 47 19 48 22 52 23 54 23 55 24 57
REMARK H PARENT 24 58 25 60 25 61 26 63 26 64 27 66 27 67 28 69 28 70 29 73
REMARK H PARENT 33 79 94 81 34 83 93 84 92 94 86 96 88 98 91 100 85 101 53 110
REMARK H PARENT 56 112 89 115 54 116 90 118
REMARK Flexibility Score: inf
ROOT
ATOM      1  C   UNL A   1      38.643  31.007  34.490  1.00  0.00    -0.006 C 
ATOM      2  H   UNL A   1      38.008  30.327  33.961  1.00  0.00     0.038 H 
ATOM      3  H   UNL A   1      38.780  31.023  35.550  1.00  0.00     0.038 H 
ENDROOT
BRANCH   1   4
ATOM      4  S   UNL A   1      37.819  32.655  34.299  1.00  0.00    -0.162 SA
BRANCH   4   5
ATOM      5  C   UNL A   1      36.229  32.511  33.368  1.00  0.00    -0.003 C 
ATOM      6  H   UNL A   1      36.432  32.770  32.351  1.00  0.00     0.038 H 
ATOM      7  H   UNL A   1      35.911  31.502  33.536  1.00  0.00     0.038 H 
BRANCH   5   8
ATOM      8  C   UNL A   1      35.025  33.380  33.837  1.00  0.00    -0.026 C 
ATOM      9  H   UNL A   1      34.368  32.750  34.399  1.00  0.00     0.032 H 
ATOM     10  H   UNL A   1      35.455  34.182  34.400  1.00  0.00     0.032 H 
BRANCH   8  11
ATOM     11  C   UNL A   1      34.216  34.039  32.752  1.00  0.00    -0.087 C 
ATOM     12  C   UNL A   1      34.658  34.614  31.618  1.00  0.00    -0.085 C 
ATOM     13  H   UNL A   1      35.656  34.865  31.547  1.00  0.00     0.058 H 
ATOM     14  H   UNL A   1      33.194  34.052  32.896  1.00  0.00     0.057 H 
BRANCH  12  15
ATOM     15  C   UNL A   1      33.748  34.907  30.437  1.00  0.00    -0.017 C 
ATOM     16  H   UNL A   1      32.738  34.741  30.750  1.00  0.00     0.035 H 
ATOM     17  H   UNL A   1      33.949  35.918  30.154  1.00  0.00     0.035 H 
BRANCH  15  18
ATOM     18  C   UNL A   1      33.995  34.076  29.212  1.00  0.00    -0.084 C 
ATOM     19  C   UNL A   1      34.414  32.799  29.262  1.00  0.00    -0.084 C 
ATOM     20  H   UNL A   1      34.531  32.364  30.190  1.00  0.00     0.058 H 
ATOM     21  H   UNL A   1      33.834  34.504  28.287  1.00  0.00     0.058 H 
BRANCH  19  22
ATOM     22  C   UNL A   1      34.726  31.966  28.048  1.00  0.00    -0.017 C 
ATOM     23  H   UNL A   1      34.054  31.135  27.998  1.00  0.00     0.035 H 
ATOM     24  H   UNL A   1      34.613  32.552  27.160  1.00  0.00     0.035 H 
BRANCH  22  25
ATOM     25  C   UNL A   1      36.136  31.473  28.168  1.00  0.00    -0.084 C 
ATOM     26  C   UNL A   1      36.593  30.334  27.627  1.00  0.00    -0.084 C 
ATOM     27  H   UNL A   1      35.994  29.839  26.947  1.00  0.00     0.058 H 
ATOM     28  H   UNL A   1      36.802  32.049  28.704  1.00  0.00     0.058 H 
BRANCH  26  29
ATOM     29  C   UNL A   1      37.932  29.745  27.961  1.00  0.00    -0.017 C 
ATOM     30  H   UNL A   1      37.994  28.750  27.573  1.00  0.00     0.035 H 
ATOM     31  H   UNL A   1      38.708  30.340  27.527  1.00  0.00     0.035 H 
BRANCH  29  32
ATOM     32  C   UNL A   1      38.093  29.713  29.454  1.00  0.00    -0.085 C 
ATOM     33  C   UNL A   1      37.631  28.730  30.244  1.00  0.00    -0.089 C 
ATOM     34  H   UNL A   1      37.206  27.904  29.795  1.00  0.00     0.057 H 
ATOM     35  H   UNL A   1      38.591  30.498  29.903  1.00  0.00     0.058 H 
BRANCH  33  36
ATOM     36  C   UNL A   1      37.699  28.768  31.742  1.00  0.00    -0.038 C 
ATOM     37  H   UNL A   1      38.180  29.673  32.050  1.00  0.00     0.031 H 
ATOM     38  H   UNL A   1      36.706  28.725  32.135  1.00  0.00     0.031 H 
BRANCH  36  39
ATOM     39  C   UNL A   1      38.489  27.578  32.269  1.00  0.00    -0.062 C 
ATOM     40  H   UNL A   1      38.215  27.392  33.287  1.00  0.00     0.023 H 
ATOM     41  H   UNL A   1      39.535  27.792  32.214  1.00  0.00     0.023 H 
ATOM     42  H   UNL A   1      38.269  26.714  31.677  1.00  0.00     0.023 H 
ENDBRANCH  36  39
ENDBRANCH  33  36
ENDBRANCH  29  32
ENDBRANCH  26  29
ENDBRANCH  22  25
ENDBRANCH  19  22
ENDBRANCH  15  18
ENDBRANCH  12  15
ENDBRANCH   8  11
ENDBRANCH   5   8
ENDBRANCH   4   5
ENDBRANCH   1   4
BRANCH   1  43
ATOM     43  C   UNL A   1      40.058  30.599  34.087  1.00  0.00    -0.035 C 
ATOM     44  H   UNL A   1      40.155  29.559  34.313  1.00  0.00     0.028 H 
ATOM     45  H   UNL A   1      40.674  31.283  34.633  1.00  0.00     0.028 H 
BRANCH  43  46
ATOM     46  C   UNL A   1      40.521  30.781  32.659  1.00  0.00     0.027 C 
ATOM     47  H   UNL A   1      40.362  31.809  32.408  1.00  0.00     0.037 H 
ATOM     48  H   UNL A   1      39.950  30.061  32.112  1.00  0.00     0.037 H 
BRANCH  46  49
ATOM     49  C   UNL A   1      41.960  30.452  32.300  1.00  0.00     0.220 C 
ATOM     50  O   UNL A   1      42.873  31.091  32.834  1.00  0.00    -0.275 OA
ATOM     51  N   UNL A   1      42.340  29.448  31.471  1.00  0.00    -0.356 N 
ATOM     52  H   UNL A   1      43.255  29.551  31.121  1.00  0.00     0.163 HD
BRANCH  51  53
ATOM     53  C   UNL A   1      41.668  28.254  30.997  1.00  0.00     0.017 C 
ATOM     54  H   UNL A   1      40.663  28.264  31.363  1.00  0.00     0.049 H 
ATOM     55  H   UNL A   1      42.223  27.414  31.362  1.00  0.00     0.049 H 
BRANCH  53  56
ATOM     56  C   UNL A   1      41.630  28.144  29.479  1.00  0.00    -0.036 C 
ATOM     57  H   UNL A   1      42.620  27.950  29.119  1.00  0.00     0.028 H 
ATOM     58  H   UNL A   1      41.256  29.064  29.083  1.00  0.00     0.028 H 
BRANCH  56  59
ATOM     59  C   UNL A   1      40.702  27.008  29.024  1.00  0.00    -0.052 C 
ATOM     60  H   UNL A   1      39.789  27.086  29.577  1.00  0.00     0.027 H 
ATOM     61  H   UNL A   1      41.237  26.099  29.205  1.00  0.00     0.027 H 
BRANCH  59  62
ATOM     62  C   UNL A   1      40.352  27.004  27.529  1.00  0.00    -0.052 C 
ATOM     63  H   UNL A   1      41.188  27.402  26.994  1.00  0.00     0.027 H 
ATOM     64  H   UNL A   1      39.460  27.589  27.436  1.00  0.00     0.027 H 
BRANCH  62  65
ATOM     65  C   UNL A   1      40.018  25.637  26.930  1.00  0.00    -0.036 C 
ATOM     66  H   UNL A   1      40.407  25.607  25.934  1.00  0.00     0.028 H 
ATOM     67  H   UNL A   1      38.953  25.543  26.973  1.00  0.00     0.028 H 
BRANCH  65  68
ATOM     68  C   UNL A   1      40.582  24.447  27.695  1.00  0.00     0.018 C 
ATOM     69  H   UNL A   1      39.794  24.005  28.267  1.00  0.00     0.049 H 
ATOM     70  H   UNL A   1      41.372  24.811  28.317  1.00  0.00     0.049 H 
BRANCH  68  71
ATOM     71  N   UNL A   1      41.147  23.430  26.823  1.00  0.00    -0.352 N 
ATOM     72  C   UNL A   1      42.298  23.470  26.078  1.00  0.00     0.251 C 
ATOM     73  H   UNL A   1      40.630  22.595  26.757  1.00  0.00     0.163 HD
ATOM     74  O   UNL A   1      42.562  22.564  25.298  1.00  0.00    -0.269 OA
BRANCH  72  75
ATOM     75  C   UNL A   1      43.213  24.625  26.205  1.00  0.00     0.039 A 
ATOM     76  C   UNL A   1      43.370  25.477  25.109  1.00  0.00    -0.049 A 
ATOM     77  C   UNL A   1      43.925  24.858  27.384  1.00  0.00    -0.049 A 
ATOM     78  C   UNL A   1      44.221  26.579  25.207  1.00  0.00    -0.053 A 
ATOM     79  H   UNL A   1      42.859  25.293  24.231  1.00  0.00     0.063 H 
ATOM     80  C   UNL A   1      44.701  26.004  27.511  1.00  0.00    -0.053 A 
ATOM     81  H   UNL A   1      43.874  24.180  28.160  1.00  0.00     0.063 H 
ATOM     82  C   UNL A   1      44.882  26.859  26.414  1.00  0.00    -0.014 A 
ATOM     83  H   UNL A   1      44.366  27.189  24.389  1.00  0.00     0.063 H 
ATOM     84  H   UNL A   1      45.146  26.227  28.415  1.00  0.00     0.063 H 
BRANCH  82  85
ATOM     85  C   UNL A   1      45.812  28.009  26.524  1.00  0.00     0.031 A 
ATOM     86  C   UNL A   1      47.288  27.798  26.322  1.00  0.00     0.074 A 
ATOM     87  C   UNL A   1      45.334  29.229  26.833  1.00  0.00     0.049 A 
ATOM     88  N   UNL A   1      48.267  28.666  26.385  1.00  0.00    -0.248 NA
ATOM     89  C   UNL A   1      47.729  26.422  26.041  1.00  0.00    -0.034 C 
ATOM     90  C   UNL A   1      43.931  29.547  27.097  1.00  0.00    -0.036 A 
ATOM     91  N   UNL A   1      45.980  30.432  26.974  1.00  0.00    -0.354 N 
ATOM     92  C   UNL A   1      49.430  27.939  26.171  1.00  0.00     0.074 A 
ATOM     93  C   UNL A   1      49.046  26.551  26.042  1.00  0.00    -0.034 C 
ATOM     94  H   UNL A   1      47.159  25.576  25.885  1.00  0.00     0.065 H 
ATOM     95  C   UNL A   1      43.815  30.863  27.332  1.00  0.00    -0.036 A 
ATOM     96  H   UNL A   1      43.154  28.867  27.103  1.00  0.00     0.065 H 
ATOM     97  C   UNL A   1      45.138  31.476  27.269  1.00  0.00     0.049 A 
ATOM     98  H   UNL A   1      46.954  30.536  26.874  1.00  0.00     0.167 HD
ATOM     99  C   UNL A   1      50.702  28.391  26.063  1.00  0.00     0.037 A 
ATOM    100  H   UNL A   1      49.711  25.766  25.959  1.00  0.00     0.065 H 
ATOM    101  H   UNL A   1      42.932  31.362  27.525  1.00  0.00     0.065 H 
ATOM    102  C   UNL A   1      45.408  32.781  27.462  1.00  0.00     0.037 A 
ATOM    103  C   UNL A   1      51.072  29.778  26.163  1.00  0.00     0.049 A 
ATOM    104  C   UNL A   1      46.831  33.258  27.334  1.00  0.00     0.074 A 
ATOM    105  C   UNL A   1      52.321  30.352  26.006  1.00  0.00    -0.036 A 
ATOM    106  N   UNL A   1      50.190  30.810  26.450  1.00  0.00    -0.354 N 
ATOM    107  N   UNL A   1      47.914  32.575  27.052  1.00  0.00    -0.248 NA
ATOM    108  C   UNL A   1      47.065  34.694  27.537  1.00  0.00    -0.034 C 
ATOM    109  C   UNL A   1      52.205  31.724  26.257  1.00  0.00    -0.036 A 
ATOM    110  H   UNL A   1      53.188  29.855  25.749  1.00  0.00     0.065 H 
ATOM    111  C   UNL A   1      50.873  32.015  26.500  1.00  0.00     0.049 A 
ATOM    112  H   UNL A   1      49.223  30.701  26.597  1.00  0.00     0.167 HD
ATOM    113  C   UNL A   1      48.948  33.501  27.003  1.00  0.00     0.074 A 
ATOM    114  C   UNL A   1      48.359  34.796  27.273  1.00  0.00    -0.034 C 
ATOM    115  H   UNL A   1      46.397  35.430  27.814  1.00  0.00     0.065 H 
ATOM    116  H   UNL A   1      52.981  32.403  26.259  1.00  0.00     0.065 H 
ATOM    117  C   UNL A   1      50.266  33.297  26.753  1.00  0.00     0.037 A 
ATOM    118  H   UNL A   1      48.882  35.685  27.260  1.00  0.00     0.065 H 
BRANCH  99 119
ATOM    119  C   UNL A   1      51.785  27.375  25.829  1.00  0.00     0.064 A 
ATOM    120  C   UNL A   1      52.526  26.823  26.886  1.00  0.00     0.173 A 
ATOM    121  C   UNL A   1      52.070  26.928  24.529  1.00  0.00     0.173 A 
ATOM    122  F   UNL A   1      52.304  27.221  28.148  1.00  0.00    -0.203 F 
ATOM    123  C   UNL A   1      53.534  25.892  26.647  1.00  0.00     0.198 A 
ATOM    124  C   UNL A   1      53.054  25.970  24.298  1.00  0.00     0.198 A 
ATOM    125  F   UNL A   1      51.391  27.417  23.480  1.00  0.00    -0.203 F 
ATOM    126  F   UNL A   1      54.269  25.426  27.667  1.00  0.00    -0.200 F 
ATOM    127  C   UNL A   1      53.792  25.461  25.355  1.00  0.00     0.200 A 
ATOM    128  F   UNL A   1      53.292  25.543  23.050  1.00  0.00    -0.200 F 
ATOM    129  F   UNL A   1      54.759  24.560  25.128  1.00  0.00    -0.200 F 
ENDBRANCH  99 119
BRANCH 102 130
ATOM    130  C   UNL A   1      44.307  33.737  27.751  1.00  0.00     0.064 A 
ATOM    131  C   UNL A   1      43.774  34.548  26.739  1.00  0.00     0.173 A 
ATOM    132  C   UNL A   1      43.774  33.872  29.042  1.00  0.00     0.173 A 
ATOM    133  F   UNL A   1      44.261  34.470  25.492  1.00  0.00    -0.203 F 
ATOM    134  C   UNL A   1      42.772  35.477  27.012  1.00  0.00     0.198 A 
ATOM    135  C   UNL A   1      42.750  34.779  29.307  1.00  0.00     0.198 A 
ATOM    136  F   UNL A   1      44.243  33.116  30.045  1.00  0.00    -0.203 F 
ATOM    137  F   UNL A   1      42.320  36.278  26.037  1.00  0.00    -0.200 F 
ATOM    138  C   UNL A   1      42.257  35.589  28.294  1.00  0.00     0.200 A 
ATOM    139  F   UNL A   1      42.244  34.872  30.543  1.00  0.00    -0.200 F 
ATOM    140  F   UNL A   1      41.293  36.482  28.557  1.00  0.00    -0.200 F 
ENDBRANCH 102 130
BRANCH 117 141
ATOM    141  C   UNL A   1      51.151  34.511  26.700  1.00  0.00     0.064 A 
ATOM    142  C   UNL A   1      51.864  34.963  27.820  1.00  0.00     0.173 A 
ATOM    143  C   UNL A   1      51.308  35.215  25.496  1.00  0.00     0.173 A 
ATOM    144  F   UNL A   1      51.741  34.332  28.999  1.00  0.00    -0.203 F 
ATOM    145  C   UNL A   1      52.669  36.096  27.747  1.00  0.00     0.198 A 
ATOM    146  C   UNL A   1      52.143  36.325  25.416  1.00  0.00     0.198 A 
ATOM    147  F   UNL A   1      50.658  34.820  24.390  1.00  0.00    -0.203 F 
ATOM    148  F   UNL A   1      53.290  36.547  28.846  1.00  0.00    -0.200 F 
ATOM    149  C   UNL A   1      52.814  36.771  26.544  1.00  0.00     0.200 A 
ATOM    150  F   UNL A   1      52.296  36.964  24.248  1.00  0.00    -0.200 F 
ATOM    151  F   UNL A   1      53.593  37.860  26.474  1.00  0.00    -0.200 F 
ENDBRANCH 117 141
ENDBRANCH  82  85
ENDBRANCH  72  75
ENDBRANCH  68  71
ENDBRANCH  65  68
ENDBRANCH  62  65
ENDBRANCH  59  62
ENDBRANCH  56  59
ENDBRANCH  53  56
ENDBRANCH  51  53
ENDBRANCH  46  49
ENDBRANCH  43  46
ENDBRANCH   1  43
TORSDOF 27
ENDMDL
MODEL 4
REMARK VINA RESULT:      -6.1      5.170      8.953
REMARK SMILES CC/C=C/C/C=C/C/C=C/C/C=C/CCSCCCC(=O)NCCCCCCNC(=O)c1ccc(-c2c3nc(c(-c4c(F)c(F)c(F)c(F)c4F)c4ccc([nH]4)c(-c4c(F)c(F)c(F)c(F)c4F)c4nc(c(-c5c(F)c(F)c(F)c(F)c5F)c5ccc2[nH]5)C=C4)C=C3)cc1
REMARK SMILES IDX 17 1 16 4 15 5 14 8 13 11 12 12 11 15 10 18 9 19 8 22 7 25
REMARK SMILES IDX 6 26 5 29 4 32 3 33 2 36 1 39 18 43 19 46 20 49 21 50 22 51
REMARK SMILES IDX 23 53 24 56 25 59 26 62 27 65 28 68 29 71 30 72 31 74 32 75
REMARK SMILES IDX 33 76 94 77 34 78 93 80 35 82 36 85 37 86 87 87 38 88 92 89
REMARK SMILES IDX 86 90 88 91 39 92 91 93 85 95 84 97 40 99 72 102 52 103
REMARK SMILES IDX 71 104 53 105 56 106 70 107 89 108 54 109 55 111 69 113
REMARK SMILES IDX 90 114 57 117 41 119 42 120 50 121 43 122 44 123 48 124
REMARK SMILES IDX 51 125 45 126 46 127 49 128 47 129 73 130 74 131 82 132
REMARK SMILES IDX 75 133 76 134 80 135 83 136 77 137 78 138 81 139 79 140
REMARK SMILES IDX 58 141 59 142 67 143 60 144 61 145 65 146 68 147 62 148
REMARK SMILES IDX 63 149 66 150 64 151
REMARK H PARENT 17 2 17 3 15 6 15 7 14 9 14 10 12 13 13 14 11 16 11 17 9 20
REMARK H PARENT 10 21 8 23 8 24 6 27 7 28 5 30 5 31 3 34 4 35 2 37 2 38 1 40
REMARK H PARENT 1 41 1 42 18 44 18 45 19 47 19 48 22 52 23 54 23 55 24 57
REMARK H PARENT 24 58 25 60 25 61 26 63 26 64 27 66 27 67 28 69 28 70 29 73
REMARK H PARENT 33 79 94 81 34 83 93 84 92 94 86 96 88 98 91 100 85 101 53 110
REMARK H PARENT 56 112 89 115 54 116 90 118
REMARK Flexibility Score: inf
ROOT
ATOM      1  C   UNL A   1      45.656  42.409  26.695  1.00  0.00    -0.006 C 
ATOM      2  H   UNL A   1      44.644  42.717  26.856  1.00  0.00     0.038 H 
ATOM      3  H   UNL A   1      46.386  42.960  26.140  1.00  0.00     0.038 H 
ENDROOT
BRANCH   1   4
ATOM      4  S   UNL A   1      45.521  40.938  25.577  1.00  0.00    -0.162 SA
BRANCH   4   5
ATOM      5  C   UNL A   1      45.222  39.387  26.537  1.00  0.00    -0.003 C 
ATOM      6  H   UNL A   1      45.520  38.568  25.918  1.00  0.00     0.038 H 
ATOM      7  H   UNL A   1      45.784  39.518  27.438  1.00  0.00     0.038 H 
BRANCH   5   8
ATOM      8  C   UNL A   1      43.772  39.096  27.023  1.00  0.00    -0.026 C 
ATOM      9  H   UNL A   1      43.526  39.823  27.768  1.00  0.00     0.032 H 
ATOM     10  H   UNL A   1      43.162  39.142  26.144  1.00  0.00     0.032 H 
BRANCH   8  11
ATOM     11  C   UNL A   1      43.526  37.732  27.611  1.00  0.00    -0.087 C 
ATOM     12  C   UNL A   1      42.984  36.654  27.015  1.00  0.00    -0.085 C 
ATOM     13  H   UNL A   1      42.449  36.789  26.143  1.00  0.00     0.058 H 
ATOM     14  H   UNL A   1      43.810  37.608  28.596  1.00  0.00     0.057 H 
BRANCH  12  15
ATOM     15  C   UNL A   1      43.127  35.248  27.572  1.00  0.00    -0.017 C 
ATOM     16  H   UNL A   1      42.898  34.558  26.788  1.00  0.00     0.035 H 
ATOM     17  H   UNL A   1      44.131  35.174  27.931  1.00  0.00     0.035 H 
BRANCH  15  18
ATOM     18  C   UNL A   1      42.243  34.927  28.742  1.00  0.00    -0.084 C 
ATOM     19  C   UNL A   1      40.937  35.241  28.786  1.00  0.00    -0.084 C 
ATOM     20  H   UNL A   1      40.518  35.688  27.955  1.00  0.00     0.058 H 
ATOM     21  H   UNL A   1      42.658  34.441  29.553  1.00  0.00     0.058 H 
BRANCH  19  22
ATOM     22  C   UNL A   1      40.046  34.984  29.970  1.00  0.00    -0.017 C 
ATOM     23  H   UNL A   1      40.637  34.916  30.859  1.00  0.00     0.035 H 
ATOM     24  H   UNL A   1      39.345  35.784  30.086  1.00  0.00     0.035 H 
BRANCH  22  25
ATOM     25  C   UNL A   1      39.322  33.692  29.741  1.00  0.00    -0.084 C 
ATOM     26  C   UNL A   1      37.997  33.528  29.867  1.00  0.00    -0.084 C 
ATOM     27  H   UNL A   1      37.406  34.368  29.966  1.00  0.00     0.058 H 
ATOM     28  H   UNL A   1      39.883  32.870  29.468  1.00  0.00     0.058 H 
BRANCH  26  29
ATOM     29  C   UNL A   1      37.333  32.182  29.870  1.00  0.00    -0.017 C 
ATOM     30  H   UNL A   1      37.106  31.891  28.866  1.00  0.00     0.035 H 
ATOM     31  H   UNL A   1      37.987  31.456  30.307  1.00  0.00     0.035 H 
BRANCH  29  32
ATOM     32  C   UNL A   1      36.063  32.266  30.668  1.00  0.00    -0.085 C 
ATOM     33  C   UNL A   1      35.988  32.731  31.924  1.00  0.00    -0.089 C 
ATOM     34  H   UNL A   1      36.840  33.130  32.347  1.00  0.00     0.057 H 
ATOM     35  H   UNL A   1      35.190  31.945  30.220  1.00  0.00     0.058 H 
BRANCH  33  36
ATOM     36  C   UNL A   1      34.734  32.702  32.746  1.00  0.00    -0.038 C 
ATOM     37  H   UNL A   1      34.065  31.970  32.344  1.00  0.00     0.031 H 
ATOM     38  H   UNL A   1      34.987  32.456  33.756  1.00  0.00     0.031 H 
BRANCH  36  39
ATOM     39  C   UNL A   1      34.054  34.065  32.728  1.00  0.00    -0.062 C 
ATOM     40  H   UNL A   1      34.028  34.436  31.724  1.00  0.00     0.023 H 
ATOM     41  H   UNL A   1      34.603  34.745  33.345  1.00  0.00     0.023 H 
ATOM     42  H   UNL A   1      33.056  33.970  33.100  1.00  0.00     0.023 H 
ENDBRANCH  36  39
ENDBRANCH  33  36
ENDBRANCH  29  32
ENDBRANCH  26  29
ENDBRANCH  22  25
ENDBRANCH  19  22
ENDBRANCH  15  18
ENDBRANCH  12  15
ENDBRANCH   8  11
ENDBRANCH   5   8
ENDBRANCH   4   5
ENDBRANCH   1   4
BRANCH   1  43
ATOM     43  C   UNL A   1      46.307  42.500  28.073  1.00  0.00    -0.035 C 
ATOM     44  H   UNL A   1      46.461  43.539  28.274  1.00  0.00     0.028 H 
ATOM     45  H   UNL A   1      47.175  41.883  27.974  1.00  0.00     0.028 H 
BRANCH  43  46
ATOM     46  C   UNL A   1      45.605  41.921  29.281  1.00  0.00     0.027 C 
ATOM     47  H   UNL A   1      46.133  42.270  30.145  1.00  0.00     0.037 H 
ATOM     48  H   UNL A   1      45.620  40.867  29.104  1.00  0.00     0.037 H 
BRANCH  46  49
ATOM     49  C   UNL A   1      44.134  42.232  29.502  1.00  0.00     0.220 C 
ATOM     50  O   UNL A   1      43.306  41.320  29.398  1.00  0.00    -0.275 OA
ATOM     51  N   UNL A   1      43.647  43.441  29.877  1.00  0.00    -0.356 N 
ATOM     52  H   UNL A   1      42.686  43.551  29.695  1.00  0.00     0.163 HD
BRANCH  51  53
ATOM     53  C   UNL A   1      44.259  44.602  30.491  1.00  0.00     0.017 C 
ATOM     54  H   UNL A   1      43.844  45.480  30.042  1.00  0.00     0.049 H 
ATOM     55  H   UNL A   1      45.315  44.525  30.328  1.00  0.00     0.049 H 
BRANCH  53  56
ATOM     56  C   UNL A   1      44.040  44.677  31.996  1.00  0.00    -0.036 C 
ATOM     57  H   UNL A   1      43.996  45.705  32.291  1.00  0.00     0.028 H 
ATOM     58  H   UNL A   1      44.852  44.177  32.481  1.00  0.00     0.028 H 
BRANCH  56  59
ATOM     59  C   UNL A   1      42.731  43.984  32.406  1.00  0.00    -0.052 C 
ATOM     60  H   UNL A   1      42.792  42.960  32.101  1.00  0.00     0.027 H 
ATOM     61  H   UNL A   1      41.946  44.529  31.926  1.00  0.00     0.027 H 
BRANCH  59  62
ATOM     62  C   UNL A   1      42.413  44.014  33.907  1.00  0.00    -0.052 C 
ATOM     63  H   UNL A   1      41.491  44.539  34.037  1.00  0.00     0.027 H 
ATOM     64  H   UNL A   1      43.251  44.489  34.374  1.00  0.00     0.027 H 
BRANCH  62  65
ATOM     65  C   UNL A   1      42.278  42.650  34.584  1.00  0.00    -0.036 C 
ATOM     66  H   UNL A   1      42.167  41.910  33.819  1.00  0.00     0.028 H 
ATOM     67  H   UNL A   1      41.431  42.720  35.233  1.00  0.00     0.028 H 
BRANCH  65  68
ATOM     68  C   UNL A   1      43.457  42.250  35.461  1.00  0.00     0.018 C 
ATOM     69  H   UNL A   1      43.477  41.183  35.540  1.00  0.00     0.049 H 
ATOM     70  H   UNL A   1      43.321  42.718  36.413  1.00  0.00     0.049 H 
BRANCH  68  71
ATOM     71  N   UNL A   1      44.734  42.699  34.933  1.00  0.00    -0.352 N 
ATOM     72  C   UNL A   1      45.645  42.013  34.169  1.00  0.00     0.251 C 
ATOM     73  H   UNL A   1      44.982  43.625  35.154  1.00  0.00     0.163 HD
ATOM     74  O   UNL A   1      46.734  42.509  33.912  1.00  0.00    -0.269 OA
BRANCH  72  75
ATOM     75  C   UNL A   1      45.314  40.660  33.673  1.00  0.00     0.039 A 
ATOM     76  C   UNL A   1      45.841  39.554  34.344  1.00  0.00    -0.049 A 
ATOM     77  C   UNL A   1      44.507  40.480  32.546  1.00  0.00    -0.049 A 
ATOM     78  C   UNL A   1      45.535  38.267  33.900  1.00  0.00    -0.053 A 
ATOM     79  H   UNL A   1      46.452  39.688  35.165  1.00  0.00     0.063 H 
ATOM     80  C   UNL A   1      44.131  39.198  32.160  1.00  0.00    -0.053 A 
ATOM     81  H   UNL A   1      44.191  41.297  32.002  1.00  0.00     0.063 H 
ATOM     82  C   UNL A   1      44.666  38.079  32.814  1.00  0.00    -0.014 A 
ATOM     83  H   UNL A   1      45.951  37.449  34.372  1.00  0.00     0.063 H 
ATOM     84  H   UNL A   1      43.456  39.070  31.390  1.00  0.00     0.063 H 
BRANCH  82  85
ATOM     85  C   UNL A   1      44.357  36.718  32.312  1.00  0.00     0.031 A 
ATOM     86  C   UNL A   1      43.201  35.951  32.896  1.00  0.00     0.074 A 
ATOM     87  C   UNL A   1      45.130  36.164  31.360  1.00  0.00     0.049 A 
ATOM     88  N   UNL A   1      42.772  34.748  32.606  1.00  0.00    -0.248 NA
ATOM     89  C   UNL A   1      42.442  36.611  33.971  1.00  0.00    -0.034 C 
ATOM     90  C   UNL A   1      46.305  36.790  30.753  1.00  0.00    -0.036 A 
ATOM     91  N   UNL A   1      45.041  34.946  30.733  1.00  0.00    -0.354 N 
ATOM     92  C   UNL A   1      41.712  34.507  33.470  1.00  0.00     0.074 A 
ATOM     93  C   UNL A   1      41.604  35.656  34.340  1.00  0.00    -0.034 C 
ATOM     94  H   UNL A   1      42.540  37.570  34.341  1.00  0.00     0.065 H 
ATOM     95  C   UNL A   1      46.805  35.970  29.815  1.00  0.00    -0.036 A 
ATOM     96  H   UNL A   1      46.688  37.715  31.005  1.00  0.00     0.065 H 
ATOM     97  C   UNL A   1      46.009  34.747  29.779  1.00  0.00     0.049 A 
ATOM     98  H   UNL A   1      44.349  34.279  30.947  1.00  0.00     0.167 HD
ATOM     99  C   UNL A   1      40.886  33.435  33.517  1.00  0.00     0.037 A 
ATOM    100  H   UNL A   1      40.957  35.724  35.141  1.00  0.00     0.065 H 
ATOM    101  H   UNL A   1      47.620  36.171  29.216  1.00  0.00     0.065 H 
ATOM    102  C   UNL A   1      46.224  33.695  28.967  1.00  0.00     0.037 A 
ATOM    103  C   UNL A   1      40.983  32.308  32.628  1.00  0.00     0.049 A 
ATOM    104  C   UNL A   1      45.288  32.516  29.038  1.00  0.00     0.074 A 
ATOM    105  C   UNL A   1      40.160  31.198  32.546  1.00  0.00    -0.036 A 
ATOM    106  N   UNL A   1      41.970  32.146  31.665  1.00  0.00    -0.354 N 
ATOM    107  N   UNL A   1      44.242  32.332  29.804  1.00  0.00    -0.248 NA
ATOM    108  C   UNL A   1      45.560  31.404  28.116  1.00  0.00    -0.034 C 
ATOM    109  C   UNL A   1      40.683  30.338  31.575  1.00  0.00    -0.036 A 
ATOM    110  H   UNL A   1      39.308  31.034  33.105  1.00  0.00     0.065 H 
ATOM    111  C   UNL A   1      41.790  30.942  31.003  1.00  0.00     0.049 A 
ATOM    112  H   UNL A   1      42.691  32.790  31.482  1.00  0.00     0.167 HD
ATOM    113  C   UNL A   1      43.705  31.106  29.431  1.00  0.00     0.074 A 
ATOM    114  C   UNL A   1      44.537  30.598  28.360  1.00  0.00    -0.034 C 
ATOM    115  H   UNL A   1      46.341  31.284  27.453  1.00  0.00     0.065 H 
ATOM    116  H   UNL A   1      40.306  29.410  31.327  1.00  0.00     0.065 H 
ATOM    117  C   UNL A   1      42.619  30.461  29.927  1.00  0.00     0.037 A 
ATOM    118  H   UNL A   1      44.356  29.719  27.851  1.00  0.00     0.065 H 
BRANCH  99 119
ATOM    119  C   UNL A   1      39.810  33.430  34.566  1.00  0.00     0.064 A 
ATOM    120  C   UNL A   1      40.025  32.897  35.847  1.00  0.00     0.173 A 
ATOM    121  C   UNL A   1      38.551  33.989  34.295  1.00  0.00     0.173 A 
ATOM    122  F   UNL A   1      41.205  32.340  36.159  1.00  0.00    -0.203 F 
ATOM    123  C   UNL A   1      39.011  32.891  36.803  1.00  0.00     0.198 A 
ATOM    124  C   UNL A   1      37.552  34.013  35.264  1.00  0.00     0.198 A 
ATOM    125  F   UNL A   1      38.291  34.516  33.089  1.00  0.00    -0.203 F 
ATOM    126  F   UNL A   1      39.221  32.321  37.997  1.00  0.00    -0.200 F 
ATOM    127  C   UNL A   1      37.778  33.455  36.512  1.00  0.00     0.200 A 
ATOM    128  F   UNL A   1      36.366  34.573  34.987  1.00  0.00    -0.200 F 
ATOM    129  F   UNL A   1      36.805  33.453  37.435  1.00  0.00    -0.200 F 
ENDBRANCH  99 119
BRANCH 102 130
ATOM    130  C   UNL A   1      47.340  33.724  27.986  1.00  0.00     0.064 A 
ATOM    131  C   UNL A   1      48.580  33.141  28.288  1.00  0.00     0.173 A 
ATOM    132  C   UNL A   1      47.200  34.343  26.735  1.00  0.00     0.173 A 
ATOM    133  F   UNL A   1      48.770  32.553  29.478  1.00  0.00    -0.203 F 
ATOM    134  C   UNL A   1      49.643  33.203  27.391  1.00  0.00     0.198 A 
ATOM    135  C   UNL A   1      48.255  34.376  25.825  1.00  0.00     0.198 A 
ATOM    136  F   UNL A   1      46.034  34.909  26.392  1.00  0.00    -0.203 F 
ATOM    137  F   UNL A   1      50.833  32.687  27.729  1.00  0.00    -0.200 F 
ATOM    138  C   UNL A   1      49.480  33.816  26.158  1.00  0.00     0.200 A 
ATOM    139  F   UNL A   1      48.087  34.954  24.629  1.00  0.00    -0.200 F 
ATOM    140  F   UNL A   1      50.503  33.875  25.295  1.00  0.00    -0.200 F 
ENDBRANCH 102 130
BRANCH 117 141
ATOM    141  C   UNL A   1      42.233  29.163  29.275  1.00  0.00     0.064 A 
ATOM    142  C   UNL A   1      41.306  29.104  28.224  1.00  0.00     0.173 A 
ATOM    143  C   UNL A   1      42.826  27.961  29.694  1.00  0.00     0.173 A 
ATOM    144  F   UNL A   1      40.702  30.222  27.793  1.00  0.00    -0.203 F 
ATOM    145  C   UNL A   1      40.958  27.887  27.645  1.00  0.00     0.198 A 
ATOM    146  C   UNL A   1      42.505  26.752  29.087  1.00  0.00     0.198 A 
ATOM    147  F   UNL A   1      43.728  27.961  30.687  1.00  0.00    -0.203 F 
ATOM    148  F   UNL A   1      40.022  27.847  26.685  1.00  0.00    -0.200 F 
ATOM    149  C   UNL A   1      41.562  26.714  28.070  1.00  0.00     0.200 A 
ATOM    150  F   UNL A   1      43.105  25.622  29.487  1.00  0.00    -0.200 F 
ATOM    151  F   UNL A   1      41.230  25.544  27.508  1.00  0.00    -0.200 F 
ENDBRANCH 117 141
ENDBRANCH  82  85
ENDBRANCH  72  75
ENDBRANCH  68  71
ENDBRANCH  65  68
ENDBRANCH  62  65
ENDBRANCH  59  62
ENDBRANCH  56  59
ENDBRANCH  53  56
ENDBRANCH  51  53
ENDBRANCH  46  49
ENDBRANCH  43  46
ENDBRANCH   1  43
TORSDOF 27
ENDMDL
MODEL 5
REMARK VINA RESULT:      -6.1      6.089      9.758
REMARK SMILES CC/C=C/C/C=C/C/C=C/C/C=C/CCSCCCC(=O)NCCCCCCNC(=O)c1ccc(-c2c3nc(c(-c4c(F)c(F)c(F)c(F)c4F)c4ccc([nH]4)c(-c4c(F)c(F)c(F)c(F)c4F)c4nc(c(-c5c(F)c(F)c(F)c(F)c5F)c5ccc2[nH]5)C=C4)C=C3)cc1
REMARK SMILES IDX 17 1 16 4 15 5 14 8 13 11 12 12 11 15 10 18 9 19 8 22 7 25
REMARK SMILES IDX 6 26 5 29 4 32 3 33 2 36 1 39 18 43 19 46 20 49 21 50 22 51
REMARK SMILES IDX 23 53 24 56 25 59 26 62 27 65 28 68 29 71 30 72 31 74 32 75
REMARK SMILES IDX 33 76 94 77 34 78 93 80 35 82 36 85 37 86 87 87 38 88 92 89
REMARK SMILES IDX 86 90 88 91 39 92 91 93 85 95 84 97 40 99 72 102 52 103
REMARK SMILES IDX 71 104 53 105 56 106 70 107 89 108 54 109 55 111 69 113
REMARK SMILES IDX 90 114 57 117 41 119 42 120 50 121 43 122 44 123 48 124
REMARK SMILES IDX 51 125 45 126 46 127 49 128 47 129 73 130 74 131 82 132
REMARK SMILES IDX 75 133 76 134 80 135 83 136 77 137 78 138 81 139 79 140
REMARK SMILES IDX 58 141 59 142 67 143 60 144 61 145 65 146 68 147 62 148
REMARK SMILES IDX 63 149 66 150 64 151
REMARK H PARENT 17 2 17 3 15 6 15 7 14 9 14 10 12 13 13 14 11 16 11 17 9 20
REMARK H PARENT 10 21 8 23 8 24 6 27 7 28 5 30 5 31 3 34 4 35 2 37 2 38 1 40
REMARK H PARENT 1 41 1 42 18 44 18 45 19 47 19 48 22 52 23 54 23 55 24 57
REMARK H PARENT 24 58 25 60 25 61 26 63 26 64 27 66 27 67 28 69 28 70 29 73
REMARK H PARENT 33 79 94 81 34 83 93 84 92 94 86 96 88 98 91 100 85 101 53 110
REMARK H PARENT 56 112 89 115 54 116 90 118
REMARK Flexibility Score: inf
ROOT
ATOM      1  C   UNL A   1      33.703  32.798  27.988  1.00  0.00    -0.006 C 
ATOM      2  H   UNL A   1      33.249  32.783  28.957  1.00  0.00     0.038 H 
ATOM      3  H   UNL A   1      33.186  32.984  27.070  1.00  0.00     0.038 H 
ENDROOT
BRANCH   1   4
ATOM      4  S   UNL A   1      34.188  31.038  27.674  1.00  0.00    -0.162 SA
BRANCH   4   5
ATOM      5  C   UNL A   1      32.752  30.038  27.078  1.00  0.00    -0.003 C 
ATOM      6  H   UNL A   1      32.038  30.001  27.873  1.00  0.00     0.038 H 
ATOM      7  H   UNL A   1      32.430  30.538  26.187  1.00  0.00     0.038 H 
BRANCH   5   8
ATOM      8  C   UNL A   1      33.019  28.573  26.626  1.00  0.00    -0.026 C 
ATOM      9  H   UNL A   1      33.991  28.541  26.181  1.00  0.00     0.032 H 
ATOM     10  H   UNL A   1      32.918  27.979  27.510  1.00  0.00     0.032 H 
BRANCH   8  11
ATOM     11  C   UNL A   1      32.042  27.991  25.638  1.00  0.00    -0.087 C 
ATOM     12  C   UNL A   1      32.308  27.329  24.497  1.00  0.00    -0.085 C 
ATOM     13  H   UNL A   1      33.253  27.405  24.091  1.00  0.00     0.058 H 
ATOM     14  H   UNL A   1      31.043  28.117  25.864  1.00  0.00     0.057 H 
BRANCH  12  15
ATOM     15  C   UNL A   1      31.274  26.474  23.783  1.00  0.00    -0.017 C 
ATOM     16  H   UNL A   1      30.400  26.432  24.399  1.00  0.00     0.035 H 
ATOM     17  H   UNL A   1      31.110  26.940  22.835  1.00  0.00     0.035 H 
BRANCH  15  18
ATOM     18  C   UNL A   1      31.699  25.066  23.486  1.00  0.00    -0.084 C 
ATOM     19  C   UNL A   1      32.816  24.763  22.802  1.00  0.00    -0.084 C 
ATOM     20  H   UNL A   1      33.427  25.539  22.505  1.00  0.00     0.058 H 
ATOM     21  H   UNL A   1      31.106  24.292  23.825  1.00  0.00     0.058 H 
BRANCH  19  22
ATOM     22  C   UNL A   1      33.230  23.362  22.441  1.00  0.00    -0.017 C 
ATOM     23  H   UNL A   1      32.654  23.018  21.608  1.00  0.00     0.035 H 
ATOM     24  H   UNL A   1      34.265  23.341  22.172  1.00  0.00     0.035 H 
BRANCH  22  25
ATOM     25  C   UNL A   1      32.986  22.480  23.628  1.00  0.00    -0.084 C 
ATOM     26  C   UNL A   1      33.889  21.639  24.151  1.00  0.00    -0.084 C 
ATOM     27  H   UNL A   1      34.868  21.711  23.833  1.00  0.00     0.058 H 
ATOM     28  H   UNL A   1      32.056  22.523  24.073  1.00  0.00     0.058 H 
BRANCH  26  29
ATOM     29  C   UNL A   1      33.546  20.599  25.177  1.00  0.00    -0.017 C 
ATOM     30  H   UNL A   1      34.220  20.676  26.005  1.00  0.00     0.035 H 
ATOM     31  H   UNL A   1      32.545  20.749  25.524  1.00  0.00     0.035 H 
BRANCH  29  32
ATOM     32  C   UNL A   1      33.669  19.238  24.554  1.00  0.00    -0.085 C 
ATOM     33  C   UNL A   1      33.013  18.148  24.982  1.00  0.00    -0.089 C 
ATOM     34  H   UNL A   1      32.320  18.262  25.738  1.00  0.00     0.057 H 
ATOM     35  H   UNL A   1      34.299  19.134  23.743  1.00  0.00     0.058 H 
BRANCH  33  36
ATOM     36  C   UNL A   1      33.233  16.774  24.422  1.00  0.00    -0.038 C 
ATOM     37  H   UNL A   1      33.775  16.186  25.133  1.00  0.00     0.031 H 
ATOM     38  H   UNL A   1      32.283  16.327  24.220  1.00  0.00     0.031 H 
BRANCH  36  39
ATOM     39  C   UNL A   1      34.028  16.849  23.125  1.00  0.00    -0.062 C 
ATOM     40  H   UNL A   1      34.124  17.872  22.825  1.00  0.00     0.023 H 
ATOM     41  H   UNL A   1      33.517  16.300  22.362  1.00  0.00     0.023 H 
ATOM     42  H   UNL A   1      34.999  16.428  23.278  1.00  0.00     0.023 H 
ENDBRANCH  36  39
ENDBRANCH  33  36
ENDBRANCH  29  32
ENDBRANCH  26  29
ENDBRANCH  22  25
ENDBRANCH  19  22
ENDBRANCH  15  18
ENDBRANCH  12  15
ENDBRANCH   8  11
ENDBRANCH   5   8
ENDBRANCH   4   5
ENDBRANCH   1   4
BRANCH   1  43
ATOM     43  C   UNL A   1      34.589  34.041  28.000  1.00  0.00    -0.035 C 
ATOM     44  H   UNL A   1      34.146  34.743  27.326  1.00  0.00     0.028 H 
ATOM     45  H   UNL A   1      35.554  33.655  27.747  1.00  0.00     0.028 H 
BRANCH  43  46
ATOM     46  C   UNL A   1      34.839  34.779  29.296  1.00  0.00     0.027 C 
ATOM     47  H   UNL A   1      34.840  35.824  29.065  1.00  0.00     0.037 H 
ATOM     48  H   UNL A   1      35.759  34.366  29.651  1.00  0.00     0.037 H 
BRANCH  46  49
ATOM     49  C   UNL A   1      33.880  34.581  30.458  1.00  0.00     0.220 C 
ATOM     50  O   UNL A   1      32.848  35.261  30.507  1.00  0.00    -0.275 OA
ATOM     51  N   UNL A   1      34.030  33.654  31.436  1.00  0.00    -0.356 N 
ATOM     52  H   UNL A   1      33.502  33.846  32.245  1.00  0.00     0.163 HD
BRANCH  51  53
ATOM     53  C   UNL A   1      34.813  32.438  31.528  1.00  0.00     0.017 C 
ATOM     54  H   UNL A   1      35.408  32.351  30.643  1.00  0.00     0.049 H 
ATOM     55  H   UNL A   1      34.124  31.626  31.633  1.00  0.00     0.049 H 
BRANCH  53  56
ATOM     56  C   UNL A   1      35.737  32.404  32.738  1.00  0.00    -0.036 C 
ATOM     57  H   UNL A   1      35.852  31.390  33.060  1.00  0.00     0.028 H 
ATOM     58  H   UNL A   1      35.302  33.001  33.512  1.00  0.00     0.028 H 
BRANCH  56  59
ATOM     59  C   UNL A   1      37.120  32.982  32.403  1.00  0.00    -0.052 C 
ATOM     60  H   UNL A   1      36.994  34.014  32.152  1.00  0.00     0.027 H 
ATOM     61  H   UNL A   1      37.501  32.388  31.598  1.00  0.00     0.027 H 
BRANCH  59  62
ATOM     62  C   UNL A   1      38.162  32.890  33.527  1.00  0.00    -0.052 C 
ATOM     63  H   UNL A   1      38.296  33.871  33.931  1.00  0.00     0.027 H 
ATOM     64  H   UNL A   1      39.043  32.483  33.076  1.00  0.00     0.027 H 
BRANCH  62  65
ATOM     65  C   UNL A   1      37.810  31.950  34.680  1.00  0.00    -0.036 C 
ATOM     66  H   UNL A   1      36.754  31.781  34.660  1.00  0.00     0.028 H 
ATOM     67  H   UNL A   1      38.146  32.433  35.574  1.00  0.00     0.028 H 
BRANCH  65  68
ATOM     68  C   UNL A   1      38.507  30.596  34.639  1.00  0.00     0.018 C 
ATOM     69  H   UNL A   1      38.522  30.190  35.628  1.00  0.00     0.049 H 
ATOM     70  H   UNL A   1      39.494  30.756  34.257  1.00  0.00     0.049 H 
BRANCH  68  71
ATOM     71  N   UNL A   1      37.847  29.647  33.759  1.00  0.00    -0.352 N 
ATOM     72  C   UNL A   1      38.145  29.317  32.460  1.00  0.00     0.251 C 
ATOM     73  H   UNL A   1      37.077  29.173  34.149  1.00  0.00     0.163 HD
ATOM     74  O   UNL A   1      37.403  28.580  31.824  1.00  0.00    -0.269 OA
BRANCH  72  75
ATOM     75  C   UNL A   1      39.357  29.873  31.823  1.00  0.00     0.039 A 
ATOM     76  C   UNL A   1      39.330  30.140  30.452  1.00  0.00    -0.049 A 
ATOM     77  C   UNL A   1      40.518  30.114  32.563  1.00  0.00    -0.049 A 
ATOM     78  C   UNL A   1      40.459  30.673  29.830  1.00  0.00    -0.053 A 
ATOM     79  H   UNL A   1      38.478  29.944  29.902  1.00  0.00     0.063 H 
ATOM     80  C   UNL A   1      41.610  30.728  31.960  1.00  0.00    -0.053 A 
ATOM     81  H   UNL A   1      40.564  29.835  33.555  1.00  0.00     0.063 H 
ATOM     82  C   UNL A   1      41.603  30.986  30.582  1.00  0.00    -0.014 A 
ATOM     83  H   UNL A   1      40.454  30.839  28.811  1.00  0.00     0.063 H 
ATOM     84  H   UNL A   1      42.428  30.996  32.529  1.00  0.00     0.063 H 
BRANCH  82  85
ATOM     85  C   UNL A   1      42.820  31.525  29.929  1.00  0.00     0.031 A 
ATOM     86  C   UNL A   1      42.897  32.988  29.582  1.00  0.00     0.074 A 
ATOM     87  C   UNL A   1      43.837  30.698  29.622  1.00  0.00     0.049 A 
ATOM     88  N   UNL A   1      43.863  33.653  29.001  1.00  0.00    -0.248 NA
ATOM     89  C   UNL A   1      41.718  33.808  29.904  1.00  0.00    -0.034 C 
ATOM     90  C   UNL A   1      43.858  29.255  29.866  1.00  0.00    -0.036 A 
ATOM     91  N   UNL A   1      45.053  30.955  29.040  1.00  0.00    -0.354 N 
ATOM     92  C   UNL A   1      43.402  34.956  28.874  1.00  0.00     0.074 A 
ATOM     93  C   UNL A   1      42.046  34.976  29.376  1.00  0.00    -0.034 C 
ATOM     94  H   UNL A   1      40.859  33.541  30.409  1.00  0.00     0.065 H 
ATOM     95  C   UNL A   1      45.042  28.761  29.471  1.00  0.00    -0.036 A 
ATOM     96  H   UNL A   1      43.086  28.706  30.274  1.00  0.00     0.065 H 
ATOM     97  C   UNL A   1      45.849  29.842  28.916  1.00  0.00     0.049 A 
ATOM     98  H   UNL A   1      45.329  31.851  28.739  1.00  0.00     0.167 HD
ATOM     99  C   UNL A   1      44.058  36.045  28.407  1.00  0.00     0.037 A 
ATOM    100  H   UNL A   1      41.418  35.795  29.331  1.00  0.00     0.065 H 
ATOM    101  H   UNL A   1      45.334  27.774  29.549  1.00  0.00     0.065 H 
ATOM    102  C   UNL A   1      47.092  29.716  28.413  1.00  0.00     0.037 A 
ATOM    103  C   UNL A   1      45.418  36.021  27.936  1.00  0.00     0.049 A 
ATOM    104  C   UNL A   1      47.800  30.943  27.902  1.00  0.00     0.074 A 
ATOM    105  C   UNL A   1      46.199  37.076  27.501  1.00  0.00    -0.036 A 
ATOM    106  N   UNL A   1      46.197  34.877  27.837  1.00  0.00    -0.354 N 
ATOM    107  N   UNL A   1      47.384  32.185  27.860  1.00  0.00    -0.248 NA
ATOM    108  C   UNL A   1      49.160  30.749  27.381  1.00  0.00    -0.034 C 
ATOM    109  C   UNL A   1      47.432  36.563  27.083  1.00  0.00    -0.036 A 
ATOM    110  H   UNL A   1      45.922  38.070  27.488  1.00  0.00     0.065 H 
ATOM    111  C   UNL A   1      47.443  35.199  27.323  1.00  0.00     0.049 A 
ATOM    112  H   UNL A   1      45.907  33.972  28.093  1.00  0.00     0.167 HD
ATOM    113  C   UNL A   1      48.442  32.926  27.349  1.00  0.00     0.074 A 
ATOM    114  C   UNL A   1      49.524  31.993  27.108  1.00  0.00    -0.034 C 
ATOM    115  H   UNL A   1      49.693  29.873  27.261  1.00  0.00     0.065 H 
ATOM    116  H   UNL A   1      48.201  37.109  26.667  1.00  0.00     0.065 H 
ATOM    117  C   UNL A   1      48.514  34.258  27.105  1.00  0.00     0.037 A 
ATOM    118  H   UNL A   1      50.459  32.264  26.766  1.00  0.00     0.065 H 
BRANCH  99 119
ATOM    119  C   UNL A   1      43.311  37.349  28.379  1.00  0.00     0.064 A 
ATOM    120  C   UNL A   1      42.493  37.712  27.298  1.00  0.00     0.173 A 
ATOM    121  C   UNL A   1      43.397  38.239  29.461  1.00  0.00     0.173 A 
ATOM    122  F   UNL A   1      42.383  36.905  26.231  1.00  0.00    -0.203 F 
ATOM    123  C   UNL A   1      41.819  38.932  27.284  1.00  0.00     0.198 A 
ATOM    124  C   UNL A   1      42.693  39.441  29.460  1.00  0.00     0.198 A 
ATOM    125  F   UNL A   1      44.160  37.943  30.523  1.00  0.00    -0.203 F 
ATOM    126  F   UNL A   1      41.094  39.283  26.213  1.00  0.00    -0.200 F 
ATOM    127  C   UNL A   1      41.915  39.791  28.368  1.00  0.00     0.200 A 
ATOM    128  F   UNL A   1      42.773  40.263  30.515  1.00  0.00    -0.200 F 
ATOM    129  F   UNL A   1      41.260  40.961  28.356  1.00  0.00    -0.200 F 
ENDBRANCH  99 119
BRANCH 102 130
ATOM    130  C   UNL A   1      47.764  28.390  28.409  1.00  0.00     0.064 A 
ATOM    131  C   UNL A   1      47.656  27.531  27.306  1.00  0.00     0.173 A 
ATOM    132  C   UNL A   1      48.517  27.947  29.508  1.00  0.00     0.173 A 
ATOM    133  F   UNL A   1      46.934  27.900  26.238  1.00  0.00    -0.203 F 
ATOM    134  C   UNL A   1      48.248  26.270  27.314  1.00  0.00     0.198 A 
ATOM    135  C   UNL A   1      49.135  26.698  29.500  1.00  0.00     0.198 A 
ATOM    136  F   UNL A   1      48.658  28.732  30.586  1.00  0.00    -0.203 F 
ATOM    137  F   UNL A   1      48.081  25.448  26.268  1.00  0.00    -0.200 F 
ATOM    138  C   UNL A   1      48.991  25.855  28.408  1.00  0.00     0.200 A 
ATOM    139  F   UNL A   1      49.865  26.310  30.554  1.00  0.00    -0.200 F 
ATOM    140  F   UNL A   1      49.561  24.643  28.415  1.00  0.00    -0.200 F 
ENDBRANCH 102 130
BRANCH 117 141
ATOM    141  C   UNL A   1      49.825  34.797  26.606  1.00  0.00     0.064 A 
ATOM    142  C   UNL A   1      50.947  34.915  27.439  1.00  0.00     0.173 A 
ATOM    143  C   UNL A   1      49.965  35.173  25.261  1.00  0.00     0.173 A 
ATOM    144  F   UNL A   1      50.864  34.580  28.736  1.00  0.00    -0.203 F 
ATOM    145  C   UNL A   1      52.147  35.427  26.954  1.00  0.00     0.198 A 
ATOM    146  C   UNL A   1      51.177  35.648  24.771  1.00  0.00     0.198 A 
ATOM    147  F   UNL A   1      48.927  35.070  24.417  1.00  0.00    -0.203 F 
ATOM    148  F   UNL A   1      53.187  35.591  27.785  1.00  0.00    -0.200 F 
ATOM    149  C   UNL A   1      52.264  35.786  25.620  1.00  0.00     0.200 A 
ATOM    150  F   UNL A   1      51.293  35.975  23.476  1.00  0.00    -0.200 F 
ATOM    151  F   UNL A   1      53.422  36.274  25.154  1.00  0.00    -0.200 F 
ENDBRANCH 117 141
ENDBRANCH  82  85
ENDBRANCH  72  75
ENDBRANCH  68  71
ENDBRANCH  65  68
ENDBRANCH  62  65
ENDBRANCH  59  62
ENDBRANCH  56  59
ENDBRANCH  53  56
ENDBRANCH  51  53
ENDBRANCH  46  49
ENDBRANCH  43  46
ENDBRANCH   1  43
TORSDOF 27
ENDMDL
MODEL 6
REMARK VINA RESULT:      -6.1      5.185      9.308
REMARK SMILES CC/C=C/C/C=C/C/C=C/C/C=C/CCSCCCC(=O)NCCCCCCNC(=O)c1ccc(-c2c3nc(c(-c4c(F)c(F)c(F)c(F)c4F)c4ccc([nH]4)c(-c4c(F)c(F)c(F)c(F)c4F)c4nc(c(-c5c(F)c(F)c(F)c(F)c5F)c5ccc2[nH]5)C=C4)C=C3)cc1
REMARK SMILES IDX 17 1 16 4 15 5 14 8 13 11 12 12 11 15 10 18 9 19 8 22 7 25
REMARK SMILES IDX 6 26 5 29 4 32 3 33 2 36 1 39 18 43 19 46 20 49 21 50 22 51
REMARK SMILES IDX 23 53 24 56 25 59 26 62 27 65 28 68 29 71 30 72 31 74 32 75
REMARK SMILES IDX 33 76 94 77 34 78 93 80 35 82 36 85 37 86 87 87 38 88 92 89
REMARK SMILES IDX 86 90 88 91 39 92 91 93 85 95 84 97 40 99 72 102 52 103
REMARK SMILES IDX 71 104 53 105 56 106 70 107 89 108 54 109 55 111 69 113
REMARK SMILES IDX 90 114 57 117 41 119 42 120 50 121 43 122 44 123 48 124
REMARK SMILES IDX 51 125 45 126 46 127 49 128 47 129 73 130 74 131 82 132
REMARK SMILES IDX 75 133 76 134 80 135 83 136 77 137 78 138 81 139 79 140
REMARK SMILES IDX 58 141 59 142 67 143 60 144 61 145 65 146 68 147 62 148
REMARK SMILES IDX 63 149 66 150 64 151
REMARK H PARENT 17 2 17 3 15 6 15 7 14 9 14 10 12 13 13 14 11 16 11 17 9 20
REMARK H PARENT 10 21 8 23 8 24 6 27 7 28 5 30 5 31 3 34 4 35 2 37 2 38 1 40
REMARK H PARENT 1 41 1 42 18 44 18 45 19 47 19 48 22 52 23 54 23 55 24 57
REMARK H PARENT 24 58 25 60 25 61 26 63 26 64 27 66 27 67 28 69 28 70 29 73
REMARK H PARENT 33 79 94 81 34 83 93 84 92 94 86 96 88 98 91 100 85 101 53 110
REMARK H PARENT 56 112 89 115 54 116 90 118
REMARK Flexibility Score: inf
ROOT
ATOM      1  C   UNL A   1      33.286  37.002  31.360  1.00  0.00    -0.006 C 
ATOM      2  H   UNL A   1      34.026  37.527  30.792  1.00  0.00     0.038 H 
ATOM      3  H   UNL A   1      32.329  37.394  31.632  1.00  0.00     0.038 H 
ENDROOT
BRANCH   1   4
ATOM      4  S   UNL A   1      34.015  36.867  33.057  1.00  0.00    -0.162 SA
BRANCH   4   5
ATOM      5  C   UNL A   1      34.802  35.216  33.325  1.00  0.00    -0.003 C 
ATOM      6  H   UNL A   1      34.974  35.112  34.375  1.00  0.00     0.038 H 
ATOM      7  H   UNL A   1      34.112  34.519  32.895  1.00  0.00     0.038 H 
BRANCH   5   8
ATOM      8  C   UNL A   1      36.150  34.923  32.603  1.00  0.00    -0.026 C 
ATOM      9  H   UNL A   1      35.922  34.558  31.624  1.00  0.00     0.032 H 
ATOM     10  H   UNL A   1      36.687  35.849  32.616  1.00  0.00     0.032 H 
BRANCH   8  11
ATOM     11  C   UNL A   1      37.058  33.923  33.268  1.00  0.00    -0.087 C 
ATOM     12  C   UNL A   1      36.733  32.971  34.162  1.00  0.00    -0.085 C 
ATOM     13  H   UNL A   1      35.829  33.042  34.653  1.00  0.00     0.058 H 
ATOM     14  H   UNL A   1      38.055  33.974  33.006  1.00  0.00     0.057 H 
BRANCH  12  15
ATOM     15  C   UNL A   1      37.643  31.795  34.477  1.00  0.00    -0.017 C 
ATOM     16  H   UNL A   1      37.074  31.076  35.028  1.00  0.00     0.035 H 
ATOM     17  H   UNL A   1      37.994  31.434  33.534  1.00  0.00     0.035 H 
BRANCH  15  18
ATOM     18  C   UNL A   1      38.869  32.127  35.277  1.00  0.00    -0.084 C 
ATOM     19  C   UNL A   1      39.937  32.758  34.759  1.00  0.00    -0.084 C 
ATOM     20  H   UNL A   1      39.889  33.062  33.774  1.00  0.00     0.058 H 
ATOM     21  H   UNL A   1      38.893  31.859  36.273  1.00  0.00     0.058 H 
BRANCH  19  22
ATOM     22  C   UNL A   1      41.199  33.047  35.525  1.00  0.00    -0.017 C 
ATOM     23  H   UNL A   1      40.955  33.384  36.510  1.00  0.00     0.035 H 
ATOM     24  H   UNL A   1      41.795  32.162  35.604  1.00  0.00     0.035 H 
BRANCH  22  25
ATOM     25  C   UNL A   1      41.956  34.116  34.796  1.00  0.00    -0.084 C 
ATOM     26  C   UNL A   1      41.690  34.520  33.545  1.00  0.00    -0.084 C 
ATOM     27  H   UNL A   1      40.813  34.202  33.103  1.00  0.00     0.058 H 
ATOM     28  H   UNL A   1      42.736  34.574  35.291  1.00  0.00     0.058 H 
BRANCH  26  29
ATOM     29  C   UNL A   1      42.606  35.411  32.757  1.00  0.00    -0.017 C 
ATOM     30  H   UNL A   1      42.155  35.646  31.816  1.00  0.00     0.035 H 
ATOM     31  H   UNL A   1      42.784  36.317  33.298  1.00  0.00     0.035 H 
BRANCH  29  32
ATOM     32  C   UNL A   1      43.905  34.694  32.526  1.00  0.00    -0.085 C 
ATOM     33  C   UNL A   1      45.115  35.246  32.702  1.00  0.00    -0.089 C 
ATOM     34  H   UNL A   1      45.163  36.199  33.096  1.00  0.00     0.057 H 
ATOM     35  H   UNL A   1      43.865  33.711  32.211  1.00  0.00     0.058 H 
BRANCH  33  36
ATOM     36  C   UNL A   1      46.401  34.555  32.358  1.00  0.00    -0.038 C 
ATOM     37  H   UNL A   1      47.009  35.213  31.773  1.00  0.00     0.031 H 
ATOM     38  H   UNL A   1      46.906  34.293  33.264  1.00  0.00     0.031 H 
BRANCH  36  39
ATOM     39  C   UNL A   1      46.127  33.286  31.562  1.00  0.00    -0.062 C 
ATOM     40  H   UNL A   1      45.307  32.759  32.004  1.00  0.00     0.023 H 
ATOM     41  H   UNL A   1      46.998  32.664  31.573  1.00  0.00     0.023 H 
ATOM     42  H   UNL A   1      45.884  33.544  30.554  1.00  0.00     0.023 H 
ENDBRANCH  36  39
ENDBRANCH  33  36
ENDBRANCH  29  32
ENDBRANCH  26  29
ENDBRANCH  22  25
ENDBRANCH  19  22
ENDBRANCH  15  18
ENDBRANCH  12  15
ENDBRANCH   8  11
ENDBRANCH   5   8
ENDBRANCH   4   5
ENDBRANCH   1   4
BRANCH   1  43
ATOM     43  C   UNL A   1      32.817  35.883  30.435  1.00  0.00    -0.035 C 
ATOM     44  H   UNL A   1      31.762  36.007  30.311  1.00  0.00     0.028 H 
ATOM     45  H   UNL A   1      33.154  34.998  30.931  1.00  0.00     0.028 H 
BRANCH  43  46
ATOM     46  C   UNL A   1      33.407  35.749  29.049  1.00  0.00     0.027 C 
ATOM     47  H   UNL A   1      34.447  35.988  29.128  1.00  0.00     0.037 H 
ATOM     48  H   UNL A   1      32.808  36.404  28.452  1.00  0.00     0.037 H 
BRANCH  46  49
ATOM     49  C   UNL A   1      33.310  34.414  28.330  1.00  0.00     0.220 C 
ATOM     50  O   UNL A   1      32.207  34.024  27.932  1.00  0.00    -0.275 OA
ATOM     51  N   UNL A   1      34.368  33.623  28.022  1.00  0.00    -0.356 N 
ATOM     52  H   UNL A   1      34.120  32.690  27.829  1.00  0.00     0.163 HD
BRANCH  51  53
ATOM     53  C   UNL A   1      35.791  33.877  27.921  1.00  0.00     0.017 C 
ATOM     54  H   UNL A   1      35.934  34.909  27.676  1.00  0.00     0.049 H 
ATOM     55  H   UNL A   1      36.175  33.226  27.163  1.00  0.00     0.049 H 
BRANCH  53  56
ATOM     56  C   UNL A   1      36.553  33.574  29.204  1.00  0.00    -0.036 C 
ATOM     57  H   UNL A   1      35.852  33.329  29.976  1.00  0.00     0.028 H 
ATOM     58  H   UNL A   1      37.123  34.439  29.471  1.00  0.00     0.028 H 
BRANCH  56  59
ATOM     59  C   UNL A   1      37.520  32.395  29.015  1.00  0.00    -0.052 C 
ATOM     60  H   UNL A   1      37.999  32.209  29.954  1.00  0.00     0.027 H 
ATOM     61  H   UNL A   1      38.196  32.690  28.239  1.00  0.00     0.027 H 
BRANCH  59  62
ATOM     62  C   UNL A   1      36.875  31.085  28.542  1.00  0.00    -0.052 C 
ATOM     63  H   UNL A   1      37.605  30.545  27.976  1.00  0.00     0.027 H 
ATOM     64  H   UNL A   1      36.013  31.372  27.976  1.00  0.00     0.027 H 
BRANCH  62  65
ATOM     65  C   UNL A   1      36.361  30.163  29.647  1.00  0.00    -0.036 C 
ATOM     66  H   UNL A   1      36.756  29.184  29.474  1.00  0.00     0.028 H 
ATOM     67  H   UNL A   1      35.293  30.203  29.599  1.00  0.00     0.028 H 
BRANCH  65  68
ATOM     68  C   UNL A   1      36.740  30.583  31.061  1.00  0.00     0.018 C 
ATOM     69  H   UNL A   1      35.912  31.101  31.497  1.00  0.00     0.049 H 
ATOM     70  H   UNL A   1      37.607  31.204  30.989  1.00  0.00     0.049 H 
BRANCH  68  71
ATOM     71  N   UNL A   1      37.082  29.456  31.914  1.00  0.00    -0.352 N 
ATOM     72  C   UNL A   1      38.304  28.870  32.127  1.00  0.00     0.251 C 
ATOM     73  H   UNL A   1      36.330  29.056  32.408  1.00  0.00     0.163 HD
ATOM     74  O   UNL A   1      38.390  27.843  32.789  1.00  0.00    -0.269 OA
BRANCH  72  75
ATOM     75  C   UNL A   1      39.518  29.471  31.535  1.00  0.00     0.039 A 
ATOM     76  C   UNL A   1      39.740  29.318  30.164  1.00  0.00    -0.049 A 
ATOM     77  C   UNL A   1      40.440  30.163  32.323  1.00  0.00    -0.049 A 
ATOM     78  C   UNL A   1      40.874  29.884  29.581  1.00  0.00    -0.053 A 
ATOM     79  H   UNL A   1      39.067  28.789  29.585  1.00  0.00     0.063 H 
ATOM     80  C   UNL A   1      41.522  30.802  31.726  1.00  0.00    -0.053 A 
ATOM     81  H   UNL A   1      40.319  30.201  33.347  1.00  0.00     0.063 H 
ATOM     82  C   UNL A   1      41.766  30.643  30.355  1.00  0.00    -0.014 A 
ATOM     83  H   UNL A   1      41.059  29.743  28.575  1.00  0.00     0.063 H 
ATOM     84  H   UNL A   1      42.146  31.396  32.294  1.00  0.00     0.063 H 
BRANCH  82  85
ATOM     85  C   UNL A   1      42.991  31.225  29.754  1.00  0.00     0.031 A 
ATOM     86  C   UNL A   1      43.046  32.698  29.447  1.00  0.00     0.074 A 
ATOM     87  C   UNL A   1      44.035  30.428  29.459  1.00  0.00     0.049 A 
ATOM     88  N   UNL A   1      44.015  33.398  28.913  1.00  0.00    -0.248 NA
ATOM     89  C   UNL A   1      41.840  33.484  29.752  1.00  0.00    -0.034 C 
ATOM     90  C   UNL A   1      44.080  28.981  29.667  1.00  0.00    -0.036 A 
ATOM     91  N   UNL A   1      45.262  30.726  28.923  1.00  0.00    -0.354 N 
ATOM     92  C   UNL A   1      43.529  34.694  28.805  1.00  0.00     0.074 A 
ATOM     93  C   UNL A   1      42.158  34.672  29.264  1.00  0.00    -0.034 C 
ATOM     94  H   UNL A   1      40.971  33.186  30.223  1.00  0.00     0.065 H 
ATOM     95  C   UNL A   1      45.286  28.522  29.298  1.00  0.00    -0.036 A 
ATOM     96  H   UNL A   1      43.308  28.405  30.037  1.00  0.00     0.065 H 
ATOM     97  C   UNL A   1      46.086  29.634  28.795  1.00  0.00     0.049 A 
ATOM     98  H   UNL A   1      45.527  31.635  28.653  1.00  0.00     0.167 HD
ATOM     99  C   UNL A   1      44.175  35.808  28.386  1.00  0.00     0.037 A 
ATOM    100  H   UNL A   1      41.514  35.478  29.220  1.00  0.00     0.065 H 
ATOM    101  H   UNL A   1      45.598  27.540  29.360  1.00  0.00     0.065 H 
ATOM    102  C   UNL A   1      47.346  29.547  28.329  1.00  0.00     0.037 A 
ATOM    103  C   UNL A   1      45.549  35.826  27.959  1.00  0.00     0.049 A 
ATOM    104  C   UNL A   1      48.043  30.802  27.872  1.00  0.00     0.074 A 
ATOM    105  C   UNL A   1      46.320  36.908  27.575  1.00  0.00    -0.036 A 
ATOM    106  N   UNL A   1      46.357  34.702  27.855  1.00  0.00    -0.354 N 
ATOM    107  N   UNL A   1      47.601  32.035  27.848  1.00  0.00    -0.248 NA
ATOM    108  C   UNL A   1      49.422  30.650  27.390  1.00  0.00    -0.034 C 
ATOM    109  C   UNL A   1      47.576  36.432  27.183  1.00  0.00    -0.036 A 
ATOM    110  H   UNL A   1      46.021  37.896  27.578  1.00  0.00     0.065 H 
ATOM    111  C   UNL A   1      47.610  35.062  27.389  1.00  0.00     0.049 A 
ATOM    112  H   UNL A   1      46.078  33.784  28.078  1.00  0.00     0.167 HD
ATOM    113  C   UNL A   1      48.658  32.812  27.390  1.00  0.00     0.074 A 
ATOM    114  C   UNL A   1      49.767  31.909  27.159  1.00  0.00    -0.034 C 
ATOM    115  H   UNL A   1      49.978  29.789  27.264  1.00  0.00     0.065 H 
ATOM    116  H   UNL A   1      48.346  37.005  26.805  1.00  0.00     0.065 H 
ATOM    117  C   UNL A   1      48.708  34.151  27.182  1.00  0.00     0.037 A 
ATOM    118  H   UNL A   1      50.706  32.208  26.854  1.00  0.00     0.065 H 
BRANCH  99 119
ATOM    119  C   UNL A   1      43.401  37.096  28.367  1.00  0.00     0.064 A 
ATOM    120  C   UNL A   1      43.467  38.017  29.425  1.00  0.00     0.173 A 
ATOM    121  C   UNL A   1      42.600  37.427  27.263  1.00  0.00     0.173 A 
ATOM    122  F   UNL A   1      44.208  37.748  30.511  1.00  0.00    -0.203 F 
ATOM    123  C   UNL A   1      42.732  39.200  29.394  1.00  0.00     0.198 A 
ATOM    124  C   UNL A   1      41.895  38.627  27.220  1.00  0.00     0.198 A 
ATOM    125  F   UNL A   1      42.502  36.587  26.222  1.00  0.00    -0.203 F 
ATOM    126  F   UNL A   1      42.763  40.034  30.443  1.00  0.00    -0.200 F 
ATOM    127  C   UNL A   1      41.953  39.507  28.289  1.00  0.00     0.200 A 
ATOM    128  F   UNL A   1      41.155  38.930  26.145  1.00  0.00    -0.200 F 
ATOM    129  F   UNL A   1      41.251  40.649  28.259  1.00  0.00    -0.200 F 
ENDBRANCH  99 119
BRANCH 102 130
ATOM    130  C   UNL A   1      48.048  28.237  28.313  1.00  0.00     0.064 A 
ATOM    131  C   UNL A   1      48.811  27.815  29.412  1.00  0.00     0.173 A 
ATOM    132  C   UNL A   1      47.984  27.385  27.200  1.00  0.00     0.173 A 
ATOM    133  F   UNL A   1      48.919  28.600  30.493  1.00  0.00    -0.203 F 
ATOM    134  C   UNL A   1      49.506  26.608  29.385  1.00  0.00     0.198 A 
ATOM    135  C   UNL A   1      48.654  26.163  27.188  1.00  0.00     0.198 A 
ATOM    136  F   UNL A   1      47.262  27.737  26.126  1.00  0.00    -0.203 F 
ATOM    137  F   UNL A   1      50.273  26.256  30.427  1.00  0.00    -0.200 F 
ATOM    138  C   UNL A   1      49.424  25.780  28.276  1.00  0.00     0.200 A 
ATOM    139  F   UNL A   1      48.557  25.360  26.121  1.00  0.00    -0.200 F 
ATOM    140  F   UNL A   1      50.092  24.619  28.252  1.00  0.00    -0.200 F 
ENDBRANCH 102 130
BRANCH 117 141
ATOM    141  C   UNL A   1      50.022  34.730  26.738  1.00  0.00     0.064 A 
ATOM    142  C   UNL A   1      50.251  35.128  25.413  1.00  0.00     0.173 A 
ATOM    143  C   UNL A   1      51.058  34.915  27.666  1.00  0.00     0.173 A 
ATOM    144  F   UNL A   1      49.297  34.963  24.483  1.00  0.00    -0.203 F 
ATOM    145  C   UNL A   1      51.481  35.651  25.026  1.00  0.00     0.198 A 
ATOM    146  C   UNL A   1      52.274  35.474  27.284  1.00  0.00     0.198 A 
ATOM    147  F   UNL A   1      50.889  34.562  28.950  1.00  0.00    -0.203 F 
ATOM    148  F   UNL A   1      51.699  35.965  23.740  1.00  0.00    -0.200 F 
ATOM    149  C   UNL A   1      52.488  35.831  25.962  1.00  0.00     0.200 A 
ATOM    150  F   UNL A   1      53.238  35.664  28.195  1.00  0.00    -0.200 F 
ATOM    151  F   UNL A   1      53.670  36.340  25.588  1.00  0.00    -0.200 F 
ENDBRANCH 117 141
ENDBRANCH  82  85
ENDBRANCH  72  75
ENDBRANCH  68  71
ENDBRANCH  65  68
ENDBRANCH  62  65
ENDBRANCH  59  62
ENDBRANCH  56  59
ENDBRANCH  53  56
ENDBRANCH  51  53
ENDBRANCH  46  49
ENDBRANCH  43  46
ENDBRANCH   1  43
TORSDOF 27
ENDMDL
MODEL 7
REMARK VINA RESULT:      -6.1      5.796      9.400
REMARK SMILES CC/C=C/C/C=C/C/C=C/C/C=C/CCSCCCC(=O)NCCCCCCNC(=O)c1ccc(-c2c3nc(c(-c4c(F)c(F)c(F)c(F)c4F)c4ccc([nH]4)c(-c4c(F)c(F)c(F)c(F)c4F)c4nc(c(-c5c(F)c(F)c(F)c(F)c5F)c5ccc2[nH]5)C=C4)C=C3)cc1
REMARK SMILES IDX 17 1 16 4 15 5 14 8 13 11 12 12 11 15 10 18 9 19 8 22 7 25
REMARK SMILES IDX 6 26 5 29 4 32 3 33 2 36 1 39 18 43 19 46 20 49 21 50 22 51
REMARK SMILES IDX 23 53 24 56 25 59 26 62 27 65 28 68 29 71 30 72 31 74 32 75
REMARK SMILES IDX 33 76 94 77 34 78 93 80 35 82 36 85 37 86 87 87 38 88 92 89
REMARK SMILES IDX 86 90 88 91 39 92 91 93 85 95 84 97 40 99 72 102 52 103
REMARK SMILES IDX 71 104 53 105 56 106 70 107 89 108 54 109 55 111 69 113
REMARK SMILES IDX 90 114 57 117 41 119 42 120 50 121 43 122 44 123 48 124
REMARK SMILES IDX 51 125 45 126 46 127 49 128 47 129 73 130 74 131 82 132
REMARK SMILES IDX 75 133 76 134 80 135 83 136 77 137 78 138 81 139 79 140
REMARK SMILES IDX 58 141 59 142 67 143 60 144 61 145 65 146 68 147 62 148
REMARK SMILES IDX 63 149 66 150 64 151
REMARK H PARENT 17 2 17 3 15 6 15 7 14 9 14 10 12 13 13 14 11 16 11 17 9 20
REMARK H PARENT 10 21 8 23 8 24 6 27 7 28 5 30 5 31 3 34 4 35 2 37 2 38 1 40
REMARK H PARENT 1 41 1 42 18 44 18 45 19 47 19 48 22 52 23 54 23 55 24 57
REMARK H PARENT 24 58 25 60 25 61 26 63 26 64 27 66 27 67 28 69 28 70 29 73
REMARK H PARENT 33 79 94 81 34 83 93 84 92 94 86 96 88 98 91 100 85 101 53 110
REMARK H PARENT 56 112 89 115 54 116 90 118
REMARK Flexibility Score: inf
ROOT
ATOM      1  C   UNL A   1      33.417  33.111  28.025  1.00  0.00    -0.006 C 
ATOM      2  H   UNL A   1      32.842  33.023  28.923  1.00  0.00     0.038 H 
ATOM      3  H   UNL A   1      33.012  33.142  27.036  1.00  0.00     0.038 H 
ENDROOT
BRANCH   1   4
ATOM      4  S   UNL A   1      34.324  31.501  27.894  1.00  0.00    -0.162 SA
BRANCH   4   5
ATOM      5  C   UNL A   1      33.401  30.289  26.847  1.00  0.00    -0.003 C 
ATOM      6  H   UNL A   1      32.464  30.105  27.326  1.00  0.00     0.038 H 
ATOM      7  H   UNL A   1      33.348  30.755  25.884  1.00  0.00     0.038 H 
BRANCH   5   8
ATOM      8  C   UNL A   1      34.063  28.907  26.573  1.00  0.00    -0.026 C 
ATOM      9  H   UNL A   1      34.424  28.912  25.566  1.00  0.00     0.032 H 
ATOM     10  H   UNL A   1      34.827  28.805  27.316  1.00  0.00     0.032 H 
BRANCH   8  11
ATOM     11  C   UNL A   1      33.177  27.700  26.740  1.00  0.00    -0.087 C 
ATOM     12  C   UNL A   1      31.933  27.510  26.263  1.00  0.00    -0.085 C 
ATOM     13  H   UNL A   1      31.394  28.330  25.946  1.00  0.00     0.058 H 
ATOM     14  H   UNL A   1      33.574  26.921  27.288  1.00  0.00     0.057 H 
BRANCH  12  15
ATOM     15  C   UNL A   1      31.290  26.136  26.171  1.00  0.00    -0.017 C 
ATOM     16  H   UNL A   1      31.810  25.483  26.840  1.00  0.00     0.035 H 
ATOM     17  H   UNL A   1      30.260  26.275  26.419  1.00  0.00     0.035 H 
BRANCH  15  18
ATOM     18  C   UNL A   1      31.307  25.508  24.807  1.00  0.00    -0.084 C 
ATOM     19  C   UNL A   1      30.886  24.254  24.569  1.00  0.00    -0.084 C 
ATOM     20  H   UNL A   1      30.497  23.716  25.359  1.00  0.00     0.058 H 
ATOM     21  H   UNL A   1      31.656  26.067  24.013  1.00  0.00     0.058 H 
BRANCH  19  22
ATOM     22  C   UNL A   1      30.949  23.584  23.224  1.00  0.00    -0.017 C 
ATOM     23  H   UNL A   1      29.964  23.315  22.907  1.00  0.00     0.035 H 
ATOM     24  H   UNL A   1      31.371  24.249  22.500  1.00  0.00     0.035 H 
BRANCH  22  25
ATOM     25  C   UNL A   1      31.795  22.354  23.351  1.00  0.00    -0.084 C 
ATOM     26  C   UNL A   1      32.452  21.992  24.463  1.00  0.00    -0.084 C 
ATOM     27  H   UNL A   1      32.241  22.492  25.342  1.00  0.00     0.058 H 
ATOM     28  H   UNL A   1      31.879  21.741  22.525  1.00  0.00     0.058 H 
BRANCH  26  29
ATOM     29  C   UNL A   1      33.478  20.897  24.492  1.00  0.00    -0.017 C 
ATOM     30  H   UNL A   1      33.263  20.225  25.296  1.00  0.00     0.035 H 
ATOM     31  H   UNL A   1      33.459  20.358  23.568  1.00  0.00     0.035 H 
BRANCH  29  32
ATOM     32  C   UNL A   1      34.837  21.506  24.696  1.00  0.00    -0.085 C 
ATOM     33  C   UNL A   1      35.434  22.332  23.823  1.00  0.00    -0.089 C 
ATOM     34  H   UNL A   1      34.898  22.635  22.994  1.00  0.00     0.057 H 
ATOM     35  H   UNL A   1      35.344  21.273  25.564  1.00  0.00     0.058 H 
BRANCH  33  36
ATOM     36  C   UNL A   1      36.835  22.840  23.987  1.00  0.00    -0.038 C 
ATOM     37  H   UNL A   1      37.495  22.011  24.137  1.00  0.00     0.031 H 
ATOM     38  H   UNL A   1      37.113  23.380  23.107  1.00  0.00     0.031 H 
BRANCH  36  39
ATOM     39  C   UNL A   1      36.926  23.774  25.186  1.00  0.00    -0.062 C 
ATOM     40  H   UNL A   1      36.501  23.295  26.044  1.00  0.00     0.023 H 
ATOM     41  H   UNL A   1      36.388  24.675  24.977  1.00  0.00     0.023 H 
ATOM     42  H   UNL A   1      37.952  24.007  25.380  1.00  0.00     0.023 H 
ENDBRANCH  36  39
ENDBRANCH  33  36
ENDBRANCH  29  32
ENDBRANCH  26  29
ENDBRANCH  22  25
ENDBRANCH  19  22
ENDBRANCH  15  18
ENDBRANCH  12  15
ENDBRANCH   8  11
ENDBRANCH   5   8
ENDBRANCH   4   5
ENDBRANCH   1   4
BRANCH   1  43
ATOM     43  C   UNL A   1      33.992  34.524  28.076  1.00  0.00    -0.035 C 
ATOM     44  H   UNL A   1      33.229  35.180  27.715  1.00  0.00     0.028 H 
ATOM     45  H   UNL A   1      34.889  34.445  27.498  1.00  0.00     0.028 H 
BRANCH  43  46
ATOM     46  C   UNL A   1      34.475  35.098  29.389  1.00  0.00     0.027 C 
ATOM     47  H   UNL A   1      34.502  36.162  29.274  1.00  0.00     0.037 H 
ATOM     48  H   UNL A   1      35.412  34.609  29.552  1.00  0.00     0.037 H 
BRANCH  46  49
ATOM     49  C   UNL A   1      33.689  34.808  30.657  1.00  0.00     0.220 C 
ATOM     50  O   UNL A   1      32.655  35.446  30.882  1.00  0.00    -0.275 OA
ATOM     51  N   UNL A   1      33.999  33.839  31.554  1.00  0.00    -0.356 N 
ATOM     52  H   UNL A   1      33.581  33.971  32.436  1.00  0.00     0.163 HD
BRANCH  51  53
ATOM     53  C   UNL A   1      34.822  32.649  31.474  1.00  0.00     0.017 C 
ATOM     54  H   UNL A   1      35.424  32.713  30.591  1.00  0.00     0.049 H 
ATOM     55  H   UNL A   1      34.161  31.808  31.452  1.00  0.00     0.049 H 
BRANCH  53  56
ATOM     56  C   UNL A   1      35.742  32.468  32.674  1.00  0.00    -0.036 C 
ATOM     57  H   UNL A   1      35.822  31.424  32.898  1.00  0.00     0.028 H 
ATOM     58  H   UNL A   1      35.326  33.002  33.502  1.00  0.00     0.028 H 
BRANCH  56  59
ATOM     59  C   UNL A   1      37.145  33.028  32.394  1.00  0.00    -0.052 C 
ATOM     60  H   UNL A   1      37.038  34.049  32.092  1.00  0.00     0.027 H 
ATOM     61  H   UNL A   1      37.568  32.399  31.638  1.00  0.00     0.027 H 
BRANCH  59  62
ATOM     62  C   UNL A   1      38.120  32.983  33.579  1.00  0.00    -0.052 C 
ATOM     63  H   UNL A   1      38.222  33.978  33.958  1.00  0.00     0.027 H 
ATOM     64  H   UNL A   1      39.029  32.571  33.193  1.00  0.00     0.027 H 
BRANCH  62  65
ATOM     65  C   UNL A   1      37.710  32.077  34.740  1.00  0.00    -0.036 C 
ATOM     66  H   UNL A   1      36.657  31.903  34.669  1.00  0.00     0.028 H 
ATOM     67  H   UNL A   1      37.996  32.588  35.635  1.00  0.00     0.028 H 
BRANCH  65  68
ATOM     68  C   UNL A   1      38.412  30.726  34.777  1.00  0.00     0.018 C 
ATOM     69  H   UNL A   1      38.400  30.363  35.783  1.00  0.00     0.049 H 
ATOM     70  H   UNL A   1      39.408  30.872  34.416  1.00  0.00     0.049 H 
BRANCH  68  71
ATOM     71  N   UNL A   1      37.779  29.736  33.921  1.00  0.00    -0.352 N 
ATOM     72  C   UNL A   1      38.104  29.363  32.641  1.00  0.00     0.251 C 
ATOM     73  H   UNL A   1      37.008  29.267  34.315  1.00  0.00     0.163 HD
ATOM     74  O   UNL A   1      37.382  28.594  32.019  1.00  0.00    -0.269 OA
BRANCH  72  75
ATOM     75  C   UNL A   1      39.320  29.912  32.004  1.00  0.00     0.039 A 
ATOM     76  C   UNL A   1      39.301  30.161  30.630  1.00  0.00    -0.049 A 
ATOM     77  C   UNL A   1      40.476  30.162  32.748  1.00  0.00    -0.049 A 
ATOM     78  C   UNL A   1      40.434  30.687  30.008  1.00  0.00    -0.053 A 
ATOM     79  H   UNL A   1      38.453  29.958  30.077  1.00  0.00     0.063 H 
ATOM     80  C   UNL A   1      41.572  30.769  32.145  1.00  0.00    -0.053 A 
ATOM     81  H   UNL A   1      40.516  29.896  33.744  1.00  0.00     0.063 H 
ATOM     82  C   UNL A   1      41.573  31.009  30.764  1.00  0.00    -0.014 A 
ATOM     83  H   UNL A   1      40.435  30.839  28.988  1.00  0.00     0.063 H 
ATOM     84  H   UNL A   1      42.386  31.044  32.716  1.00  0.00     0.063 H 
BRANCH  82  85
ATOM     85  C   UNL A   1      42.795  31.541  30.111  1.00  0.00     0.031 A 
ATOM     86  C   UNL A   1      42.865  32.994  29.727  1.00  0.00     0.074 A 
ATOM     87  C   UNL A   1      43.821  30.714  29.839  1.00  0.00     0.049 A 
ATOM     88  N   UNL A   1      43.833  33.652  29.141  1.00  0.00    -0.248 NA
ATOM     89  C   UNL A   1      41.676  33.814  30.013  1.00  0.00    -0.034 C 
ATOM     90  C   UNL A   1      43.850  29.278  30.121  1.00  0.00    -0.036 A 
ATOM     91  N   UNL A   1      45.043  30.965  29.266  1.00  0.00    -0.354 N 
ATOM     92  C   UNL A   1      43.364  34.948  28.975  1.00  0.00     0.074 A 
ATOM     93  C   UNL A   1      42.002  34.971  29.459  1.00  0.00    -0.034 C 
ATOM     94  H   UNL A   1      40.812  33.554  30.515  1.00  0.00     0.065 H 
ATOM     95  C   UNL A   1      45.042  28.783  29.754  1.00  0.00    -0.036 A 
ATOM     96  H   UNL A   1      43.077  28.734  30.534  1.00  0.00     0.065 H 
ATOM     97  C   UNL A   1      45.848  29.856  29.180  1.00  0.00     0.049 A 
ATOM     98  H   UNL A   1      45.315  31.855  28.945  1.00  0.00     0.167 HD
ATOM     99  C   UNL A   1      44.017  36.029  28.487  1.00  0.00     0.037 A 
ATOM    100  H   UNL A   1      41.368  35.782  29.385  1.00  0.00     0.065 H 
ATOM    101  H   UNL A   1      45.341  27.801  29.861  1.00  0.00     0.065 H 
ATOM    102  C   UNL A   1      47.098  29.726  28.696  1.00  0.00     0.037 A 
ATOM    103  C   UNL A   1      45.383  36.004  28.034  1.00  0.00     0.049 A 
ATOM    104  C   UNL A   1      47.803  30.945  28.162  1.00  0.00     0.074 A 
ATOM    105  C   UNL A   1      46.162  37.053  27.581  1.00  0.00    -0.036 A 
ATOM    106  N   UNL A   1      46.173  34.864  27.974  1.00  0.00    -0.354 N 
ATOM    107  N   UNL A   1      47.379  32.182  28.082  1.00  0.00    -0.248 NA
ATOM    108  C   UNL A   1      49.171  30.748  27.663  1.00  0.00    -0.034 C 
ATOM    109  C   UNL A   1      47.403  36.538  27.192  1.00  0.00    -0.036 A 
ATOM    110  H   UNL A   1      45.878  38.044  27.538  1.00  0.00     0.065 H 
ATOM    111  C   UNL A   1      47.422  35.181  27.467  1.00  0.00     0.049 A 
ATOM    112  H   UNL A   1      45.886  33.963  28.250  1.00  0.00     0.167 HD
ATOM    113  C   UNL A   1      48.438  32.918  27.565  1.00  0.00     0.074 A 
ATOM    114  C   UNL A   1      49.529  31.987  27.362  1.00  0.00    -0.034 C 
ATOM    115  H   UNL A   1      49.712  29.873  27.572  1.00  0.00     0.065 H 
ATOM    116  H   UNL A   1      48.174  37.079  26.771  1.00  0.00     0.065 H 
ATOM    117  C   UNL A   1      48.502  34.244  27.287  1.00  0.00     0.037 A 
ATOM    118  H   UNL A   1      50.466  32.256  27.025  1.00  0.00     0.065 H 
BRANCH  99 119
ATOM    119  C   UNL A   1      43.262  37.326  28.416  1.00  0.00     0.064 A 
ATOM    120  C   UNL A   1      43.318  38.276  29.448  1.00  0.00     0.173 A 
ATOM    121  C   UNL A   1      42.488  37.635  27.286  1.00  0.00     0.173 A 
ATOM    122  F   UNL A   1      44.033  38.028  30.556  1.00  0.00    -0.203 F 
ATOM    123  C   UNL A   1      42.600  39.467  29.368  1.00  0.00     0.198 A 
ATOM    124  C   UNL A   1      41.801  38.843  27.194  1.00  0.00     0.198 A 
ATOM    125  F   UNL A   1      42.400  36.767  26.267  1.00  0.00    -0.203 F 
ATOM    126  F   UNL A   1      42.621  40.330  30.394  1.00  0.00    -0.200 F 
ATOM    127  C   UNL A   1      41.848  39.752  28.239  1.00  0.00     0.200 A 
ATOM    128  F   UNL A   1      41.087  39.124  26.096  1.00  0.00    -0.200 F 
ATOM    129  F   UNL A   1      41.163  40.902  28.162  1.00  0.00    -0.200 F 
ENDBRANCH  99 119
BRANCH 102 130
ATOM    130  C   UNL A   1      47.781  28.406  28.735  1.00  0.00     0.064 A 
ATOM    131  C   UNL A   1      48.501  28.001  29.868  1.00  0.00     0.173 A 
ATOM    132  C   UNL A   1      47.740  27.528  27.641  1.00  0.00     0.173 A 
ATOM    133  F   UNL A   1      48.585  28.812  30.933  1.00  0.00    -0.203 F 
ATOM    134  C   UNL A   1      49.179  26.784  29.894  1.00  0.00     0.198 A 
ATOM    135  C   UNL A   1      48.392  26.297  27.682  1.00  0.00     0.198 A 
ATOM    136  F   UNL A   1      47.060  27.863  26.536  1.00  0.00    -0.203 F 
ATOM    137  F   UNL A   1      49.907  26.448  30.969  1.00  0.00    -0.200 F 
ATOM    138  C   UNL A   1      49.121  25.930  28.803  1.00  0.00     0.200 A 
ATOM    139  F   UNL A   1      48.319  25.469  26.631  1.00  0.00    -0.200 F 
ATOM    140  F   UNL A   1      49.773  24.760  28.829  1.00  0.00    -0.200 F 
ENDBRANCH 102 130
BRANCH 117 141
ATOM    141  C   UNL A   1      49.816  34.779  26.791  1.00  0.00     0.064 A 
ATOM    142  C   UNL A   1      50.921  34.944  27.638  1.00  0.00     0.173 A 
ATOM    143  C   UNL A   1      49.975  35.105  25.435  1.00  0.00     0.173 A 
ATOM    144  F   UNL A   1      50.819  34.657  28.945  1.00  0.00    -0.203 F 
ATOM    145  C   UNL A   1      52.124  35.452  27.154  1.00  0.00     0.198 A 
ATOM    146  C   UNL A   1      51.190  35.577  24.947  1.00  0.00     0.198 A 
ATOM    147  F   UNL A   1      48.953  34.957  24.577  1.00  0.00    -0.203 F 
ATOM    148  F   UNL A   1      53.147  35.660  27.995  1.00  0.00    -0.200 F 
ATOM    149  C   UNL A   1      52.260  35.760  25.809  1.00  0.00     0.200 A 
ATOM    150  F   UNL A   1      51.324  35.856  23.643  1.00  0.00    -0.200 F 
ATOM    151  F   UNL A   1      53.420  36.244  25.345  1.00  0.00    -0.200 F 
ENDBRANCH 117 141
ENDBRANCH  82  85
ENDBRANCH  72  75
ENDBRANCH  68  71
ENDBRANCH  65  68
ENDBRANCH  62  65
ENDBRANCH  59  62
ENDBRANCH  56  59
ENDBRANCH  53  56
ENDBRANCH  51  53
ENDBRANCH  46  49
ENDBRANCH  43  46
ENDBRANCH   1  43
TORSDOF 27
ENDMDL
MODEL 8
REMARK VINA RESULT:      -6.0      5.079     13.159
REMARK SMILES CC/C=C/C/C=C/C/C=C/C/C=C/CCSCCCC(=O)NCCCCCCNC(=O)c1ccc(-c2c3nc(c(-c4c(F)c(F)c(F)c(F)c4F)c4ccc([nH]4)c(-c4c(F)c(F)c(F)c(F)c4F)c4nc(c(-c5c(F)c(F)c(F)c(F)c5F)c5ccc2[nH]5)C=C4)C=C3)cc1
REMARK SMILES IDX 17 1 16 4 15 5 14 8 13 11 12 12 11 15 10 18 9 19 8 22 7 25
REMARK SMILES IDX 6 26 5 29 4 32 3 33 2 36 1 39 18 43 19 46 20 49 21 50 22 51
REMARK SMILES IDX 23 53 24 56 25 59 26 62 27 65 28 68 29 71 30 72 31 74 32 75
REMARK SMILES IDX 33 76 94 77 34 78 93 80 35 82 36 85 37 86 87 87 38 88 92 89
REMARK SMILES IDX 86 90 88 91 39 92 91 93 85 95 84 97 40 99 72 102 52 103
REMARK SMILES IDX 71 104 53 105 56 106 70 107 89 108 54 109 55 111 69 113
REMARK SMILES IDX 90 114 57 117 41 119 42 120 50 121 43 122 44 123 48 124
REMARK SMILES IDX 51 125 45 126 46 127 49 128 47 129 73 130 74 131 82 132
REMARK SMILES IDX 75 133 76 134 80 135 83 136 77 137 78 138 81 139 79 140
REMARK SMILES IDX 58 141 59 142 67 143 60 144 61 145 65 146 68 147 62 148
REMARK SMILES IDX 63 149 66 150 64 151
REMARK H PARENT 17 2 17 3 15 6 15 7 14 9 14 10 12 13 13 14 11 16 11 17 9 20
REMARK H PARENT 10 21 8 23 8 24 6 27 7 28 5 30 5 31 3 34 4 35 2 37 2 38 1 40
REMARK H PARENT 1 41 1 42 18 44 18 45 19 47 19 48 22 52 23 54 23 55 24 57
REMARK H PARENT 24 58 25 60 25 61 26 63 26 64 27 66 27 67 28 69 28 70 29 73
REMARK H PARENT 33 79 94 81 34 83 93 84 92 94 86 96 88 98 91 100 85 101 53 110
REMARK H PARENT 56 112 89 115 54 116 90 118
REMARK Flexibility Score: inf
ROOT
ATOM      1  C   UNL A   1      40.531  22.416  27.836  1.00  0.00    -0.006 C 
ATOM      2  H   UNL A   1      39.469  22.456  27.712  1.00  0.00     0.038 H 
ATOM      3  H   UNL A   1      41.040  22.410  28.776  1.00  0.00     0.038 H 
ENDROOT
BRANCH   1   4
ATOM      4  S   UNL A   1      41.133  24.054  27.214  1.00  0.00    -0.162 SA
BRANCH   4   5
ATOM      5  C   UNL A   1      42.959  24.231  27.435  1.00  0.00    -0.003 C 
ATOM      6  H   UNL A   1      43.382  23.250  27.383  1.00  0.00     0.038 H 
ATOM      7  H   UNL A   1      43.258  24.908  26.661  1.00  0.00     0.038 H 
BRANCH   5   8
ATOM      8  C   UNL A   1      43.476  24.890  28.747  1.00  0.00    -0.026 C 
ATOM      9  H   UNL A   1      44.460  25.265  28.558  1.00  0.00     0.032 H 
ATOM     10  H   UNL A   1      42.756  25.645  28.990  1.00  0.00     0.032 H 
BRANCH   8  11
ATOM     11  C   UNL A   1      43.548  23.998  29.959  1.00  0.00    -0.087 C 
ATOM     12  C   UNL A   1      44.419  24.055  30.983  1.00  0.00    -0.085 C 
ATOM     13  H   UNL A   1      45.290  24.595  30.861  1.00  0.00     0.058 H 
ATOM     14  H   UNL A   1      42.840  23.249  30.009  1.00  0.00     0.057 H 
BRANCH  12  15
ATOM     15  C   UNL A   1      44.172  23.359  32.311  1.00  0.00    -0.017 C 
ATOM     16  H   UNL A   1      43.251  22.821  32.234  1.00  0.00     0.035 H 
ATOM     17  H   UNL A   1      45.023  22.734  32.478  1.00  0.00     0.035 H 
BRANCH  15  18
ATOM     18  C   UNL A   1      44.081  24.264  33.504  1.00  0.00    -0.084 C 
ATOM     19  C   UNL A   1      43.064  24.224  34.383  1.00  0.00    -0.084 C 
ATOM     20  H   UNL A   1      42.335  23.506  34.247  1.00  0.00     0.058 H 
ATOM     21  H   UNL A   1      44.836  24.951  33.659  1.00  0.00     0.058 H 
BRANCH  19  22
ATOM     22  C   UNL A   1      42.921  25.160  35.551  1.00  0.00    -0.017 C 
ATOM     23  H   UNL A   1      43.280  26.131  35.283  1.00  0.00     0.035 H 
ATOM     24  H   UNL A   1      41.893  25.242  35.835  1.00  0.00     0.035 H 
BRANCH  22  25
ATOM     25  C   UNL A   1      43.730  24.616  36.690  1.00  0.00    -0.084 C 
ATOM     26  C   UNL A   1      44.999  24.193  36.589  1.00  0.00    -0.084 C 
ATOM     27  H   UNL A   1      45.517  24.400  35.722  1.00  0.00     0.058 H 
ATOM     28  H   UNL A   1      43.279  24.564  37.616  1.00  0.00     0.058 H 
BRANCH  26  29
ATOM     29  C   UNL A   1      45.700  23.434  37.678  1.00  0.00    -0.017 C 
ATOM     30  H   UNL A   1      46.618  23.926  37.924  1.00  0.00     0.035 H 
ATOM     31  H   UNL A   1      45.079  23.392  38.549  1.00  0.00     0.035 H 
BRANCH  29  32
ATOM     32  C   UNL A   1      45.990  22.042  37.194  1.00  0.00    -0.085 C 
ATOM     33  C   UNL A   1      45.608  21.561  36.001  1.00  0.00    -0.089 C 
ATOM     34  H   UNL A   1      45.154  22.208  35.338  1.00  0.00     0.057 H 
ATOM     35  H   UNL A   1      46.518  21.414  37.821  1.00  0.00     0.058 H 
BRANCH  33  36
ATOM     36  C   UNL A   1      45.806  20.135  35.580  1.00  0.00    -0.038 C 
ATOM     37  H   UNL A   1      44.963  19.818  35.003  1.00  0.00     0.031 H 
ATOM     38  H   UNL A   1      46.700  20.067  34.996  1.00  0.00     0.031 H 
BRANCH  36  39
ATOM     39  C   UNL A   1      45.946  19.234  36.799  1.00  0.00    -0.062 C 
ATOM     40  H   UNL A   1      45.264  19.554  37.559  1.00  0.00     0.023 H 
ATOM     41  H   UNL A   1      46.947  19.291  37.171  1.00  0.00     0.023 H 
ATOM     42  H   UNL A   1      45.724  18.224  36.523  1.00  0.00     0.023 H 
ENDBRANCH  36  39
ENDBRANCH  33  36
ENDBRANCH  29  32
ENDBRANCH  26  29
ENDBRANCH  22  25
ENDBRANCH  19  22
ENDBRANCH  15  18
ENDBRANCH  12  15
ENDBRANCH   8  11
ENDBRANCH   5   8
ENDBRANCH   4   5
ENDBRANCH   1   4
BRANCH   1  43
ATOM     43  C   UNL A   1      40.919  21.018  27.362  1.00  0.00    -0.035 C 
ATOM     44  H   UNL A   1      40.336  20.816  26.489  1.00  0.00     0.028 H 
ATOM     45  H   UNL A   1      40.744  20.410  28.224  1.00  0.00     0.028 H 
BRANCH  43  46
ATOM     46  C   UNL A   1      42.357  20.711  27.008  1.00  0.00     0.027 C 
ATOM     47  H   UNL A   1      42.530  19.687  27.266  1.00  0.00     0.037 H 
ATOM     48  H   UNL A   1      42.916  21.443  27.551  1.00  0.00     0.037 H 
BRANCH  46  49
ATOM     49  C   UNL A   1      42.821  20.893  25.572  1.00  0.00     0.220 C 
ATOM     50  O   UNL A   1      42.505  21.922  24.965  1.00  0.00    -0.275 OA
ATOM     51  N   UNL A   1      43.626  20.030  24.905  1.00  0.00    -0.356 N 
ATOM     52  H   UNL A   1      43.593  20.136  23.926  1.00  0.00     0.163 HD
BRANCH  51  53
ATOM     53  C   UNL A   1      44.526  18.982  25.344  1.00  0.00     0.017 C 
ATOM     54  H   UNL A   1      44.396  18.134  24.704  1.00  0.00     0.049 H 
ATOM     55  H   UNL A   1      44.279  18.761  26.362  1.00  0.00     0.049 H 
BRANCH  53  56
ATOM     56  C   UNL A   1      45.992  19.392  25.314  1.00  0.00    -0.036 C 
ATOM     57  H   UNL A   1      46.578  18.566  24.964  1.00  0.00     0.028 H 
ATOM     58  H   UNL A   1      46.285  19.672  26.304  1.00  0.00     0.028 H 
BRANCH  56  59
ATOM     59  C   UNL A   1      46.218  20.593  24.384  1.00  0.00    -0.052 C 
ATOM     60  H   UNL A   1      45.389  20.650  23.711  1.00  0.00     0.027 H 
ATOM     61  H   UNL A   1      47.155  20.418  23.897  1.00  0.00     0.027 H 
BRANCH  59  62
ATOM     62  C   UNL A   1      46.353  21.952  25.087  1.00  0.00    -0.052 C 
ATOM     63  H   UNL A   1      47.395  22.145  25.232  1.00  0.00     0.027 H 
ATOM     64  H   UNL A   1      45.797  21.866  25.997  1.00  0.00     0.027 H 
BRANCH  62  65
ATOM     65  C   UNL A   1      45.753  23.145  24.342  1.00  0.00    -0.036 C 
ATOM     66  H   UNL A   1      44.691  23.024  24.324  1.00  0.00     0.028 H 
ATOM     67  H   UNL A   1      46.197  23.145  23.369  1.00  0.00     0.028 H 
BRANCH  65  68
ATOM     68  C   UNL A   1      46.064  24.505  24.954  1.00  0.00     0.018 C 
ATOM     69  H   UNL A   1      46.024  24.416  26.019  1.00  0.00     0.049 H 
ATOM     70  H   UNL A   1      45.339  25.197  24.583  1.00  0.00     0.049 H 
BRANCH  68  71
ATOM     71  N   UNL A   1      47.377  25.006  24.581  1.00  0.00    -0.352 N 
ATOM     72  C   UNL A   1      48.289  25.694  25.341  1.00  0.00     0.251 C 
ATOM     73  H   UNL A   1      47.649  24.828  23.652  1.00  0.00     0.163 HD
ATOM     74  O   UNL A   1      49.302  26.151  24.827  1.00  0.00    -0.269 OA
BRANCH  72  75
ATOM     75  C   UNL A   1      48.034  25.901  26.782  1.00  0.00     0.039 A 
ATOM     76  C   UNL A   1      47.476  24.855  27.520  1.00  0.00    -0.049 A 
ATOM     77  C   UNL A   1      48.324  27.120  27.400  1.00  0.00    -0.049 A 
ATOM     78  C   UNL A   1      47.234  25.024  28.884  1.00  0.00    -0.053 A 
ATOM     79  H   UNL A   1      47.244  23.960  27.059  1.00  0.00     0.063 H 
ATOM     80  C   UNL A   1      48.167  27.257  28.775  1.00  0.00    -0.053 A 
ATOM     81  H   UNL A   1      48.655  27.919  26.836  1.00  0.00     0.063 H 
ATOM     82  C   UNL A   1      47.592  26.221  29.525  1.00  0.00    -0.014 A 
ATOM     83  H   UNL A   1      46.790  24.265  29.424  1.00  0.00     0.063 H 
ATOM     84  H   UNL A   1      48.475  28.122  29.245  1.00  0.00     0.063 H 
BRANCH  82  85
ATOM     85  C   UNL A   1      47.314  26.425  30.968  1.00  0.00     0.031 A 
ATOM     86  C   UNL A   1      48.263  25.876  31.997  1.00  0.00     0.074 A 
ATOM     87  C   UNL A   1      46.197  27.075  31.348  1.00  0.00     0.049 A 
ATOM     88  N   UNL A   1      48.196  25.936  33.304  1.00  0.00    -0.248 NA
ATOM     89  C   UNL A   1      49.430  25.132  31.494  1.00  0.00    -0.034 C 
ATOM     90  C   UNL A   1      45.180  27.610  30.443  1.00  0.00    -0.036 A 
ATOM     91  N   UNL A   1      45.734  27.397  32.599  1.00  0.00    -0.354 N 
ATOM     92  C   UNL A   1      49.295  25.228  33.771  1.00  0.00     0.074 A 
ATOM     93  C   UNL A   1      49.976  24.690  32.615  1.00  0.00    -0.034 C 
ATOM     94  H   UNL A   1      49.740  24.992  30.520  1.00  0.00     0.065 H 
ATOM     95  C   UNL A   1      44.231  28.227  31.166  1.00  0.00    -0.036 A 
ATOM     96  H   UNL A   1      45.189  27.526  29.415  1.00  0.00     0.065 H 
ATOM     97  C   UNL A   1      44.554  28.100  32.583  1.00  0.00     0.049 A 
ATOM     98  H   UNL A   1      46.202  27.148  33.428  1.00  0.00     0.167 HD
ATOM     99  C   UNL A   1      49.715  25.063  35.048  1.00  0.00     0.037 A 
ATOM    100  H   UNL A   1      50.783  24.047  32.658  1.00  0.00     0.065 H 
ATOM    101  H   UNL A   1      43.406  28.713  30.780  1.00  0.00     0.065 H 
ATOM    102  C   UNL A   1      43.822  28.590  33.602  1.00  0.00     0.037 A 
ATOM    103  C   UNL A   1      49.048  25.627  36.191  1.00  0.00     0.049 A 
ATOM    104  C   UNL A   1      44.313  28.395  35.012  1.00  0.00     0.074 A 
ATOM    105  C   UNL A   1      49.422  25.576  37.522  1.00  0.00    -0.036 A 
ATOM    106  N   UNL A   1      47.861  26.345  36.136  1.00  0.00    -0.354 N 
ATOM    107  N   UNL A   1      45.395  27.791  35.439  1.00  0.00    -0.248 NA
ATOM    108  C   UNL A   1      43.483  28.964  36.082  1.00  0.00    -0.034 C 
ATOM    109  C   UNL A   1      48.431  26.212  38.278  1.00  0.00    -0.036 A 
ATOM    110  H   UNL A   1      50.282  25.145  37.893  1.00  0.00     0.065 H 
ATOM    111  C   UNL A   1      47.476  26.720  37.413  1.00  0.00     0.049 A 
ATOM    112  H   UNL A   1      47.366  26.555  35.311  1.00  0.00     0.167 HD
ATOM    113  C   UNL A   1      45.399  27.944  36.820  1.00  0.00     0.074 A 
ATOM    114  C   UNL A   1      44.216  28.708  37.156  1.00  0.00    -0.034 C 
ATOM    115  H   UNL A   1      42.569  29.440  36.015  1.00  0.00     0.065 H 
ATOM    116  H   UNL A   1      48.416  26.290  39.307  1.00  0.00     0.065 H 
ATOM    117  C   UNL A   1      46.303  27.496  37.727  1.00  0.00     0.037 A 
ATOM    118  H   UNL A   1      43.974  29.014  38.111  1.00  0.00     0.065 H 
BRANCH  99 119
ATOM    119  C   UNL A   1      50.951  24.237  35.274  1.00  0.00     0.064 A 
ATOM    120  C   UNL A   1      50.886  22.855  35.513  1.00  0.00     0.173 A 
ATOM    121  C   UNL A   1      52.221  24.833  35.227  1.00  0.00     0.173 A 
ATOM    122  F   UNL A   1      49.698  22.235  35.579  1.00  0.00    -0.203 F 
ATOM    123  C   UNL A   1      52.042  22.109  35.733  1.00  0.00     0.198 A 
ATOM    124  C   UNL A   1      53.376  24.077  35.412  1.00  0.00     0.198 A 
ATOM    125  F   UNL A   1      52.344  26.149  34.999  1.00  0.00    -0.203 F 
ATOM    126  F   UNL A   1      51.950  20.803  36.020  1.00  0.00    -0.200 F 
ATOM    127  C   UNL A   1      53.285  22.720  35.675  1.00  0.00     0.200 A 
ATOM    128  F   UNL A   1      54.578  24.666  35.340  1.00  0.00    -0.200 F 
ATOM    129  F   UNL A   1      54.397  21.999  35.881  1.00  0.00    -0.200 F 
ENDBRANCH  99 119
BRANCH 102 130
ATOM    130  C   UNL A   1      42.574  29.349  33.327  1.00  0.00     0.064 A 
ATOM    131  C   UNL A   1      41.323  28.714  33.356  1.00  0.00     0.173 A 
ATOM    132  C   UNL A   1      42.602  30.717  33.017  1.00  0.00     0.173 A 
ATOM    133  F   UNL A   1      41.244  27.404  33.630  1.00  0.00    -0.203 F 
ATOM    134  C   UNL A   1      40.154  29.410  33.057  1.00  0.00     0.198 A 
ATOM    135  C   UNL A   1      41.428  31.419  32.750  1.00  0.00     0.198 A 
ATOM    136  F   UNL A   1      43.770  31.374  32.983  1.00  0.00    -0.203 F 
ATOM    137  F   UNL A   1      38.979  28.765  33.038  1.00  0.00    -0.200 F 
ATOM    138  C   UNL A   1      40.206  30.764  32.759  1.00  0.00     0.200 A 
ATOM    139  F   UNL A   1      41.482  32.730  32.479  1.00  0.00    -0.200 F 
ATOM    140  F   UNL A   1      39.082  31.433  32.472  1.00  0.00    -0.200 F 
ENDBRANCH 102 130
BRANCH 117 141
ATOM    141  C   UNL A   1      46.079  27.872  39.165  1.00  0.00     0.064 A 
ATOM    142  C   UNL A   1      45.262  27.112  40.015  1.00  0.00     0.173 A 
ATOM    143  C   UNL A   1      46.718  28.999  39.704  1.00  0.00     0.173 A 
ATOM    144  F   UNL A   1      44.619  26.032  39.546  1.00  0.00    -0.203 F 
ATOM    145  C   UNL A   1      45.063  27.489  41.340  1.00  0.00     0.198 A 
ATOM    146  C   UNL A   1      46.546  29.351  41.039  1.00  0.00     0.198 A 
ATOM    147  F   UNL A   1      47.519  29.756  38.938  1.00  0.00    -0.203 F 
ATOM    148  F   UNL A   1      44.228  26.784  42.117  1.00  0.00    -0.200 F 
ATOM    149  C   UNL A   1      45.711  28.603  41.853  1.00  0.00     0.200 A 
ATOM    150  F   UNL A   1      47.189  30.417  41.538  1.00  0.00    -0.200 F 
ATOM    151  F   UNL A   1      45.521  28.961  43.130  1.00  0.00    -0.200 F 
ENDBRANCH 117 141
ENDBRANCH  82  85
ENDBRANCH  72  75
ENDBRANCH  68  71
ENDBRANCH  65  68
ENDBRANCH  62  65
ENDBRANCH  59  62
ENDBRANCH  56  59
ENDBRANCH  53  56
ENDBRANCH  51  53
ENDBRANCH  46  49
ENDBRANCH  43  46
ENDBRANCH   1  43
TORSDOF 27
ENDMDL
MODEL 9
REMARK VINA RESULT:      -5.9      5.301      8.921
REMARK SMILES CC/C=C/C/C=C/C/C=C/C/C=C/CCSCCCC(=O)NCCCCCCNC(=O)c1ccc(-c2c3nc(c(-c4c(F)c(F)c(F)c(F)c4F)c4ccc([nH]4)c(-c4c(F)c(F)c(F)c(F)c4F)c4nc(c(-c5c(F)c(F)c(F)c(F)c5F)c5ccc2[nH]5)C=C4)C=C3)cc1
REMARK SMILES IDX 17 1 16 4 15 5 14 8 13 11 12 12 11 15 10 18 9 19 8 22 7 25
REMARK SMILES IDX 6 26 5 29 4 32 3 33 2 36 1 39 18 43 19 46 20 49 21 50 22 51
REMARK SMILES IDX 23 53 24 56 25 59 26 62 27 65 28 68 29 71 30 72 31 74 32 75
REMARK SMILES IDX 33 76 94 77 34 78 93 80 35 82 36 85 37 86 87 87 38 88 92 89
REMARK SMILES IDX 86 90 88 91 39 92 91 93 85 95 84 97 40 99 72 102 52 103
REMARK SMILES IDX 71 104 53 105 56 106 70 107 89 108 54 109 55 111 69 113
REMARK SMILES IDX 90 114 57 117 41 119 42 120 50 121 43 122 44 123 48 124
REMARK SMILES IDX 51 125 45 126 46 127 49 128 47 129 73 130 74 131 82 132
REMARK SMILES IDX 75 133 76 134 80 135 83 136 77 137 78 138 81 139 79 140
REMARK SMILES IDX 58 141 59 142 67 143 60 144 61 145 65 146 68 147 62 148
REMARK SMILES IDX 63 149 66 150 64 151
REMARK H PARENT 17 2 17 3 15 6 15 7 14 9 14 10 12 13 13 14 11 16 11 17 9 20
REMARK H PARENT 10 21 8 23 8 24 6 27 7 28 5 30 5 31 3 34 4 35 2 37 2 38 1 40
REMARK H PARENT 1 41 1 42 18 44 18 45 19 47 19 48 22 52 23 54 23 55 24 57
REMARK H PARENT 24 58 25 60 25 61 26 63 26 64 27 66 27 67 28 69 28 70 29 73
REMARK H PARENT 33 79 94 81 34 83 93 84 92 94 86 96 88 98 91 100 85 101 53 110
REMARK H PARENT 56 112 89 115 54 116 90 118
REMARK Flexibility Score: inf
ROOT
ATOM      1  C   UNL A   1      33.344  33.287  27.763  1.00  0.00    -0.006 C 
ATOM      2  H   UNL A   1      32.551  33.355  28.478  1.00  0.00     0.038 H 
ATOM      3  H   UNL A   1      33.219  33.317  26.701  1.00  0.00     0.038 H 
ENDROOT
BRANCH   1   4
ATOM      4  S   UNL A   1      33.957  31.546  27.914  1.00  0.00    -0.162 SA
BRANCH   4   5
ATOM      5  C   UNL A   1      35.803  31.485  28.000  1.00  0.00    -0.003 C 
ATOM      6  H   UNL A   1      36.178  32.114  27.221  1.00  0.00     0.038 H 
ATOM      7  H   UNL A   1      36.034  31.793  28.999  1.00  0.00     0.038 H 
BRANCH   5   8
ATOM      8  C   UNL A   1      36.496  30.099  27.852  1.00  0.00    -0.026 C 
ATOM      9  H   UNL A   1      36.014  29.420  28.524  1.00  0.00     0.032 H 
ATOM     10  H   UNL A   1      36.397  29.840  26.818  1.00  0.00     0.032 H 
BRANCH   8  11
ATOM     11  C   UNL A   1      37.974  30.059  28.137  1.00  0.00    -0.087 C 
ATOM     12  C   UNL A   1      38.748  28.981  28.363  1.00  0.00    -0.085 C 
ATOM     13  H   UNL A   1      38.294  28.089  28.610  1.00  0.00     0.058 H 
ATOM     14  H   UNL A   1      38.453  30.972  28.162  1.00  0.00     0.057 H 
BRANCH  12  15
ATOM     15  C   UNL A   1      40.264  29.025  28.267  1.00  0.00    -0.017 C 
ATOM     16  H   UNL A   1      40.523  29.600  27.403  1.00  0.00     0.035 H 
ATOM     17  H   UNL A   1      40.605  29.452  29.186  1.00  0.00     0.035 H 
BRANCH  15  18
ATOM     18  C   UNL A   1      40.940  27.690  28.154  1.00  0.00    -0.084 C 
ATOM     19  C   UNL A   1      41.288  27.138  26.978  1.00  0.00    -0.084 C 
ATOM     20  H   UNL A   1      41.116  27.683  26.118  1.00  0.00     0.058 H 
ATOM     21  H   UNL A   1      41.149  27.170  29.020  1.00  0.00     0.058 H 
BRANCH  19  22
ATOM     22  C   UNL A   1      41.912  25.777  26.836  1.00  0.00    -0.017 C 
ATOM     23  H   UNL A   1      42.327  25.669  25.857  1.00  0.00     0.035 H 
ATOM     24  H   UNL A   1      42.694  25.653  27.555  1.00  0.00     0.035 H 
BRANCH  22  25
ATOM     25  C   UNL A   1      40.844  24.747  27.051  1.00  0.00    -0.084 C 
ATOM     26  C   UNL A   1      39.639  24.765  26.463  1.00  0.00    -0.084 C 
ATOM     27  H   UNL A   1      39.481  25.428  25.688  1.00  0.00     0.058 H 
ATOM     28  H   UNL A   1      41.050  23.971  27.698  1.00  0.00     0.058 H 
BRANCH  26  29
ATOM     29  C   UNL A   1      38.510  23.867  26.876  1.00  0.00    -0.017 C 
ATOM     30  H   UNL A   1      38.894  22.901  27.131  1.00  0.00     0.035 H 
ATOM     31  H   UNL A   1      38.010  24.281  27.727  1.00  0.00     0.035 H 
BRANCH  29  32
ATOM     32  C   UNL A   1      37.544  23.738  25.733  1.00  0.00    -0.085 C 
ATOM     33  C   UNL A   1      37.424  22.645  24.964  1.00  0.00    -0.089 C 
ATOM     34  H   UNL A   1      37.973  21.809  25.217  1.00  0.00     0.057 H 
ATOM     35  H   UNL A   1      36.931  24.543  25.526  1.00  0.00     0.058 H 
BRANCH  33  36
ATOM     36  C   UNL A   1      36.537  22.573  23.757  1.00  0.00    -0.038 C 
ATOM     37  H   UNL A   1      37.088  22.885  22.895  1.00  0.00     0.031 H 
ATOM     38  H   UNL A   1      36.199  21.566  23.635  1.00  0.00     0.031 H 
BRANCH  36  39
ATOM     39  C   UNL A   1      35.326  23.481  23.931  1.00  0.00    -0.062 C 
ATOM     40  H   UNL A   1      35.348  24.249  23.187  1.00  0.00     0.023 H 
ATOM     41  H   UNL A   1      35.352  23.925  24.904  1.00  0.00     0.023 H 
ATOM     42  H   UNL A   1      34.431  22.905  23.825  1.00  0.00     0.023 H 
ENDBRANCH  36  39
ENDBRANCH  33  36
ENDBRANCH  29  32
ENDBRANCH  26  29
ENDBRANCH  22  25
ENDBRANCH  19  22
ENDBRANCH  15  18
ENDBRANCH  12  15
ENDBRANCH   8  11
ENDBRANCH   5   8
ENDBRANCH   4   5
ENDBRANCH   1   4
BRANCH   1  43
ATOM     43  C   UNL A   1      34.125  34.588  27.933  1.00  0.00    -0.035 C 
ATOM     44  H   UNL A   1      33.478  35.379  27.619  1.00  0.00     0.028 H 
ATOM     45  H   UNL A   1      35.011  34.418  27.358  1.00  0.00     0.028 H 
BRANCH  43  46
ATOM     46  C   UNL A   1      34.662  34.977  29.292  1.00  0.00     0.027 C 
ATOM     47  H   UNL A   1      34.886  36.023  29.251  1.00  0.00     0.037 H 
ATOM     48  H   UNL A   1      35.489  34.315  29.438  1.00  0.00     0.037 H 
BRANCH  46  49
ATOM     49  C   UNL A   1      33.797  34.754  30.521  1.00  0.00     0.220 C 
ATOM     50  O   UNL A   1      32.783  35.444  30.675  1.00  0.00    -0.275 OA
ATOM     51  N   UNL A   1      34.012  33.793  31.454  1.00  0.00    -0.356 N 
ATOM     52  H   UNL A   1      33.554  33.965  32.309  1.00  0.00     0.163 HD
BRANCH  51  53
ATOM     53  C   UNL A   1      34.781  32.565  31.444  1.00  0.00     0.017 C 
ATOM     54  H   UNL A   1      35.475  32.607  30.631  1.00  0.00     0.049 H 
ATOM     55  H   UNL A   1      34.085  31.758  31.340  1.00  0.00     0.049 H 
BRANCH  53  56
ATOM     56  C   UNL A   1      35.557  32.327  32.733  1.00  0.00    -0.036 C 
ATOM     57  H   UNL A   1      35.991  31.349  32.703  1.00  0.00     0.028 H 
ATOM     58  H   UNL A   1      34.880  32.417  33.556  1.00  0.00     0.028 H 
BRANCH  56  59
ATOM     59  C   UNL A   1      36.676  33.364  32.911  1.00  0.00    -0.052 C 
ATOM     60  H   UNL A   1      36.486  34.174  32.237  1.00  0.00     0.027 H 
ATOM     61  H   UNL A   1      37.592  32.847  32.713  1.00  0.00     0.027 H 
BRANCH  59  62
ATOM     62  C   UNL A   1      36.814  33.946  34.325  1.00  0.00    -0.052 C 
ATOM     63  H   UNL A   1      35.919  34.488  34.546  1.00  0.00     0.027 H 
ATOM     64  H   UNL A   1      37.695  34.554  34.306  1.00  0.00     0.027 H 
BRANCH  62  65
ATOM     65  C   UNL A   1      37.036  32.926  35.442  1.00  0.00    -0.036 C 
ATOM     66  H   UNL A   1      36.143  32.345  35.542  1.00  0.00     0.028 H 
ATOM     67  H   UNL A   1      37.275  33.490  36.320  1.00  0.00     0.028 H 
BRANCH  65  68
ATOM     68  C   UNL A   1      38.200  31.971  35.217  1.00  0.00     0.018 C 
ATOM     69  H   UNL A   1      38.702  31.820  36.149  1.00  0.00     0.049 H 
ATOM     70  H   UNL A   1      38.841  32.414  34.485  1.00  0.00     0.049 H 
BRANCH  68  71
ATOM     71  N   UNL A   1      37.780  30.678  34.703  1.00  0.00    -0.352 N 
ATOM     72  C   UNL A   1      38.247  29.984  33.615  1.00  0.00     0.251 C 
ATOM     73  H   UNL A   1      37.056  30.237  35.206  1.00  0.00     0.163 HD
ATOM     74  O   UNL A   1      37.691  28.956  33.251  1.00  0.00    -0.269 OA
BRANCH  72  75
ATOM     75  C   UNL A   1      39.417  30.495  32.868  1.00  0.00     0.039 A 
ATOM     76  C   UNL A   1      39.221  30.993  31.578  1.00  0.00    -0.049 A 
ATOM     77  C   UNL A   1      40.698  30.468  33.425  1.00  0.00    -0.049 A 
ATOM     78  C   UNL A   1      40.308  31.488  30.857  1.00  0.00    -0.053 A 
ATOM     79  H   UNL A   1      38.276  30.995  31.160  1.00  0.00     0.063 H 
ATOM     80  C   UNL A   1      41.763  31.044  32.741  1.00  0.00    -0.053 A 
ATOM     81  H   UNL A   1      40.853  30.021  34.341  1.00  0.00     0.063 H 
ATOM     82  C   UNL A   1      41.585  31.531  31.439  1.00  0.00    -0.014 A 
ATOM     83  H   UNL A   1      40.172  31.824  29.891  1.00  0.00     0.063 H 
ATOM     84  H   UNL A   1      42.688  31.113  33.194  1.00  0.00     0.063 H 
BRANCH  82  85
ATOM     85  C   UNL A   1      42.754  32.028  30.673  1.00  0.00     0.031 A 
ATOM     86  C   UNL A   1      42.974  33.509  30.521  1.00  0.00     0.074 A 
ATOM     87  C   UNL A   1      43.595  31.151  30.093  1.00  0.00     0.049 A 
ATOM     88  N   UNL A   1      43.925  34.145  29.884  1.00  0.00    -0.248 NA
ATOM     89  C   UNL A   1      41.976  34.395  31.141  1.00  0.00    -0.034 C 
ATOM     90  C   UNL A   1      43.458  29.695  30.131  1.00  0.00    -0.036 A 
ATOM     91  N   UNL A   1      44.736  31.359  29.359  1.00  0.00    -0.354 N 
ATOM     92  C   UNL A   1      43.628  35.495  30.014  1.00  0.00     0.074 A 
ATOM     93  C   UNL A   1      42.376  35.587  30.731  1.00  0.00    -0.034 C 
ATOM     94  H   UNL A   1      41.172  34.149  31.741  1.00  0.00     0.065 H 
ATOM     95  C   UNL A   1      44.494  29.139  29.483  1.00  0.00    -0.036 A 
ATOM     96  H   UNL A   1      42.688  29.177  30.583  1.00  0.00     0.065 H 
ATOM     97  C   UNL A   1      45.348  30.198  28.955  1.00  0.00     0.049 A 
ATOM     98  H   UNL A   1      45.082  32.255  29.142  1.00  0.00     0.167 HD
ATOM     99  C   UNL A   1      44.348  36.564  29.598  1.00  0.00     0.037 A 
ATOM    100  H   UNL A   1      41.864  36.467  30.902  1.00  0.00     0.065 H 
ATOM    101  H   UNL A   1      44.660  28.126  29.377  1.00  0.00     0.065 H 
ATOM    102  C   UNL A   1      46.476  30.014  28.241  1.00  0.00     0.037 A 
ATOM    103  C   UNL A   1      45.609  36.463  28.910  1.00  0.00     0.049 A 
ATOM    104  C   UNL A   1      47.259  31.220  27.793  1.00  0.00     0.074 A 
ATOM    105  C   UNL A   1      46.452  37.480  28.500  1.00  0.00    -0.036 A 
ATOM    106  N   UNL A   1      46.205  35.270  28.528  1.00  0.00    -0.354 N 
ATOM    107  N   UNL A   1      47.011  32.491  27.989  1.00  0.00    -0.248 NA
ATOM    108  C   UNL A   1      48.489  30.959  27.033  1.00  0.00    -0.034 C 
ATOM    109  C   UNL A   1      47.530  36.904  27.818  1.00  0.00    -0.036 A 
ATOM    110  H   UNL A   1      46.311  38.488  28.668  1.00  0.00     0.065 H 
ATOM    111  C   UNL A   1      47.394  35.527  27.865  1.00  0.00     0.049 A 
ATOM    112  H   UNL A   1      45.837  34.373  28.703  1.00  0.00     0.167 HD
ATOM    113  C   UNL A   1      48.073  33.181  27.416  1.00  0.00     0.074 A 
ATOM    114  C   UNL A   1      48.972  32.183  26.875  1.00  0.00    -0.034 C 
ATOM    115  H   UNL A   1      48.876  30.060  26.708  1.00  0.00     0.065 H 
ATOM    116  H   UNL A   1      48.296  37.420  27.359  1.00  0.00     0.065 H 
ATOM    117  C   UNL A   1      48.285  34.519  27.347  1.00  0.00     0.037 A 
ATOM    118  H   UNL A   1      49.875  32.398  26.424  1.00  0.00     0.065 H 
BRANCH  99 119
ATOM    119  C   UNL A   1      43.787  37.931  29.870  1.00  0.00     0.064 A 
ATOM    120  C   UNL A   1      44.019  38.599  31.083  1.00  0.00     0.173 A 
ATOM    121  C   UNL A   1      43.026  38.593  28.894  1.00  0.00     0.173 A 
ATOM    122  F   UNL A   1      44.730  38.009  32.056  1.00  0.00    -0.203 F 
ATOM    123  C   UNL A   1      43.479  39.862  31.322  1.00  0.00     0.198 A 
ATOM    124  C   UNL A   1      42.519  39.870  29.124  1.00  0.00     0.198 A 
ATOM    125  F   UNL A   1      42.776  38.005  27.715  1.00  0.00    -0.203 F 
ATOM    126  F   UNL A   1      43.663  40.452  32.511  1.00  0.00    -0.200 F 
ATOM    127  C   UNL A   1      42.736  40.498  30.340  1.00  0.00     0.200 A 
ATOM    128  F   UNL A   1      41.814  40.491  28.167  1.00  0.00    -0.200 F 
ATOM    129  F   UNL A   1      42.223  41.715  30.569  1.00  0.00    -0.200 F 
ENDBRANCH  99 119
BRANCH 102 130
ATOM    130  C   UNL A   1      46.957  28.639  27.946  1.00  0.00     0.064 A 
ATOM    131  C   UNL A   1      46.502  27.944  26.816  1.00  0.00     0.173 A 
ATOM    132  C   UNL A   1      47.868  27.985  28.790  1.00  0.00     0.173 A 
ATOM    133  F   UNL A   1      45.617  28.518  25.988  1.00  0.00    -0.203 F 
ATOM    134  C   UNL A   1      46.916  26.639  26.557  1.00  0.00     0.198 A 
ATOM    135  C   UNL A   1      48.306  26.691  28.511  1.00  0.00     0.198 A 
ATOM    136  F   UNL A   1      48.340  28.607  29.880  1.00  0.00    -0.203 F 
ATOM    137  F   UNL A   1      46.422  25.979  25.500  1.00  0.00    -0.200 F 
ATOM    138  C   UNL A   1      47.821  26.015  27.402  1.00  0.00     0.200 A 
ATOM    139  F   UNL A   1      49.193  26.099  29.321  1.00  0.00    -0.200 F 
ATOM    140  F   UNL A   1      48.219  24.760  27.152  1.00  0.00    -0.200 F 
ENDBRANCH 102 130
BRANCH 117 141
ATOM    141  C   UNL A   1      49.569  34.980  26.717  1.00  0.00     0.064 A 
ATOM    142  C   UNL A   1      49.637  35.384  25.376  1.00  0.00     0.173 A 
ATOM    143  C   UNL A   1      50.745  35.043  27.481  1.00  0.00     0.173 A 
ATOM    144  F   UNL A   1      48.544  35.333  24.599  1.00  0.00    -0.203 F 
ATOM    145  C   UNL A   1      50.842  35.797  24.813  1.00  0.00     0.198 A 
ATOM    146  C   UNL A   1      51.939  35.492  26.925  1.00  0.00     0.198 A 
ATOM    147  F   UNL A   1      50.735  34.678  28.772  1.00  0.00    -0.203 F 
ATOM    148  F   UNL A   1      50.896  36.118  23.512  1.00  0.00    -0.200 F 
ATOM    149  C   UNL A   1      51.989  35.858  25.589  1.00  0.00     0.200 A 
ATOM    150  F   UNL A   1      53.042  35.568  27.683  1.00  0.00    -0.200 F 
ATOM    151  F   UNL A   1      53.147  36.260  25.047  1.00  0.00    -0.200 F 
ENDBRANCH 117 141
ENDBRANCH  82  85
ENDBRANCH  72  75
ENDBRANCH  68  71
ENDBRANCH  65  68
ENDBRANCH  62  65
ENDBRANCH  59  62
ENDBRANCH  56  59
ENDBRANCH  53  56
ENDBRANCH  51  53
ENDBRANCH  46  49
ENDBRANCH  43  46
ENDBRANCH   1  43
TORSDOF 27
ENDMDL
MODEL 10
REMARK VINA RESULT:      -5.9      5.278      9.131
REMARK SMILES CC/C=C/C/C=C/C/C=C/C/C=C/CCSCCCC(=O)NCCCCCCNC(=O)c1ccc(-c2c3nc(c(-c4c(F)c(F)c(F)c(F)c4F)c4ccc([nH]4)c(-c4c(F)c(F)c(F)c(F)c4F)c4nc(c(-c5c(F)c(F)c(F)c(F)c5F)c5ccc2[nH]5)C=C4)C=C3)cc1
REMARK SMILES IDX 17 1 16 4 15 5 14 8 13 11 12 12 11 15 10 18 9 19 8 22 7 25
REMARK SMILES IDX 6 26 5 29 4 32 3 33 2 36 1 39 18 43 19 46 20 49 21 50 22 51
REMARK SMILES IDX 23 53 24 56 25 59 26 62 27 65 28 68 29 71 30 72 31 74 32 75
REMARK SMILES IDX 33 76 94 77 34 78 93 80 35 82 36 85 37 86 87 87 38 88 92 89
REMARK SMILES IDX 86 90 88 91 39 92 91 93 85 95 84 97 40 99 72 102 52 103
REMARK SMILES IDX 71 104 53 105 56 106 70 107 89 108 54 109 55 111 69 113
REMARK SMILES IDX 90 114 57 117 41 119 42 120 50 121 43 122 44 123 48 124
REMARK SMILES IDX 51 125 45 126 46 127 49 128 47 129 73 130 74 131 82 132
REMARK SMILES IDX 75 133 76 134 80 135 83 136 77 137 78 138 81 139 79 140
REMARK SMILES IDX 58 141 59 142 67 143 60 144 61 145 65 146 68 147 62 148
REMARK SMILES IDX 63 149 66 150 64 151
REMARK H PARENT 17 2 17 3 15 6 15 7 14 9 14 10 12 13 13 14 11 16 11 17 9 20
REMARK H PARENT 10 21 8 23 8 24 6 27 7 28 5 30 5 31 3 34 4 35 2 37 2 38 1 40
REMARK H PARENT 1 41 1 42 18 44 18 45 19 47 19 48 22 52 23 54 23 55 24 57
REMARK H PARENT 24 58 25 60 25 61 26 63 26 64 27 66 27 67 28 69 28 70 29 73
REMARK H PARENT 33 79 94 81 34 83 93 84 92 94 86 96 88 98 91 100 85 101 53 110
REMARK H PARENT 56 112 89 115 54 116 90 118
REMARK Flexibility Score: inf
ROOT
ATOM      1  C   UNL A   1      39.433  27.186  28.798  1.00  0.00    -0.006 C 
ATOM      2  H   UNL A   1      39.096  26.180  28.941  1.00  0.00     0.038 H 
ATOM      3  H   UNL A   1      39.147  27.820  27.986  1.00  0.00     0.038 H 
ENDROOT
BRANCH   1   4
ATOM      4  S   UNL A   1      41.232  27.019  28.391  1.00  0.00    -0.162 SA
BRANCH   4   5
ATOM      5  C   UNL A   1      42.221  28.401  29.120  1.00  0.00    -0.003 C 
ATOM      6  H   UNL A   1      41.725  28.708  30.016  1.00  0.00     0.038 H 
ATOM      7  H   UNL A   1      43.201  27.989  29.248  1.00  0.00     0.038 H 
BRANCH   5   8
ATOM      8  C   UNL A   1      42.446  29.675  28.254  1.00  0.00    -0.026 C 
ATOM      9  H   UNL A   1      41.568  29.826  27.663  1.00  0.00     0.032 H 
ATOM     10  H   UNL A   1      42.650  30.461  28.951  1.00  0.00     0.032 H 
BRANCH   8  11
ATOM     11  C   UNL A   1      43.629  29.647  27.322  1.00  0.00    -0.087 C 
ATOM     12  C   UNL A   1      44.724  30.430  27.345  1.00  0.00    -0.085 C 
ATOM     13  H   UNL A   1      44.693  31.307  27.887  1.00  0.00     0.058 H 
ATOM     14  H   UNL A   1      43.596  28.939  26.573  1.00  0.00     0.057 H 
BRANCH  12  15
ATOM     15  C   UNL A   1      46.003  30.074  26.605  1.00  0.00    -0.017 C 
ATOM     16  H   UNL A   1      46.104  30.748  25.781  1.00  0.00     0.035 H 
ATOM     17  H   UNL A   1      46.790  30.153  27.324  1.00  0.00     0.035 H 
BRANCH  15  18
ATOM     18  C   UNL A   1      46.068  28.674  26.069  1.00  0.00    -0.084 C 
ATOM     19  C   UNL A   1      47.220  28.063  25.745  1.00  0.00    -0.084 C 
ATOM     20  H   UNL A   1      48.102  28.572  25.913  1.00  0.00     0.058 H 
ATOM     21  H   UNL A   1      45.185  28.154  25.945  1.00  0.00     0.058 H 
BRANCH  19  22
ATOM     22  C   UNL A   1      47.305  26.683  25.151  1.00  0.00    -0.017 C 
ATOM     23  H   UNL A   1      46.455  26.505  24.526  1.00  0.00     0.035 H 
ATOM     24  H   UNL A   1      48.191  26.591  24.557  1.00  0.00     0.035 H 
BRANCH  22  25
ATOM     25  C   UNL A   1      47.329  25.690  26.272  1.00  0.00    -0.084 C 
ATOM     26  C   UNL A   1      46.258  25.018  26.719  1.00  0.00    -0.084 C 
ATOM     27  H   UNL A   1      45.390  25.053  26.160  1.00  0.00     0.058 H 
ATOM     28  H   UNL A   1      48.234  25.510  26.735  1.00  0.00     0.058 H 
BRANCH  26  29
ATOM     29  C   UNL A   1      46.259  24.220  27.989  1.00  0.00    -0.017 C 
ATOM     30  H   UNL A   1      47.050  23.499  27.959  1.00  0.00     0.035 H 
ATOM     31  H   UNL A   1      46.408  24.870  28.826  1.00  0.00     0.035 H 
BRANCH  29  32
ATOM     32  C   UNL A   1      44.941  23.513  28.123  1.00  0.00    -0.085 C 
ATOM     33  C   UNL A   1      43.756  24.134  28.232  1.00  0.00    -0.089 C 
ATOM     34  H   UNL A   1      43.736  25.162  28.139  1.00  0.00     0.057 H 
ATOM     35  H   UNL A   1      44.946  22.480  28.133  1.00  0.00     0.058 H 
BRANCH  33  36
ATOM     36  C   UNL A   1      42.462  23.418  28.479  1.00  0.00    -0.038 C 
ATOM     37  H   UNL A   1      42.258  23.412  29.529  1.00  0.00     0.031 H 
ATOM     38  H   UNL A   1      41.681  23.923  27.953  1.00  0.00     0.031 H 
BRANCH  36  39
ATOM     39  C   UNL A   1      42.545  21.982  27.978  1.00  0.00    -0.062 C 
ATOM     40  H   UNL A   1      43.557  21.641  28.040  1.00  0.00     0.023 H 
ATOM     41  H   UNL A   1      42.216  21.940  26.961  1.00  0.00     0.023 H 
ATOM     42  H   UNL A   1      41.921  21.358  28.582  1.00  0.00     0.023 H 
ENDBRANCH  36  39
ENDBRANCH  33  36
ENDBRANCH  29  32
ENDBRANCH  26  29
ENDBRANCH  22  25
ENDBRANCH  19  22
ENDBRANCH  15  18
ENDBRANCH  12  15
ENDBRANCH   8  11
ENDBRANCH   5   8
ENDBRANCH   4   5
ENDBRANCH   1   4
BRANCH   1  43
ATOM     43  C   UNL A   1      38.785  27.971  29.935  1.00  0.00    -0.035 C 
ATOM     44  H   UNL A   1      37.868  28.366  29.553  1.00  0.00     0.028 H 
ATOM     45  H   UNL A   1      39.545  28.670  30.214  1.00  0.00     0.028 H 
BRANCH  43  46
ATOM     46  C   UNL A   1      38.453  27.281  31.239  1.00  0.00     0.027 C 
ATOM     47  H   UNL A   1      39.144  26.470  31.347  1.00  0.00     0.037 H 
ATOM     48  H   UNL A   1      37.421  27.020  31.135  1.00  0.00     0.037 H 
BRANCH  46  49
ATOM     49  C   UNL A   1      38.498  28.079  32.531  1.00  0.00     0.220 C 
ATOM     50  O   UNL A   1      37.435  28.401  33.075  1.00  0.00    -0.275 OA
ATOM     51  N   UNL A   1      39.632  28.421  33.191  1.00  0.00    -0.356 N 
ATOM     52  H   UNL A   1      39.510  29.163  33.826  1.00  0.00     0.163 HD
BRANCH  51  53
ATOM     53  C   UNL A   1      40.989  27.912  33.146  1.00  0.00     0.017 C 
ATOM     54  H   UNL A   1      41.518  28.427  32.372  1.00  0.00     0.049 H 
ATOM     55  H   UNL A   1      40.925  26.860  32.959  1.00  0.00     0.049 H 
BRANCH  53  56
ATOM     56  C   UNL A   1      41.746  28.093  34.454  1.00  0.00    -0.036 C 
ATOM     57  H   UNL A   1      41.044  28.127  35.262  1.00  0.00     0.028 H 
ATOM     58  H   UNL A   1      42.305  29.003  34.398  1.00  0.00     0.028 H 
BRANCH  56  59
ATOM     59  C   UNL A   1      42.729  26.937  34.696  1.00  0.00    -0.052 C 
ATOM     60  H   UNL A   1      43.706  27.272  34.417  1.00  0.00     0.027 H 
ATOM     61  H   UNL A   1      42.372  26.118  34.107  1.00  0.00     0.027 H 
BRANCH  59  62
ATOM     62  C   UNL A   1      42.797  26.423  36.141  1.00  0.00    -0.052 C 
ATOM     63  H   UNL A   1      42.068  26.955  36.714  1.00  0.00     0.027 H 
ATOM     64  H   UNL A   1      43.805  26.587  36.462  1.00  0.00     0.027 H 
BRANCH  62  65
ATOM     65  C   UNL A   1      42.540  24.927  36.325  1.00  0.00    -0.036 C 
ATOM     66  H   UNL A   1      41.658  24.813  36.919  1.00  0.00     0.028 H 
ATOM     67  H   UNL A   1      43.417  24.526  36.787  1.00  0.00     0.028 H 
BRANCH  65  68
ATOM     68  C   UNL A   1      42.343  24.146  35.032  1.00  0.00     0.018 C 
ATOM     69  H   UNL A   1      42.533  24.801  34.207  1.00  0.00     0.049 H 
ATOM     70  H   UNL A   1      41.339  23.780  35.028  1.00  0.00     0.049 H 
BRANCH  68  71
ATOM     71  N   UNL A   1      43.227  22.998  34.924  1.00  0.00    -0.352 N 
ATOM     72  C   UNL A   1      44.369  22.850  34.179  1.00  0.00     0.251 C 
ATOM     73  H   UNL A   1      42.970  22.214  35.463  1.00  0.00     0.163 HD
ATOM     74  O   UNL A   1      44.928  21.762  34.111  1.00  0.00    -0.269 OA
BRANCH  72  75
ATOM     75  C   UNL A   1      44.914  24.007  33.436  1.00  0.00     0.039 A 
ATOM     76  C   UNL A   1      44.498  24.211  32.118  1.00  0.00    -0.049 A 
ATOM     77  C   UNL A   1      45.840  24.872  34.024  1.00  0.00    -0.049 A 
ATOM     78  C   UNL A   1      44.992  25.301  31.400  1.00  0.00    -0.053 A 
ATOM     79  H   UNL A   1      43.829  23.560  31.678  1.00  0.00     0.063 H 
ATOM     80  C   UNL A   1      46.261  26.007  33.339  1.00  0.00    -0.053 A 
ATOM     81  H   UNL A   1      46.210  24.670  34.965  1.00  0.00     0.063 H 
ATOM     82  C   UNL A   1      45.865  26.216  32.010  1.00  0.00    -0.014 A 
ATOM     83  H   UNL A   1      44.714  25.435  30.415  1.00  0.00     0.063 H 
ATOM     84  H   UNL A   1      46.865  26.697  33.810  1.00  0.00     0.063 H 
BRANCH  82  85
ATOM     85  C   UNL A   1      46.421  27.362  31.249  1.00  0.00     0.031 A 
ATOM     86  C   UNL A   1      45.731  28.698  31.301  1.00  0.00     0.074 A 
ATOM     87  C   UNL A   1      47.521  27.192  30.493  1.00  0.00     0.049 A 
ATOM     88  N   UNL A   1      46.047  29.819  30.702  1.00  0.00    -0.248 NA
ATOM     89  C   UNL A   1      44.504  28.780  32.109  1.00  0.00    -0.034 C 
ATOM     90  C   UNL A   1      48.248  25.933  30.327  1.00  0.00    -0.036 A 
ATOM     91  N   UNL A   1      48.223  28.086  29.723  1.00  0.00    -0.354 N 
ATOM     92  C   UNL A   1      45.054  30.725  31.048  1.00  0.00     0.074 A 
ATOM     93  C   UNL A   1      44.089  30.010  31.852  1.00  0.00    -0.034 C 
ATOM     94  H   UNL A   1      44.077  28.064  32.718  1.00  0.00     0.065 H 
ATOM     95  C   UNL A   1      49.314  26.143  29.537  1.00  0.00    -0.036 A 
ATOM     96  H   UNL A   1      47.984  25.029  30.748  1.00  0.00     0.065 H 
ATOM     97  C   UNL A   1      49.326  27.539  29.114  1.00  0.00     0.049 A 
ATOM     98  H   UNL A   1      47.960  29.029  29.617  1.00  0.00     0.167 HD
ATOM     99  C   UNL A   1      44.967  32.042  30.745  1.00  0.00     0.037 A 
ATOM    100  H   UNL A   1      43.195  30.407  32.183  1.00  0.00     0.065 H 
ATOM    101  H   UNL A   1      50.012  25.430  29.273  1.00  0.00     0.065 H 
ATOM    102  C   UNL A   1      50.243  28.107  28.308  1.00  0.00     0.037 A 
ATOM    103  C   UNL A   1      45.948  32.753  29.969  1.00  0.00     0.049 A 
ATOM    104  C   UNL A   1      50.125  29.574  27.989  1.00  0.00     0.074 A 
ATOM    105  C   UNL A   1      45.992  34.100  29.656  1.00  0.00    -0.036 A 
ATOM    106  N   UNL A   1      47.060  32.169  29.378  1.00  0.00    -0.354 N 
ATOM    107  N   UNL A   1      49.225  30.440  28.386  1.00  0.00    -0.248 NA
ATOM    108  C   UNL A   1      51.163  30.144  27.120  1.00  0.00    -0.034 C 
ATOM    109  C   UNL A   1      47.098  34.320  28.828  1.00  0.00    -0.036 A 
ATOM    110  H   UNL A   1      45.325  34.818  29.979  1.00  0.00     0.065 H 
ATOM    111  C   UNL A   1      47.782  33.125  28.682  1.00  0.00     0.049 A 
ATOM    112  H   UNL A   1      47.299  31.216  29.444  1.00  0.00     0.167 HD
ATOM    113  C   UNL A   1      49.609  31.664  27.851  1.00  0.00     0.074 A 
ATOM    114  C   UNL A   1      50.832  31.427  27.111  1.00  0.00    -0.034 C 
ATOM    115  H   UNL A   1      51.945  29.670  26.642  1.00  0.00     0.065 H 
ATOM    116  H   UNL A   1      47.359  35.221  28.399  1.00  0.00     0.065 H 
ATOM    117  C   UNL A   1      49.007  32.874  27.965  1.00  0.00     0.037 A 
ATOM    118  H   UNL A   1      51.376  32.165  26.638  1.00  0.00     0.065 H 
BRANCH  99 119
ATOM    119  C   UNL A   1      43.770  32.796  31.252  1.00  0.00     0.064 A 
ATOM    120  C   UNL A   1      43.700  33.279  32.568  1.00  0.00     0.173 A 
ATOM    121  C   UNL A   1      42.685  33.060  30.401  1.00  0.00     0.173 A 
ATOM    122  F   UNL A   1      44.702  33.046  33.429  1.00  0.00    -0.203 F 
ATOM    123  C   UNL A   1      42.575  33.965  33.023  1.00  0.00     0.198 A 
ATOM    124  C   UNL A   1      41.579  33.778  30.849  1.00  0.00     0.198 A 
ATOM    125  F   UNL A   1      42.699  32.627  29.132  1.00  0.00    -0.203 F 
ATOM    126  F   UNL A   1      42.506  34.362  34.301  1.00  0.00    -0.200 F 
ATOM    127  C   UNL A   1      41.520  34.220  32.161  1.00  0.00     0.200 A 
ATOM    128  F   UNL A   1      40.566  34.037  30.010  1.00  0.00    -0.200 F 
ATOM    129  F   UNL A   1      40.441  34.885  32.598  1.00  0.00    -0.200 F 
ENDBRANCH  99 119
BRANCH 102 130
ATOM    130  C   UNL A   1      51.377  27.302  27.784  1.00  0.00     0.064 A 
ATOM    131  C   UNL A   1      51.340  26.762  26.489  1.00  0.00     0.173 A 
ATOM    132  C   UNL A   1      52.514  27.043  28.564  1.00  0.00     0.173 A 
ATOM    133  F   UNL A   1      50.268  26.967  25.710  1.00  0.00    -0.203 F 
ATOM    134  C   UNL A   1      52.380  25.971  26.008  1.00  0.00     0.198 A 
ATOM    135  C   UNL A   1      53.568  26.277  28.069  1.00  0.00     0.198 A 
ATOM    136  F   UNL A   1      52.604  27.540  29.806  1.00  0.00    -0.203 F 
ATOM    137  F   UNL A   1      52.292  25.422  24.788  1.00  0.00    -0.200 F 
ATOM    138  C   UNL A   1      53.496  25.732  26.796  1.00  0.00     0.200 A 
ATOM    139  F   UNL A   1      54.651  26.064  28.828  1.00  0.00    -0.200 F 
ATOM    140  F   UNL A   1      54.497  24.972  26.332  1.00  0.00    -0.200 F 
ENDBRANCH 102 130
BRANCH 117 141
ATOM    141  C   UNL A   1      49.694  34.047  27.324  1.00  0.00     0.064 A 
ATOM    142  C   UNL A   1      50.788  34.687  27.924  1.00  0.00     0.173 A 
ATOM    143  C   UNL A   1      49.263  34.518  26.074  1.00  0.00     0.173 A 
ATOM    144  F   UNL A   1      51.233  34.283  29.124  1.00  0.00    -0.203 F 
ATOM    145  C   UNL A   1      51.401  35.779  27.314  1.00  0.00     0.198 A 
ATOM    146  C   UNL A   1      49.901  35.586  25.451  1.00  0.00     0.198 A 
ATOM    147  F   UNL A   1      48.227  33.936  25.451  1.00  0.00    -0.203 F 
ATOM    148  F   UNL A   1      52.404  36.414  27.936  1.00  0.00    -0.200 F 
ATOM    149  C   UNL A   1      50.962  36.222  26.076  1.00  0.00     0.200 A 
ATOM    150  F   UNL A   1      49.488  36.000  24.244  1.00  0.00    -0.200 F 
ATOM    151  F   UNL A   1      51.556  37.270  25.489  1.00  0.00    -0.200 F 
ENDBRANCH 117 141
ENDBRANCH  82  85
ENDBRANCH  72  75
ENDBRANCH  68  71
ENDBRANCH  65  68
ENDBRANCH  62  65
ENDBRANCH  59  62
ENDBRANCH  56  59
ENDBRANCH  53  56
ENDBRANCH  51  53
ENDBRANCH  46  49
ENDBRANCH  43  46
ENDBRANCH   1  43
TORSDOF 27
ENDMDL
