MODEL 1
REMARK VINA RESULT:     -13.6      0.000      0.000
REMARK SMILES O=C1O[C@@H](c2ccc(O)c(O)c2)[C@H](C(=O)NCCCCCCNC(=O)c2ccc(-c3c4nc(c(-c5c(F)c(F)c(F)c(F)c5F)c5ccc([nH]5)c(-c5c(F)c(F)c(F)c(F)c5F)c5nc(c(-c6c(F)c(F)c(F)c(F)c6F)c6ccc3[nH]6)C=C5)C=C4)cc2)/C1=C\c1ccc(O)c(O)c1
REMARK SMILES IDX 19 1 18 4 17 7 16 10 14 11 15 12 13 14 1 15 2 16 3 17 89 18
REMARK SMILES IDX 4 19 90 20 5 24 6 25 12 26 7 27 10 29 8 31 11 33 9 35 91 37
REMARK SMILES IDX 92 38 98 39 93 40 96 42 94 44 97 46 95 48 20 50 21 53 22 56
REMARK SMILES IDX 23 59 24 60 25 62 26 63 27 64 88 65 28 66 87 68 29 70 30 73
REMARK SMILES IDX 31 74 81 75 32 76 86 77 80 78 82 79 33 80 85 81 79 83 78 85
REMARK SMILES IDX 34 87 66 90 46 91 65 92 47 93 50 94 64 95 83 96 48 97 49 99
REMARK SMILES IDX 63 101 84 102 51 105 35 107 36 108 44 109 37 110 38 111
REMARK SMILES IDX 42 112 45 113 39 114 40 115 43 116 41 117 67 118 68 119
REMARK SMILES IDX 76 120 69 121 70 122 74 123 77 124 71 125 72 126 75 127
REMARK SMILES IDX 73 128 52 129 53 130 61 131 54 132 55 133 59 134 62 135
REMARK SMILES IDX 56 136 57 137 60 138 58 139
REMARK H PARENT 19 2 19 3 18 5 18 6 17 8 17 9 16 13 4 21 13 22 90 23 6 28
REMARK H PARENT 12 30 7 32 11 34 9 36 92 41 98 43 93 45 97 47 95 49 20 51
REMARK H PARENT 20 52 21 54 21 55 22 57 22 58 23 61 27 67 88 69 28 71 87 72
REMARK H PARENT 86 82 80 84 82 86 85 88 79 89 47 98 50 100 83 103 48 104
REMARK H PARENT 84 106
REMARK Flexibility Score: inf
ROOT
ATOM      1  C   UNL A   1      32.258  29.904  27.170  1.00  0.00    -0.052 C 
ATOM      2  H   UNL A   1      33.256  29.750  26.816  1.00  0.00     0.027 H 
ATOM      3  H   UNL A   1      32.211  30.433  28.099  1.00  0.00     0.027 H 
ENDROOT
BRANCH   1   4
ATOM      4  C   UNL A   1      31.630  28.534  27.430  1.00  0.00    -0.036 C 
ATOM      5  H   UNL A   1      31.293  28.509  28.444  1.00  0.00     0.028 H 
ATOM      6  H   UNL A   1      30.836  28.424  26.722  1.00  0.00     0.028 H 
BRANCH   4   7
ATOM      7  C   UNL A   1      32.571  27.358  27.212  1.00  0.00     0.017 C 
ATOM      8  H   UNL A   1      33.036  27.120  28.145  1.00  0.00     0.049 H 
ATOM      9  H   UNL A   1      31.982  26.549  26.833  1.00  0.00     0.049 H 
BRANCH   7  10
ATOM     10  N   UNL A   1      33.609  27.620  26.238  1.00  0.00    -0.355 N 
ATOM     11  C   UNL A   1      33.556  27.669  24.873  1.00  0.00     0.231 C 
ATOM     12  O   UNL A   1      34.571  28.063  24.299  1.00  0.00    -0.274 OA
ATOM     13  H   UNL A   1      34.499  27.791  26.621  1.00  0.00     0.163 HD
BRANCH  11  14
ATOM     14  C   UNL A   1      32.319  27.160  24.121  1.00  0.00     0.111 C 
ATOM     15  O   UNL A   1      33.377  26.102  20.875  1.00  0.00    -0.247 OA
ATOM     16  C   UNL A   1      32.875  26.643  21.845  1.00  0.00     0.335 C 
ATOM     17  O   UNL A   1      32.369  27.900  21.866  1.00  0.00    -0.453 OA
ATOM     18  C   UNL A   1      32.689  26.058  23.184  1.00  0.00     0.054 C 
ATOM     19  C   UNL A   1      31.758  28.183  23.137  1.00  0.00     0.143 C 
ATOM     20  C   UNL A   1      32.839  24.738  23.369  1.00  0.00    -0.043 C 
ATOM     21  H   UNL A   1      31.995  29.164  23.490  1.00  0.00     0.081 H 
ATOM     22  H   UNL A   1      31.635  26.897  24.900  1.00  0.00     0.050 H 
ATOM     23  H   UNL A   1      33.094  24.163  22.552  1.00  0.00     0.063 H 
BRANCH  19  24
ATOM     24  C   UNL A   1      30.229  28.215  23.035  1.00  0.00    -0.002 A 
ATOM     25  C   UNL A   1      29.428  27.227  23.656  1.00  0.00    -0.051 A 
ATOM     26  C   UNL A   1      29.571  29.281  22.401  1.00  0.00    -0.009 A 
ATOM     27  C   UNL A   1      28.032  27.310  23.670  1.00  0.00    -0.016 A 
ATOM     28  H   UNL A   1      29.888  26.425  24.113  1.00  0.00     0.063 H 
ATOM     29  C   UNL A   1      28.181  29.343  22.399  1.00  0.00     0.157 A 
ATOM     30  H   UNL A   1      30.120  30.021  21.936  1.00  0.00     0.067 H 
ATOM     31  C   UNL A   1      27.414  28.375  23.038  1.00  0.00     0.157 A 
ATOM     32  H   UNL A   1      27.469  26.586  24.146  1.00  0.00     0.066 H 
BRANCH  29  33
ATOM     33  O   UNL A   1      27.564  30.384  21.766  1.00  0.00    -0.504 OA
ATOM     34  H   UNL A   1      26.709  30.270  21.400  1.00  0.00     0.293 HD
ENDBRANCH  29  33
BRANCH  31  35
ATOM     35  O   UNL A   1      26.056  28.516  23.021  1.00  0.00    -0.504 OA
ATOM     36  H   UNL A   1      25.506  27.758  22.997  1.00  0.00     0.293 HD
ENDBRANCH  31  35
ENDBRANCH  19  24
BRANCH  20  37
ATOM     37  C   UNL A   1      32.665  24.061  24.652  1.00  0.00    -0.021 A 
ATOM     38  C   UNL A   1      33.716  23.992  25.582  1.00  0.00    -0.051 A 
ATOM     39  C   UNL A   1      31.421  23.507  24.971  1.00  0.00    -0.009 A 
ATOM     40  C   UNL A   1      33.538  23.351  26.811  1.00  0.00    -0.016 A 
ATOM     41  H   UNL A   1      34.628  24.419  25.355  1.00  0.00     0.063 H 
ATOM     42  C   UNL A   1      31.250  22.881  26.198  1.00  0.00     0.157 A 
ATOM     43  H   UNL A   1      30.638  23.564  24.302  1.00  0.00     0.067 H 
ATOM     44  C   UNL A   1      32.300  22.796  27.109  1.00  0.00     0.157 A 
ATOM     45  H   UNL A   1      34.315  23.292  27.486  1.00  0.00     0.066 H 
BRANCH  42  46
ATOM     46  O   UNL A   1      30.034  22.346  26.510  1.00  0.00    -0.504 OA
ATOM     47  H   UNL A   1      29.977  21.475  26.851  1.00  0.00     0.293 HD
ENDBRANCH  42  46
BRANCH  44  48
ATOM     48  O   UNL A   1      32.061  22.159  28.295  1.00  0.00    -0.504 OA
ATOM     49  H   UNL A   1      32.696  21.562  28.642  1.00  0.00     0.293 HD
ENDBRANCH  44  48
ENDBRANCH  20  37
ENDBRANCH  11  14
ENDBRANCH   7  10
ENDBRANCH   4   7
ENDBRANCH   1   4
BRANCH   1  50
ATOM     50  C   UNL A   1      31.522  30.775  26.146  1.00  0.00    -0.052 C 
ATOM     51  H   UNL A   1      30.545  30.364  26.005  1.00  0.00     0.027 H 
ATOM     52  H   UNL A   1      32.125  30.764  25.263  1.00  0.00     0.027 H 
BRANCH  50  53
ATOM     53  C   UNL A   1      31.363  32.248  26.531  1.00  0.00    -0.036 C 
ATOM     54  H   UNL A   1      30.488  32.341  27.139  1.00  0.00     0.028 H 
ATOM     55  H   UNL A   1      31.300  32.795  25.615  1.00  0.00     0.028 H 
BRANCH  53  56
ATOM     56  C   UNL A   1      32.540  32.835  27.301  1.00  0.00     0.018 C 
ATOM     57  H   UNL A   1      33.422  32.745  26.702  1.00  0.00     0.049 H 
ATOM     58  H   UNL A   1      32.635  32.294  28.219  1.00  0.00     0.049 H 
BRANCH  56  59
ATOM     59  N   UNL A   1      32.338  34.236  27.628  1.00  0.00    -0.352 N 
ATOM     60  C   UNL A   1      32.951  34.999  28.589  1.00  0.00     0.251 C 
ATOM     61  H   UNL A   1      31.665  34.705  27.083  1.00  0.00     0.163 HD
ATOM     62  O   UNL A   1      32.525  36.117  28.861  1.00  0.00    -0.269 OA
BRANCH  60  63
ATOM     63  C   UNL A   1      34.122  34.461  29.311  1.00  0.00     0.039 A 
ATOM     64  C   UNL A   1      33.928  33.823  30.538  1.00  0.00    -0.049 A 
ATOM     65  C   UNL A   1      35.407  34.588  28.778  1.00  0.00    -0.049 A 
ATOM     66  C   UNL A   1      35.018  33.262  31.205  1.00  0.00    -0.053 A 
ATOM     67  H   UNL A   1      32.982  33.766  30.949  1.00  0.00     0.063 H 
ATOM     68  C   UNL A   1      36.479  33.959  29.402  1.00  0.00    -0.053 A 
ATOM     69  H   UNL A   1      35.562  35.146  27.924  1.00  0.00     0.063 H 
ATOM     70  C   UNL A   1      36.298  33.297  30.627  1.00  0.00    -0.014 A 
ATOM     71  H   UNL A   1      34.883  32.818  32.126  1.00  0.00     0.063 H 
ATOM     72  H   UNL A   1      37.413  33.979  28.964  1.00  0.00     0.063 H 
BRANCH  70  73
ATOM     73  C   UNL A   1      37.465  32.666  31.292  1.00  0.00     0.031 A 
ATOM     74  C   UNL A   1      38.183  31.527  30.625  1.00  0.00     0.074 A 
ATOM     75  C   UNL A   1      37.835  33.071  32.523  1.00  0.00     0.049 A 
ATOM     76  N   UNL A   1      39.161  30.783  31.077  1.00  0.00    -0.248 NA
ATOM     77  C   UNL A   1      37.722  31.154  29.278  1.00  0.00    -0.034 C 
ATOM     78  C   UNL A   1      37.193  34.141  33.289  1.00  0.00    -0.036 A 
ATOM     79  N   UNL A   1      38.833  32.623  33.351  1.00  0.00    -0.354 N 
ATOM     80  C   UNL A   1      39.418  29.851  30.081  1.00  0.00     0.074 A 
ATOM     81  C   UNL A   1      38.456  30.081  29.026  1.00  0.00    -0.034 C 
ATOM     82  H   UNL A   1      37.010  31.611  28.685  1.00  0.00     0.065 H 
ATOM     83  C   UNL A   1      37.827  34.280  34.464  1.00  0.00    -0.036 A 
ATOM     84  H   UNL A   1      36.383  34.699  32.977  1.00  0.00     0.065 H 
ATOM     85  C   UNL A   1      38.888  33.282  34.555  1.00  0.00     0.049 A 
ATOM     86  H   UNL A   1      39.452  31.897  33.105  1.00  0.00     0.167 HD
ATOM     87  C   UNL A   1      40.387  28.905  30.038  1.00  0.00     0.037 A 
ATOM     88  H   UNL A   1      38.355  29.489  28.188  1.00  0.00     0.065 H 
ATOM     89  H   UNL A   1      37.600  34.980  35.188  1.00  0.00     0.065 H 
ATOM     90  C   UNL A   1      39.696  33.092  35.615  1.00  0.00     0.037 A 
ATOM     91  C   UNL A   1      41.355  28.694  31.082  1.00  0.00     0.049 A 
ATOM     92  C   UNL A   1      40.747  32.016  35.554  1.00  0.00     0.074 A 
ATOM     93  C   UNL A   1      42.407  27.796  31.114  1.00  0.00    -0.036 A 
ATOM     94  N   UNL A   1      41.387  29.390  32.281  1.00  0.00    -0.354 N 
ATOM     95  N   UNL A   1      41.022  31.181  34.582  1.00  0.00    -0.248 NA
ATOM     96  C   UNL A   1      41.608  31.862  36.734  1.00  0.00    -0.034 C 
ATOM     97  C   UNL A   1      43.039  27.908  32.356  1.00  0.00    -0.036 A 
ATOM     98  H   UNL A   1      42.678  27.154  30.353  1.00  0.00     0.065 H 
ATOM     99  C   UNL A   1      42.425  28.923  33.072  1.00  0.00     0.049 A 
ATOM    100  H   UNL A   1      40.764  30.111  32.535  1.00  0.00     0.167 HD
ATOM    101  C   UNL A   1      42.106  30.430  35.016  1.00  0.00     0.074 A 
ATOM    102  C   UNL A   1      42.447  30.916  36.337  1.00  0.00    -0.034 C 
ATOM    103  H   UNL A   1      41.570  32.361  37.637  1.00  0.00     0.065 H 
ATOM    104  H   UNL A   1      43.830  27.332  32.684  1.00  0.00     0.065 H 
ATOM    105  C   UNL A   1      42.762  29.429  34.379  1.00  0.00     0.037 A 
ATOM    106  H   UNL A   1      43.241  30.570  36.897  1.00  0.00     0.065 H 
BRANCH  87 107
ATOM    107  C   UNL A   1      40.446  28.024  28.823  1.00  0.00     0.064 A 
ATOM    108  C   UNL A   1      41.207  28.369  27.695  1.00  0.00     0.173 A 
ATOM    109  C   UNL A   1      39.758  26.800  28.797  1.00  0.00     0.173 A 
ATOM    110  F   UNL A   1      41.874  29.533  27.661  1.00  0.00    -0.203 F 
ATOM    111  C   UNL A   1      41.250  27.541  26.576  1.00  0.00     0.198 A 
ATOM    112  C   UNL A   1      39.834  25.957  27.691  1.00  0.00     0.198 A 
ATOM    113  F   UNL A   1      39.019  26.417  29.848  1.00  0.00    -0.203 F 
ATOM    114  F   UNL A   1      41.937  27.920  25.490  1.00  0.00    -0.200 F 
ATOM    115  C   UNL A   1      40.571  26.332  26.579  1.00  0.00     0.200 A 
ATOM    116  F   UNL A   1      39.188  24.783  27.701  1.00  0.00    -0.200 F 
ATOM    117  F   UNL A   1      40.619  25.532  25.505  1.00  0.00    -0.200 F 
ENDBRANCH  87 107
BRANCH  90 118
ATOM    118  C   UNL A   1      39.556  33.950  36.823  1.00  0.00     0.064 A 
ATOM    119  C   UNL A   1      40.198  35.194  36.902  1.00  0.00     0.173 A 
ATOM    120  C   UNL A   1      38.790  33.542  37.926  1.00  0.00     0.173 A 
ATOM    121  F   UNL A   1      40.957  35.619  35.882  1.00  0.00    -0.203 F 
ATOM    122  C   UNL A   1      40.104  35.982  38.047  1.00  0.00     0.198 A 
ATOM    123  C   UNL A   1      38.670  34.346  39.056  1.00  0.00     0.198 A 
ATOM    124  F   UNL A   1      38.149  32.363  37.899  1.00  0.00    -0.203 F 
ATOM    125  F   UNL A   1      40.774  37.141  38.116  1.00  0.00    -0.200 F 
ATOM    126  C   UNL A   1      39.336  35.561  39.121  1.00  0.00     0.200 A 
ATOM    127  F   UNL A   1      37.913  33.942  40.085  1.00  0.00    -0.200 F 
ATOM    128  F   UNL A   1      39.244  36.320  40.221  1.00  0.00    -0.200 F 
ENDBRANCH  90 118
BRANCH 105 129
ATOM    129  C   UNL A   1      43.949  28.825  35.074  1.00  0.00     0.064 A 
ATOM    130  C   UNL A   1      45.246  29.334  34.907  1.00  0.00     0.173 A 
ATOM    131  C   UNL A   1      43.776  27.749  35.958  1.00  0.00     0.173 A 
ATOM    132  F   UNL A   1      45.467  30.354  34.063  1.00  0.00    -0.203 F 
ATOM    133  C   UNL A   1      46.327  28.771  35.579  1.00  0.00     0.198 A 
ATOM    134  C   UNL A   1      44.854  27.212  36.655  1.00  0.00     0.198 A 
ATOM    135  F   UNL A   1      42.556  27.229  36.161  1.00  0.00    -0.203 F 
ATOM    136  F   UNL A   1      47.564  29.241  35.365  1.00  0.00    -0.200 F 
ATOM    137  C   UNL A   1      46.130  27.717  36.459  1.00  0.00     0.200 A 
ATOM    138  F   UNL A   1      44.657  26.205  37.518  1.00  0.00    -0.200 F 
ATOM    139  F   UNL A   1      47.170  27.185  37.114  1.00  0.00    -0.200 F 
ENDBRANCH 105 129
ENDBRANCH  70  73
ENDBRANCH  60  63
ENDBRANCH  56  59
ENDBRANCH  53  56
ENDBRANCH  50  53
ENDBRANCH   1  50
TORSDOF 19
ENDMDL
MODEL 2
REMARK VINA RESULT:     -13.6      0.309      1.666
REMARK SMILES O=C1O[C@@H](c2ccc(O)c(O)c2)[C@H](C(=O)NCCCCCCNC(=O)c2ccc(-c3c4nc(c(-c5c(F)c(F)c(F)c(F)c5F)c5ccc([nH]5)c(-c5c(F)c(F)c(F)c(F)c5F)c5nc(c(-c6c(F)c(F)c(F)c(F)c6F)c6ccc3[nH]6)C=C5)C=C4)cc2)/C1=C\c1ccc(O)c(O)c1
REMARK SMILES IDX 19 1 18 4 17 7 16 10 14 11 15 12 13 14 1 15 2 16 3 17 89 18
REMARK SMILES IDX 4 19 90 20 5 24 6 25 12 26 7 27 10 29 8 31 11 33 9 35 91 37
REMARK SMILES IDX 92 38 98 39 93 40 96 42 94 44 97 46 95 48 20 50 21 53 22 56
REMARK SMILES IDX 23 59 24 60 25 62 26 63 27 64 88 65 28 66 87 68 29 70 30 73
REMARK SMILES IDX 31 74 81 75 32 76 86 77 80 78 82 79 33 80 85 81 79 83 78 85
REMARK SMILES IDX 34 87 66 90 46 91 65 92 47 93 50 94 64 95 83 96 48 97 49 99
REMARK SMILES IDX 63 101 84 102 51 105 35 107 36 108 44 109 37 110 38 111
REMARK SMILES IDX 42 112 45 113 39 114 40 115 43 116 41 117 67 118 68 119
REMARK SMILES IDX 76 120 69 121 70 122 74 123 77 124 71 125 72 126 75 127
REMARK SMILES IDX 73 128 52 129 53 130 61 131 54 132 55 133 59 134 62 135
REMARK SMILES IDX 56 136 57 137 60 138 58 139
REMARK H PARENT 19 2 19 3 18 5 18 6 17 8 17 9 16 13 4 21 13 22 90 23 6 28
REMARK H PARENT 12 30 7 32 11 34 9 36 92 41 98 43 93 45 97 47 95 49 20 51
REMARK H PARENT 20 52 21 54 21 55 22 57 22 58 23 61 27 67 88 69 28 71 87 72
REMARK H PARENT 86 82 80 84 82 86 85 88 79 89 47 98 50 100 83 103 48 104
REMARK H PARENT 84 106
REMARK Flexibility Score: inf
ROOT
ATOM      1  C   UNL A   1      32.348  29.964  27.175  1.00  0.00    -0.052 C 
ATOM      2  H   UNL A   1      33.344  29.852  26.802  1.00  0.00     0.027 H 
ATOM      3  H   UNL A   1      32.296  30.485  28.108  1.00  0.00     0.027 H 
ENDROOT
BRANCH   1   4
ATOM      4  C   UNL A   1      31.779  28.569  27.436  1.00  0.00    -0.036 C 
ATOM      5  H   UNL A   1      31.380  28.552  28.428  1.00  0.00     0.028 H 
ATOM      6  H   UNL A   1      31.038  28.396  26.684  1.00  0.00     0.028 H 
BRANCH   4   7
ATOM      7  C   UNL A   1      32.794  27.441  27.311  1.00  0.00     0.017 C 
ATOM      8  H   UNL A   1      33.297  27.334  28.249  1.00  0.00     0.049 H 
ATOM      9  H   UNL A   1      32.253  26.560  27.037  1.00  0.00     0.049 H 
BRANCH   7  10
ATOM     10  N   UNL A   1      33.786  27.667  26.283  1.00  0.00    -0.355 N 
ATOM     11  C   UNL A   1      33.662  27.720  24.923  1.00  0.00     0.231 C 
ATOM     12  O   UNL A   1      34.659  28.078  24.295  1.00  0.00    -0.274 OA
ATOM     13  H   UNL A   1      34.701  27.806  26.618  1.00  0.00     0.163 HD
BRANCH  11  14
ATOM     14  C   UNL A   1      32.370  27.257  24.238  1.00  0.00     0.111 C 
ATOM     15  O   UNL A   1      33.201  26.245  20.912  1.00  0.00    -0.247 OA
ATOM     16  C   UNL A   1      32.772  26.776  21.922  1.00  0.00     0.335 C 
ATOM     17  O   UNL A   1      32.299  28.044  22.000  1.00  0.00    -0.453 OA
ATOM     18  C   UNL A   1      32.654  26.167  23.258  1.00  0.00     0.054 C 
ATOM     19  C   UNL A   1      31.774  28.314  23.311  1.00  0.00     0.143 C 
ATOM     20  C   UNL A   1      32.782  24.840  23.406  1.00  0.00    -0.043 C 
ATOM     21  H   UNL A   1      32.057  29.281  23.670  1.00  0.00     0.081 H 
ATOM     22  H   UNL A   1      31.728  26.992  25.053  1.00  0.00     0.050 H 
ATOM     23  H   UNL A   1      32.973  24.277  22.563  1.00  0.00     0.063 H 
BRANCH  19  24
ATOM     24  C   UNL A   1      30.243  28.383  23.305  1.00  0.00    -0.002 A 
ATOM     25  C   UNL A   1      29.559  29.517  22.807  1.00  0.00    -0.051 A 
ATOM     26  C   UNL A   1      29.470  27.281  23.704  1.00  0.00    -0.009 A 
ATOM     27  C   UNL A   1      28.165  29.545  22.686  1.00  0.00    -0.016 A 
ATOM     28  H   UNL A   1      30.103  30.346  22.523  1.00  0.00     0.063 H 
ATOM     29  C   UNL A   1      28.083  27.326  23.604  1.00  0.00     0.157 A 
ATOM     30  H   UNL A   1      29.932  26.435  24.073  1.00  0.00     0.067 H 
ATOM     31  C   UNL A   1      27.433  28.442  23.087  1.00  0.00     0.157 A 
ATOM     32  H   UNL A   1      27.690  30.378  22.303  1.00  0.00     0.066 H 
BRANCH  29  33
ATOM     33  O   UNL A   1      27.353  26.246  24.009  1.00  0.00    -0.504 OA
ATOM     34  H   UNL A   1      27.239  26.073  24.923  1.00  0.00     0.293 HD
ENDBRANCH  29  33
BRANCH  31  35
ATOM     35  O   UNL A   1      26.072  28.404  22.989  1.00  0.00    -0.504 OA
ATOM     36  H   UNL A   1      25.660  27.793  22.410  1.00  0.00     0.293 HD
ENDBRANCH  31  35
ENDBRANCH  19  24
BRANCH  20  37
ATOM     37  C   UNL A   1      32.671  24.139  24.684  1.00  0.00    -0.021 A 
ATOM     38  C   UNL A   1      33.762  24.068  25.566  1.00  0.00    -0.051 A 
ATOM     39  C   UNL A   1      31.448  23.566  25.045  1.00  0.00    -0.009 A 
ATOM     40  C   UNL A   1      33.643  23.404  26.791  1.00  0.00    -0.016 A 
ATOM     41  H   UNL A   1      34.658  24.509  25.309  1.00  0.00     0.063 H 
ATOM     42  C   UNL A   1      31.336  22.916  26.267  1.00  0.00     0.157 A 
ATOM     43  H   UNL A   1      30.637  23.625  24.411  1.00  0.00     0.067 H 
ATOM     44  C   UNL A   1      32.425  22.829  27.132  1.00  0.00     0.157 A 
ATOM     45  H   UNL A   1      34.449  23.342  27.432  1.00  0.00     0.066 H 
BRANCH  42  46
ATOM     46  O   UNL A   1      30.140  22.362  26.621  1.00  0.00    -0.504 OA
ATOM     47  H   UNL A   1      29.547  22.063  25.960  1.00  0.00     0.293 HD
ENDBRANCH  42  46
BRANCH  44  48
ATOM     48  O   UNL A   1      32.244  22.169  28.315  1.00  0.00    -0.504 OA
ATOM     49  H   UNL A   1      32.500  21.270  28.394  1.00  0.00     0.293 HD
ENDBRANCH  44  48
ENDBRANCH  20  37
ENDBRANCH  11  14
ENDBRANCH   7  10
ENDBRANCH   4   7
ENDBRANCH   1   4
BRANCH   1  50
ATOM     50  C   UNL A   1      31.559  30.812  26.170  1.00  0.00    -0.052 C 
ATOM     51  H   UNL A   1      30.577  30.396  26.086  1.00  0.00     0.027 H 
ATOM     52  H   UNL A   1      32.117  30.782  25.258  1.00  0.00     0.027 H 
BRANCH  50  53
ATOM     53  C   UNL A   1      31.416  32.292  26.530  1.00  0.00    -0.036 C 
ATOM     54  H   UNL A   1      30.534  32.407  27.124  1.00  0.00     0.028 H 
ATOM     55  H   UNL A   1      31.373  32.826  25.604  1.00  0.00     0.028 H 
BRANCH  53  56
ATOM     56  C   UNL A   1      32.590  32.875  27.307  1.00  0.00     0.018 C 
ATOM     57  H   UNL A   1      33.475  32.787  26.711  1.00  0.00     0.049 H 
ATOM     58  H   UNL A   1      32.682  32.328  28.222  1.00  0.00     0.049 H 
BRANCH  56  59
ATOM     59  N   UNL A   1      32.388  34.274  27.642  1.00  0.00    -0.352 N 
ATOM     60  C   UNL A   1      32.994  35.030  28.612  1.00  0.00     0.251 C 
ATOM     61  H   UNL A   1      31.719  34.747  27.094  1.00  0.00     0.163 HD
ATOM     62  O   UNL A   1      32.568  36.147  28.887  1.00  0.00    -0.269 OA
BRANCH  60  63
ATOM     63  C   UNL A   1      34.158  34.486  29.340  1.00  0.00     0.039 A 
ATOM     64  C   UNL A   1      33.951  33.814  30.546  1.00  0.00    -0.049 A 
ATOM     65  C   UNL A   1      35.451  34.640  28.832  1.00  0.00    -0.049 A 
ATOM     66  C   UNL A   1      35.035  33.247  31.217  1.00  0.00    -0.053 A 
ATOM     67  H   UNL A   1      32.999  33.736  30.939  1.00  0.00     0.063 H 
ATOM     68  C   UNL A   1      36.519  34.006  29.458  1.00  0.00    -0.053 A 
ATOM     69  H   UNL A   1      35.614  35.221  27.995  1.00  0.00     0.063 H 
ATOM     70  C   UNL A   1      36.325  33.311  30.662  1.00  0.00    -0.014 A 
ATOM     71  H   UNL A   1      34.890  32.778  32.124  1.00  0.00     0.063 H 
ATOM     72  H   UNL A   1      37.460  34.047  29.037  1.00  0.00     0.063 H 
BRANCH  70  73
ATOM     73  C   UNL A   1      37.487  32.676  31.331  1.00  0.00     0.031 A 
ATOM     74  C   UNL A   1      38.210  31.541  30.661  1.00  0.00     0.074 A 
ATOM     75  C   UNL A   1      37.849  33.072  32.567  1.00  0.00     0.049 A 
ATOM     76  N   UNL A   1      39.184  30.794  31.114  1.00  0.00    -0.248 NA
ATOM     77  C   UNL A   1      37.758  31.177  29.308  1.00  0.00    -0.034 C 
ATOM     78  C   UNL A   1      37.202  34.136  33.336  1.00  0.00    -0.036 A 
ATOM     79  N   UNL A   1      38.841  32.618  33.399  1.00  0.00    -0.354 N 
ATOM     80  C   UNL A   1      39.448  29.869  30.113  1.00  0.00     0.074 A 
ATOM     81  C   UNL A   1      38.494  30.107  29.053  1.00  0.00    -0.034 C 
ATOM     82  H   UNL A   1      37.050  31.638  28.713  1.00  0.00     0.065 H 
ATOM     83  C   UNL A   1      37.828  34.267  34.517  1.00  0.00    -0.036 A 
ATOM     84  H   UNL A   1      36.394  34.697  33.022  1.00  0.00     0.065 H 
ATOM     85  C   UNL A   1      38.888  33.268  34.608  1.00  0.00     0.049 A 
ATOM     86  H   UNL A   1      39.462  31.894  33.152  1.00  0.00     0.167 HD
ATOM     87  C   UNL A   1      40.418  28.923  30.070  1.00  0.00     0.037 A 
ATOM     88  H   UNL A   1      38.398  29.520  28.211  1.00  0.00     0.065 H 
ATOM     89  H   UNL A   1      37.596  34.962  35.244  1.00  0.00     0.065 H 
ATOM     90  C   UNL A   1      39.689  33.071  35.672  1.00  0.00     0.037 A 
ATOM     91  C   UNL A   1      41.379  28.705  31.119  1.00  0.00     0.049 A 
ATOM     92  C   UNL A   1      40.741  31.995  35.610  1.00  0.00     0.074 A 
ATOM     93  C   UNL A   1      42.431  27.806  31.152  1.00  0.00    -0.036 A 
ATOM     94  N   UNL A   1      41.403  29.393  32.324  1.00  0.00    -0.354 N 
ATOM     95  N   UNL A   1      41.021  31.167  34.634  1.00  0.00    -0.248 NA
ATOM     96  C   UNL A   1      41.593  31.833  36.795  1.00  0.00    -0.034 C 
ATOM     97  C   UNL A   1      43.054  27.910  32.399  1.00  0.00    -0.036 A 
ATOM     98  H   UNL A   1      42.707  27.170  30.388  1.00  0.00     0.065 H 
ATOM     99  C   UNL A   1      42.435  28.919  33.118  1.00  0.00     0.049 A 
ATOM    100  H   UNL A   1      40.778  30.111  32.578  1.00  0.00     0.167 HD
ATOM    101  C   UNL A   1      42.102  30.413  35.071  1.00  0.00     0.074 A 
ATOM    102  C   UNL A   1      42.435  30.890  36.397  1.00  0.00    -0.034 C 
ATOM    103  H   UNL A   1      41.549  32.325  37.702  1.00  0.00     0.065 H 
ATOM    104  H   UNL A   1      43.843  27.331  32.728  1.00  0.00     0.065 H 
ATOM    105  C   UNL A   1      42.763  29.416  34.431  1.00  0.00     0.037 A 
ATOM    106  H   UNL A   1      43.225  30.540  36.960  1.00  0.00     0.065 H 
BRANCH  87 107
ATOM    107  C   UNL A   1      40.485  28.051  28.849  1.00  0.00     0.064 A 
ATOM    108  C   UNL A   1      39.791  26.833  28.772  1.00  0.00     0.173 A 
ATOM    109  C   UNL A   1      41.225  28.454  27.726  1.00  0.00     0.173 A 
ATOM    110  F   UNL A   1      39.078  26.394  29.820  1.00  0.00    -0.203 F 
ATOM    111  C   UNL A   1      39.863  26.036  27.632  1.00  0.00     0.198 A 
ATOM    112  C   UNL A   1      41.265  27.672  26.574  1.00  0.00     0.198 A 
ATOM    113  F   UNL A   1      41.903  29.610  27.742  1.00  0.00    -0.203 F 
ATOM    114  F   UNL A   1      39.239  24.851  27.605  1.00  0.00    -0.200 F 
ATOM    115  C   UNL A   1      40.593  26.460  26.532  1.00  0.00     0.200 A 
ATOM    116  F   UNL A   1      41.959  28.090  25.507  1.00  0.00    -0.200 F 
ATOM    117  F   UNL A   1      40.655  25.696  25.432  1.00  0.00    -0.200 F 
ENDBRANCH  87 107
BRANCH  90 118
ATOM    118  C   UNL A   1      39.540  33.920  36.885  1.00  0.00     0.064 A 
ATOM    119  C   UNL A   1      38.770  33.491  37.976  1.00  0.00     0.173 A 
ATOM    120  C   UNL A   1      40.150  35.181  36.974  1.00  0.00     0.173 A 
ATOM    121  F   UNL A   1      38.151  32.303  37.930  1.00  0.00    -0.203 F 
ATOM    122  C   UNL A   1      38.594  34.301  39.096  1.00  0.00     0.198 A 
ATOM    123  C   UNL A   1      40.000  35.975  38.109  1.00  0.00     0.198 A 
ATOM    124  F   UNL A   1      40.902  35.636  35.961  1.00  0.00    -0.203 F 
ATOM    125  F   UNL A   1      37.808  33.888  40.100  1.00  0.00    -0.200 F 
ATOM    126  C   UNL A   1      39.213  35.539  39.164  1.00  0.00     0.200 A 
ATOM    127  F   UNL A   1      40.613  37.164  38.177  1.00  0.00    -0.200 F 
ATOM    128  F   UNL A   1      39.044  36.317  40.242  1.00  0.00    -0.200 F 
ENDBRANCH  90 118
BRANCH 105 129
ATOM    129  C   UNL A   1      43.945  28.808  35.130  1.00  0.00     0.064 A 
ATOM    130  C   UNL A   1      45.239  29.336  35.000  1.00  0.00     0.173 A 
ATOM    131  C   UNL A   1      43.770  27.706  35.981  1.00  0.00     0.173 A 
ATOM    132  F   UNL A   1      45.462  30.381  34.188  1.00  0.00    -0.203 F 
ATOM    133  C   UNL A   1      46.315  28.767  35.674  1.00  0.00     0.198 A 
ATOM    134  C   UNL A   1      44.843  27.162  36.682  1.00  0.00     0.198 A 
ATOM    135  F   UNL A   1      42.553  27.167  36.148  1.00  0.00    -0.203 F 
ATOM    136  F   UNL A   1      47.549  29.258  35.495  1.00  0.00    -0.200 F 
ATOM    137  C   UNL A   1      46.115  27.688  36.522  1.00  0.00     0.200 A 
ATOM    138  F   UNL A   1      44.644  26.130  37.514  1.00  0.00    -0.200 F 
ATOM    139  F   UNL A   1      47.151  27.150  37.180  1.00  0.00    -0.200 F 
ENDBRANCH 105 129
ENDBRANCH  70  73
ENDBRANCH  60  63
ENDBRANCH  56  59
ENDBRANCH  53  56
ENDBRANCH  50  53
ENDBRANCH   1  50
TORSDOF 19
ENDMDL
MODEL 3
REMARK VINA RESULT:     -13.4      0.484      6.987
REMARK SMILES O=C1O[C@@H](c2ccc(O)c(O)c2)[C@H](C(=O)NCCCCCCNC(=O)c2ccc(-c3c4nc(c(-c5c(F)c(F)c(F)c(F)c5F)c5ccc([nH]5)c(-c5c(F)c(F)c(F)c(F)c5F)c5nc(c(-c6c(F)c(F)c(F)c(F)c6F)c6ccc3[nH]6)C=C5)C=C4)cc2)/C1=C\c1ccc(O)c(O)c1
REMARK SMILES IDX 19 1 18 4 17 7 16 10 14 11 15 12 13 14 1 15 2 16 3 17 89 18
REMARK SMILES IDX 4 19 90 20 5 24 6 25 12 26 7 27 10 29 8 31 11 33 9 35 91 37
REMARK SMILES IDX 92 38 98 39 93 40 96 42 94 44 97 46 95 48 20 50 21 53 22 56
REMARK SMILES IDX 23 59 24 60 25 62 26 63 27 64 88 65 28 66 87 68 29 70 30 73
REMARK SMILES IDX 31 74 81 75 32 76 86 77 80 78 82 79 33 80 85 81 79 83 78 85
REMARK SMILES IDX 34 87 66 90 46 91 65 92 47 93 50 94 64 95 83 96 48 97 49 99
REMARK SMILES IDX 63 101 84 102 51 105 35 107 36 108 44 109 37 110 38 111
REMARK SMILES IDX 42 112 45 113 39 114 40 115 43 116 41 117 67 118 68 119
REMARK SMILES IDX 76 120 69 121 70 122 74 123 77 124 71 125 72 126 75 127
REMARK SMILES IDX 73 128 52 129 53 130 61 131 54 132 55 133 59 134 62 135
REMARK SMILES IDX 56 136 57 137 60 138 58 139
REMARK H PARENT 19 2 19 3 18 5 18 6 17 8 17 9 16 13 4 21 13 22 90 23 6 28
REMARK H PARENT 12 30 7 32 11 34 9 36 92 41 98 43 93 45 97 47 95 49 20 51
REMARK H PARENT 20 52 21 54 21 55 22 57 22 58 23 61 27 67 88 69 28 71 87 72
REMARK H PARENT 86 82 80 84 82 86 85 88 79 89 47 98 50 100 83 103 48 104
REMARK H PARENT 84 106
REMARK Flexibility Score: inf
ROOT
ATOM      1  C   UNL A   1      32.226  29.973  27.003  1.00  0.00    -0.052 C 
ATOM      2  H   UNL A   1      33.167  29.813  26.520  1.00  0.00     0.027 H 
ATOM      3  H   UNL A   1      32.306  30.492  27.935  1.00  0.00     0.027 H 
ENDROOT
BRANCH   1   4
ATOM      4  C   UNL A   1      31.622  28.606  27.330  1.00  0.00    -0.036 C 
ATOM      5  H   UNL A   1      31.254  28.636  28.334  1.00  0.00     0.028 H 
ATOM      6  H   UNL A   1      30.853  28.432  26.608  1.00  0.00     0.028 H 
BRANCH   4   7
ATOM      7  C   UNL A   1      32.596  27.443  27.215  1.00  0.00     0.017 C 
ATOM      8  H   UNL A   1      33.057  27.292  28.168  1.00  0.00     0.049 H 
ATOM      9  H   UNL A   1      32.033  26.591  26.897  1.00  0.00     0.049 H 
BRANCH   7  10
ATOM     10  N   UNL A   1      33.637  27.655  26.232  1.00  0.00    -0.355 N 
ATOM     11  C   UNL A   1      33.585  27.650  24.867  1.00  0.00     0.231 C 
ATOM     12  O   UNL A   1      34.605  28.010  24.278  1.00  0.00    -0.274 OA
ATOM     13  H   UNL A   1      34.529  27.832  26.609  1.00  0.00     0.163 HD
BRANCH  11  14
ATOM     14  C   UNL A   1      32.343  27.125  24.134  1.00  0.00     0.111 C 
ATOM     15  O   UNL A   1      33.367  26.063  20.879  1.00  0.00    -0.247 OA
ATOM     16  C   UNL A   1      32.873  26.603  21.853  1.00  0.00     0.335 C 
ATOM     17  O   UNL A   1      32.353  27.855  21.876  1.00  0.00    -0.453 OA
ATOM     18  C   UNL A   1      32.711  26.023  23.197  1.00  0.00     0.054 C 
ATOM     19  C   UNL A   1      31.757  28.137  23.153  1.00  0.00     0.143 C 
ATOM     20  C   UNL A   1      32.878  24.705  23.386  1.00  0.00    -0.043 C 
ATOM     21  H   UNL A   1      31.989  29.123  23.500  1.00  0.00     0.081 H 
ATOM     22  H   UNL A   1      31.673  26.858  24.924  1.00  0.00     0.050 H 
ATOM     23  H   UNL A   1      33.128  24.129  22.567  1.00  0.00     0.063 H 
BRANCH  19  24
ATOM     24  C   UNL A   1      30.227  28.152  23.073  1.00  0.00    -0.002 A 
ATOM     25  C   UNL A   1      29.446  27.149  23.693  1.00  0.00    -0.051 A 
ATOM     26  C   UNL A   1      29.547  29.218  22.461  1.00  0.00    -0.009 A 
ATOM     27  C   UNL A   1      28.049  27.215  23.728  1.00  0.00    -0.016 A 
ATOM     28  H   UNL A   1      29.921  26.346  24.135  1.00  0.00     0.063 H 
ATOM     29  C   UNL A   1      28.157  29.265  22.479  1.00  0.00     0.157 A 
ATOM     30  H   UNL A   1      30.082  29.970  21.997  1.00  0.00     0.067 H 
ATOM     31  C   UNL A   1      27.411  28.280  23.117  1.00  0.00     0.157 A 
ATOM     32  H   UNL A   1      27.502  26.479  24.203  1.00  0.00     0.066 H 
BRANCH  29  33
ATOM     33  O   UNL A   1      27.520  30.305  21.867  1.00  0.00    -0.504 OA
ATOM     34  H   UNL A   1      26.680  30.587  22.175  1.00  0.00     0.293 HD
ENDBRANCH  29  33
BRANCH  31  35
ATOM     35  O   UNL A   1      26.051  28.406  23.121  1.00  0.00    -0.504 OA
ATOM     36  H   UNL A   1      25.512  27.665  23.317  1.00  0.00     0.293 HD
ENDBRANCH  31  35
ENDBRANCH  19  24
BRANCH  20  37
ATOM     37  C   UNL A   1      32.730  24.032  24.674  1.00  0.00    -0.021 A 
ATOM     38  C   UNL A   1      33.784  24.007  25.602  1.00  0.00    -0.051 A 
ATOM     39  C   UNL A   1      31.506  23.438  24.999  1.00  0.00    -0.009 A 
ATOM     40  C   UNL A   1      33.630  23.370  26.837  1.00  0.00    -0.016 A 
ATOM     41  H   UNL A   1      34.679  24.464  25.371  1.00  0.00     0.063 H 
ATOM     42  C   UNL A   1      31.358  22.815  26.230  1.00  0.00     0.157 A 
ATOM     43  H   UNL A   1      30.721  23.462  24.331  1.00  0.00     0.067 H 
ATOM     44  C   UNL A   1      32.412  22.774  27.141  1.00  0.00     0.157 A 
ATOM     45  H   UNL A   1      34.409  23.342  27.511  1.00  0.00     0.066 H 
BRANCH  42  46
ATOM     46  O   UNL A   1      30.162  22.241  26.548  1.00  0.00    -0.504 OA
ATOM     47  H   UNL A   1      29.985  21.981  27.431  1.00  0.00     0.293 HD
ENDBRANCH  42  46
BRANCH  44  48
ATOM     48  O   UNL A   1      32.197  22.137  28.331  1.00  0.00    -0.504 OA
ATOM     49  H   UNL A   1      31.579  21.434  28.382  1.00  0.00     0.293 HD
ENDBRANCH  44  48
ENDBRANCH  20  37
ENDBRANCH  11  14
ENDBRANCH   7  10
ENDBRANCH   4   7
ENDBRANCH   1   4
BRANCH   1  50
ATOM     50  C   UNL A   1      31.371  30.861  26.093  1.00  0.00    -0.052 C 
ATOM     51  H   UNL A   1      30.373  30.476  26.098  1.00  0.00     0.027 H 
ATOM     52  H   UNL A   1      31.838  30.833  25.131  1.00  0.00     0.027 H 
BRANCH  50  53
ATOM     53  C   UNL A   1      31.309  32.338  26.488  1.00  0.00    -0.036 C 
ATOM     54  H   UNL A   1      30.476  32.472  27.147  1.00  0.00     0.028 H 
ATOM     55  H   UNL A   1      31.219  32.892  25.578  1.00  0.00     0.028 H 
BRANCH  53  56
ATOM     56  C   UNL A   1      32.556  32.863  27.188  1.00  0.00     0.018 C 
ATOM     57  H   UNL A   1      33.381  32.809  26.508  1.00  0.00     0.049 H 
ATOM     58  H   UNL A   1      32.726  32.259  28.055  1.00  0.00     0.049 H 
BRANCH  56  59
ATOM     59  N   UNL A   1      32.402  34.239  27.628  1.00  0.00    -0.352 N 
ATOM     60  C   UNL A   1      33.040  34.901  28.645  1.00  0.00     0.251 C 
ATOM     61  H   UNL A   1      31.745  34.773  27.124  1.00  0.00     0.163 HD
ATOM     62  O   UNL A   1      32.652  36.007  29.007  1.00  0.00    -0.269 OA
BRANCH  60  63
ATOM     63  C   UNL A   1      34.192  34.267  29.319  1.00  0.00     0.039 A 
ATOM     64  C   UNL A   1      33.960  33.403  30.391  1.00  0.00    -0.049 A 
ATOM     65  C   UNL A   1      35.497  34.527  28.893  1.00  0.00    -0.049 A 
ATOM     66  C   UNL A   1      35.034  32.755  31.002  1.00  0.00    -0.053 A 
ATOM     67  H   UNL A   1      32.997  33.244  30.729  1.00  0.00     0.063 H 
ATOM     68  C   UNL A   1      36.558  33.820  29.448  1.00  0.00    -0.053 A 
ATOM     69  H   UNL A   1      35.674  35.241  28.169  1.00  0.00     0.063 H 
ATOM     70  C   UNL A   1      36.340  32.934  30.514  1.00  0.00    -0.014 A 
ATOM     71  H   UNL A   1      34.870  32.141  31.814  1.00  0.00     0.063 H 
ATOM     72  H   UNL A   1      37.512  33.948  29.075  1.00  0.00     0.063 H 
BRANCH  70  73
ATOM     73  C   UNL A   1      37.495  32.220  31.114  1.00  0.00     0.031 A 
ATOM     74  C   UNL A   1      37.994  32.614  32.476  1.00  0.00     0.074 A 
ATOM     75  C   UNL A   1      38.133  31.266  30.410  1.00  0.00     0.049 A 
ATOM     76  N   UNL A   1      39.039  32.181  33.134  1.00  0.00    -0.248 NA
ATOM     77  C   UNL A   1      37.233  33.658  33.182  1.00  0.00    -0.034 C 
ATOM     78  C   UNL A   1      37.766  30.821  29.064  1.00  0.00    -0.036 A 
ATOM     79  N   UNL A   1      39.233  30.506  30.722  1.00  0.00    -0.354 N 
ATOM     80  C   UNL A   1      39.068  32.907  34.318  1.00  0.00     0.074 A 
ATOM     81  C   UNL A   1      37.973  33.851  34.263  1.00  0.00    -0.034 C 
ATOM     82  H   UNL A   1      36.352  34.120  32.905  1.00  0.00     0.065 H 
ATOM     83  C   UNL A   1      38.611  29.852  28.676  1.00  0.00    -0.036 A 
ATOM     84  H   UNL A   1      36.983  31.191  28.503  1.00  0.00     0.065 H 
ATOM     85  C   UNL A   1      39.606  29.640  29.723  1.00  0.00     0.049 A 
ATOM     86  H   UNL A   1      39.709  30.576  31.581  1.00  0.00     0.167 HD
ATOM     87  C   UNL A   1      39.914  32.779  35.368  1.00  0.00     0.037 A 
ATOM     88  H   UNL A   1      37.793  34.578  34.971  1.00  0.00     0.065 H 
ATOM     89  H   UNL A   1      38.566  29.340  27.781  1.00  0.00     0.065 H 
ATOM     90  C   UNL A   1      40.642  28.782  29.657  1.00  0.00     0.037 A 
ATOM     91  C   UNL A   1      40.989  31.823  35.426  1.00  0.00     0.049 A 
ATOM     92  C   UNL A   1      41.584  28.678  30.826  1.00  0.00     0.074 A 
ATOM     93  C   UNL A   1      41.872  31.580  36.463  1.00  0.00    -0.036 A 
ATOM     94  N   UNL A   1      41.328  30.953  34.400  1.00  0.00    -0.354 N 
ATOM     95  N   UNL A   1      41.566  29.326  31.966  1.00  0.00    -0.248 NA
ATOM     96  C   UNL A   1      42.688  27.716  30.704  1.00  0.00    -0.034 C 
ATOM     97  C   UNL A   1      42.781  30.605  36.043  1.00  0.00    -0.036 A 
ATOM     98  H   UNL A   1      41.861  32.040  37.387  1.00  0.00     0.065 H 
ATOM     99  C   UNL A   1      42.424  30.191  34.770  1.00  0.00     0.049 A 
ATOM    100  H   UNL A   1      40.859  30.887  33.535  1.00  0.00     0.167 HD
ATOM    101  C   UNL A   1      42.628  28.826  32.708  1.00  0.00     0.074 A 
ATOM    102  C   UNL A   1      43.264  27.812  31.894  1.00  0.00    -0.034 C 
ATOM    103  H   UNL A   1      42.947  27.121  29.901  1.00  0.00     0.065 H 
ATOM    104  H   UNL A   1      43.583  30.253  36.589  1.00  0.00     0.065 H 
ATOM    105  C   UNL A   1      43.037  29.173  33.953  1.00  0.00     0.037 A 
ATOM    106  H   UNL A   1      44.065  27.238  32.200  1.00  0.00     0.065 H 
BRANCH  87 107
ATOM    107  C   UNL A   1      39.713  33.698  36.539  1.00  0.00     0.064 A 
ATOM    108  C   UNL A   1      38.896  33.345  37.624  1.00  0.00     0.173 A 
ATOM    109  C   UNL A   1      40.375  34.936  36.594  1.00  0.00     0.173 A 
ATOM    110  F   UNL A   1      38.230  32.180  37.617  1.00  0.00    -0.203 F 
ATOM    111  C   UNL A   1      38.720  34.210  38.702  1.00  0.00     0.198 A 
ATOM    112  C   UNL A   1      40.226  35.781  37.691  1.00  0.00     0.198 A 
ATOM    113  F   UNL A   1      41.172  35.322  35.588  1.00  0.00    -0.203 F 
ATOM    114  F   UNL A   1      37.889  33.875  39.698  1.00  0.00    -0.200 F 
ATOM    115  C   UNL A   1      39.392  35.422  38.738  1.00  0.00     0.200 A 
ATOM    116  F   UNL A   1      40.887  36.946  37.731  1.00  0.00    -0.200 F 
ATOM    117  F   UNL A   1      39.229  36.250  39.780  1.00  0.00    -0.200 F 
ENDBRANCH  87 107
BRANCH  90 118
ATOM    118  C   UNL A   1      40.835  27.938  28.447  1.00  0.00     0.064 A 
ATOM    119  C   UNL A   1      41.597  28.397  27.363  1.00  0.00     0.173 A 
ATOM    120  C   UNL A   1      40.253  26.666  28.341  1.00  0.00     0.173 A 
ATOM    121  F   UNL A   1      42.157  29.614  27.407  1.00  0.00    -0.203 F 
ATOM    122  C   UNL A   1      41.746  27.628  26.210  1.00  0.00     0.198 A 
ATOM    123  C   UNL A   1      40.430  25.885  27.202  1.00  0.00     0.198 A 
ATOM    124  F   UNL A   1      39.519  26.177  29.352  1.00  0.00    -0.203 F 
ATOM    125  F   UNL A   1      42.434  28.115  25.168  1.00  0.00    -0.200 F 
ATOM    126  C   UNL A   1      41.168  26.371  26.132  1.00  0.00     0.200 A 
ATOM    127  F   UNL A   1      39.883  24.664  27.138  1.00  0.00    -0.200 F 
ATOM    128  F   UNL A   1      41.312  25.631  25.025  1.00  0.00    -0.200 F 
ENDBRANCH  90 118
BRANCH 105 129
ATOM    129  C   UNL A   1      44.197  28.418  34.537  1.00  0.00     0.064 A 
ATOM    130  C   UNL A   1      45.518  28.876  34.419  1.00  0.00     0.173 A 
ATOM    131  C   UNL A   1      43.975  27.239  35.267  1.00  0.00     0.173 A 
ATOM    132  F   UNL A   1      45.785  29.990  33.721  1.00  0.00    -0.203 F 
ATOM    133  C   UNL A   1      46.573  28.169  34.987  1.00  0.00     0.198 A 
ATOM    134  C   UNL A   1      45.029  26.555  35.864  1.00  0.00     0.198 A 
ATOM    135  F   UNL A   1      42.730  26.761  35.417  1.00  0.00    -0.203 F 
ATOM    136  F   UNL A   1      47.832  28.599  34.818  1.00  0.00    -0.200 F 
ATOM    137  C   UNL A   1      46.328  27.015  35.716  1.00  0.00     0.200 A 
ATOM    138  F   UNL A   1      44.787  25.450  36.583  1.00  0.00    -0.200 F 
ATOM    139  F   UNL A   1      47.345  26.343  36.273  1.00  0.00    -0.200 F 
ENDBRANCH 105 129
ENDBRANCH  70  73
ENDBRANCH  60  63
ENDBRANCH  56  59
ENDBRANCH  53  56
ENDBRANCH  50  53
ENDBRANCH   1  50
TORSDOF 19
ENDMDL
MODEL 4
REMARK VINA RESULT:     -13.2      5.352      9.886
REMARK SMILES O=C1O[C@@H](c2ccc(O)c(O)c2)[C@H](C(=O)NCCCCCCNC(=O)c2ccc(-c3c4nc(c(-c5c(F)c(F)c(F)c(F)c5F)c5ccc([nH]5)c(-c5c(F)c(F)c(F)c(F)c5F)c5nc(c(-c6c(F)c(F)c(F)c(F)c6F)c6ccc3[nH]6)C=C5)C=C4)cc2)/C1=C\c1ccc(O)c(O)c1
REMARK SMILES IDX 19 1 18 4 17 7 16 10 14 11 15 12 13 14 1 15 2 16 3 17 89 18
REMARK SMILES IDX 4 19 90 20 5 24 6 25 12 26 7 27 10 29 8 31 11 33 9 35 91 37
REMARK SMILES IDX 92 38 98 39 93 40 96 42 94 44 97 46 95 48 20 50 21 53 22 56
REMARK SMILES IDX 23 59 24 60 25 62 26 63 27 64 88 65 28 66 87 68 29 70 30 73
REMARK SMILES IDX 31 74 81 75 32 76 86 77 80 78 82 79 33 80 85 81 79 83 78 85
REMARK SMILES IDX 34 87 66 90 46 91 65 92 47 93 50 94 64 95 83 96 48 97 49 99
REMARK SMILES IDX 63 101 84 102 51 105 35 107 36 108 44 109 37 110 38 111
REMARK SMILES IDX 42 112 45 113 39 114 40 115 43 116 41 117 67 118 68 119
REMARK SMILES IDX 76 120 69 121 70 122 74 123 77 124 71 125 72 126 75 127
REMARK SMILES IDX 73 128 52 129 53 130 61 131 54 132 55 133 59 134 62 135
REMARK SMILES IDX 56 136 57 137 60 138 58 139
REMARK H PARENT 19 2 19 3 18 5 18 6 17 8 17 9 16 13 4 21 13 22 90 23 6 28
REMARK H PARENT 12 30 7 32 11 34 9 36 92 41 98 43 93 45 97 47 95 49 20 51
REMARK H PARENT 20 52 21 54 21 55 22 57 22 58 23 61 27 67 88 69 28 71 87 72
REMARK H PARENT 86 82 80 84 82 86 85 88 79 89 47 98 50 100 83 103 48 104
REMARK H PARENT 84 106
REMARK Flexibility Score: inf
ROOT
ATOM      1  C   UNL A   1      37.364  21.756  24.719  1.00  0.00    -0.052 C 
ATOM      2  H   UNL A   1      37.145  22.240  25.647  1.00  0.00     0.027 H 
ATOM      3  H   UNL A   1      38.403  21.765  24.466  1.00  0.00     0.027 H 
ENDROOT
BRANCH   1   4
ATOM      4  C   UNL A   1      36.650  22.520  23.604  1.00  0.00    -0.036 C 
ATOM      5  H   UNL A   1      37.335  22.642  22.791  1.00  0.00     0.028 H 
ATOM      6  H   UNL A   1      35.789  21.942  23.341  1.00  0.00     0.028 H 
BRANCH   4   7
ATOM      7  C   UNL A   1      36.142  23.897  24.008  1.00  0.00     0.017 C 
ATOM      8  H   UNL A   1      36.897  24.617  23.777  1.00  0.00     0.049 H 
ATOM      9  H   UNL A   1      35.235  24.069  23.467  1.00  0.00     0.049 H 
BRANCH   7  10
ATOM     10  N   UNL A   1      35.822  24.005  25.415  1.00  0.00    -0.355 N 
ATOM     11  C   UNL A   1      34.789  23.475  26.136  1.00  0.00     0.231 C 
ATOM     12  O   UNL A   1      34.848  23.610  27.359  1.00  0.00    -0.274 OA
ATOM     13  H   UNL A   1      36.453  24.549  25.940  1.00  0.00     0.163 HD
BRANCH  11  14
ATOM     14  C   UNL A   1      33.586  22.841  25.427  1.00  0.00     0.111 C 
ATOM     15  O   UNL A   1      30.762  23.131  27.598  1.00  0.00    -0.247 OA
ATOM     16  C   UNL A   1      31.688  22.770  26.892  1.00  0.00     0.335 C 
ATOM     17  O   UNL A   1      32.305  21.566  26.964  1.00  0.00    -0.453 OA
ATOM     18  C   UNL A   1      32.322  23.538  25.807  1.00  0.00     0.054 C 
ATOM     19  C   UNL A   1      33.281  21.428  25.918  1.00  0.00     0.143 C 
ATOM     20  C   UNL A   1      31.731  24.644  25.331  1.00  0.00    -0.043 C 
ATOM     21  H   UNL A   1      34.190  20.984  26.267  1.00  0.00     0.081 H 
ATOM     22  H   UNL A   1      33.847  22.886  24.389  1.00  0.00     0.050 H 
ATOM     23  H   UNL A   1      30.837  24.933  25.756  1.00  0.00     0.063 H 
BRANCH  19  24
ATOM     24  C   UNL A   1      32.814  20.450  24.833  1.00  0.00    -0.002 A 
ATOM     25  C   UNL A   1      32.511  20.892  23.524  1.00  0.00    -0.051 A 
ATOM     26  C   UNL A   1      32.767  19.069  25.080  1.00  0.00    -0.009 A 
ATOM     27  C   UNL A   1      32.198  19.996  22.496  1.00  0.00    -0.016 A 
ATOM     28  H   UNL A   1      32.522  21.904  23.321  1.00  0.00     0.063 H 
ATOM     29  C   UNL A   1      32.432  18.186  24.059  1.00  0.00     0.157 A 
ATOM     30  H   UNL A   1      32.981  18.708  26.023  1.00  0.00     0.067 H 
ATOM     31  C   UNL A   1      32.162  18.641  22.772  1.00  0.00     0.157 A 
ATOM     32  H   UNL A   1      31.998  20.341  21.543  1.00  0.00     0.066 H 
BRANCH  29  33
ATOM     33  O   UNL A   1      32.381  16.849  24.327  1.00  0.00    -0.504 OA
ATOM     34  H   UNL A   1      32.495  16.542  25.205  1.00  0.00     0.293 HD
ENDBRANCH  29  33
BRANCH  31  35
ATOM     35  O   UNL A   1      31.870  17.715  21.812  1.00  0.00    -0.504 OA
ATOM     36  H   UNL A   1      32.522  17.099  21.542  1.00  0.00     0.293 HD
ENDBRANCH  31  35
ENDBRANCH  19  24
BRANCH  20  37
ATOM     37  C   UNL A   1      32.272  25.468  24.252  1.00  0.00    -0.021 A 
ATOM     38  C   UNL A   1      33.242  26.450  24.508  1.00  0.00    -0.051 A 
ATOM     39  C   UNL A   1      31.841  25.245  22.940  1.00  0.00    -0.009 A 
ATOM     40  C   UNL A   1      33.761  27.226  23.468  1.00  0.00    -0.016 A 
ATOM     41  H   UNL A   1      33.575  26.600  25.473  1.00  0.00     0.063 H 
ATOM     42  C   UNL A   1      32.368  26.014  21.911  1.00  0.00     0.157 A 
ATOM     43  H   UNL A   1      31.139  24.516  22.738  1.00  0.00     0.067 H 
ATOM     44  C   UNL A   1      33.315  27.002  22.171  1.00  0.00     0.157 A 
ATOM     45  H   UNL A   1      34.464  27.956  23.661  1.00  0.00     0.066 H 
BRANCH  42  46
ATOM     46  O   UNL A   1      31.951  25.791  20.631  1.00  0.00    -0.504 OA
ATOM     47  H   UNL A   1      32.093  26.441  19.971  1.00  0.00     0.293 HD
ENDBRANCH  42  46
BRANCH  44  48
ATOM     48  O   UNL A   1      33.785  27.725  21.111  1.00  0.00    -0.504 OA
ATOM     49  H   UNL A   1      34.193  27.287  20.389  1.00  0.00     0.293 HD
ENDBRANCH  44  48
ENDBRANCH  20  37
ENDBRANCH  11  14
ENDBRANCH   7  10
ENDBRANCH   4   7
ENDBRANCH   1   4
BRANCH   1  50
ATOM     50  C   UNL A   1      36.972  20.279  24.851  1.00  0.00    -0.052 C 
ATOM     51  H   UNL A   1      36.490  19.983  23.944  1.00  0.00     0.027 H 
ATOM     52  H   UNL A   1      36.341  20.219  25.713  1.00  0.00     0.027 H 
BRANCH  50  53
ATOM     53  C   UNL A   1      38.131  19.313  25.108  1.00  0.00    -0.036 C 
ATOM     54  H   UNL A   1      38.458  18.928  24.166  1.00  0.00     0.028 H 
ATOM     55  H   UNL A   1      37.755  18.557  25.765  1.00  0.00     0.028 H 
BRANCH  53  56
ATOM     56  C   UNL A   1      39.333  19.933  25.810  1.00  0.00     0.018 C 
ATOM     57  H   UNL A   1      39.038  20.237  26.793  1.00  0.00     0.049 H 
ATOM     58  H   UNL A   1      39.661  20.767  25.226  1.00  0.00     0.049 H 
BRANCH  56  59
ATOM     59  N   UNL A   1      40.443  19.003  25.923  1.00  0.00    -0.352 N 
ATOM     60  C   UNL A   1      41.780  19.264  26.079  1.00  0.00     0.251 C 
ATOM     61  H   UNL A   1      40.201  18.049  25.880  1.00  0.00     0.163 HD
ATOM     62  O   UNL A   1      42.607  18.365  25.963  1.00  0.00    -0.269 OA
BRANCH  60  63
ATOM     63  C   UNL A   1      42.226  20.642  26.371  1.00  0.00     0.039 A 
ATOM     64  C   UNL A   1      42.496  21.508  25.309  1.00  0.00    -0.049 A 
ATOM     65  C   UNL A   1      42.376  21.076  27.691  1.00  0.00    -0.049 A 
ATOM     66  C   UNL A   1      42.865  22.828  25.571  1.00  0.00    -0.053 A 
ATOM     67  H   UNL A   1      42.423  21.172  24.336  1.00  0.00     0.063 H 
ATOM     68  C   UNL A   1      42.664  22.412  27.950  1.00  0.00    -0.053 A 
ATOM     69  H   UNL A   1      42.274  20.408  28.471  1.00  0.00     0.063 H 
ATOM     70  C   UNL A   1      42.921  23.299  26.894  1.00  0.00    -0.014 A 
ATOM     71  H   UNL A   1      43.097  23.461  24.791  1.00  0.00     0.063 H 
ATOM     72  H   UNL A   1      42.691  22.753  28.924  1.00  0.00     0.063 H 
BRANCH  70  73
ATOM     73  C   UNL A   1      43.264  24.712  27.197  1.00  0.00     0.031 A 
ATOM     74  C   UNL A   1      44.667  25.205  26.981  1.00  0.00     0.074 A 
ATOM     75  C   UNL A   1      42.334  25.528  27.729  1.00  0.00     0.049 A 
ATOM     76  N   UNL A   1      45.191  26.370  27.269  1.00  0.00    -0.248 NA
ATOM     77  C   UNL A   1      45.619  24.252  26.387  1.00  0.00    -0.034 C 
ATOM     78  C   UNL A   1      40.949  25.154  28.020  1.00  0.00    -0.036 A 
ATOM     79  N   UNL A   1      42.416  26.837  28.131  1.00  0.00    -0.354 N 
ATOM     80  C   UNL A   1      46.529  26.282  26.906  1.00  0.00     0.074 A 
ATOM     81  C   UNL A   1      46.752  24.934  26.434  1.00  0.00    -0.034 C 
ATOM     82  H   UNL A   1      45.445  23.299  26.027  1.00  0.00     0.065 H 
ATOM     83  C   UNL A   1      40.307  26.216  28.534  1.00  0.00    -0.036 A 
ATOM     84  H   UNL A   1      40.532  24.224  27.858  1.00  0.00     0.065 H 
ATOM     85  C   UNL A   1      41.244  27.329  28.651  1.00  0.00     0.049 A 
ATOM     86  H   UNL A   1      43.238  27.374  28.054  1.00  0.00     0.167 HD
ATOM     87  C   UNL A   1      47.478  27.248  26.938  1.00  0.00     0.037 A 
ATOM     88  H   UNL A   1      47.674  24.553  26.169  1.00  0.00     0.065 H 
ATOM     89  H   UNL A   1      39.311  26.241  28.803  1.00  0.00     0.065 H 
ATOM     90  C   UNL A   1      40.962  28.538  29.174  1.00  0.00     0.037 A 
ATOM     91  C   UNL A   1      47.244  28.595  27.389  1.00  0.00     0.049 A 
ATOM     92  C   UNL A   1      42.042  29.586  29.223  1.00  0.00     0.074 A 
ATOM     93  C   UNL A   1      48.125  29.661  27.415  1.00  0.00    -0.036 A 
ATOM     94  N   UNL A   1      46.039  29.059  27.896  1.00  0.00    -0.354 N 
ATOM     95  N   UNL A   1      43.287  29.511  28.821  1.00  0.00    -0.248 NA
ATOM     96  C   UNL A   1      41.675  30.889  29.793  1.00  0.00    -0.034 C 
ATOM     97  C   UNL A   1      47.472  30.754  27.992  1.00  0.00    -0.036 A 
ATOM     98  H   UNL A   1      49.097  29.651  27.069  1.00  0.00     0.065 H 
ATOM     99  C   UNL A   1      46.162  30.390  28.263  1.00  0.00     0.049 A 
ATOM    100  H   UNL A   1      45.217  28.523  27.983  1.00  0.00     0.167 HD
ATOM    101  C   UNL A   1      43.840  30.764  29.053  1.00  0.00     0.074 A 
ATOM    102  C   UNL A   1      42.791  31.584  29.622  1.00  0.00    -0.034 C 
ATOM    103  H   UNL A   1      40.781  31.187  30.215  1.00  0.00     0.065 H 
ATOM    104  H   UNL A   1      47.893  31.676  28.184  1.00  0.00     0.065 H 
ATOM    105  C   UNL A   1      45.103  31.198  28.814  1.00  0.00     0.037 A 
ATOM    106  H   UNL A   1      42.898  32.580  29.863  1.00  0.00     0.065 H 
BRANCH  87 107
ATOM    107  C   UNL A   1      48.859  26.881  26.475  1.00  0.00     0.064 A 
ATOM    108  C   UNL A   1      49.819  26.357  27.355  1.00  0.00     0.173 A 
ATOM    109  C   UNL A   1      49.219  27.023  25.125  1.00  0.00     0.173 A 
ATOM    110  F   UNL A   1      49.533  26.212  28.658  1.00  0.00    -0.203 F 
ATOM    111  C   UNL A   1      51.095  26.022  26.909  1.00  0.00     0.198 A 
ATOM    112  C   UNL A   1      50.483  26.651  24.676  1.00  0.00     0.198 A 
ATOM    113  F   UNL A   1      48.340  27.514  24.239  1.00  0.00    -0.203 F 
ATOM    114  F   UNL A   1      52.011  25.578  27.780  1.00  0.00    -0.200 F 
ATOM    115  C   UNL A   1      51.423  26.161  25.570  1.00  0.00     0.200 A 
ATOM    116  F   UNL A   1      50.794  26.774  23.378  1.00  0.00    -0.200 F 
ATOM    117  F   UNL A   1      52.649  25.831  25.140  1.00  0.00    -0.200 F 
ENDBRANCH  87 107
BRANCH  90 118
ATOM    118  C   UNL A   1      39.594  28.831  29.679  1.00  0.00     0.064 A 
ATOM    119  C   UNL A   1      38.626  29.408  28.844  1.00  0.00     0.173 A 
ATOM    120  C   UNL A   1      39.228  28.556  31.005  1.00  0.00     0.173 A 
ATOM    121  F   UNL A   1      38.932  29.708  27.574  1.00  0.00    -0.203 F 
ATOM    122  C   UNL A   1      37.356  29.724  29.323  1.00  0.00     0.198 A 
ATOM    123  C   UNL A   1      37.948  28.841  31.474  1.00  0.00     0.198 A 
ATOM    124  F   UNL A   1      40.115  27.998  31.844  1.00  0.00    -0.203 F 
ATOM    125  F   UNL A   1      36.469  30.325  28.519  1.00  0.00    -0.200 F 
ATOM    126  C   UNL A   1      37.016  29.435  30.636  1.00  0.00     0.200 A 
ATOM    127  F   UNL A   1      37.620  28.545  32.739  1.00  0.00    -0.200 F 
ATOM    128  F   UNL A   1      35.795  29.737  31.097  1.00  0.00    -0.200 F 
ENDBRANCH  90 118
BRANCH 105 129
ATOM    129  C   UNL A   1      45.410  32.636  29.115  1.00  0.00     0.064 A 
ATOM    130  C   UNL A   1      45.190  33.656  28.177  1.00  0.00     0.173 A 
ATOM    131  C   UNL A   1      45.888  33.004  30.383  1.00  0.00     0.173 A 
ATOM    132  F   UNL A   1      44.746  33.356  26.947  1.00  0.00    -0.203 F 
ATOM    133  C   UNL A   1      45.462  34.985  28.488  1.00  0.00     0.198 A 
ATOM    134  C   UNL A   1      46.125  34.338  30.702  1.00  0.00     0.198 A 
ATOM    135  F   UNL A   1      46.107  32.070  31.320  1.00  0.00    -0.203 F 
ATOM    136  F   UNL A   1      45.293  35.936  27.558  1.00  0.00    -0.200 F 
ATOM    137  C   UNL A   1      45.920  35.327  29.751  1.00  0.00     0.200 A 
ATOM    138  F   UNL A   1      46.550  34.667  31.929  1.00  0.00    -0.200 F 
ATOM    139  F   UNL A   1      46.170  36.608  30.052  1.00  0.00    -0.200 F 
ENDBRANCH 105 129
ENDBRANCH  70  73
ENDBRANCH  60  63
ENDBRANCH  56  59
ENDBRANCH  53  56
ENDBRANCH  50  53
ENDBRANCH   1  50
TORSDOF 19
ENDMDL
MODEL 5
REMARK VINA RESULT:     -13.2      5.456     10.969
REMARK SMILES O=C1O[C@@H](c2ccc(O)c(O)c2)[C@H](C(=O)NCCCCCCNC(=O)c2ccc(-c3c4nc(c(-c5c(F)c(F)c(F)c(F)c5F)c5ccc([nH]5)c(-c5c(F)c(F)c(F)c(F)c5F)c5nc(c(-c6c(F)c(F)c(F)c(F)c6F)c6ccc3[nH]6)C=C5)C=C4)cc2)/C1=C\c1ccc(O)c(O)c1
REMARK SMILES IDX 19 1 18 4 17 7 16 10 14 11 15 12 13 14 1 15 2 16 3 17 89 18
REMARK SMILES IDX 4 19 90 20 5 24 6 25 12 26 7 27 10 29 8 31 11 33 9 35 91 37
REMARK SMILES IDX 92 38 98 39 93 40 96 42 94 44 97 46 95 48 20 50 21 53 22 56
REMARK SMILES IDX 23 59 24 60 25 62 26 63 27 64 88 65 28 66 87 68 29 70 30 73
REMARK SMILES IDX 31 74 81 75 32 76 86 77 80 78 82 79 33 80 85 81 79 83 78 85
REMARK SMILES IDX 34 87 66 90 46 91 65 92 47 93 50 94 64 95 83 96 48 97 49 99
REMARK SMILES IDX 63 101 84 102 51 105 35 107 36 108 44 109 37 110 38 111
REMARK SMILES IDX 42 112 45 113 39 114 40 115 43 116 41 117 67 118 68 119
REMARK SMILES IDX 76 120 69 121 70 122 74 123 77 124 71 125 72 126 75 127
REMARK SMILES IDX 73 128 52 129 53 130 61 131 54 132 55 133 59 134 62 135
REMARK SMILES IDX 56 136 57 137 60 138 58 139
REMARK H PARENT 19 2 19 3 18 5 18 6 17 8 17 9 16 13 4 21 13 22 90 23 6 28
REMARK H PARENT 12 30 7 32 11 34 9 36 92 41 98 43 93 45 97 47 95 49 20 51
REMARK H PARENT 20 52 21 54 21 55 22 57 22 58 23 61 27 67 88 69 28 71 87 72
REMARK H PARENT 86 82 80 84 82 86 85 88 79 89 47 98 50 100 83 103 48 104
REMARK H PARENT 84 106
REMARK Flexibility Score: inf
ROOT
ATOM      1  C   UNL A   1      37.342  21.584  24.639  1.00  0.00    -0.052 C 
ATOM      2  H   UNL A   1      37.137  22.051  25.579  1.00  0.00     0.027 H 
ATOM      3  H   UNL A   1      38.377  21.599  24.370  1.00  0.00     0.027 H 
ENDROOT
BRANCH   1   4
ATOM      4  C   UNL A   1      36.610  22.369  23.550  1.00  0.00    -0.036 C 
ATOM      5  H   UNL A   1      37.243  22.415  22.689  1.00  0.00     0.028 H 
ATOM      6  H   UNL A   1      35.692  21.852  23.366  1.00  0.00     0.028 H 
BRANCH   4   7
ATOM      7  C   UNL A   1      36.235  23.791  23.942  1.00  0.00     0.017 C 
ATOM      8  H   UNL A   1      37.059  24.434  23.711  1.00  0.00     0.049 H 
ATOM      9  H   UNL A   1      35.354  24.047  23.392  1.00  0.00     0.049 H 
BRANCH   7  10
ATOM     10  N   UNL A   1      35.918  23.940  25.346  1.00  0.00    -0.355 N 
ATOM     11  C   UNL A   1      34.872  23.453  26.078  1.00  0.00     0.231 C 
ATOM     12  O   UNL A   1      34.934  23.615  27.297  1.00  0.00    -0.274 OA
ATOM     13  H   UNL A   1      36.562  24.480  25.858  1.00  0.00     0.163 HD
BRANCH  11  14
ATOM     14  C   UNL A   1      33.654  22.832  25.382  1.00  0.00     0.111 C 
ATOM     15  O   UNL A   1      30.871  23.105  27.607  1.00  0.00    -0.247 OA
ATOM     16  C   UNL A   1      31.782  22.750  26.881  1.00  0.00     0.335 C 
ATOM     17  O   UNL A   1      32.396  21.542  26.927  1.00  0.00    -0.453 OA
ATOM     18  C   UNL A   1      32.400  23.529  25.793  1.00  0.00     0.054 C 
ATOM     19  C   UNL A   1      33.352  21.414  25.861  1.00  0.00     0.143 C 
ATOM     20  C   UNL A   1      31.805  24.643  25.342  1.00  0.00    -0.043 C 
ATOM     21  H   UNL A   1      34.265  20.962  26.188  1.00  0.00     0.081 H 
ATOM     22  H   UNL A   1      33.896  22.889  24.341  1.00  0.00     0.050 H 
ATOM     23  H   UNL A   1      30.919  24.930  25.786  1.00  0.00     0.063 H 
BRANCH  19  24
ATOM     24  C   UNL A   1      32.862  20.452  24.773  1.00  0.00    -0.002 A 
ATOM     25  C   UNL A   1      32.517  20.914  23.482  1.00  0.00    -0.051 A 
ATOM     26  C   UNL A   1      32.833  19.066  24.997  1.00  0.00    -0.009 A 
ATOM     27  C   UNL A   1      32.183  20.034  22.447  1.00  0.00    -0.016 A 
ATOM     28  H   UNL A   1      32.514  21.929  23.297  1.00  0.00     0.063 H 
ATOM     29  C   UNL A   1      32.476  18.198  23.970  1.00  0.00     0.157 A 
ATOM     30  H   UNL A   1      33.078  18.690  25.927  1.00  0.00     0.067 H 
ATOM     31  C   UNL A   1      32.165  18.673  22.700  1.00  0.00     0.157 A 
ATOM     32  H   UNL A   1      31.952  20.394  21.507  1.00  0.00     0.066 H 
BRANCH  29  33
ATOM     33  O   UNL A   1      32.444  16.856  24.215  1.00  0.00    -0.504 OA
ATOM     34  H   UNL A   1      32.656  16.530  25.068  1.00  0.00     0.293 HD
ENDBRANCH  29  33
BRANCH  31  35
ATOM     35  O   UNL A   1      31.853  17.762  21.732  1.00  0.00    -0.504 OA
ATOM     36  H   UNL A   1      31.429  16.959  21.963  1.00  0.00     0.293 HD
ENDBRANCH  31  35
ENDBRANCH  19  24
BRANCH  20  37
ATOM     37  C   UNL A   1      32.329  25.478  24.264  1.00  0.00    -0.021 A 
ATOM     38  C   UNL A   1      33.311  26.451  24.514  1.00  0.00    -0.051 A 
ATOM     39  C   UNL A   1      31.871  25.276  22.957  1.00  0.00    -0.009 A 
ATOM     40  C   UNL A   1      33.814  27.238  23.474  1.00  0.00    -0.016 A 
ATOM     41  H   UNL A   1      33.664  26.585  25.474  1.00  0.00     0.063 H 
ATOM     42  C   UNL A   1      32.383  26.056  21.929  1.00  0.00     0.157 A 
ATOM     43  H   UNL A   1      31.161  24.555  22.760  1.00  0.00     0.067 H 
ATOM     44  C   UNL A   1      33.342  27.034  22.184  1.00  0.00     0.157 A 
ATOM     45  H   UNL A   1      34.526  27.960  23.663  1.00  0.00     0.066 H 
BRANCH  42  46
ATOM     46  O   UNL A   1      31.939  25.853  20.655  1.00  0.00    -0.504 OA
ATOM     47  H   UNL A   1      32.324  25.183  20.124  1.00  0.00     0.293 HD
ENDBRANCH  42  46
BRANCH  44  48
ATOM     48  O   UNL A   1      33.795  27.768  21.124  1.00  0.00    -0.504 OA
ATOM     49  H   UNL A   1      33.187  28.225  20.576  1.00  0.00     0.293 HD
ENDBRANCH  44  48
ENDBRANCH  20  37
ENDBRANCH  11  14
ENDBRANCH   7  10
ENDBRANCH   4   7
ENDBRANCH   1   4
BRANCH   1  50
ATOM     50  C   UNL A   1      36.953  20.105  24.749  1.00  0.00    -0.052 C 
ATOM     51  H   UNL A   1      36.568  19.794  23.801  1.00  0.00     0.027 H 
ATOM     52  H   UNL A   1      36.238  20.048  25.543  1.00  0.00     0.027 H 
BRANCH  50  53
ATOM     53  C   UNL A   1      38.089  19.155  25.133  1.00  0.00    -0.036 C 
ATOM     54  H   UNL A   1      38.440  18.678  24.242  1.00  0.00     0.028 H 
ATOM     55  H   UNL A   1      37.682  18.469  25.846  1.00  0.00     0.028 H 
BRANCH  53  56
ATOM     56  C   UNL A   1      39.277  19.825  25.813  1.00  0.00     0.018 C 
ATOM     57  H   UNL A   1      38.990  20.112  26.803  1.00  0.00     0.049 H 
ATOM     58  H   UNL A   1      39.555  20.675  25.226  1.00  0.00     0.049 H 
BRANCH  56  59
ATOM     59  N   UNL A   1      40.430  18.944  25.896  1.00  0.00    -0.352 N 
ATOM     60  C   UNL A   1      41.754  19.262  26.063  1.00  0.00     0.251 C 
ATOM     61  H   UNL A   1      40.233  17.982  25.822  1.00  0.00     0.163 HD
ATOM     62  O   UNL A   1      42.621  18.407  25.919  1.00  0.00    -0.269 OA
BRANCH  60  63
ATOM     63  C   UNL A   1      42.134  20.649  26.401  1.00  0.00     0.039 A 
ATOM     64  C   UNL A   1      42.278  21.005  27.743  1.00  0.00    -0.049 A 
ATOM     65  C   UNL A   1      42.347  21.594  25.393  1.00  0.00    -0.049 A 
ATOM     66  C   UNL A   1      42.689  22.297  28.075  1.00  0.00    -0.053 A 
ATOM     67  H   UNL A   1      42.080  20.316  28.486  1.00  0.00     0.063 H 
ATOM     68  C   UNL A   1      42.835  22.854  25.721  1.00  0.00    -0.053 A 
ATOM     69  H   UNL A   1      42.144  21.358  24.410  1.00  0.00     0.063 H 
ATOM     70  C   UNL A   1      43.002  23.223  27.065  1.00  0.00    -0.014 A 
ATOM     71  H   UNL A   1      42.765  22.573  29.066  1.00  0.00     0.063 H 
ATOM     72  H   UNL A   1      43.075  23.523  24.973  1.00  0.00     0.063 H 
BRANCH  70  73
ATOM     73  C   UNL A   1      43.488  24.587  27.390  1.00  0.00     0.031 A 
ATOM     74  C   UNL A   1      42.534  25.612  27.935  1.00  0.00     0.074 A 
ATOM     75  C   UNL A   1      44.768  24.922  27.133  1.00  0.00     0.049 A 
ATOM     76  N   UNL A   1      42.736  26.879  28.195  1.00  0.00    -0.248 NA
ATOM     77  C   UNL A   1      41.157  25.161  28.196  1.00  0.00    -0.034 C 
ATOM     78  C   UNL A   1      45.779  24.026  26.571  1.00  0.00    -0.036 A 
ATOM     79  N   UNL A   1      45.433  26.111  27.300  1.00  0.00    -0.354 N 
ATOM     80  C   UNL A   1      41.515  27.375  28.633  1.00  0.00     0.074 A 
ATOM     81  C   UNL A   1      40.562  26.290  28.547  1.00  0.00    -0.034 C 
ATOM     82  H   UNL A   1      40.761  24.210  28.124  1.00  0.00     0.065 H 
ATOM     83  C   UNL A   1      46.941  24.690  26.460  1.00  0.00    -0.036 A 
ATOM     84  H   UNL A   1      45.626  23.042  26.302  1.00  0.00     0.065 H 
ATOM     85  C   UNL A   1      46.746  26.069  26.899  1.00  0.00     0.049 A 
ATOM     86  H   UNL A   1      45.009  26.918  27.673  1.00  0.00     0.167 HD
ATOM     87  C   UNL A   1      41.222  28.616  29.091  1.00  0.00     0.037 A 
ATOM     88  H   UNL A   1      39.552  26.384  28.734  1.00  0.00     0.065 H 
ATOM     89  H   UNL A   1      47.829  24.291  26.118  1.00  0.00     0.065 H 
ATOM     90  C   UNL A   1      47.681  27.038  26.876  1.00  0.00     0.037 A 
ATOM     91  C   UNL A   1      42.179  29.684  29.195  1.00  0.00     0.049 A 
ATOM     92  C   UNL A   1      47.322  28.415  27.366  1.00  0.00     0.074 A 
ATOM     93  C   UNL A   1      41.995  30.963  29.691  1.00  0.00    -0.036 A 
ATOM     94  N   UNL A   1      43.504  29.600  28.790  1.00  0.00    -0.354 N 
ATOM     95  N   UNL A   1      46.181  28.856  27.835  1.00  0.00    -0.248 NA
ATOM     96  C   UNL A   1      48.385  29.429  27.330  1.00  0.00    -0.034 C 
ATOM     97  C   UNL A   1      43.191  31.670  29.534  1.00  0.00    -0.036 A 
ATOM     98  H   UNL A   1      41.125  31.331  30.106  1.00  0.00     0.065 H 
ATOM     99  C   UNL A   1      44.141  30.813  29.002  1.00  0.00     0.049 A 
ATOM    100  H   UNL A   1      43.929  28.798  28.408  1.00  0.00     0.167 HD
ATOM    101  C   UNL A   1      46.397  30.183  28.184  1.00  0.00     0.074 A 
ATOM    102  C   UNL A   1      47.783  30.472  27.883  1.00  0.00    -0.034 C 
ATOM    103  H   UNL A   1      49.349  29.349  26.969  1.00  0.00     0.065 H 
ATOM    104  H   UNL A   1      43.341  32.662  29.773  1.00  0.00     0.065 H 
ATOM    105  C   UNL A   1      45.527  31.081  28.711  1.00  0.00     0.037 A 
ATOM    106  H   UNL A   1      48.244  31.376  28.073  1.00  0.00     0.065 H 
BRANCH  87 107
ATOM    107  C   UNL A   1      39.805  28.884  29.513  1.00  0.00     0.064 A 
ATOM    108  C   UNL A   1      38.849  29.384  28.616  1.00  0.00     0.173 A 
ATOM    109  C   UNL A   1      39.388  28.603  30.825  1.00  0.00     0.173 A 
ATOM    110  F   UNL A   1      39.196  29.682  27.355  1.00  0.00    -0.203 F 
ATOM    111  C   UNL A   1      37.540  29.627  29.024  1.00  0.00     0.198 A 
ATOM    112  C   UNL A   1      38.068  28.812  31.218  1.00  0.00     0.198 A 
ATOM    113  F   UNL A   1      40.258  28.119  31.722  1.00  0.00    -0.203 F 
ATOM    114  F   UNL A   1      36.660  30.160  28.165  1.00  0.00    -0.200 F 
ATOM    115  C   UNL A   1      37.149  29.333  30.321  1.00  0.00     0.200 A 
ATOM    116  F   UNL A   1      37.689  28.514  32.468  1.00  0.00    -0.200 F 
ATOM    117  F   UNL A   1      35.886  29.560  30.711  1.00  0.00    -0.200 F 
ENDBRANCH  87 107
BRANCH  90 118
ATOM    118  C   UNL A   1      49.054  26.737  26.388  1.00  0.00     0.064 A 
ATOM    119  C   UNL A   1      50.035  26.239  27.257  1.00  0.00     0.173 A 
ATOM    120  C   UNL A   1      49.418  26.953  25.050  1.00  0.00     0.173 A 
ATOM    121  F   UNL A   1      49.742  26.035  28.549  1.00  0.00    -0.203 F 
ATOM    122  C   UNL A   1      51.334  25.996  26.815  1.00  0.00     0.198 A 
ATOM    123  C   UNL A   1      50.708  26.678  24.602  1.00  0.00     0.198 A 
ATOM    124  F   UNL A   1      48.516  27.422  24.176  1.00  0.00    -0.203 F 
ATOM    125  F   UNL A   1      52.266  25.573  27.680  1.00  0.00    -0.200 F 
ATOM    126  C   UNL A   1      51.668  26.210  25.486  1.00  0.00     0.200 A 
ATOM    127  F   UNL A   1      51.021  26.871  23.313  1.00  0.00    -0.200 F 
ATOM    128  F   UNL A   1      52.916  25.975  25.060  1.00  0.00    -0.200 F 
ENDBRANCH  90 118
BRANCH 105 129
ATOM    129  C   UNL A   1      46.057  32.445  29.044  1.00  0.00     0.064 A 
ATOM    130  C   UNL A   1      46.000  33.509  28.131  1.00  0.00     0.173 A 
ATOM    131  C   UNL A   1      46.588  32.704  30.318  1.00  0.00     0.173 A 
ATOM    132  F   UNL A   1      45.514  33.312  26.896  1.00  0.00    -0.203 F 
ATOM    133  C   UNL A   1      46.478  34.771  28.471  1.00  0.00     0.198 A 
ATOM    134  C   UNL A   1      47.032  33.976  30.666  1.00  0.00     0.198 A 
ATOM    135  F   UNL A   1      46.658  31.725  31.232  1.00  0.00    -0.203 F 
ATOM    136  F   UNL A   1      46.460  35.758  27.564  1.00  0.00    -0.200 F 
ATOM    137  C   UNL A   1      46.985  35.006  29.740  1.00  0.00     0.200 A 
ATOM    138  F   UNL A   1      47.505  34.204  31.900  1.00  0.00    -0.200 F 
ATOM    139  F   UNL A   1      47.434  36.225  30.069  1.00  0.00    -0.200 F 
ENDBRANCH 105 129
ENDBRANCH  70  73
ENDBRANCH  60  63
ENDBRANCH  56  59
ENDBRANCH  53  56
ENDBRANCH  50  53
ENDBRANCH   1  50
TORSDOF 19
ENDMDL
MODEL 6
REMARK VINA RESULT:     -13.0      5.259     10.406
REMARK SMILES O=C1O[C@@H](c2ccc(O)c(O)c2)[C@H](C(=O)NCCCCCCNC(=O)c2ccc(-c3c4nc(c(-c5c(F)c(F)c(F)c(F)c5F)c5ccc([nH]5)c(-c5c(F)c(F)c(F)c(F)c5F)c5nc(c(-c6c(F)c(F)c(F)c(F)c6F)c6ccc3[nH]6)C=C5)C=C4)cc2)/C1=C\c1ccc(O)c(O)c1
REMARK SMILES IDX 19 1 18 4 17 7 16 10 14 11 15 12 13 14 1 15 2 16 3 17 89 18
REMARK SMILES IDX 4 19 90 20 5 24 6 25 12 26 7 27 10 29 8 31 11 33 9 35 91 37
REMARK SMILES IDX 92 38 98 39 93 40 96 42 94 44 97 46 95 48 20 50 21 53 22 56
REMARK SMILES IDX 23 59 24 60 25 62 26 63 27 64 88 65 28 66 87 68 29 70 30 73
REMARK SMILES IDX 31 74 81 75 32 76 86 77 80 78 82 79 33 80 85 81 79 83 78 85
REMARK SMILES IDX 34 87 66 90 46 91 65 92 47 93 50 94 64 95 83 96 48 97 49 99
REMARK SMILES IDX 63 101 84 102 51 105 35 107 36 108 44 109 37 110 38 111
REMARK SMILES IDX 42 112 45 113 39 114 40 115 43 116 41 117 67 118 68 119
REMARK SMILES IDX 76 120 69 121 70 122 74 123 77 124 71 125 72 126 75 127
REMARK SMILES IDX 73 128 52 129 53 130 61 131 54 132 55 133 59 134 62 135
REMARK SMILES IDX 56 136 57 137 60 138 58 139
REMARK H PARENT 19 2 19 3 18 5 18 6 17 8 17 9 16 13 4 21 13 22 90 23 6 28
REMARK H PARENT 12 30 7 32 11 34 9 36 92 41 98 43 93 45 97 47 95 49 20 51
REMARK H PARENT 20 52 21 54 21 55 22 57 22 58 23 61 27 67 88 69 28 71 87 72
REMARK H PARENT 86 82 80 84 82 86 85 88 79 89 47 98 50 100 83 103 48 104
REMARK H PARENT 84 106
REMARK Flexibility Score: inf
ROOT
ATOM      1  C   UNL A   1      36.461  22.169  24.343  1.00  0.00    -0.052 C 
ATOM      2  H   UNL A   1      36.755  22.939  25.024  1.00  0.00     0.027 H 
ATOM      3  H   UNL A   1      37.102  22.084  23.490  1.00  0.00     0.027 H 
ENDROOT
BRANCH   1   4
ATOM      4  C   UNL A   1      35.076  22.520  23.798  1.00  0.00    -0.036 C 
ATOM      5  H   UNL A   1      35.049  22.259  22.761  1.00  0.00     0.028 H 
ATOM      6  H   UNL A   1      34.370  21.974  24.386  1.00  0.00     0.028 H 
BRANCH   4   7
ATOM      7  C   UNL A   1      34.703  23.990  23.927  1.00  0.00     0.017 C 
ATOM      8  H   UNL A   1      34.131  24.117  24.822  1.00  0.00     0.049 H 
ATOM      9  H   UNL A   1      35.616  24.547  23.945  1.00  0.00     0.049 H 
BRANCH   7  10
ATOM     10  N   UNL A   1      33.925  24.489  22.814  1.00  0.00    -0.355 N 
ATOM     11  C   UNL A   1      33.033  25.522  22.743  1.00  0.00     0.231 C 
ATOM     12  O   UNL A   1      32.625  25.819  21.620  1.00  0.00    -0.274 OA
ATOM     13  H   UNL A   1      34.061  24.005  21.967  1.00  0.00     0.163 HD
BRANCH  11  14
ATOM     14  C   UNL A   1      32.510  26.192  24.021  1.00  0.00     0.111 C 
ATOM     15  O   UNL A   1      28.999  26.720  23.617  1.00  0.00    -0.247 OA
ATOM     16  C   UNL A   1      30.205  26.806  23.765  1.00  0.00     0.335 C 
ATOM     17  O   UNL A   1      30.954  27.898  23.476  1.00  0.00    -0.453 OA
ATOM     18  C   UNL A   1      31.106  25.770  24.300  1.00  0.00     0.054 C 
ATOM     19  C   UNL A   1      32.322  27.699  23.870  1.00  0.00     0.143 C 
ATOM     20  C   UNL A   1      30.601  24.698  24.927  1.00  0.00    -0.043 C 
ATOM     21  H   UNL A   1      33.012  28.058  23.135  1.00  0.00     0.081 H 
ATOM     22  H   UNL A   1      33.232  25.923  24.764  1.00  0.00     0.050 H 
ATOM     23  H   UNL A   1      29.575  24.626  25.008  1.00  0.00     0.063 H 
BRANCH  19  24
ATOM     24  C   UNL A   1      32.680  28.525  25.110  1.00  0.00    -0.002 A 
ATOM     25  C   UNL A   1      33.767  28.171  25.943  1.00  0.00    -0.051 A 
ATOM     26  C   UNL A   1      31.998  29.717  25.404  1.00  0.00    -0.009 A 
ATOM     27  C   UNL A   1      34.177  28.981  27.008  1.00  0.00    -0.016 A 
ATOM     28  H   UNL A   1      34.274  27.291  25.759  1.00  0.00     0.063 H 
ATOM     29  C   UNL A   1      32.395  30.504  26.479  1.00  0.00     0.157 A 
ATOM     30  H   UNL A   1      31.199  30.009  24.819  1.00  0.00     0.067 H 
ATOM     31  C   UNL A   1      33.484  30.150  27.270  1.00  0.00     0.157 A 
ATOM     32  H   UNL A   1      34.984  28.710  27.592  1.00  0.00     0.066 H 
BRANCH  29  33
ATOM     33  O   UNL A   1      31.709  31.653  26.751  1.00  0.00    -0.504 OA
ATOM     34  H   UNL A   1      30.776  31.632  26.839  1.00  0.00     0.293 HD
ENDBRANCH  29  33
BRANCH  31  35
ATOM     35  O   UNL A   1      33.836  30.986  28.290  1.00  0.00    -0.504 OA
ATOM     36  H   UNL A   1      33.316  31.742  28.478  1.00  0.00     0.293 HD
ENDBRANCH  31  35
ENDBRANCH  19  24
BRANCH  20  37
ATOM     37  C   UNL A   1      31.407  23.623  25.501  1.00  0.00    -0.021 A 
ATOM     38  C   UNL A   1      32.202  23.844  26.639  1.00  0.00    -0.051 A 
ATOM     39  C   UNL A   1      31.355  22.348  24.929  1.00  0.00    -0.009 A 
ATOM     40  C   UNL A   1      32.962  22.807  27.187  1.00  0.00    -0.016 A 
ATOM     41  H   UNL A   1      32.224  24.779  27.073  1.00  0.00     0.063 H 
ATOM     42  C   UNL A   1      32.106  21.322  25.485  1.00  0.00     0.157 A 
ATOM     43  H   UNL A   1      30.764  22.171  24.102  1.00  0.00     0.067 H 
ATOM     44  C   UNL A   1      32.909  21.548  26.601  1.00  0.00     0.157 A 
ATOM     45  H   UNL A   1      33.554  22.975  28.014  1.00  0.00     0.066 H 
BRANCH  42  46
ATOM     46  O   UNL A   1      32.049  20.077  24.929  1.00  0.00    -0.504 OA
ATOM     47  H   UNL A   1      32.814  19.535  24.911  1.00  0.00     0.293 HD
ENDBRANCH  42  46
BRANCH  44  48
ATOM     48  O   UNL A   1      33.626  20.493  27.091  1.00  0.00    -0.504 OA
ATOM     49  H   UNL A   1      34.132  19.959  26.509  1.00  0.00     0.293 HD
ENDBRANCH  44  48
ENDBRANCH  20  37
ENDBRANCH  11  14
ENDBRANCH   7  10
ENDBRANCH   4   7
ENDBRANCH   1   4
BRANCH   1  50
ATOM     50  C   UNL A   1      36.551  20.827  25.078  1.00  0.00    -0.052 C 
ATOM     51  H   UNL A   1      35.733  20.218  24.754  1.00  0.00     0.027 H 
ATOM     52  H   UNL A   1      36.525  21.061  26.121  1.00  0.00     0.027 H 
BRANCH  50  53
ATOM     53  C   UNL A   1      37.844  20.040  24.853  1.00  0.00    -0.036 C 
ATOM     54  H   UNL A   1      38.161  20.204  23.844  1.00  0.00     0.028 H 
ATOM     55  H   UNL A   1      37.616  19.017  25.062  1.00  0.00     0.028 H 
BRANCH  53  56
ATOM     56  C   UNL A   1      38.991  20.423  25.779  1.00  0.00     0.018 C 
ATOM     57  H   UNL A   1      38.593  20.638  26.749  1.00  0.00     0.049 H 
ATOM     58  H   UNL A   1      39.481  21.277  25.361  1.00  0.00     0.049 H 
BRANCH  56  59
ATOM     59  N   UNL A   1      39.975  19.361  25.903  1.00  0.00    -0.352 N 
ATOM     60  C   UNL A   1      41.330  19.452  26.092  1.00  0.00     0.251 C 
ATOM     61  H   UNL A   1      39.619  18.445  25.841  1.00  0.00     0.163 HD
ATOM     62  O   UNL A   1      42.042  18.459  25.982  1.00  0.00    -0.269 OA
BRANCH  60  63
ATOM     63  C   UNL A   1      41.936  20.760  26.415  1.00  0.00     0.039 A 
ATOM     64  C   UNL A   1      42.191  21.664  25.382  1.00  0.00    -0.049 A 
ATOM     65  C   UNL A   1      42.251  21.092  27.736  1.00  0.00    -0.049 A 
ATOM     66  C   UNL A   1      42.712  22.924  25.678  1.00  0.00    -0.053 A 
ATOM     67  H   UNL A   1      41.994  21.400  24.403  1.00  0.00     0.063 H 
ATOM     68  C   UNL A   1      42.693  22.376  28.039  1.00  0.00    -0.053 A 
ATOM     69  H   UNL A   1      42.156  20.388  28.484  1.00  0.00     0.063 H 
ATOM     70  C   UNL A   1      42.937  23.302  27.013  1.00  0.00    -0.014 A 
ATOM     71  H   UNL A   1      42.931  23.582  24.915  1.00  0.00     0.063 H 
ATOM     72  H   UNL A   1      42.843  22.649  29.022  1.00  0.00     0.063 H 
BRANCH  70  73
ATOM     73  C   UNL A   1      43.445  24.653  27.359  1.00  0.00     0.031 A 
ATOM     74  C   UNL A   1      42.513  25.677  27.945  1.00  0.00     0.074 A 
ATOM     75  C   UNL A   1      44.722  24.980  27.083  1.00  0.00     0.049 A 
ATOM     76  N   UNL A   1      42.735  26.935  28.229  1.00  0.00    -0.248 NA
ATOM     77  C   UNL A   1      41.138  25.235  28.225  1.00  0.00    -0.034 C 
ATOM     78  C   UNL A   1      45.712  24.086  26.480  1.00  0.00    -0.036 A 
ATOM     79  N   UNL A   1      45.404  26.157  27.262  1.00  0.00    -0.354 N 
ATOM     80  C   UNL A   1      41.529  27.434  28.703  1.00  0.00     0.074 A 
ATOM     81  C   UNL A   1      40.563  26.362  28.613  1.00  0.00    -0.034 C 
ATOM     82  H   UNL A   1      40.728  24.290  28.140  1.00  0.00     0.065 H 
ATOM     83  C   UNL A   1      46.879  24.740  26.360  1.00  0.00    -0.036 A 
ATOM     84  H   UNL A   1      45.542  23.109  26.193  1.00  0.00     0.065 H 
ATOM     85  C   UNL A   1      46.708  26.110  26.833  1.00  0.00     0.049 A 
ATOM     86  H   UNL A   1      44.997  26.961  27.661  1.00  0.00     0.167 HD
ATOM     87  C   UNL A   1      41.260  28.667  29.195  1.00  0.00     0.037 A 
ATOM     88  H   UNL A   1      39.558  26.463  28.822  1.00  0.00     0.065 H 
ATOM     89  H   UNL A   1      47.755  24.338  25.991  1.00  0.00     0.065 H 
ATOM     90  C   UNL A   1      47.654  27.069  26.813  1.00  0.00     0.037 A 
ATOM     91  C   UNL A   1      42.231  29.723  29.302  1.00  0.00     0.049 A 
ATOM     92  C   UNL A   1      47.321  28.439  27.340  1.00  0.00     0.074 A 
ATOM     93  C   UNL A   1      42.071  30.992  29.831  1.00  0.00    -0.036 A 
ATOM     94  N   UNL A   1      43.546  29.633  28.869  1.00  0.00    -0.354 N 
ATOM     95  N   UNL A   1      46.194  28.882  27.843  1.00  0.00    -0.248 NA
ATOM     96  C   UNL A   1      48.394  29.441  27.305  1.00  0.00    -0.034 C 
ATOM     97  C   UNL A   1      43.272  31.689  29.664  1.00  0.00    -0.036 A 
ATOM     98  H   UNL A   1      41.214  31.360  30.272  1.00  0.00     0.065 H 
ATOM     99  C   UNL A   1      44.201  30.834  29.094  1.00  0.00     0.049 A 
ATOM    100  H   UNL A   1      43.954  28.835  28.461  1.00  0.00     0.167 HD
ATOM    101  C   UNL A   1      46.433  30.198  28.216  1.00  0.00     0.074 A 
ATOM    102  C   UNL A   1      47.816  30.479  27.893  1.00  0.00    -0.034 C 
ATOM    103  H   UNL A   1      49.349  29.359  26.922  1.00  0.00     0.065 H 
ATOM    104  H   UNL A   1      43.438  32.674  29.922  1.00  0.00     0.065 H 
ATOM    105  C   UNL A   1      45.584  31.093  28.780  1.00  0.00     0.037 A 
ATOM    106  H   UNL A   1      48.290  31.372  28.093  1.00  0.00     0.065 H 
BRANCH  87 107
ATOM    107  C   UNL A   1      39.855  28.941  29.652  1.00  0.00     0.064 A 
ATOM    108  C   UNL A   1      39.442  28.683  30.968  1.00  0.00     0.173 A 
ATOM    109  C   UNL A   1      38.917  29.503  28.771  1.00  0.00     0.173 A 
ATOM    110  F   UNL A   1      40.294  28.134  31.848  1.00  0.00    -0.203 F 
ATOM    111  C   UNL A   1      38.136  28.942  31.376  1.00  0.00     0.198 A 
ATOM    112  C   UNL A   1      37.622  29.797  29.193  1.00  0.00     0.198 A 
ATOM    113  F   UNL A   1      39.258  29.776  27.504  1.00  0.00    -0.203 F 
ATOM    114  F   UNL A   1      37.750  28.632  32.621  1.00  0.00    -0.200 F 
ATOM    115  C   UNL A   1      37.231  29.507  30.490  1.00  0.00     0.200 A 
ATOM    116  F   UNL A   1      36.752  30.355  28.340  1.00  0.00    -0.200 F 
ATOM    117  F   UNL A   1      35.976  29.764  30.886  1.00  0.00    -0.200 F 
ENDBRANCH  87 107
BRANCH  90 118
ATOM    118  C   UNL A   1      49.013  26.764  26.289  1.00  0.00     0.064 A 
ATOM    119  C   UNL A   1      49.348  27.031  24.954  1.00  0.00     0.173 A 
ATOM    120  C   UNL A   1      49.999  26.191  27.105  1.00  0.00     0.173 A 
ATOM    121  F   UNL A   1      48.433  27.560  24.129  1.00  0.00    -0.203 F 
ATOM    122  C   UNL A   1      50.605  26.709  24.448  1.00  0.00     0.198 A 
ATOM    123  C   UNL A   1      51.267  25.900  26.607  1.00  0.00     0.198 A 
ATOM    124  F   UNL A   1      49.734  25.922  28.393  1.00  0.00    -0.203 F 
ATOM    125  F   UNL A   1      50.879  26.923  23.154  1.00  0.00    -0.200 F 
ATOM    126  C   UNL A   1      51.566  26.149  25.276  1.00  0.00     0.200 A 
ATOM    127  F   UNL A   1      52.198  25.375  27.416  1.00  0.00    -0.200 F 
ATOM    128  F   UNL A   1      52.777  25.841  24.790  1.00  0.00    -0.200 F 
ENDBRANCH  90 118
BRANCH 105 129
ATOM    129  C   UNL A   1      46.136  32.444  29.133  1.00  0.00     0.064 A 
ATOM    130  C   UNL A   1      46.079  33.526  28.242  1.00  0.00     0.173 A 
ATOM    131  C   UNL A   1      46.689  32.670  30.404  1.00  0.00     0.173 A 
ATOM    132  F   UNL A   1      45.573  33.360  27.010  1.00  0.00    -0.203 F 
ATOM    133  C   UNL A   1      46.579  34.775  28.600  1.00  0.00     0.198 A 
ATOM    134  C   UNL A   1      47.155  33.929  30.771  1.00  0.00     0.198 A 
ATOM    135  F   UNL A   1      46.760  31.672  31.297  1.00  0.00    -0.203 F 
ATOM    136  F   UNL A   1      46.560  35.781  27.714  1.00  0.00    -0.200 F 
ATOM    137  C   UNL A   1      47.107  34.978  29.866  1.00  0.00     0.200 A 
ATOM    138  F   UNL A   1      47.648  34.127  32.001  1.00  0.00    -0.200 F 
ATOM    139  F   UNL A   1      47.576  36.185  30.213  1.00  0.00    -0.200 F 
ENDBRANCH 105 129
ENDBRANCH  70  73
ENDBRANCH  60  63
ENDBRANCH  56  59
ENDBRANCH  53  56
ENDBRANCH  50  53
ENDBRANCH   1  50
TORSDOF 19
ENDMDL
MODEL 7
REMARK VINA RESULT:     -12.9      1.659      4.284
REMARK SMILES O=C1O[C@@H](c2ccc(O)c(O)c2)[C@H](C(=O)NCCCCCCNC(=O)c2ccc(-c3c4nc(c(-c5c(F)c(F)c(F)c(F)c5F)c5ccc([nH]5)c(-c5c(F)c(F)c(F)c(F)c5F)c5nc(c(-c6c(F)c(F)c(F)c(F)c6F)c6ccc3[nH]6)C=C5)C=C4)cc2)/C1=C\c1ccc(O)c(O)c1
REMARK SMILES IDX 19 1 18 4 17 7 16 10 14 11 15 12 13 14 1 15 2 16 3 17 89 18
REMARK SMILES IDX 4 19 90 20 5 24 6 25 12 26 7 27 10 29 8 31 11 33 9 35 91 37
REMARK SMILES IDX 92 38 98 39 93 40 96 42 94 44 97 46 95 48 20 50 21 53 22 56
REMARK SMILES IDX 23 59 24 60 25 62 26 63 27 64 88 65 28 66 87 68 29 70 30 73
REMARK SMILES IDX 31 74 81 75 32 76 86 77 80 78 82 79 33 80 85 81 79 83 78 85
REMARK SMILES IDX 34 87 66 90 46 91 65 92 47 93 50 94 64 95 83 96 48 97 49 99
REMARK SMILES IDX 63 101 84 102 51 105 35 107 36 108 44 109 37 110 38 111
REMARK SMILES IDX 42 112 45 113 39 114 40 115 43 116 41 117 67 118 68 119
REMARK SMILES IDX 76 120 69 121 70 122 74 123 77 124 71 125 72 126 75 127
REMARK SMILES IDX 73 128 52 129 53 130 61 131 54 132 55 133 59 134 62 135
REMARK SMILES IDX 56 136 57 137 60 138 58 139
REMARK H PARENT 19 2 19 3 18 5 18 6 17 8 17 9 16 13 4 21 13 22 90 23 6 28
REMARK H PARENT 12 30 7 32 11 34 9 36 92 41 98 43 93 45 97 47 95 49 20 51
REMARK H PARENT 20 52 21 54 21 55 22 57 22 58 23 61 27 67 88 69 28 71 87 72
REMARK H PARENT 86 82 80 84 82 86 85 88 79 89 47 98 50 100 83 103 48 104
REMARK H PARENT 84 106
REMARK Flexibility Score: inf
ROOT
ATOM      1  C   UNL A   1      32.163  29.283  26.264  1.00  0.00    -0.052 C 
ATOM      2  H   UNL A   1      33.051  29.101  25.696  1.00  0.00     0.027 H 
ATOM      3  H   UNL A   1      32.354  29.570  27.276  1.00  0.00     0.027 H 
ENDROOT
BRANCH   1   4
ATOM      4  C   UNL A   1      31.370  27.978  26.336  1.00  0.00    -0.036 C 
ATOM      5  H   UNL A   1      30.786  27.992  27.233  1.00  0.00     0.028 H 
ATOM      6  H   UNL A   1      30.773  27.934  25.450  1.00  0.00     0.028 H 
BRANCH   4   7
ATOM      7  C   UNL A   1      32.226  26.719  26.346  1.00  0.00     0.017 C 
ATOM      8  H   UNL A   1      32.589  26.550  25.355  1.00  0.00     0.049 H 
ATOM      9  H   UNL A   1      33.018  26.883  27.047  1.00  0.00     0.049 H 
BRANCH   7  10
ATOM     10  N   UNL A   1      31.513  25.538  26.780  1.00  0.00    -0.355 N 
ATOM     11  C   UNL A   1      31.823  24.213  26.650  1.00  0.00     0.231 C 
ATOM     12  O   UNL A   1      31.099  23.419  27.251  1.00  0.00    -0.274 OA
ATOM     13  H   UNL A   1      30.665  25.718  27.247  1.00  0.00     0.163 HD
BRANCH  11  14
ATOM     14  C   UNL A   1      32.957  23.764  25.720  1.00  0.00     0.111 C 
ATOM     15  O   UNL A   1      31.775  20.970  23.830  1.00  0.00    -0.247 OA
ATOM     16  C   UNL A   1      32.352  21.746  24.572  1.00  0.00     0.335 C 
ATOM     17  O   UNL A   1      33.080  21.395  25.660  1.00  0.00    -0.453 OA
ATOM     18  C   UNL A   1      32.407  23.213  24.446  1.00  0.00     0.054 C 
ATOM     19  C   UNL A   1      33.712  22.546  26.245  1.00  0.00     0.143 C 
ATOM     20  C   UNL A   1      32.014  23.806  23.309  1.00  0.00    -0.043 C 
ATOM     21  H   UNL A   1      33.654  22.542  27.313  1.00  0.00     0.081 H 
ATOM     22  H   UNL A   1      33.569  24.637  25.621  1.00  0.00     0.050 H 
ATOM     23  H   UNL A   1      31.670  23.203  22.545  1.00  0.00     0.063 H 
BRANCH  19  24
ATOM     24  C   UNL A   1      35.223  22.557  25.983  1.00  0.00    -0.002 A 
ATOM     25  C   UNL A   1      36.008  23.703  26.248  1.00  0.00    -0.051 A 
ATOM     26  C   UNL A   1      35.890  21.395  25.564  1.00  0.00    -0.009 A 
ATOM     27  C   UNL A   1      37.402  23.688  26.126  1.00  0.00    -0.016 A 
ATOM     28  H   UNL A   1      35.541  24.575  26.541  1.00  0.00     0.063 H 
ATOM     29  C   UNL A   1      37.273  21.394  25.421  1.00  0.00     0.157 A 
ATOM     30  H   UNL A   1      35.351  20.538  25.361  1.00  0.00     0.067 H 
ATOM     31  C   UNL A   1      38.029  22.526  25.712  1.00  0.00     0.157 A 
ATOM     32  H   UNL A   1      37.956  24.532  26.342  1.00  0.00     0.066 H 
BRANCH  29  33
ATOM     33  O   UNL A   1      37.898  20.255  25.001  1.00  0.00    -0.504 OA
ATOM     34  H   UNL A   1      37.423  19.448  24.960  1.00  0.00     0.293 HD
ENDBRANCH  29  33
BRANCH  31  35
ATOM     35  O   UNL A   1      39.385  22.444  25.579  1.00  0.00    -0.504 OA
ATOM     36  H   UNL A   1      39.906  22.116  26.285  1.00  0.00     0.293 HD
ENDBRANCH  31  35
ENDBRANCH  19  24
BRANCH  20  37
ATOM     37  C   UNL A   1      32.039  25.249  23.081  1.00  0.00    -0.021 A 
ATOM     38  C   UNL A   1      33.251  25.925  22.859  1.00  0.00    -0.051 A 
ATOM     39  C   UNL A   1      30.834  25.957  23.047  1.00  0.00    -0.009 A 
ATOM     40  C   UNL A   1      33.264  27.304  22.631  1.00  0.00    -0.016 A 
ATOM     41  H   UNL A   1      34.138  25.398  22.863  1.00  0.00     0.063 H 
ATOM     42  C   UNL A   1      30.855  27.325  22.812  1.00  0.00     0.157 A 
ATOM     43  H   UNL A   1      29.938  25.469  23.196  1.00  0.00     0.067 H 
ATOM     44  C   UNL A   1      32.059  27.997  22.612  1.00  0.00     0.157 A 
ATOM     45  H   UNL A   1      34.156  27.800  22.481  1.00  0.00     0.066 H 
BRANCH  42  46
ATOM     46  O   UNL A   1      29.678  28.014  22.774  1.00  0.00    -0.504 OA
ATOM     47  H   UNL A   1      29.332  28.397  23.556  1.00  0.00     0.293 HD
ENDBRANCH  42  46
BRANCH  44  48
ATOM     48  O   UNL A   1      32.005  29.345  22.392  1.00  0.00    -0.504 OA
ATOM     49  H   UNL A   1      32.507  29.727  21.698  1.00  0.00     0.293 HD
ENDBRANCH  44  48
ENDBRANCH  20  37
ENDBRANCH  11  14
ENDBRANCH   7  10
ENDBRANCH   4   7
ENDBRANCH   1   4
BRANCH   1  50
ATOM     50  C   UNL A   1      31.422  30.461  25.620  1.00  0.00    -0.052 C 
ATOM     51  H   UNL A   1      30.442  30.127  25.351  1.00  0.00     0.027 H 
ATOM     52  H   UNL A   1      32.018  30.762  24.785  1.00  0.00     0.027 H 
BRANCH  50  53
ATOM     53  C   UNL A   1      31.273  31.703  26.501  1.00  0.00    -0.036 C 
ATOM     54  H   UNL A   1      30.782  31.411  27.406  1.00  0.00     0.028 H 
ATOM     55  H   UNL A   1      30.714  32.414  25.930  1.00  0.00     0.028 H 
BRANCH  53  56
ATOM     56  C   UNL A   1      32.585  32.383  26.870  1.00  0.00     0.018 C 
ATOM     57  H   UNL A   1      33.210  32.418  26.003  1.00  0.00     0.049 H 
ATOM     58  H   UNL A   1      33.039  31.817  27.656  1.00  0.00     0.049 H 
BRANCH  56  59
ATOM     59  N   UNL A   1      32.383  33.738  27.356  1.00  0.00    -0.352 N 
ATOM     60  C   UNL A   1      33.021  34.397  28.376  1.00  0.00     0.251 C 
ATOM     61  H   UNL A   1      31.690  34.256  26.887  1.00  0.00     0.163 HD
ATOM     62  O   UNL A   1      32.596  35.473  28.782  1.00  0.00    -0.269 OA
BRANCH  60  63
ATOM     63  C   UNL A   1      34.218  33.795  28.999  1.00  0.00     0.039 A 
ATOM     64  C   UNL A   1      35.472  34.352  28.738  1.00  0.00    -0.049 A 
ATOM     65  C   UNL A   1      34.101  32.682  29.836  1.00  0.00    -0.049 A 
ATOM     66  C   UNL A   1      36.604  33.827  29.362  1.00  0.00    -0.053 A 
ATOM     67  H   UNL A   1      35.559  35.148  28.087  1.00  0.00     0.063 H 
ATOM     68  C   UNL A   1      35.217  32.212  30.520  1.00  0.00    -0.053 A 
ATOM     69  H   UNL A   1      33.189  32.211  29.949  1.00  0.00     0.063 H 
ATOM     70  C   UNL A   1      36.482  32.773  30.283  1.00  0.00    -0.014 A 
ATOM     71  H   UNL A   1      37.535  34.214  29.147  1.00  0.00     0.063 H 
ATOM     72  H   UNL A   1      35.116  31.446  31.204  1.00  0.00     0.063 H 
BRANCH  70  73
ATOM     73  C   UNL A   1      37.664  32.228  30.996  1.00  0.00     0.031 A 
ATOM     74  C   UNL A   1      38.507  31.166  30.348  1.00  0.00     0.074 A 
ATOM     75  C   UNL A   1      37.938  32.638  32.250  1.00  0.00     0.049 A 
ATOM     76  N   UNL A   1      39.521  30.497  30.836  1.00  0.00    -0.248 NA
ATOM     77  C   UNL A   1      38.145  30.782  28.974  1.00  0.00    -0.034 C 
ATOM     78  C   UNL A   1      37.172  33.635  32.999  1.00  0.00    -0.036 A 
ATOM     79  N   UNL A   1      38.930  32.258  33.120  1.00  0.00    -0.354 N 
ATOM     80  C   UNL A   1      39.904  29.610  29.839  1.00  0.00     0.074 A 
ATOM     81  C   UNL A   1      38.978  29.780  28.742  1.00  0.00    -0.034 C 
ATOM     82  H   UNL A   1      37.426  31.190  28.353  1.00  0.00     0.065 H 
ATOM     83  C   UNL A   1      37.735  33.804  34.207  1.00  0.00    -0.036 A 
ATOM     84  H   UNL A   1      36.334  34.130  32.656  1.00  0.00     0.065 H 
ATOM     85  C   UNL A   1      38.871  32.896  34.335  1.00  0.00     0.049 A 
ATOM     86  H   UNL A   1      39.619  31.592  32.893  1.00  0.00     0.167 HD
ATOM     87  C   UNL A   1      40.950  28.749  29.831  1.00  0.00     0.037 A 
ATOM     88  H   UNL A   1      38.967  29.198  27.891  1.00  0.00     0.065 H 
ATOM     89  H   UNL A   1      37.415  34.468  34.929  1.00  0.00     0.065 H 
ATOM     90  C   UNL A   1      39.640  32.753  35.431  1.00  0.00     0.037 A 
ATOM     91  C   UNL A   1      41.881  28.599  30.918  1.00  0.00     0.049 A 
ATOM     92  C   UNL A   1      40.780  31.770  35.405  1.00  0.00     0.074 A 
ATOM     93  C   UNL A   1      43.002  27.791  30.988  1.00  0.00    -0.036 A 
ATOM     94  N   UNL A   1      41.796  29.272  32.128  1.00  0.00    -0.354 N 
ATOM     95  N   UNL A   1      41.170  30.979  34.435  1.00  0.00    -0.248 NA
ATOM     96  C   UNL A   1      41.592  31.665  36.625  1.00  0.00    -0.034 C 
ATOM     97  C   UNL A   1      43.562  27.931  32.262  1.00  0.00    -0.036 A 
ATOM     98  H   UNL A   1      43.362  27.190  30.231  1.00  0.00     0.065 H 
ATOM     99  C   UNL A   1      42.830  28.877  32.962  1.00  0.00     0.049 A 
ATOM    100  H   UNL A   1      41.103  29.932  32.361  1.00  0.00     0.167 HD
ATOM    101  C   UNL A   1      42.291  30.313  34.912  1.00  0.00     0.074 A 
ATOM    102  C   UNL A   1      42.526  30.800  36.255  1.00  0.00    -0.034 C 
ATOM    103  H   UNL A   1      41.468  32.141  37.532  1.00  0.00     0.065 H 
ATOM    104  H   UNL A   1      44.381  27.417  32.620  1.00  0.00     0.065 H 
ATOM    105  C   UNL A   1      43.060  29.383  34.292  1.00  0.00     0.037 A 
ATOM    106  H   UNL A   1      43.318  30.511  36.848  1.00  0.00     0.065 H 
BRANCH  87 107
ATOM    107  C   UNL A   1      41.141  27.900  28.606  1.00  0.00     0.064 A 
ATOM    108  C   UNL A   1      40.556  26.630  28.488  1.00  0.00     0.173 A 
ATOM    109  C   UNL A   1      41.892  28.377  27.519  1.00  0.00     0.173 A 
ATOM    110  F   UNL A   1      39.838  26.120  29.501  1.00  0.00    -0.203 F 
ATOM    111  C   UNL A   1      40.743  25.856  27.346  1.00  0.00     0.198 A 
ATOM    112  C   UNL A   1      42.046  27.616  26.363  1.00  0.00     0.198 A 
ATOM    113  F   UNL A   1      42.470  29.586  27.575  1.00  0.00    -0.203 F 
ATOM    114  F   UNL A   1      40.222  24.623  27.281  1.00  0.00    -0.200 F 
ATOM    115  C   UNL A   1      41.480  26.353  26.282  1.00  0.00     0.200 A 
ATOM    116  F   UNL A   1      42.747  28.103  25.331  1.00  0.00    -0.200 F 
ATOM    117  F   UNL A   1      41.653  25.610  25.179  1.00  0.00    -0.200 F 
ENDBRANCH  87 107
BRANCH  90 118
ATOM    118  C   UNL A   1      39.369  33.572  36.644  1.00  0.00     0.064 A 
ATOM    119  C   UNL A   1      39.899  34.864  36.773  1.00  0.00     0.173 A 
ATOM    120  C   UNL A   1      38.589  33.079  37.701  1.00  0.00     0.173 A 
ATOM    121  F   UNL A   1      40.667  35.372  35.799  1.00  0.00    -0.203 F 
ATOM    122  C   UNL A   1      39.683  35.619  37.924  1.00  0.00     0.198 A 
ATOM    123  C   UNL A   1      38.347  33.848  38.836  1.00  0.00     0.198 A 
ATOM    124  F   UNL A   1      38.053  31.852  37.624  1.00  0.00    -0.203 F 
ATOM    125  F   UNL A   1      40.248  36.828  38.045  1.00  0.00    -0.200 F 
ATOM    126  C   UNL A   1      38.903  35.113  38.952  1.00  0.00     0.200 A 
ATOM    127  F   UNL A   1      37.578  33.361  39.820  1.00  0.00    -0.200 F 
ATOM    128  F   UNL A   1      38.694  35.840  40.059  1.00  0.00    -0.200 F 
ENDBRANCH  90 118
BRANCH 105 129
ATOM    129  C   UNL A   1      44.258  28.867  35.036  1.00  0.00     0.064 A 
ATOM    130  C   UNL A   1      45.503  29.511  34.977  1.00  0.00     0.173 A 
ATOM    131  C   UNL A   1      44.144  27.735  35.859  1.00  0.00     0.173 A 
ATOM    132  F   UNL A   1      45.669  30.589  34.195  1.00  0.00    -0.203 F 
ATOM    133  C   UNL A   1      46.594  29.026  35.693  1.00  0.00     0.198 A 
ATOM    134  C   UNL A   1      45.227  27.275  36.600  1.00  0.00     0.198 A 
ATOM    135  F   UNL A   1      42.974  27.087  35.958  1.00  0.00    -0.203 F 
ATOM    136  F   UNL A   1      47.787  29.628  35.581  1.00  0.00    -0.200 F 
ATOM    137  C   UNL A   1      46.453  27.915  36.510  1.00  0.00     0.200 A 
ATOM    138  F   UNL A   1      45.083  26.211  37.403  1.00  0.00    -0.200 F 
ATOM    139  F   UNL A   1      47.502  27.457  37.208  1.00  0.00    -0.200 F 
ENDBRANCH 105 129
ENDBRANCH  70  73
ENDBRANCH  60  63
ENDBRANCH  56  59
ENDBRANCH  53  56
ENDBRANCH  50  53
ENDBRANCH   1  50
TORSDOF 19
ENDMDL
MODEL 8
REMARK VINA RESULT:     -12.9      1.749      8.151
REMARK SMILES O=C1O[C@@H](c2ccc(O)c(O)c2)[C@H](C(=O)NCCCCCCNC(=O)c2ccc(-c3c4nc(c(-c5c(F)c(F)c(F)c(F)c5F)c5ccc([nH]5)c(-c5c(F)c(F)c(F)c(F)c5F)c5nc(c(-c6c(F)c(F)c(F)c(F)c6F)c6ccc3[nH]6)C=C5)C=C4)cc2)/C1=C\c1ccc(O)c(O)c1
REMARK SMILES IDX 19 1 18 4 17 7 16 10 14 11 15 12 13 14 1 15 2 16 3 17 89 18
REMARK SMILES IDX 4 19 90 20 5 24 6 25 12 26 7 27 10 29 8 31 11 33 9 35 91 37
REMARK SMILES IDX 92 38 98 39 93 40 96 42 94 44 97 46 95 48 20 50 21 53 22 56
REMARK SMILES IDX 23 59 24 60 25 62 26 63 27 64 88 65 28 66 87 68 29 70 30 73
REMARK SMILES IDX 31 74 81 75 32 76 86 77 80 78 82 79 33 80 85 81 79 83 78 85
REMARK SMILES IDX 34 87 66 90 46 91 65 92 47 93 50 94 64 95 83 96 48 97 49 99
REMARK SMILES IDX 63 101 84 102 51 105 35 107 36 108 44 109 37 110 38 111
REMARK SMILES IDX 42 112 45 113 39 114 40 115 43 116 41 117 67 118 68 119
REMARK SMILES IDX 76 120 69 121 70 122 74 123 77 124 71 125 72 126 75 127
REMARK SMILES IDX 73 128 52 129 53 130 61 131 54 132 55 133 59 134 62 135
REMARK SMILES IDX 56 136 57 137 60 138 58 139
REMARK H PARENT 19 2 19 3 18 5 18 6 17 8 17 9 16 13 4 21 13 22 90 23 6 28
REMARK H PARENT 12 30 7 32 11 34 9 36 92 41 98 43 93 45 97 47 95 49 20 51
REMARK H PARENT 20 52 21 54 21 55 22 57 22 58 23 61 27 67 88 69 28 71 87 72
REMARK H PARENT 86 82 80 84 82 86 85 88 79 89 47 98 50 100 83 103 48 104
REMARK H PARENT 84 106
REMARK Flexibility Score: inf
ROOT
ATOM      1  C   UNL A   1      32.017  28.990  26.548  1.00  0.00    -0.052 C 
ATOM      2  H   UNL A   1      33.066  28.812  26.435  1.00  0.00     0.027 H 
ATOM      3  H   UNL A   1      31.731  29.239  27.548  1.00  0.00     0.027 H 
ENDROOT
BRANCH   1   4
ATOM      4  C   UNL A   1      31.277  27.697  26.204  1.00  0.00    -0.036 C 
ATOM      5  H   UNL A   1      30.440  27.607  26.864  1.00  0.00     0.028 H 
ATOM      6  H   UNL A   1      30.993  27.772  25.176  1.00  0.00     0.028 H 
BRANCH   4   7
ATOM      7  C   UNL A   1      32.119  26.435  26.330  1.00  0.00     0.017 C 
ATOM      8  H   UNL A   1      32.464  26.160  25.356  1.00  0.00     0.049 H 
ATOM      9  H   UNL A   1      32.924  26.660  26.998  1.00  0.00     0.049 H 
BRANCH   7  10
ATOM     10  N   UNL A   1      31.400  25.314  26.895  1.00  0.00    -0.355 N 
ATOM     11  C   UNL A   1      31.675  23.975  26.866  1.00  0.00     0.231 C 
ATOM     12  O   UNL A   1      30.961  23.254  27.563  1.00  0.00    -0.274 OA
ATOM     13  H   UNL A   1      30.577  25.554  27.379  1.00  0.00     0.163 HD
BRANCH  11  14
ATOM     14  C   UNL A   1      32.756  23.420  25.931  1.00  0.00     0.111 C 
ATOM     15  O   UNL A   1      31.643  20.237  24.747  1.00  0.00    -0.247 OA
ATOM     16  C   UNL A   1      32.218  21.179  25.262  1.00  0.00     0.335 C 
ATOM     17  O   UNL A   1      33.063  21.099  26.319  1.00  0.00    -0.453 OA
ATOM     18  C   UNL A   1      32.144  22.592  24.850  1.00  0.00     0.054 C 
ATOM     19  C   UNL A   1      33.649  22.380  26.603  1.00  0.00     0.143 C 
ATOM     20  C   UNL A   1      31.608  22.920  23.665  1.00  0.00    -0.043 C 
ATOM     21  H   UNL A   1      33.684  22.586  27.652  1.00  0.00     0.081 H 
ATOM     22  H   UNL A   1      33.285  24.291  25.604  1.00  0.00     0.050 H 
ATOM     23  H   UNL A   1      31.249  22.157  23.071  1.00  0.00     0.063 H 
BRANCH  19  24
ATOM     24  C   UNL A   1      35.126  22.431  26.194  1.00  0.00    -0.002 A 
ATOM     25  C   UNL A   1      35.895  23.606  26.356  1.00  0.00    -0.051 A 
ATOM     26  C   UNL A   1      35.786  21.280  25.734  1.00  0.00    -0.009 A 
ATOM     27  C   UNL A   1      37.270  23.632  26.098  1.00  0.00    -0.016 A 
ATOM     28  H   UNL A   1      35.430  24.470  26.676  1.00  0.00     0.063 H 
ATOM     29  C   UNL A   1      37.149  21.319  25.456  1.00  0.00     0.157 A 
ATOM     30  H   UNL A   1      35.259  20.403  25.602  1.00  0.00     0.067 H 
ATOM     31  C   UNL A   1      37.891  22.480  25.648  1.00  0.00     0.157 A 
ATOM     32  H   UNL A   1      37.815  24.497  26.241  1.00  0.00     0.066 H 
BRANCH  29  33
ATOM     33  O   UNL A   1      37.766  20.190  24.999  1.00  0.00    -0.504 OA
ATOM     34  H   UNL A   1      37.278  19.395  24.904  1.00  0.00     0.293 HD
ENDBRANCH  29  33
BRANCH  31  35
ATOM     35  O   UNL A   1      39.230  22.436  25.384  1.00  0.00    -0.504 OA
ATOM     36  H   UNL A   1      39.761  21.764  25.762  1.00  0.00     0.293 HD
ENDBRANCH  31  35
ENDBRANCH  19  24
BRANCH  20  37
ATOM     37  C   UNL A   1      31.498  24.287  23.161  1.00  0.00    -0.021 A 
ATOM     38  C   UNL A   1      30.381  25.082  23.465  1.00  0.00    -0.051 A 
ATOM     39  C   UNL A   1      32.541  24.820  22.396  1.00  0.00    -0.009 A 
ATOM     40  C   UNL A   1      30.289  26.392  22.986  1.00  0.00    -0.016 A 
ATOM     41  H   UNL A   1      29.621  24.695  24.047  1.00  0.00     0.063 H 
ATOM     42  C   UNL A   1      32.445  26.125  21.932  1.00  0.00     0.157 A 
ATOM     43  H   UNL A   1      33.372  24.249  22.178  1.00  0.00     0.067 H 
ATOM     44  C   UNL A   1      31.327  26.905  22.218  1.00  0.00     0.157 A 
ATOM     45  H   UNL A   1      29.461  26.970  23.201  1.00  0.00     0.066 H 
BRANCH  42  46
ATOM     46  O   UNL A   1      33.466  26.645  21.191  1.00  0.00    -0.504 OA
ATOM     47  H   UNL A   1      33.285  27.076  20.379  1.00  0.00     0.293 HD
ENDBRANCH  42  46
BRANCH  44  48
ATOM     48  O   UNL A   1      31.298  28.178  21.723  1.00  0.00    -0.504 OA
ATOM     49  H   UNL A   1      30.739  28.821  22.115  1.00  0.00     0.293 HD
ENDBRANCH  44  48
ENDBRANCH  20  37
ENDBRANCH  11  14
ENDBRANCH   7  10
ENDBRANCH   4   7
ENDBRANCH   1   4
BRANCH   1  50
ATOM     50  C   UNL A   1      31.647  30.201  25.684  1.00  0.00    -0.052 C 
ATOM     51  H   UNL A   1      30.752  29.965  25.149  1.00  0.00     0.027 H 
ATOM     52  H   UNL A   1      32.491  30.381  25.052  1.00  0.00     0.027 H 
BRANCH  50  53
ATOM     53  C   UNL A   1      31.409  31.504  26.451  1.00  0.00    -0.036 C 
ATOM     54  H   UNL A   1      30.684  31.314  27.214  1.00  0.00     0.028 H 
ATOM     55  H   UNL A   1      31.082  32.224  25.730  1.00  0.00     0.028 H 
BRANCH  53  56
ATOM     56  C   UNL A   1      32.650  32.091  27.112  1.00  0.00     0.018 C 
ATOM     57  H   UNL A   1      33.482  31.970  26.449  1.00  0.00     0.049 H 
ATOM     58  H   UNL A   1      32.808  31.572  28.034  1.00  0.00     0.049 H 
BRANCH  56  59
ATOM     59  N   UNL A   1      32.495  33.503  27.416  1.00  0.00    -0.352 N 
ATOM     60  C   UNL A   1      33.162  34.270  28.337  1.00  0.00     0.251 C 
ATOM     61  H   UNL A   1      31.814  33.978  26.886  1.00  0.00     0.163 HD
ATOM     62  O   UNL A   1      32.774  35.403  28.600  1.00  0.00    -0.269 OA
BRANCH  60  63
ATOM     63  C   UNL A   1      34.344  33.717  29.028  1.00  0.00     0.039 A 
ATOM     64  C   UNL A   1      34.159  32.773  30.041  1.00  0.00    -0.049 A 
ATOM     65  C   UNL A   1      35.632  34.130  28.676  1.00  0.00    -0.049 A 
ATOM     66  C   UNL A   1      35.269  32.203  30.665  1.00  0.00    -0.053 A 
ATOM     67  H   UNL A   1      33.205  32.500  30.326  1.00  0.00     0.063 H 
ATOM     68  C   UNL A   1      36.737  33.502  29.241  1.00  0.00    -0.053 A 
ATOM     69  H   UNL A   1      35.764  34.898  28.000  1.00  0.00     0.063 H 
ATOM     70  C   UNL A   1      36.568  32.539  30.247  1.00  0.00    -0.014 A 
ATOM     71  H   UNL A   1      35.136  31.530  31.435  1.00  0.00     0.063 H 
ATOM     72  H   UNL A   1      37.687  33.745  28.919  1.00  0.00     0.063 H 
BRANCH  70  73
ATOM     73  C   UNL A   1      37.765  31.910  30.862  1.00  0.00     0.031 A 
ATOM     74  C   UNL A   1      38.232  32.356  32.219  1.00  0.00     0.074 A 
ATOM     75  C   UNL A   1      38.467  30.990  30.172  1.00  0.00     0.049 A 
ATOM     76  N   UNL A   1      39.301  32.002  32.886  1.00  0.00    -0.248 NA
ATOM     77  C   UNL A   1      37.403  33.358  32.907  1.00  0.00    -0.034 C 
ATOM     78  C   UNL A   1      38.134  30.502  28.833  1.00  0.00    -0.036 A 
ATOM     79  N   UNL A   1      39.612  30.309  30.498  1.00  0.00    -0.354 N 
ATOM     80  C   UNL A   1      39.278  32.745  34.059  1.00  0.00     0.074 A 
ATOM     81  C   UNL A   1      38.124  33.614  33.987  1.00  0.00    -0.034 C 
ATOM     82  H   UNL A   1      36.494  33.757  32.621  1.00  0.00     0.065 H 
ATOM     83  C   UNL A   1      39.042  29.586  28.461  1.00  0.00    -0.036 A 
ATOM     84  H   UNL A   1      37.331  30.813  28.264  1.00  0.00     0.065 H 
ATOM     85  C   UNL A   1      40.045  29.454  29.514  1.00  0.00     0.049 A 
ATOM     86  H   UNL A   1      40.080  30.422  31.358  1.00  0.00     0.167 HD
ATOM     87  C   UNL A   1      40.127  32.688  35.113  1.00  0.00     0.037 A 
ATOM     88  H   UNL A   1      37.894  34.338  34.684  1.00  0.00     0.065 H 
ATOM     89  H   UNL A   1      39.034  29.059  27.574  1.00  0.00     0.065 H 
ATOM     90  C   UNL A   1      41.135  28.665  29.463  1.00  0.00     0.037 A 
ATOM     91  C   UNL A   1      41.261  31.805  35.188  1.00  0.00     0.049 A 
ATOM     92  C   UNL A   1      42.078  28.639  30.636  1.00  0.00     0.074 A 
ATOM     93  C   UNL A   1      42.155  31.635  36.230  1.00  0.00    -0.036 A 
ATOM     94  N   UNL A   1      41.661  30.944  34.175  1.00  0.00    -0.354 N 
ATOM     95  N   UNL A   1      42.013  29.301  31.766  1.00  0.00    -0.248 NA
ATOM     96  C   UNL A   1      43.243  27.751  30.531  1.00  0.00    -0.034 C 
ATOM     97  C   UNL A   1      43.128  30.716  35.827  1.00  0.00    -0.036 A 
ATOM     98  H   UNL A   1      42.111  32.106  37.147  1.00  0.00     0.065 H 
ATOM     99  C   UNL A   1      42.803  30.261  34.559  1.00  0.00     0.049 A 
ATOM    100  H   UNL A   1      41.201  30.835  33.311  1.00  0.00     0.167 HD
ATOM    101  C   UNL A   1      43.103  28.883  32.518  1.00  0.00     0.074 A 
ATOM    102  C   UNL A   1      43.807  27.901  31.721  1.00  0.00    -0.034 C 
ATOM    103  H   UNL A   1      43.543  27.162  29.738  1.00  0.00     0.065 H 
ATOM    104  H   UNL A   1      43.949  30.425  36.381  1.00  0.00     0.065 H 
ATOM    105  C   UNL A   1      43.484  29.274  33.760  1.00  0.00     0.037 A 
ATOM    106  H   UNL A   1      44.642  27.385  32.038  1.00  0.00     0.065 H 
BRANCH  87 107
ATOM    107  C   UNL A   1      39.863  33.609  36.270  1.00  0.00     0.064 A 
ATOM    108  C   UNL A   1      40.447  34.882  36.350  1.00  0.00     0.173 A 
ATOM    109  C   UNL A   1      38.984  33.227  37.297  1.00  0.00     0.173 A 
ATOM    110  F   UNL A   1      41.304  35.293  35.403  1.00  0.00    -0.203 F 
ATOM    111  C   UNL A   1      40.191  35.723  37.430  1.00  0.00     0.198 A 
ATOM    112  C   UNL A   1      38.701  34.086  38.356  1.00  0.00     0.198 A 
ATOM    113  F   UNL A   1      38.393  32.024  37.269  1.00  0.00    -0.203 F 
ATOM    114  F   UNL A   1      40.807  36.911  37.512  1.00  0.00    -0.200 F 
ATOM    115  C   UNL A   1      39.312  35.328  38.426  1.00  0.00     0.200 A 
ATOM    116  F   UNL A   1      37.840  33.708  39.311  1.00  0.00    -0.200 F 
ATOM    117  F   UNL A   1      39.060  36.142  39.461  1.00  0.00    -0.200 F 
ENDBRANCH  87 107
BRANCH  90 118
ATOM    118  C   UNL A   1      41.387  27.818  28.266  1.00  0.00     0.064 A 
ATOM    119  C   UNL A   1      40.849  26.527  28.170  1.00  0.00     0.173 A 
ATOM    120  C   UNL A   1      42.180  28.274  27.202  1.00  0.00     0.173 A 
ATOM    121  F   UNL A   1      40.101  26.039  29.169  1.00  0.00    -0.203 F 
ATOM    122  C   UNL A   1      41.116  25.715  27.069  1.00  0.00     0.198 A 
ATOM    123  C   UNL A   1      42.419  27.473  26.087  1.00  0.00     0.198 A 
ATOM    124  F   UNL A   1      42.714  29.504  27.240  1.00  0.00    -0.203 F 
ATOM    125  F   UNL A   1      40.634  24.465  27.030  1.00  0.00    -0.200 F 
ATOM    126  C   UNL A   1      41.896  26.190  26.027  1.00  0.00     0.200 A 
ATOM    127  F   UNL A   1      43.160  27.943  25.075  1.00  0.00    -0.200 F 
ATOM    128  F   UNL A   1      42.153  25.409  24.968  1.00  0.00    -0.200 F 
ENDBRANCH  90 118
BRANCH 105 129
ATOM    129  C   UNL A   1      44.688  28.604  34.357  1.00  0.00     0.064 A 
ATOM    130  C   UNL A   1      45.977  29.148  34.239  1.00  0.00     0.173 A 
ATOM    131  C   UNL A   1      44.542  27.422  35.101  1.00  0.00     0.173 A 
ATOM    132  F   UNL A   1      46.173  30.268  33.528  1.00  0.00    -0.203 F 
ATOM    133  C   UNL A   1      47.074  28.519  34.820  1.00  0.00     0.198 A 
ATOM    134  C   UNL A   1      45.636  26.817  35.711  1.00  0.00     0.198 A 
ATOM    135  F   UNL A   1      43.331  26.865  35.252  1.00  0.00    -0.203 F 
ATOM    136  F   UNL A   1      48.302  29.030  34.651  1.00  0.00    -0.200 F 
ATOM    137  C   UNL A   1      46.903  27.361  35.563  1.00  0.00     0.200 A 
ATOM    138  F   UNL A   1      45.465  25.707  36.442  1.00  0.00    -0.200 F 
ATOM    139  F   UNL A   1      47.960  26.765  36.131  1.00  0.00    -0.200 F 
ENDBRANCH 105 129
ENDBRANCH  70  73
ENDBRANCH  60  63
ENDBRANCH  56  59
ENDBRANCH  53  56
ENDBRANCH  50  53
ENDBRANCH   1  50
TORSDOF 19
ENDMDL
MODEL 9
REMARK VINA RESULT:     -12.9      6.230     10.964
REMARK SMILES O=C1O[C@@H](c2ccc(O)c(O)c2)[C@H](C(=O)NCCCCCCNC(=O)c2ccc(-c3c4nc(c(-c5c(F)c(F)c(F)c(F)c5F)c5ccc([nH]5)c(-c5c(F)c(F)c(F)c(F)c5F)c5nc(c(-c6c(F)c(F)c(F)c(F)c6F)c6ccc3[nH]6)C=C5)C=C4)cc2)/C1=C\c1ccc(O)c(O)c1
REMARK SMILES IDX 19 1 18 4 17 7 16 10 14 11 15 12 13 14 1 15 2 16 3 17 89 18
REMARK SMILES IDX 4 19 90 20 5 24 6 25 12 26 7 27 10 29 8 31 11 33 9 35 91 37
REMARK SMILES IDX 92 38 98 39 93 40 96 42 94 44 97 46 95 48 20 50 21 53 22 56
REMARK SMILES IDX 23 59 24 60 25 62 26 63 27 64 88 65 28 66 87 68 29 70 30 73
REMARK SMILES IDX 31 74 81 75 32 76 86 77 80 78 82 79 33 80 85 81 79 83 78 85
REMARK SMILES IDX 34 87 66 90 46 91 65 92 47 93 50 94 64 95 83 96 48 97 49 99
REMARK SMILES IDX 63 101 84 102 51 105 35 107 36 108 44 109 37 110 38 111
REMARK SMILES IDX 42 112 45 113 39 114 40 115 43 116 41 117 67 118 68 119
REMARK SMILES IDX 76 120 69 121 70 122 74 123 77 124 71 125 72 126 75 127
REMARK SMILES IDX 73 128 52 129 53 130 61 131 54 132 55 133 59 134 62 135
REMARK SMILES IDX 56 136 57 137 60 138 58 139
REMARK H PARENT 19 2 19 3 18 5 18 6 17 8 17 9 16 13 4 21 13 22 90 23 6 28
REMARK H PARENT 12 30 7 32 11 34 9 36 92 41 98 43 93 45 97 47 95 49 20 51
REMARK H PARENT 20 52 21 54 21 55 22 57 22 58 23 61 27 67 88 69 28 71 87 72
REMARK H PARENT 86 82 80 84 82 86 85 88 79 89 47 98 50 100 83 103 48 104
REMARK H PARENT 84 106
REMARK Flexibility Score: inf
ROOT
ATOM      1  C   UNL A   1      39.550  21.475  26.141  1.00  0.00    -0.052 C 
ATOM      2  H   UNL A   1      39.171  21.565  27.137  1.00  0.00     0.027 H 
ATOM      3  H   UNL A   1      39.541  22.394  25.595  1.00  0.00     0.027 H 
ENDROOT
BRANCH   1   4
ATOM      4  C   UNL A   1      38.640  20.516  25.372  1.00  0.00    -0.036 C 
ATOM      5  H   UNL A   1      39.210  20.080  24.578  1.00  0.00     0.028 H 
ATOM      6  H   UNL A   1      38.289  19.795  26.079  1.00  0.00     0.028 H 
BRANCH   4   7
ATOM      7  C   UNL A   1      37.404  21.168  24.768  1.00  0.00     0.017 C 
ATOM      8  H   UNL A   1      37.529  21.212  23.707  1.00  0.00     0.049 H 
ATOM      9  H   UNL A   1      36.563  20.572  25.054  1.00  0.00     0.049 H 
BRANCH   7  10
ATOM     10  N   UNL A   1      37.161  22.508  25.256  1.00  0.00    -0.355 N 
ATOM     11  C   UNL A   1      35.993  23.133  25.595  1.00  0.00     0.231 C 
ATOM     12  O   UNL A   1      36.098  24.239  26.126  1.00  0.00    -0.274 OA
ATOM     13  H   UNL A   1      37.968  23.061  25.361  1.00  0.00     0.163 HD
BRANCH  11  14
ATOM     14  C   UNL A   1      34.639  22.510  25.232  1.00  0.00     0.111 C 
ATOM     15  O   UNL A   1      32.552  22.674  28.128  1.00  0.00    -0.247 OA
ATOM     16  C   UNL A   1      33.238  22.354  27.173  1.00  0.00     0.335 C 
ATOM     17  O   UNL A   1      33.853  21.157  27.016  1.00  0.00    -0.453 OA
ATOM     18  C   UNL A   1      33.535  23.174  25.985  1.00  0.00     0.054 C 
ATOM     19  C   UNL A   1      34.491  21.075  25.730  1.00  0.00     0.143 C 
ATOM     20  C   UNL A   1      32.830  24.289  25.744  1.00  0.00    -0.043 C 
ATOM     21  H   UNL A   1      35.462  20.630  25.786  1.00  0.00     0.081 H 
ATOM     22  H   UNL A   1      34.593  22.600  24.166  1.00  0.00     0.050 H 
ATOM     23  H   UNL A   1      32.093  24.548  26.418  1.00  0.00     0.063 H 
BRANCH  19  24
ATOM     24  C   UNL A   1      33.736  20.134  24.783  1.00  0.00    -0.002 A 
ATOM     25  C   UNL A   1      32.762  20.622  23.881  1.00  0.00    -0.051 A 
ATOM     26  C   UNL A   1      34.059  18.769  24.715  1.00  0.00    -0.009 A 
ATOM     27  C   UNL A   1      32.153  19.794  22.932  1.00  0.00    -0.016 A 
ATOM     28  H   UNL A   1      32.495  21.618  23.922  1.00  0.00     0.063 H 
ATOM     29  C   UNL A   1      33.431  17.947  23.785  1.00  0.00     0.157 A 
ATOM     30  H   UNL A   1      34.765  18.375  25.357  1.00  0.00     0.067 H 
ATOM     31  C   UNL A   1      32.495  18.454  22.890  1.00  0.00     0.157 A 
ATOM     32  H   UNL A   1      31.458  20.177  22.272  1.00  0.00     0.066 H 
BRANCH  29  33
ATOM     33  O   UNL A   1      33.754  16.621  23.746  1.00  0.00    -0.504 OA
ATOM     34  H   UNL A   1      33.856  16.140  24.544  1.00  0.00     0.293 HD
ENDBRANCH  29  33
BRANCH  31  35
ATOM     35  O   UNL A   1      31.941  17.595  21.985  1.00  0.00    -0.504 OA
ATOM     36  H   UNL A   1      32.444  17.299  21.252  1.00  0.00     0.293 HD
ENDBRANCH  31  35
ENDBRANCH  19  24
BRANCH  20  37
ATOM     37  C   UNL A   1      33.038  25.162  24.592  1.00  0.00    -0.021 A 
ATOM     38  C   UNL A   1      33.450  26.495  24.759  1.00  0.00    -0.051 A 
ATOM     39  C   UNL A   1      32.861  24.648  23.303  1.00  0.00    -0.009 A 
ATOM     40  C   UNL A   1      33.656  27.320  23.649  1.00  0.00    -0.016 A 
ATOM     41  H   UNL A   1      33.601  26.868  25.708  1.00  0.00     0.063 H 
ATOM     42  C   UNL A   1      33.076  25.471  22.207  1.00  0.00     0.157 A 
ATOM     43  H   UNL A   1      32.572  23.667  23.168  1.00  0.00     0.067 H 
ATOM     44  C   UNL A   1      33.465  26.799  22.375  1.00  0.00     0.157 A 
ATOM     45  H   UNL A   1      33.946  28.302  23.775  1.00  0.00     0.066 H 
BRANCH  42  46
ATOM     46  O   UNL A   1      32.908  24.966  20.950  1.00  0.00    -0.504 OA
ATOM     47  H   UNL A   1      32.747  24.051  20.829  1.00  0.00     0.293 HD
ENDBRANCH  42  46
BRANCH  44  48
ATOM     48  O   UNL A   1      33.653  27.553  21.251  1.00  0.00    -0.504 OA
ATOM     49  H   UNL A   1      32.914  27.834  20.746  1.00  0.00     0.293 HD
ENDBRANCH  44  48
ENDBRANCH  20  37
ENDBRANCH  11  14
ENDBRANCH   7  10
ENDBRANCH   4   7
ENDBRANCH   1   4
BRANCH   1  50
ATOM     50  C   UNL A   1      41.019  21.047  26.230  1.00  0.00    -0.052 C 
ATOM     51  H   UNL A   1      41.400  21.370  27.175  1.00  0.00     0.027 H 
ATOM     52  H   UNL A   1      41.508  21.500  25.393  1.00  0.00     0.027 H 
BRANCH  50  53
ATOM     53  C   UNL A   1      41.274  19.544  26.106  1.00  0.00    -0.036 C 
ATOM     54  H   UNL A   1      41.141  19.267  25.081  1.00  0.00     0.028 H 
ATOM     55  H   UNL A   1      40.582  19.064  26.764  1.00  0.00     0.028 H 
BRANCH  53  56
ATOM     56  C   UNL A   1      42.663  19.095  26.542  1.00  0.00     0.018 C 
ATOM     57  H   UNL A   1      42.562  18.270  27.216  1.00  0.00     0.049 H 
ATOM     58  H   UNL A   1      43.145  19.926  27.012  1.00  0.00     0.049 H 
BRANCH  56  59
ATOM     59  N   UNL A   1      43.485  18.682  25.417  1.00  0.00    -0.352 N 
ATOM     60  C   UNL A   1      44.277  19.443  24.596  1.00  0.00     0.251 C 
ATOM     61  H   UNL A   1      43.472  17.718  25.215  1.00  0.00     0.163 HD
ATOM     62  O   UNL A   1      44.754  18.964  23.573  1.00  0.00    -0.269 OA
BRANCH  60  63
ATOM     63  C   UNL A   1      44.540  20.855  24.940  1.00  0.00     0.039 A 
ATOM     64  C   UNL A   1      44.121  21.858  24.063  1.00  0.00    -0.049 A 
ATOM     65  C   UNL A   1      45.201  21.187  26.126  1.00  0.00    -0.049 A 
ATOM     66  C   UNL A   1      44.315  23.197  24.401  1.00  0.00    -0.053 A 
ATOM     67  H   UNL A   1      43.669  21.608  23.169  1.00  0.00     0.063 H 
ATOM     68  C   UNL A   1      45.320  22.521  26.500  1.00  0.00    -0.053 A 
ATOM     69  H   UNL A   1      45.598  20.445  26.723  1.00  0.00     0.063 H 
ATOM     70  C   UNL A   1      44.887  23.541  25.638  1.00  0.00    -0.014 A 
ATOM     71  H   UNL A   1      44.035  23.940  23.742  1.00  0.00     0.063 H 
ATOM     72  H   UNL A   1      45.730  22.764  27.415  1.00  0.00     0.063 H 
BRANCH  70  73
ATOM     73  C   UNL A   1      45.060  24.959  26.043  1.00  0.00     0.031 A 
ATOM     74  C   UNL A   1      46.415  25.603  25.953  1.00  0.00     0.074 A 
ATOM     75  C   UNL A   1      44.018  25.642  26.553  1.00  0.00     0.049 A 
ATOM     76  N   UNL A   1      46.795  26.794  26.341  1.00  0.00    -0.248 NA
ATOM     77  C   UNL A   1      47.497  24.790  25.375  1.00  0.00    -0.034 C 
ATOM     78  C   UNL A   1      42.664  25.113  26.726  1.00  0.00    -0.036 A 
ATOM     79  N   UNL A   1      43.937  26.925  27.033  1.00  0.00    -0.354 N 
ATOM     80  C   UNL A   1      48.155  26.865  26.068  1.00  0.00     0.074 A 
ATOM     81  C   UNL A   1      48.548  25.578  25.539  1.00  0.00    -0.034 C 
ATOM     82  H   UNL A   1      47.448  23.849  24.951  1.00  0.00     0.065 H 
ATOM     83  C   UNL A   1      41.882  26.071  27.251  1.00  0.00    -0.036 A 
ATOM     84  H   UNL A   1      42.357  24.159  26.483  1.00  0.00     0.065 H 
ATOM     85  C   UNL A   1      42.689  27.263  27.495  1.00  0.00     0.049 A 
ATOM     86  H   UNL A   1      44.702  27.546  27.043  1.00  0.00     0.167 HD
ATOM     87  C   UNL A   1      48.994  27.918  26.221  1.00  0.00     0.037 A 
ATOM     88  H   UNL A   1      49.519  25.309  25.319  1.00  0.00     0.065 H 
ATOM     89  H   UNL A   1      40.874  25.979  27.451  1.00  0.00     0.065 H 
ATOM     90  C   UNL A   1      42.249  28.402  28.064  1.00  0.00     0.037 A 
ATOM     91  C   UNL A   1      48.592  29.203  26.729  1.00  0.00     0.049 A 
ATOM     92  C   UNL A   1      43.209  29.548  28.247  1.00  0.00     0.074 A 
ATOM     93  C   UNL A   1      49.353  30.349  26.876  1.00  0.00    -0.036 A 
ATOM     94  N   UNL A   1      47.315  29.511  27.176  1.00  0.00    -0.354 N 
ATOM     95  N   UNL A   1      44.478  29.625  27.929  1.00  0.00    -0.248 NA
ATOM     96  C   UNL A   1      42.671  30.770  28.861  1.00  0.00    -0.034 C 
ATOM     97  C   UNL A   1      48.553  31.332  27.466  1.00  0.00    -0.036 A 
ATOM     98  H   UNL A   1      50.341  30.458  26.599  1.00  0.00     0.065 H 
ATOM     99  C   UNL A   1      47.275  30.822  27.624  1.00  0.00     0.049 A 
ATOM    100  H   UNL A   1      46.550  28.891  27.175  1.00  0.00     0.167 HD
ATOM    101  C   UNL A   1      44.881  30.910  28.269  1.00  0.00     0.074 A 
ATOM    102  C   UNL A   1      43.717  31.583  28.808  1.00  0.00    -0.034 C 
ATOM    103  H   UNL A   1      41.726  30.949  29.236  1.00  0.00     0.065 H 
ATOM    104  H   UNL A   1      48.863  32.278  27.738  1.00  0.00     0.065 H 
ATOM    105  C   UNL A   1      46.103  31.483  28.143  1.00  0.00     0.037 A 
ATOM    106  H   UNL A   1      43.704  32.568  29.111  1.00  0.00     0.065 H 
BRANCH  87 107
ATOM    107  C   UNL A   1      50.432  27.721  25.836  1.00  0.00     0.064 A 
ATOM    108  C   UNL A   1      50.864  27.835  24.505  1.00  0.00     0.173 A 
ATOM    109  C   UNL A   1      51.401  27.450  26.816  1.00  0.00     0.173 A 
ATOM    110  F   UNL A   1      49.979  28.081  23.527  1.00  0.00    -0.203 F 
ATOM    111  C   UNL A   1      52.202  27.650  24.165  1.00  0.00     0.198 A 
ATOM    112  C   UNL A   1      52.743  27.302  26.477  1.00  0.00     0.198 A 
ATOM    113  F   UNL A   1      51.046  27.336  28.104  1.00  0.00    -0.203 F 
ATOM    114  F   UNL A   1      52.578  27.706  22.881  1.00  0.00    -0.200 F 
ATOM    115  C   UNL A   1      53.141  27.392  25.152  1.00  0.00     0.200 A 
ATOM    116  F   UNL A   1      53.652  27.067  27.434  1.00  0.00    -0.200 F 
ATOM    117  F   UNL A   1      54.430  27.222  24.825  1.00  0.00    -0.200 F 
ENDBRANCH  87 107
BRANCH  90 118
ATOM    118  C   UNL A   1      40.828  28.525  28.488  1.00  0.00     0.064 A 
ATOM    119  C   UNL A   1      39.848  28.985  27.597  1.00  0.00     0.173 A 
ATOM    120  C   UNL A   1      40.422  28.199  29.790  1.00  0.00     0.173 A 
ATOM    121  F   UNL A   1      40.189  29.328  26.347  1.00  0.00    -0.203 F 
ATOM    122  C   UNL A   1      38.523  29.141  28.001  1.00  0.00     0.198 A 
ATOM    123  C   UNL A   1      39.092  28.323  30.183  1.00  0.00     0.198 A 
ATOM    124  F   UNL A   1      41.320  27.747  30.680  1.00  0.00    -0.203 F 
ATOM    125  F   UNL A   1      37.618  29.635  27.145  1.00  0.00    -0.200 F 
ATOM    126  C   UNL A   1      38.145  28.805  29.291  1.00  0.00     0.200 A 
ATOM    127  F   UNL A   1      38.729  27.982  31.427  1.00  0.00    -0.200 F 
ATOM    128  F   UNL A   1      36.871  28.953  29.680  1.00  0.00    -0.200 F 
ENDBRANCH  90 118
BRANCH 105 129
ATOM    129  C   UNL A   1      46.238  32.923  28.545  1.00  0.00     0.064 A 
ATOM    130  C   UNL A   1      46.621  33.301  29.841  1.00  0.00     0.173 A 
ATOM    131  C   UNL A   1      46.026  33.942  27.602  1.00  0.00     0.173 A 
ATOM    132  F   UNL A   1      46.823  32.367  30.784  1.00  0.00    -0.203 F 
ATOM    133  C   UNL A   1      46.760  34.643  30.184  1.00  0.00     0.198 A 
ATOM    134  C   UNL A   1      46.201  35.281  27.940  1.00  0.00     0.198 A 
ATOM    135  F   UNL A   1      45.667  33.636  26.347  1.00  0.00    -0.203 F 
ATOM    136  F   UNL A   1      47.077  34.980  31.442  1.00  0.00    -0.200 F 
ATOM    137  C   UNL A   1      46.559  35.630  29.232  1.00  0.00     0.200 A 
ATOM    138  F   UNL A   1      46.023  36.232  27.012  1.00  0.00    -0.200 F 
ATOM    139  F   UNL A   1      46.705  36.921  29.562  1.00  0.00    -0.200 F 
ENDBRANCH 105 129
ENDBRANCH  70  73
ENDBRANCH  60  63
ENDBRANCH  56  59
ENDBRANCH  53  56
ENDBRANCH  50  53
ENDBRANCH   1  50
TORSDOF 19
ENDMDL
MODEL 10
REMARK VINA RESULT:     -12.8      1.763      4.445
REMARK SMILES O=C1O[C@@H](c2ccc(O)c(O)c2)[C@H](C(=O)NCCCCCCNC(=O)c2ccc(-c3c4nc(c(-c5c(F)c(F)c(F)c(F)c5F)c5ccc([nH]5)c(-c5c(F)c(F)c(F)c(F)c5F)c5nc(c(-c6c(F)c(F)c(F)c(F)c6F)c6ccc3[nH]6)C=C5)C=C4)cc2)/C1=C\c1ccc(O)c(O)c1
REMARK SMILES IDX 19 1 18 4 17 7 16 10 14 11 15 12 13 14 1 15 2 16 3 17 89 18
REMARK SMILES IDX 4 19 90 20 5 24 6 25 12 26 7 27 10 29 8 31 11 33 9 35 91 37
REMARK SMILES IDX 92 38 98 39 93 40 96 42 94 44 97 46 95 48 20 50 21 53 22 56
REMARK SMILES IDX 23 59 24 60 25 62 26 63 27 64 88 65 28 66 87 68 29 70 30 73
REMARK SMILES IDX 31 74 81 75 32 76 86 77 80 78 82 79 33 80 85 81 79 83 78 85
REMARK SMILES IDX 34 87 66 90 46 91 65 92 47 93 50 94 64 95 83 96 48 97 49 99
REMARK SMILES IDX 63 101 84 102 51 105 35 107 36 108 44 109 37 110 38 111
REMARK SMILES IDX 42 112 45 113 39 114 40 115 43 116 41 117 67 118 68 119
REMARK SMILES IDX 76 120 69 121 70 122 74 123 77 124 71 125 72 126 75 127
REMARK SMILES IDX 73 128 52 129 53 130 61 131 54 132 55 133 59 134 62 135
REMARK SMILES IDX 56 136 57 137 60 138 58 139
REMARK H PARENT 19 2 19 3 18 5 18 6 17 8 17 9 16 13 4 21 13 22 90 23 6 28
REMARK H PARENT 12 30 7 32 11 34 9 36 92 41 98 43 93 45 97 47 95 49 20 51
REMARK H PARENT 20 52 21 54 21 55 22 57 22 58 23 61 27 67 88 69 28 71 87 72
REMARK H PARENT 86 82 80 84 82 86 85 88 79 89 47 98 50 100 83 103 48 104
REMARK H PARENT 84 106
REMARK Flexibility Score: inf
ROOT
ATOM      1  C   UNL A   1      32.174  28.753  26.098  1.00  0.00    -0.052 C 
ATOM      2  H   UNL A   1      32.028  29.187  25.131  1.00  0.00     0.027 H 
ATOM      3  H   UNL A   1      33.190  28.488  26.298  1.00  0.00     0.027 H 
ENDROOT
BRANCH   1   4
ATOM      4  C   UNL A   1      31.375  27.451  26.159  1.00  0.00    -0.036 C 
ATOM      5  H   UNL A   1      30.798  27.456  27.060  1.00  0.00     0.028 H 
ATOM      6  H   UNL A   1      30.772  27.421  25.277  1.00  0.00     0.028 H 
BRANCH   4   7
ATOM      7  C   UNL A   1      32.226  26.189  26.147  1.00  0.00     0.017 C 
ATOM      8  H   UNL A   1      32.768  26.155  25.226  1.00  0.00     0.049 H 
ATOM      9  H   UNL A   1      32.873  26.237  26.998  1.00  0.00     0.049 H 
BRANCH   7  10
ATOM     10  N   UNL A   1      31.455  24.971  26.270  1.00  0.00    -0.355 N 
ATOM     11  C   UNL A   1      31.773  23.680  25.949  1.00  0.00     0.231 C 
ATOM     12  O   UNL A   1      30.971  22.815  26.300  1.00  0.00    -0.274 OA
ATOM     13  H   UNL A   1      30.554  25.090  26.646  1.00  0.00     0.163 HD
BRANCH  11  14
ATOM     14  C   UNL A   1      33.018  23.368  25.108  1.00  0.00     0.111 C 
ATOM     15  O   UNL A   1      32.132  20.836  22.747  1.00  0.00    -0.247 OA
ATOM     16  C   UNL A   1      32.600  21.513  23.646  1.00  0.00     0.335 C 
ATOM     17  O   UNL A   1      33.206  21.029  24.758  1.00  0.00    -0.453 OA
ATOM     18  C   UNL A   1      32.632  22.984  23.718  1.00  0.00     0.054 C 
ATOM     19  C   UNL A   1      33.737  22.099  25.557  1.00  0.00     0.143 C 
ATOM     20  C   UNL A   1      32.359  23.717  22.629  1.00  0.00    -0.043 C 
ATOM     21  H   UNL A   1      33.555  21.954  26.601  1.00  0.00     0.081 H 
ATOM     22  H   UNL A   1      33.615  24.252  25.196  1.00  0.00     0.050 H 
ATOM     23  H   UNL A   1      32.121  23.217  21.759  1.00  0.00     0.063 H 
BRANCH  19  24
ATOM     24  C   UNL A   1      35.267  22.158  25.479  1.00  0.00    -0.002 A 
ATOM     25  C   UNL A   1      35.973  23.354  25.749  1.00  0.00    -0.051 A 
ATOM     26  C   UNL A   1      36.021  21.000  25.231  1.00  0.00    -0.009 A 
ATOM     27  C   UNL A   1      37.371  23.392  25.798  1.00  0.00    -0.016 A 
ATOM     28  H   UNL A   1      35.442  24.222  25.918  1.00  0.00     0.063 H 
ATOM     29  C   UNL A   1      37.411  21.051  25.256  1.00  0.00     0.157 A 
ATOM     30  H   UNL A   1      35.542  20.108  25.029  1.00  0.00     0.067 H 
ATOM     31  C   UNL A   1      38.084  22.233  25.550  1.00  0.00     0.157 A 
ATOM     32  H   UNL A   1      37.863  24.273  26.015  1.00  0.00     0.066 H 
BRANCH  29  33
ATOM     33  O   UNL A   1      38.122  19.914  25.001  1.00  0.00    -0.504 OA
ATOM     34  H   UNL A   1      38.276  19.294  25.686  1.00  0.00     0.293 HD
ENDBRANCH  29  33
BRANCH  31  35
ATOM     35  O   UNL A   1      39.449  22.202  25.588  1.00  0.00    -0.504 OA
ATOM     36  H   UNL A   1      39.916  21.536  25.123  1.00  0.00     0.293 HD
ENDBRANCH  31  35
ENDBRANCH  19  24
BRANCH  20  37
ATOM     37  C   UNL A   1      32.375  25.178  22.594  1.00  0.00    -0.021 A 
ATOM     38  C   UNL A   1      33.586  25.889  22.602  1.00  0.00    -0.051 A 
ATOM     39  C   UNL A   1      31.164  25.873  22.514  1.00  0.00    -0.009 A 
ATOM     40  C   UNL A   1      33.592  27.286  22.558  1.00  0.00    -0.016 A 
ATOM     41  H   UNL A   1      34.480  25.375  22.640  1.00  0.00     0.063 H 
ATOM     42  C   UNL A   1      31.178  27.260  22.462  1.00  0.00     0.157 A 
ATOM     43  H   UNL A   1      30.269  25.361  22.494  1.00  0.00     0.067 H 
ATOM     44  C   UNL A   1      32.381  27.964  22.490  1.00  0.00     0.157 A 
ATOM     45  H   UNL A   1      34.482  27.806  22.576  1.00  0.00     0.066 H 
BRANCH  42  46
ATOM     46  O   UNL A   1      29.996  27.937  22.378  1.00  0.00    -0.504 OA
ATOM     47  H   UNL A   1      29.188  27.492  22.540  1.00  0.00     0.293 HD
ENDBRANCH  42  46
BRANCH  44  48
ATOM     48  O   UNL A   1      32.319  29.328  22.442  1.00  0.00    -0.504 OA
ATOM     49  H   UNL A   1      31.679  29.787  22.951  1.00  0.00     0.293 HD
ENDBRANCH  44  48
ENDBRANCH  20  37
ENDBRANCH  11  14
ENDBRANCH   7  10
ENDBRANCH   4   7
ENDBRANCH   1   4
BRANCH   1  50
ATOM     50  C   UNL A   1      31.792  29.802  27.149  1.00  0.00    -0.052 C 
ATOM     51  H   UNL A   1      32.526  29.772  27.926  1.00  0.00     0.027 H 
ATOM     52  H   UNL A   1      30.808  29.544  27.478  1.00  0.00     0.027 H 
BRANCH  50  53
ATOM     53  C   UNL A   1      31.703  31.241  26.638  1.00  0.00    -0.036 C 
ATOM     54  H   UNL A   1      30.863  31.710  27.108  1.00  0.00     0.028 H 
ATOM     55  H   UNL A   1      31.609  31.180  25.574  1.00  0.00     0.028 H 
BRANCH  53  56
ATOM     56  C   UNL A   1      32.936  32.093  26.912  1.00  0.00     0.018 C 
ATOM     57  H   UNL A   1      33.538  32.122  26.027  1.00  0.00     0.049 H 
ATOM     58  H   UNL A   1      33.466  31.650  27.729  1.00  0.00     0.049 H 
BRANCH  56  59
ATOM     59  N   UNL A   1      32.592  33.453  27.289  1.00  0.00    -0.352 N 
ATOM     60  C   UNL A   1      33.071  34.214  28.325  1.00  0.00     0.251 C 
ATOM     61  H   UNL A   1      31.918  33.892  26.719  1.00  0.00     0.163 HD
ATOM     62  O   UNL A   1      32.533  35.276  28.617  1.00  0.00    -0.269 OA
BRANCH  60  63
ATOM     63  C   UNL A   1      34.233  33.738  29.103  1.00  0.00     0.039 A 
ATOM     64  C   UNL A   1      34.028  32.827  30.141  1.00  0.00    -0.049 A 
ATOM     65  C   UNL A   1      35.521  34.192  28.807  1.00  0.00    -0.049 A 
ATOM     66  C   UNL A   1      35.123  32.328  30.848  1.00  0.00    -0.053 A 
ATOM     67  H   UNL A   1      33.071  32.524  30.383  1.00  0.00     0.063 H 
ATOM     68  C   UNL A   1      36.617  33.633  29.457  1.00  0.00    -0.053 A 
ATOM     69  H   UNL A   1      35.661  34.939  28.108  1.00  0.00     0.063 H 
ATOM     70  C   UNL A   1      36.429  32.703  30.491  1.00  0.00    -0.014 A 
ATOM     71  H   UNL A   1      34.973  31.680  31.636  1.00  0.00     0.063 H 
ATOM     72  H   UNL A   1      37.573  33.905  29.180  1.00  0.00     0.063 H 
BRANCH  70  73
ATOM     73  C   UNL A   1      37.612  32.150  31.196  1.00  0.00     0.031 A 
ATOM     74  C   UNL A   1      38.385  31.014  30.585  1.00  0.00     0.074 A 
ATOM     75  C   UNL A   1      37.949  32.621  32.412  1.00  0.00     0.049 A 
ATOM     76  N   UNL A   1      39.387  30.331  31.079  1.00  0.00    -0.248 NA
ATOM     77  C   UNL A   1      37.957  30.566  29.250  1.00  0.00    -0.034 C 
ATOM     78  C   UNL A   1      37.254  33.694  33.125  1.00  0.00    -0.036 A 
ATOM     79  N   UNL A   1      38.954  32.250  33.269  1.00  0.00    -0.354 N 
ATOM     80  C   UNL A   1      39.695  29.370  30.126  1.00  0.00     0.074 A 
ATOM     81  C   UNL A   1      38.738  29.516  29.052  1.00  0.00    -0.034 C 
ATOM     82  H   UNL A   1      37.235  30.968  28.630  1.00  0.00     0.065 H 
ATOM     83  C   UNL A   1      37.867  33.909  34.300  1.00  0.00    -0.036 A 
ATOM     84  H   UNL A   1      36.426  34.204  32.780  1.00  0.00     0.065 H 
ATOM     85  C   UNL A   1      38.967  32.960  34.445  1.00  0.00     0.049 A 
ATOM     86  H   UNL A   1      39.606  31.541  33.061  1.00  0.00     0.167 HD
ATOM     87  C   UNL A   1      40.703  28.464  30.135  1.00  0.00     0.037 A 
ATOM     88  H   UNL A   1      38.672  28.885  28.239  1.00  0.00     0.065 H 
ATOM     89  H   UNL A   1      37.602  34.629  34.991  1.00  0.00     0.065 H 
ATOM     90  C   UNL A   1      39.768  32.849  35.521  1.00  0.00     0.037 A 
ATOM     91  C   UNL A   1      41.665  28.338  31.197  1.00  0.00     0.049 A 
ATOM     92  C   UNL A   1      40.864  31.816  35.517  1.00  0.00     0.074 A 
ATOM     93  C   UNL A   1      42.753  27.487  31.279  1.00  0.00    -0.036 A 
ATOM     94  N   UNL A   1      41.653  29.085  32.366  1.00  0.00    -0.354 N 
ATOM     95  N   UNL A   1      41.185  30.953  34.584  1.00  0.00    -0.248 NA
ATOM     96  C   UNL A   1      41.715  31.748  36.713  1.00  0.00    -0.034 C 
ATOM     97  C   UNL A   1      43.364  27.677  32.522  1.00  0.00    -0.036 A 
ATOM     98  H   UNL A   1      43.060  26.825  30.548  1.00  0.00     0.065 H 
ATOM     99  C   UNL A   1      42.699  28.694  33.187  1.00  0.00     0.049 A 
ATOM    100  H   UNL A   1      40.998  29.788  32.582  1.00  0.00     0.167 HD
ATOM    101  C   UNL A   1      42.293  30.267  35.062  1.00  0.00     0.074 A 
ATOM    102  C   UNL A   1      42.597  30.822  36.365  1.00  0.00    -0.034 C 
ATOM    103  H   UNL A   1      41.644  32.282  37.593  1.00  0.00     0.065 H 
ATOM    104  H   UNL A   1      44.174  27.148  32.883  1.00  0.00     0.065 H 
ATOM    105  C   UNL A   1      42.998  29.268  34.475  1.00  0.00     0.037 A 
ATOM    106  H   UNL A   1      43.397  30.533  36.948  1.00  0.00     0.065 H 
BRANCH  87 107
ATOM    107  C   UNL A   1      40.813  27.536  28.958  1.00  0.00     0.064 A 
ATOM    108  C   UNL A   1      41.711  27.779  27.907  1.00  0.00     0.173 A 
ATOM    109  C   UNL A   1      40.035  26.369  28.897  1.00  0.00     0.173 A 
ATOM    110  F   UNL A   1      42.469  28.886  27.908  1.00  0.00    -0.203 F 
ATOM    111  C   UNL A   1      41.800  26.908  26.823  1.00  0.00     0.198 A 
ATOM    112  C   UNL A   1      40.155  25.481  27.831  1.00  0.00     0.198 A 
ATOM    113  F   UNL A   1      39.165  26.084  29.877  1.00  0.00    -0.203 F 
ATOM    114  F   UNL A   1      42.623  27.192  25.804  1.00  0.00    -0.200 F 
ATOM    115  C   UNL A   1      41.029  25.757  26.791  1.00  0.00     0.200 A 
ATOM    116  F   UNL A   1      39.418  24.362  27.808  1.00  0.00    -0.200 F 
ATOM    117  F   UNL A   1      41.121  24.915  25.752  1.00  0.00    -0.200 F 
ENDBRANCH  87 107
BRANCH  90 118
ATOM    118  C   UNL A   1      39.577  33.750  36.690  1.00  0.00     0.064 A 
ATOM    119  C   UNL A   1      38.793  33.356  37.784  1.00  0.00     0.173 A 
ATOM    120  C   UNL A   1      40.159  35.026  36.733  1.00  0.00     0.173 A 
ATOM    121  F   UNL A   1      38.199  32.154  37.781  1.00  0.00    -0.203 F 
ATOM    122  C   UNL A   1      38.577  34.212  38.861  1.00  0.00     0.198 A 
ATOM    123  C   UNL A   1      39.969  35.868  37.826  1.00  0.00     0.198 A 
ATOM    124  F   UNL A   1      40.924  35.450  35.715  1.00  0.00    -0.203 F 
ATOM    125  F   UNL A   1      37.778  33.830  39.867  1.00  0.00    -0.200 F 
ATOM    126  C   UNL A   1      39.169  35.465  38.884  1.00  0.00     0.200 A 
ATOM    127  F   UNL A   1      40.558  37.072  37.851  1.00  0.00    -0.200 F 
ATOM    128  F   UNL A   1      38.962  36.289  39.921  1.00  0.00    -0.200 F 
ENDBRANCH  90 118
BRANCH 105 129
ATOM    129  C   UNL A   1      44.200  28.745  35.208  1.00  0.00     0.064 A 
ATOM    130  C   UNL A   1      44.117  27.655  36.089  1.00  0.00     0.173 A 
ATOM    131  C   UNL A   1      45.464  29.314  34.988  1.00  0.00     0.173 A 
ATOM    132  F   UNL A   1      42.930  27.084  36.345  1.00  0.00    -0.203 F 
ATOM    133  C   UNL A   1      45.249  27.175  36.741  1.00  0.00     0.198 A 
ATOM    134  C   UNL A   1      46.599  28.807  35.614  1.00  0.00     0.198 A 
ATOM    135  F   UNL A   1      45.601  30.352  34.149  1.00  0.00    -0.203 F 
ATOM    136  F   UNL A   1      45.136  26.166  37.617  1.00  0.00    -0.200 F 
ATOM    137  C   UNL A   1      46.489  27.744  36.496  1.00  0.00     0.200 A 
ATOM    138  F   UNL A   1      47.799  29.348  35.362  1.00  0.00    -0.200 F 
ATOM    139  F   UNL A   1      47.580  27.271  37.116  1.00  0.00    -0.200 F 
ENDBRANCH 105 129
ENDBRANCH  70  73
ENDBRANCH  60  63
ENDBRANCH  56  59
ENDBRANCH  53  56
ENDBRANCH  50  53
ENDBRANCH   1  50
TORSDOF 19
ENDMDL
