MODEL 1
REMARK VINA RESULT:     -12.3      0.000      0.000
REMARK SMILES CCc1cccc2c3c([nH]c12)[C@](CC)(CC(=O)NCCCCCCNC(=O)c1ccc(-c2c4nc(c(-c5c(F)c(F)c(F)c(F)c5F)c5ccc([nH]5)c(-c5c(F)c(F)c(F)c(F)c5F)c5nc(c(-c6c(F)c(F)c(F)c(F)c6F)c6ccc2[nH]6)C=C5)C=C4)cc1)OCC3
REMARK SMILES IDX 21 1 20 4 19 7 18 10 16 11 17 12 15 14 12 17 3 18 4 19 11 20
REMARK SMILES IDX 5 21 7 23 10 24 6 25 8 27 9 28 93 31 92 32 91 35 2 38 1 41
REMARK SMILES IDX 13 45 14 48 22 52 23 55 24 58 25 61 26 62 27 64 28 65 29 66
REMARK SMILES IDX 90 67 30 68 89 70 31 72 32 75 33 76 83 77 34 78 88 79 82 80
REMARK SMILES IDX 84 81 35 82 87 83 81 85 80 87 36 89 68 92 48 93 67 94 49 95
REMARK SMILES IDX 52 96 66 97 85 98 50 99 51 101 65 103 86 104 53 107 37 109
REMARK SMILES IDX 38 110 46 111 39 112 40 113 44 114 47 115 41 116 42 117
REMARK SMILES IDX 45 118 43 119 69 120 70 121 78 122 71 123 72 124 76 125
REMARK SMILES IDX 79 126 73 127 74 128 77 129 75 130 54 131 55 132 63 133
REMARK SMILES IDX 56 134 57 135 61 136 64 137 58 138 59 139 62 140 60 141
REMARK H PARENT 21 2 21 3 20 5 20 6 19 8 19 9 18 13 15 15 15 16 4 22 5 26
REMARK H PARENT 10 29 6 30 93 33 93 34 92 36 92 37 2 39 2 40 1 42 1 43 1 44
REMARK H PARENT 13 46 13 47 14 49 14 50 14 51 22 53 22 54 23 56 23 57 24 59
REMARK H PARENT 24 60 25 63 29 69 90 71 30 73 89 74 88 84 82 86 84 88 87 90
REMARK H PARENT 81 91 49 100 52 102 85 105 50 106 86 108
REMARK Flexibility Score: inf
ROOT
ATOM      1  C   UNL A   1      39.294  21.680  26.100  1.00  0.00    -0.052 C 
ATOM      2  H   UNL A   1      39.447  21.636  25.043  1.00  0.00     0.027 H 
ATOM      3  H   UNL A   1      38.449  21.111  26.427  1.00  0.00     0.027 H 
ENDROOT
BRANCH   1   4
ATOM      4  C   UNL A   1      39.009  23.144  26.483  1.00  0.00    -0.036 C 
ATOM      5  H   UNL A   1      39.050  23.218  27.550  1.00  0.00     0.028 H 
ATOM      6  H   UNL A   1      39.752  23.724  25.975  1.00  0.00     0.028 H 
BRANCH   4   7
ATOM      7  C   UNL A   1      37.657  23.713  26.025  1.00  0.00     0.017 C 
ATOM      8  H   UNL A   1      36.882  23.177  26.532  1.00  0.00     0.049 H 
ATOM      9  H   UNL A   1      37.677  24.756  26.260  1.00  0.00     0.049 H 
BRANCH   7  10
ATOM     10  N   UNL A   1      37.405  23.623  24.593  1.00  0.00    -0.356 N 
ATOM     11  C   UNL A   1      36.467  22.945  23.865  1.00  0.00     0.223 C 
ATOM     12  O   UNL A   1      36.543  23.000  22.637  1.00  0.00    -0.275 OA
ATOM     13  H   UNL A   1      38.028  24.153  24.044  1.00  0.00     0.163 HD
BRANCH  11  14
ATOM     14  C   UNL A   1      35.337  22.214  24.550  1.00  0.00     0.061 C 
ATOM     15  H   UNL A   1      35.219  21.280  24.045  1.00  0.00     0.040 H 
ATOM     16  H   UNL A   1      35.646  22.176  25.573  1.00  0.00     0.040 H 
BRANCH  14  17
ATOM     17  C   UNL A   1      33.937  22.872  24.616  1.00  0.00     0.117 C 
ATOM     18  C   UNL A   1      33.868  27.940  25.108  1.00  0.00    -0.024 A 
ATOM     19  C   UNL A   1      33.553  28.955  24.172  1.00  0.00    -0.057 A 
ATOM     20  C   UNL A   1      33.890  26.624  24.596  1.00  0.00     0.049 A 
ATOM     21  C   UNL A   1      33.287  28.690  22.831  1.00  0.00    -0.061 A 
ATOM     22  H   UNL A   1      33.520  29.934  24.497  1.00  0.00     0.063 H 
ATOM     23  C   UNL A   1      33.581  26.344  23.266  1.00  0.00     0.003 A 
ATOM     24  N   UNL A   1      34.155  25.402  25.207  1.00  0.00    -0.356 N 
ATOM     25  C   UNL A   1      33.291  27.384  22.367  1.00  0.00    -0.053 A 
ATOM     26  H   UNL A   1      33.084  29.467  22.182  1.00  0.00     0.062 H 
ATOM     27  C   UNL A   1      33.540  24.944  23.142  1.00  0.00    -0.014 A 
ATOM     28  C   UNL A   1      33.928  24.363  24.330  1.00  0.00     0.052 A 
ATOM     29  H   UNL A   1      34.464  25.295  26.136  1.00  0.00     0.166 HD
ATOM     30  H   UNL A   1      33.086  27.177  21.377  1.00  0.00     0.063 H 
ATOM     31  C   UNL A   1      33.030  24.175  22.004  1.00  0.00    -0.002 C 
ATOM     32  C   UNL A   1      33.059  22.693  22.317  1.00  0.00     0.052 C 
ATOM     33  H   UNL A   1      33.639  24.366  21.146  1.00  0.00     0.034 H 
ATOM     34  H   UNL A   1      32.020  24.470  21.810  1.00  0.00     0.034 H 
ATOM     35  O   UNL A   1      32.978  22.293  23.696  1.00  0.00    -0.368 OA
ATOM     36  H   UNL A   1      32.233  22.244  21.806  1.00  0.00     0.057 H 
ATOM     37  H   UNL A   1      34.030  22.372  22.001  1.00  0.00     0.057 H 
BRANCH  18  38
ATOM     38  C   UNL A   1      34.117  28.239  26.566  1.00  0.00    -0.029 C 
ATOM     39  H   UNL A   1      34.175  27.305  27.085  1.00  0.00     0.031 H 
ATOM     40  H   UNL A   1      35.018  28.814  26.590  1.00  0.00     0.031 H 
BRANCH  38  41
ATOM     41  C   UNL A   1      33.069  29.096  27.269  1.00  0.00    -0.061 C 
ATOM     42  H   UNL A   1      33.544  29.703  28.011  1.00  0.00     0.023 H 
ATOM     43  H   UNL A   1      32.345  28.461  27.737  1.00  0.00     0.023 H 
ATOM     44  H   UNL A   1      32.582  29.724  26.552  1.00  0.00     0.023 H 
ENDBRANCH  38  41
ENDBRANCH  18  38
BRANCH  17  45
ATOM     45  C   UNL A   1      33.333  22.598  26.033  1.00  0.00    -0.020 C 
ATOM     46  H   UNL A   1      32.693  21.744  25.959  1.00  0.00     0.030 H 
ATOM     47  H   UNL A   1      32.824  23.497  26.314  1.00  0.00     0.030 H 
BRANCH  45  48
ATOM     48  C   UNL A   1      34.354  22.328  27.145  1.00  0.00    -0.062 C 
ATOM     49  H   UNL A   1      34.906  23.221  27.347  1.00  0.00     0.023 H 
ATOM     50  H   UNL A   1      35.026  21.557  26.831  1.00  0.00     0.023 H 
ATOM     51  H   UNL A   1      33.842  22.015  28.031  1.00  0.00     0.023 H 
ENDBRANCH  45  48
ENDBRANCH  17  45
ENDBRANCH  14  17
ENDBRANCH  11  14
ENDBRANCH   7  10
ENDBRANCH   4   7
ENDBRANCH   1   4
BRANCH   1  52
ATOM     52  C   UNL A   1      40.510  21.072  26.781  1.00  0.00    -0.052 C 
ATOM     53  H   UNL A   1      40.236  20.804  27.780  1.00  0.00     0.027 H 
ATOM     54  H   UNL A   1      41.284  21.810  26.746  1.00  0.00     0.027 H 
BRANCH  52  55
ATOM     55  C   UNL A   1      41.060  19.828  26.086  1.00  0.00    -0.036 C 
ATOM     56  H   UNL A   1      41.042  20.001  25.030  1.00  0.00     0.028 H 
ATOM     57  H   UNL A   1      40.438  19.014  26.393  1.00  0.00     0.028 H 
BRANCH  55  58
ATOM     58  C   UNL A   1      42.493  19.447  26.481  1.00  0.00     0.018 C 
ATOM     59  H   UNL A   1      42.499  18.417  26.773  1.00  0.00     0.049 H 
ATOM     60  H   UNL A   1      42.779  20.101  27.278  1.00  0.00     0.049 H 
BRANCH  58  61
ATOM     61  N   UNL A   1      43.463  19.626  25.422  1.00  0.00    -0.352 N 
ATOM     62  C   UNL A   1      44.235  20.689  25.032  1.00  0.00     0.251 C 
ATOM     63  H   UNL A   1      43.596  18.822  24.869  1.00  0.00     0.163 HD
ATOM     64  O   UNL A   1      45.068  20.482  24.144  1.00  0.00    -0.269 OA
BRANCH  62  65
ATOM     65  C   UNL A   1      44.069  22.076  25.547  1.00  0.00     0.039 A 
ATOM     66  C   UNL A   1      44.795  22.631  26.597  1.00  0.00    -0.049 A 
ATOM     67  C   UNL A   1      43.052  22.849  24.957  1.00  0.00    -0.049 A 
ATOM     68  C   UNL A   1      44.403  23.831  27.163  1.00  0.00    -0.053 A 
ATOM     69  H   UNL A   1      45.631  22.144  26.955  1.00  0.00     0.063 H 
ATOM     70  C   UNL A   1      42.704  24.096  25.471  1.00  0.00    -0.053 A 
ATOM     71  H   UNL A   1      42.555  22.486  24.129  1.00  0.00     0.063 H 
ATOM     72  C   UNL A   1      43.341  24.557  26.615  1.00  0.00    -0.014 A 
ATOM     73  H   UNL A   1      44.896  24.192  27.995  1.00  0.00     0.063 H 
ATOM     74  H   UNL A   1      41.981  24.668  25.008  1.00  0.00     0.063 H 
BRANCH  72  75
ATOM     75  C   UNL A   1      43.060  25.853  27.227  1.00  0.00     0.031 A 
ATOM     76  C   UNL A   1      44.041  26.908  26.854  1.00  0.00     0.074 A 
ATOM     77  C   UNL A   1      42.018  26.118  28.040  1.00  0.00     0.049 A 
ATOM     78  N   UNL A   1      44.894  27.490  27.630  1.00  0.00    -0.248 NA
ATOM     79  C   UNL A   1      44.204  27.240  25.431  1.00  0.00    -0.034 C 
ATOM     80  C   UNL A   1      40.846  25.280  28.297  1.00  0.00    -0.036 A 
ATOM     81  N   UNL A   1      41.751  27.251  28.759  1.00  0.00    -0.354 N 
ATOM     82  C   UNL A   1      45.580  28.402  26.832  1.00  0.00     0.074 A 
ATOM     83  C   UNL A   1      45.219  28.108  25.472  1.00  0.00    -0.034 C 
ATOM     84  H   UNL A   1      43.675  26.894  24.615  1.00  0.00     0.065 H 
ATOM     85  C   UNL A   1      39.895  26.019  28.913  1.00  0.00    -0.036 A 
ATOM     86  H   UNL A   1      40.759  24.282  28.049  1.00  0.00     0.065 H 
ATOM     87  C   UNL A   1      40.451  27.321  29.239  1.00  0.00     0.049 A 
ATOM     88  H   UNL A   1      42.421  27.955  28.921  1.00  0.00     0.167 HD
ATOM     89  C   UNL A   1      46.184  29.485  27.394  1.00  0.00     0.037 A 
ATOM     90  H   UNL A   1      45.680  28.511  24.641  1.00  0.00     0.065 H 
ATOM     91  H   UNL A   1      38.932  25.707  29.119  1.00  0.00     0.065 H 
ATOM     92  C   UNL A   1      39.863  28.387  29.835  1.00  0.00     0.037 A 
ATOM     93  C   UNL A   1      46.357  29.301  28.810  1.00  0.00     0.049 A 
ATOM     94  C   UNL A   1      40.933  29.219  30.428  1.00  0.00     0.074 A 
ATOM     95  C   UNL A   1      47.244  28.663  29.647  1.00  0.00    -0.036 A 
ATOM     96  N   UNL A   1      45.235  29.578  29.540  1.00  0.00    -0.354 N 
ATOM     97  N   UNL A   1      41.671  28.836  31.433  1.00  0.00    -0.248 NA
ATOM     98  C   UNL A   1      41.407  30.402  29.716  1.00  0.00    -0.034 C 
ATOM     99  C   UNL A   1      46.551  28.446  30.878  1.00  0.00    -0.036 A 
ATOM    100  H   UNL A   1      48.216  28.394  29.429  1.00  0.00     0.065 H 
ATOM    101  C   UNL A   1      45.271  28.982  30.769  1.00  0.00     0.049 A 
ATOM    102  H   UNL A   1      44.491  30.138  29.218  1.00  0.00     0.167 HD
ATOM    103  C   UNL A   1      42.886  29.446  31.207  1.00  0.00     0.074 A 
ATOM    104  C   UNL A   1      42.615  30.528  30.271  1.00  0.00    -0.034 C 
ATOM    105  H   UNL A   1      40.944  30.974  28.993  1.00  0.00     0.065 H 
ATOM    106  H   UNL A   1      46.935  27.971  31.709  1.00  0.00     0.065 H 
ATOM    107  C   UNL A   1      44.050  28.812  31.519  1.00  0.00     0.037 A 
ATOM    108  H   UNL A   1      43.273  31.296  30.064  1.00  0.00     0.065 H 
BRANCH  89 109
ATOM    109  C   UNL A   1      46.142  30.881  26.804  1.00  0.00     0.064 A 
ATOM    110  C   UNL A   1      47.322  31.658  26.800  1.00  0.00     0.173 A 
ATOM    111  C   UNL A   1      44.949  31.598  26.569  1.00  0.00     0.173 A 
ATOM    112  F   UNL A   1      48.515  31.091  27.033  1.00  0.00    -0.203 F 
ATOM    113  C   UNL A   1      47.294  33.049  26.651  1.00  0.00     0.198 A 
ATOM    114  C   UNL A   1      44.931  32.978  26.373  1.00  0.00     0.198 A 
ATOM    115  F   UNL A   1      43.744  31.019  26.635  1.00  0.00    -0.203 F 
ATOM    116  F   UNL A   1      48.425  33.756  26.775  1.00  0.00    -0.200 F 
ATOM    117  C   UNL A   1      46.097  33.708  26.445  1.00  0.00     0.200 A 
ATOM    118  F   UNL A   1      43.756  33.602  26.201  1.00  0.00    -0.200 F 
ATOM    119  F   UNL A   1      46.059  35.044  26.362  1.00  0.00    -0.200 F 
ENDBRANCH  89 109
BRANCH  92 120
ATOM    120  C   UNL A   1      38.478  28.891  29.681  1.00  0.00     0.064 A 
ATOM    121  C   UNL A   1      37.691  29.174  30.812  1.00  0.00     0.173 A 
ATOM    122  C   UNL A   1      38.022  29.412  28.455  1.00  0.00     0.173 A 
ATOM    123  F   UNL A   1      38.065  28.734  32.023  1.00  0.00    -0.203 F 
ATOM    124  C   UNL A   1      36.559  29.990  30.732  1.00  0.00     0.198 A 
ATOM    125  C   UNL A   1      36.887  30.221  28.377  1.00  0.00     0.198 A 
ATOM    126  F   UNL A   1      38.726  29.236  27.328  1.00  0.00    -0.203 F 
ATOM    127  F   UNL A   1      35.889  30.312  31.848  1.00  0.00    -0.200 F 
ATOM    128  C   UNL A   1      36.170  30.529  29.518  1.00  0.00     0.200 A 
ATOM    129  F   UNL A   1      36.537  30.761  27.201  1.00  0.00    -0.200 F 
ATOM    130  F   UNL A   1      35.137  31.381  29.455  1.00  0.00    -0.200 F 
ENDBRANCH  92 120
BRANCH 107 131
ATOM    131  C   UNL A   1      44.002  27.760  32.578  1.00  0.00     0.064 A 
ATOM    132  C   UNL A   1      43.932  26.381  32.327  1.00  0.00     0.173 A 
ATOM    133  C   UNL A   1      44.111  28.176  33.912  1.00  0.00     0.173 A 
ATOM    134  F   UNL A   1      43.898  25.909  31.074  1.00  0.00    -0.203 F 
ATOM    135  C   UNL A   1      43.941  25.462  33.375  1.00  0.00     0.198 A 
ATOM    136  C   UNL A   1      44.155  27.256  34.952  1.00  0.00     0.198 A 
ATOM    137  F   UNL A   1      44.216  29.483  34.201  1.00  0.00    -0.203 F 
ATOM    138  F   UNL A   1      43.860  24.148  33.118  1.00  0.00    -0.200 F 
ATOM    139  C   UNL A   1      44.061  25.900  34.685  1.00  0.00     0.200 A 
ATOM    140  F   UNL A   1      44.313  27.683  36.212  1.00  0.00    -0.200 F 
ATOM    141  F   UNL A   1      44.110  25.014  35.690  1.00  0.00    -0.200 F 
ENDBRANCH 107 131
ENDBRANCH  72  75
ENDBRANCH  62  65
ENDBRANCH  58  61
ENDBRANCH  55  58
ENDBRANCH  52  55
ENDBRANCH   1  52
TORSDOF 18
ENDMDL
MODEL 2
REMARK VINA RESULT:     -11.7      2.357      3.356
REMARK SMILES CCc1cccc2c3c([nH]c12)[C@](CC)(CC(=O)NCCCCCCNC(=O)c1ccc(-c2c4nc(c(-c5c(F)c(F)c(F)c(F)c5F)c5ccc([nH]5)c(-c5c(F)c(F)c(F)c(F)c5F)c5nc(c(-c6c(F)c(F)c(F)c(F)c6F)c6ccc2[nH]6)C=C5)C=C4)cc1)OCC3
REMARK SMILES IDX 21 1 20 4 19 7 18 10 16 11 17 12 15 14 12 17 3 18 4 19 11 20
REMARK SMILES IDX 5 21 7 23 10 24 6 25 8 27 9 28 93 31 92 32 91 35 2 38 1 41
REMARK SMILES IDX 13 45 14 48 22 52 23 55 24 58 25 61 26 62 27 64 28 65 29 66
REMARK SMILES IDX 90 67 30 68 89 70 31 72 32 75 33 76 83 77 34 78 88 79 82 80
REMARK SMILES IDX 84 81 35 82 87 83 81 85 80 87 36 89 68 92 48 93 67 94 49 95
REMARK SMILES IDX 52 96 66 97 85 98 50 99 51 101 65 103 86 104 53 107 37 109
REMARK SMILES IDX 38 110 46 111 39 112 40 113 44 114 47 115 41 116 42 117
REMARK SMILES IDX 45 118 43 119 69 120 70 121 78 122 71 123 72 124 76 125
REMARK SMILES IDX 79 126 73 127 74 128 77 129 75 130 54 131 55 132 63 133
REMARK SMILES IDX 56 134 57 135 61 136 64 137 58 138 59 139 62 140 60 141
REMARK H PARENT 21 2 21 3 20 5 20 6 19 8 19 9 18 13 15 15 15 16 4 22 5 26
REMARK H PARENT 10 29 6 30 93 33 93 34 92 36 92 37 2 39 2 40 1 42 1 43 1 44
REMARK H PARENT 13 46 13 47 14 49 14 50 14 51 22 53 22 54 23 56 23 57 24 59
REMARK H PARENT 24 60 25 63 29 69 90 71 30 73 89 74 88 84 82 86 84 88 87 90
REMARK H PARENT 81 91 49 100 52 102 85 105 50 106 86 108
REMARK Flexibility Score: inf
ROOT
ATOM      1  C   UNL A   1      36.975  23.708  26.059  1.00  0.00    -0.052 C 
ATOM      2  H   UNL A   1      36.346  23.635  26.921  1.00  0.00     0.027 H 
ATOM      3  H   UNL A   1      36.944  24.673  25.598  1.00  0.00     0.027 H 
ENDROOT
BRANCH   1   4
ATOM      4  C   UNL A   1      36.466  22.705  25.007  1.00  0.00    -0.036 C 
ATOM      5  H   UNL A   1      37.209  21.942  24.896  1.00  0.00     0.028 H 
ATOM      6  H   UNL A   1      35.527  22.352  25.379  1.00  0.00     0.028 H 
BRANCH   4   7
ATOM      7  C   UNL A   1      36.170  23.278  23.613  1.00  0.00     0.017 C 
ATOM      8  H   UNL A   1      36.243  24.344  23.669  1.00  0.00     0.049 H 
ATOM      9  H   UNL A   1      36.885  22.838  22.951  1.00  0.00     0.049 H 
BRANCH   7  10
ATOM     10  N   UNL A   1      34.858  22.943  23.076  1.00  0.00    -0.356 N 
ATOM     11  C   UNL A   1      33.667  23.615  23.072  1.00  0.00     0.223 C 
ATOM     12  O   UNL A   1      32.686  23.041  22.598  1.00  0.00    -0.275 OA
ATOM     13  H   UNL A   1      34.822  22.067  22.629  1.00  0.00     0.163 HD
BRANCH  11  14
ATOM     14  C   UNL A   1      33.580  25.038  23.569  1.00  0.00     0.061 C 
ATOM     15  H   UNL A   1      34.581  25.366  23.752  1.00  0.00     0.040 H 
ATOM     16  H   UNL A   1      33.039  25.542  22.796  1.00  0.00     0.040 H 
BRANCH  14  17
ATOM     17  C   UNL A   1      32.764  25.347  24.848  1.00  0.00     0.117 C 
ATOM     18  C   UNL A   1      33.830  29.753  27.171  1.00  0.00    -0.024 A 
ATOM     19  C   UNL A   1      33.102  30.965  27.231  1.00  0.00    -0.057 A 
ATOM     20  C   UNL A   1      33.283  28.753  26.335  1.00  0.00     0.049 A 
ATOM     21  C   UNL A   1      31.926  31.176  26.516  1.00  0.00    -0.061 A 
ATOM     22  H   UNL A   1      33.458  31.726  27.830  1.00  0.00     0.063 H 
ATOM     23  C   UNL A   1      32.083  28.939  25.651  1.00  0.00     0.003 A 
ATOM     24  N   UNL A   1      33.716  27.465  26.036  1.00  0.00    -0.356 N 
ATOM     25  C   UNL A   1      31.402  30.164  25.726  1.00  0.00    -0.053 A 
ATOM     26  H   UNL A   1      31.443  32.087  26.575  1.00  0.00     0.062 H 
ATOM     27  C   UNL A   1      31.756  27.706  25.059  1.00  0.00    -0.014 A 
ATOM     28  C   UNL A   1      32.779  26.807  25.267  1.00  0.00     0.052 A 
ATOM     29  H   UNL A   1      34.572  27.078  26.330  1.00  0.00     0.166 HD
ATOM     30  H   UNL A   1      30.526  30.309  25.200  1.00  0.00     0.063 H 
ATOM     31  C   UNL A   1      30.481  27.338  24.440  1.00  0.00    -0.002 C 
ATOM     32  C   UNL A   1      30.500  25.880  24.026  1.00  0.00     0.052 C 
ATOM     33  H   UNL A   1      30.319  27.947  23.576  1.00  0.00     0.034 H 
ATOM     34  H   UNL A   1      29.693  27.488  25.148  1.00  0.00     0.034 H 
ATOM     35  O   UNL A   1      31.364  24.986  24.748  1.00  0.00    -0.368 OA
ATOM     36  H   UNL A   1      29.502  25.508  24.126  1.00  0.00     0.057 H 
ATOM     37  H   UNL A   1      30.894  25.890  23.031  1.00  0.00     0.057 H 
BRANCH  18  38
ATOM     38  C   UNL A   1      35.084  29.525  27.981  1.00  0.00    -0.029 C 
ATOM     39  H   UNL A   1      35.060  30.195  28.814  1.00  0.00     0.031 H 
ATOM     40  H   UNL A   1      35.068  28.489  28.245  1.00  0.00     0.031 H 
BRANCH  38  41
ATOM     41  C   UNL A   1      36.406  29.739  27.251  1.00  0.00    -0.061 C 
ATOM     42  H   UNL A   1      36.892  30.608  27.641  1.00  0.00     0.023 H 
ATOM     43  H   UNL A   1      36.219  29.874  26.206  1.00  0.00     0.023 H 
ATOM     44  H   UNL A   1      37.035  28.884  27.393  1.00  0.00     0.023 H 
ENDBRANCH  38  41
ENDBRANCH  18  38
BRANCH  17  45
ATOM     45  C   UNL A   1      33.316  24.455  26.009  1.00  0.00    -0.020 C 
ATOM     46  H   UNL A   1      33.860  25.087  26.680  1.00  0.00     0.030 H 
ATOM     47  H   UNL A   1      33.918  23.704  25.541  1.00  0.00     0.030 H 
BRANCH  45  48
ATOM     48  C   UNL A   1      32.258  23.700  26.822  1.00  0.00    -0.062 C 
ATOM     49  H   UNL A   1      32.251  24.067  27.826  1.00  0.00     0.023 H 
ATOM     50  H   UNL A   1      32.489  22.656  26.825  1.00  0.00     0.023 H 
ATOM     51  H   UNL A   1      31.295  23.851  26.381  1.00  0.00     0.023 H 
ENDBRANCH  45  48
ENDBRANCH  17  45
ENDBRANCH  14  17
ENDBRANCH  11  14
ENDBRANCH   7  10
ENDBRANCH   4   7
ENDBRANCH   1   4
BRANCH   1  52
ATOM     52  C   UNL A   1      38.413  23.489  26.501  1.00  0.00    -0.052 C 
ATOM     53  H   UNL A   1      38.454  23.585  27.567  1.00  0.00     0.027 H 
ATOM     54  H   UNL A   1      39.007  24.221  25.995  1.00  0.00     0.027 H 
BRANCH  52  55
ATOM     55  C   UNL A   1      38.984  22.124  26.122  1.00  0.00    -0.036 C 
ATOM     56  H   UNL A   1      39.091  22.092  25.058  1.00  0.00     0.028 H 
ATOM     57  H   UNL A   1      38.298  21.396  26.501  1.00  0.00     0.028 H 
BRANCH  55  58
ATOM     58  C   UNL A   1      40.346  21.796  26.748  1.00  0.00     0.018 C 
ATOM     59  H   UNL A   1      40.400  20.739  26.901  1.00  0.00     0.049 H 
ATOM     60  H   UNL A   1      40.407  22.347  27.663  1.00  0.00     0.049 H 
BRANCH  58  61
ATOM     61  N   UNL A   1      41.477  22.199  25.940  1.00  0.00    -0.352 N 
ATOM     62  C   UNL A   1      42.213  23.352  25.870  1.00  0.00     0.251 C 
ATOM     63  H   UNL A   1      41.780  21.502  25.313  1.00  0.00     0.163 HD
ATOM     64  O   UNL A   1      43.211  23.339  25.144  1.00  0.00    -0.269 OA
BRANCH  62  65
ATOM     65  C   UNL A   1      41.833  24.627  26.539  1.00  0.00     0.039 A 
ATOM     66  C   UNL A   1      41.129  25.666  25.938  1.00  0.00    -0.049 A 
ATOM     67  C   UNL A   1      42.284  24.804  27.861  1.00  0.00    -0.049 A 
ATOM     68  C   UNL A   1      41.039  26.902  26.555  1.00  0.00    -0.053 A 
ATOM     69  H   UNL A   1      40.670  25.514  25.027  1.00  0.00     0.063 H 
ATOM     70  C   UNL A   1      42.126  26.020  28.520  1.00  0.00    -0.053 A 
ATOM     71  H   UNL A   1      42.740  24.018  28.349  1.00  0.00     0.063 H 
ATOM     72  C   UNL A   1      41.557  27.089  27.840  1.00  0.00    -0.014 A 
ATOM     73  H   UNL A   1      40.588  27.690  26.064  1.00  0.00     0.063 H 
ATOM     74  H   UNL A   1      42.429  26.126  29.500  1.00  0.00     0.063 H 
BRANCH  72  75
ATOM     75  C   UNL A   1      41.336  28.401  28.442  1.00  0.00     0.031 A 
ATOM     76  C   UNL A   1      42.405  29.385  28.122  1.00  0.00     0.074 A 
ATOM     77  C   UNL A   1      40.275  28.738  29.202  1.00  0.00     0.049 A 
ATOM     78  N   UNL A   1      43.256  29.908  28.941  1.00  0.00    -0.248 NA
ATOM     79  C   UNL A   1      42.662  29.705  26.709  1.00  0.00    -0.034 C 
ATOM     80  C   UNL A   1      39.037  27.982  29.398  1.00  0.00    -0.036 A 
ATOM     81  N   UNL A   1      40.052  29.887  29.911  1.00  0.00    -0.354 N 
ATOM     82  C   UNL A   1      44.043  30.770  28.181  1.00  0.00     0.074 A 
ATOM     83  C   UNL A   1      43.730  30.501  26.803  1.00  0.00    -0.034 C 
ATOM     84  H   UNL A   1      42.151  29.397  25.867  1.00  0.00     0.065 H 
ATOM     85  C   UNL A   1      38.110  28.785  29.969  1.00  0.00    -0.036 A 
ATOM     86  H   UNL A   1      38.894  26.993  29.143  1.00  0.00     0.065 H 
ATOM     87  C   UNL A   1      38.737  30.046  30.326  1.00  0.00     0.049 A 
ATOM     88  H   UNL A   1      40.760  30.542  30.108  1.00  0.00     0.167 HD
ATOM     89  C   UNL A   1      44.691  31.808  28.776  1.00  0.00     0.037 A 
ATOM     90  H   UNL A   1      44.259  30.871  25.998  1.00  0.00     0.065 H 
ATOM     91  H   UNL A   1      37.119  28.541  30.125  1.00  0.00     0.065 H 
ATOM     92  C   UNL A   1      38.195  31.150  30.895  1.00  0.00     0.037 A 
ATOM     93  C   UNL A   1      44.780  31.613  30.199  1.00  0.00     0.049 A 
ATOM     94  C   UNL A   1      39.289  31.906  31.544  1.00  0.00     0.074 A 
ATOM     95  C   UNL A   1      45.577  30.916  31.077  1.00  0.00    -0.036 A 
ATOM     96  N   UNL A   1      43.644  31.967  30.872  1.00  0.00    -0.354 N 
ATOM     97  N   UNL A   1      39.948  31.474  32.583  1.00  0.00    -0.248 NA
ATOM     98  C   UNL A   1      39.878  33.054  30.860  1.00  0.00    -0.034 C 
ATOM     99  C   UNL A   1      44.810  30.748  32.270  1.00  0.00    -0.036 A 
ATOM    100  H   UNL A   1      46.539  30.581  30.907  1.00  0.00     0.065 H 
ATOM    101  C   UNL A   1      43.578  31.371  32.100  1.00  0.00     0.049 A 
ATOM    102  H   UNL A   1      42.958  32.578  30.516  1.00  0.00     0.167 HD
ATOM    103  C   UNL A   1      41.211  31.998  32.420  1.00  0.00     0.074 A 
ATOM    104  C   UNL A   1      41.062  33.096  31.475  1.00  0.00    -0.034 C 
ATOM    105  H   UNL A   1      39.493  33.657  30.116  1.00  0.00     0.065 H 
ATOM    106  H   UNL A   1      45.119  30.247  33.119  1.00  0.00     0.065 H 
ATOM    107  C   UNL A   1      42.312  31.285  32.787  1.00  0.00     0.037 A 
ATOM    108  H   UNL A   1      41.781  33.816  31.303  1.00  0.00     0.065 H 
BRANCH  89 109
ATOM    109  C   UNL A   1      44.775  33.204  28.190  1.00  0.00     0.064 A 
ATOM    110  C   UNL A   1      46.043  33.736  27.867  1.00  0.00     0.173 A 
ATOM    111  C   UNL A   1      43.726  34.147  28.255  1.00  0.00     0.173 A 
ATOM    112  F   UNL A   1      47.121  32.940  27.796  1.00  0.00    -0.203 F 
ATOM    113  C   UNL A   1      46.252  35.110  27.703  1.00  0.00     0.198 A 
ATOM    114  C   UNL A   1      43.930  35.510  28.044  1.00  0.00     0.198 A 
ATOM    115  F   UNL A   1      42.489  33.813  28.640  1.00  0.00    -0.203 F 
ATOM    116  F   UNL A   1      47.494  35.578  27.518  1.00  0.00    -0.200 F 
ATOM    117  C   UNL A   1      45.196  35.996  27.798  1.00  0.00     0.200 A 
ATOM    118  F   UNL A   1      42.897  36.356  28.167  1.00  0.00    -0.200 F 
ATOM    119  F   UNL A   1      45.401  37.316  27.702  1.00  0.00    -0.200 F 
ENDBRANCH  89 109
BRANCH  92 120
ATOM    120  C   UNL A   1      36.857  31.748  30.674  1.00  0.00     0.064 A 
ATOM    121  C   UNL A   1      35.928  31.829  31.727  1.00  0.00     0.173 A 
ATOM    122  C   UNL A   1      36.589  32.539  29.541  1.00  0.00     0.173 A 
ATOM    123  F   UNL A   1      36.120  31.125  32.852  1.00  0.00    -0.203 F 
ATOM    124  C   UNL A   1      34.838  32.703  31.678  1.00  0.00     0.198 A 
ATOM    125  C   UNL A   1      35.496  33.406  29.491  1.00  0.00     0.198 A 
ATOM    126  F   UNL A   1      37.439  32.567  28.504  1.00  0.00    -0.203 F 
ATOM    127  F   UNL A   1      34.027  32.818  32.740  1.00  0.00    -0.200 F 
ATOM    128  C   UNL A   1      34.635  33.505  30.568  1.00  0.00     0.200 A 
ATOM    129  F   UNL A   1      35.326  34.199  28.424  1.00  0.00    -0.200 F 
ATOM    130  F   UNL A   1      33.642  34.405  30.556  1.00  0.00    -0.200 F 
ENDBRANCH  92 120
BRANCH 107 131
ATOM    131  C   UNL A   1      42.139  30.240  33.840  1.00  0.00     0.064 A 
ATOM    132  C   UNL A   1      41.710  28.926  33.592  1.00  0.00     0.173 A 
ATOM    133  C   UNL A   1      42.502  30.572  35.152  1.00  0.00     0.173 A 
ATOM    134  F   UNL A   1      41.415  28.519  32.351  1.00  0.00    -0.203 F 
ATOM    135  C   UNL A   1      41.622  27.996  34.627  1.00  0.00     0.198 A 
ATOM    136  C   UNL A   1      42.446  29.633  36.174  1.00  0.00     0.198 A 
ATOM    137  F   UNL A   1      42.951  31.805  35.432  1.00  0.00    -0.203 F 
ATOM    138  F   UNL A   1      41.199  26.749  34.375  1.00  0.00    -0.200 F 
ATOM    139  C   UNL A   1      41.998  28.348  35.914  1.00  0.00     0.200 A 
ATOM    140  F   UNL A   1      42.850  29.967  37.407  1.00  0.00    -0.200 F 
ATOM    141  F   UNL A   1      41.952  27.443  36.901  1.00  0.00    -0.200 F 
ENDBRANCH 107 131
ENDBRANCH  72  75
ENDBRANCH  62  65
ENDBRANCH  58  61
ENDBRANCH  55  58
ENDBRANCH  52  55
ENDBRANCH   1  52
TORSDOF 18
ENDMDL
MODEL 3
REMARK VINA RESULT:     -11.6      2.762      8.733
REMARK SMILES CCc1cccc2c3c([nH]c12)[C@](CC)(CC(=O)NCCCCCCNC(=O)c1ccc(-c2c4nc(c(-c5c(F)c(F)c(F)c(F)c5F)c5ccc([nH]5)c(-c5c(F)c(F)c(F)c(F)c5F)c5nc(c(-c6c(F)c(F)c(F)c(F)c6F)c6ccc2[nH]6)C=C5)C=C4)cc1)OCC3
REMARK SMILES IDX 21 1 20 4 19 7 18 10 16 11 17 12 15 14 12 17 3 18 4 19 11 20
REMARK SMILES IDX 5 21 7 23 10 24 6 25 8 27 9 28 93 31 92 32 91 35 2 38 1 41
REMARK SMILES IDX 13 45 14 48 22 52 23 55 24 58 25 61 26 62 27 64 28 65 29 66
REMARK SMILES IDX 90 67 30 68 89 70 31 72 32 75 33 76 83 77 34 78 88 79 82 80
REMARK SMILES IDX 84 81 35 82 87 83 81 85 80 87 36 89 68 92 48 93 67 94 49 95
REMARK SMILES IDX 52 96 66 97 85 98 50 99 51 101 65 103 86 104 53 107 37 109
REMARK SMILES IDX 38 110 46 111 39 112 40 113 44 114 47 115 41 116 42 117
REMARK SMILES IDX 45 118 43 119 69 120 70 121 78 122 71 123 72 124 76 125
REMARK SMILES IDX 79 126 73 127 74 128 77 129 75 130 54 131 55 132 63 133
REMARK SMILES IDX 56 134 57 135 61 136 64 137 58 138 59 139 62 140 60 141
REMARK H PARENT 21 2 21 3 20 5 20 6 19 8 19 9 18 13 15 15 15 16 4 22 5 26
REMARK H PARENT 10 29 6 30 93 33 93 34 92 36 92 37 2 39 2 40 1 42 1 43 1 44
REMARK H PARENT 13 46 13 47 14 49 14 50 14 51 22 53 22 54 23 56 23 57 24 59
REMARK H PARENT 24 60 25 63 29 69 90 71 30 73 89 74 88 84 82 86 84 88 87 90
REMARK H PARENT 81 91 49 100 52 102 85 105 50 106 86 108
REMARK Flexibility Score: inf
ROOT
ATOM      1  C   UNL A   1      32.383  29.467  25.345  1.00  0.00    -0.052 C 
ATOM      2  H   UNL A   1      32.181  30.051  24.471  1.00  0.00     0.027 H 
ATOM      3  H   UNL A   1      33.360  29.031  25.342  1.00  0.00     0.027 H 
ENDROOT
BRANCH   1   4
ATOM      4  C   UNL A   1      31.382  28.297  25.381  1.00  0.00    -0.036 C 
ATOM      5  H   UNL A   1      30.395  28.709  25.335  1.00  0.00     0.028 H 
ATOM      6  H   UNL A   1      31.638  27.675  24.549  1.00  0.00     0.028 H 
BRANCH   4   7
ATOM      7  C   UNL A   1      31.453  27.384  26.615  1.00  0.00     0.017 C 
ATOM      8  H   UNL A   1      32.481  27.157  26.802  1.00  0.00     0.049 H 
ATOM      9  H   UNL A   1      30.985  27.923  27.412  1.00  0.00     0.049 H 
BRANCH   7  10
ATOM     10  N   UNL A   1      30.727  26.127  26.493  1.00  0.00    -0.356 N 
ATOM     11  C   UNL A   1      31.147  24.831  26.374  1.00  0.00     0.223 C 
ATOM     12  O   UNL A   1      30.289  23.962  26.211  1.00  0.00    -0.275 OA
ATOM     13  H   UNL A   1      29.748  26.229  26.498  1.00  0.00     0.163 HD
BRANCH  11  14
ATOM     14  C   UNL A   1      32.608  24.476  26.511  1.00  0.00     0.061 C 
ATOM     15  H   UNL A   1      33.057  25.233  27.117  1.00  0.00     0.040 H 
ATOM     16  H   UNL A   1      32.589  23.484  26.911  1.00  0.00     0.040 H 
BRANCH  14  17
ATOM     17  C   UNL A   1      33.479  24.341  25.238  1.00  0.00     0.117 C 
ATOM     18  C   UNL A   1      38.282  22.810  25.967  1.00  0.00    -0.024 A 
ATOM     19  C   UNL A   1      38.904  21.567  25.703  1.00  0.00    -0.057 A 
ATOM     20  C   UNL A   1      36.888  22.854  25.740  1.00  0.00     0.049 A 
ATOM     21  C   UNL A   1      38.204  20.450  25.254  1.00  0.00    -0.061 A 
ATOM     22  H   UNL A   1      39.923  21.483  25.850  1.00  0.00     0.063 H 
ATOM     23  C   UNL A   1      36.185  21.756  25.248  1.00  0.00     0.003 A 
ATOM     24  N   UNL A   1      35.963  23.883  25.889  1.00  0.00    -0.356 N 
ATOM     25  C   UNL A   1      36.840  20.536  25.016  1.00  0.00    -0.053 A 
ATOM     26  H   UNL A   1      38.700  19.558  25.098  1.00  0.00     0.062 H 
ATOM     27  C   UNL A   1      34.873  22.193  24.989  1.00  0.00    -0.014 A 
ATOM     28  C   UNL A   1      34.727  23.494  25.416  1.00  0.00     0.052 A 
ATOM     29  H   UNL A   1      36.162  24.765  26.279  1.00  0.00     0.166 HD
ATOM     30  H   UNL A   1      36.314  19.716  24.675  1.00  0.00     0.063 H 
ATOM     31  C   UNL A   1      33.835  21.471  24.249  1.00  0.00    -0.002 C 
ATOM     32  C   UNL A   1      32.602  22.338  24.095  1.00  0.00     0.052 C 
ATOM     33  H   UNL A   1      33.576  20.581  24.782  1.00  0.00     0.034 H 
ATOM     34  H   UNL A   1      34.209  21.222  23.278  1.00  0.00     0.034 H 
ATOM     35  O   UNL A   1      32.776  23.766  24.109  1.00  0.00    -0.368 OA
ATOM     36  H   UNL A   1      32.148  22.081  23.161  1.00  0.00     0.057 H 
ATOM     37  H   UNL A   1      32.019  22.130  24.968  1.00  0.00     0.057 H 
BRANCH  18  38
ATOM     38  C   UNL A   1      39.060  24.022  26.417  1.00  0.00    -0.029 C 
ATOM     39  H   UNL A   1      40.101  23.798  26.313  1.00  0.00     0.031 H 
ATOM     40  H   UNL A   1      38.718  24.826  25.800  1.00  0.00     0.031 H 
BRANCH  38  41
ATOM     41  C   UNL A   1      38.825  24.481  27.852  1.00  0.00    -0.061 C 
ATOM     42  H   UNL A   1      38.187  23.781  28.350  1.00  0.00     0.023 H 
ATOM     43  H   UNL A   1      38.360  25.445  27.847  1.00  0.00     0.023 H 
ATOM     44  H   UNL A   1      39.761  24.539  28.367  1.00  0.00     0.023 H 
ENDBRANCH  38  41
ENDBRANCH  18  38
BRANCH  17  45
ATOM     45  C   UNL A   1      33.875  25.778  24.761  1.00  0.00    -0.020 C 
ATOM     46  H   UNL A   1      34.930  25.891  24.897  1.00  0.00     0.030 H 
ATOM     47  H   UNL A   1      33.289  26.454  25.349  1.00  0.00     0.030 H 
BRANCH  45  48
ATOM     48  C   UNL A   1      33.549  26.101  23.298  1.00  0.00    -0.062 C 
ATOM     49  H   UNL A   1      32.496  26.247  23.191  1.00  0.00     0.023 H 
ATOM     50  H   UNL A   1      33.862  25.288  22.676  1.00  0.00     0.023 H 
ATOM     51  H   UNL A   1      34.065  26.992  23.006  1.00  0.00     0.023 H 
ENDBRANCH  45  48
ENDBRANCH  17  45
ENDBRANCH  14  17
ENDBRANCH  11  14
ENDBRANCH   7  10
ENDBRANCH   4   7
ENDBRANCH   1   4
BRANCH   1  52
ATOM     52  C   UNL A   1      32.327  30.388  26.553  1.00  0.00    -0.052 C 
ATOM     53  H   UNL A   1      31.475  30.116  27.142  1.00  0.00     0.027 H 
ATOM     54  H   UNL A   1      32.269  31.387  26.177  1.00  0.00     0.027 H 
BRANCH  52  55
ATOM     55  C   UNL A   1      33.565  30.326  27.446  1.00  0.00    -0.036 C 
ATOM     56  H   UNL A   1      34.270  29.664  26.991  1.00  0.00     0.028 H 
ATOM     57  H   UNL A   1      33.227  29.992  28.404  1.00  0.00     0.028 H 
BRANCH  55  58
ATOM     58  C   UNL A   1      34.259  31.674  27.682  1.00  0.00     0.018 C 
ATOM     59  H   UNL A   1      33.714  32.430  27.155  1.00  0.00     0.049 H 
ATOM     60  H   UNL A   1      35.264  31.571  27.330  1.00  0.00     0.049 H 
BRANCH  58  61
ATOM     61  N   UNL A   1      34.339  32.058  29.076  1.00  0.00    -0.352 N 
ATOM     62  C   UNL A   1      35.313  31.917  30.029  1.00  0.00     0.251 C 
ATOM     63  H   UNL A   1      33.531  32.514  29.405  1.00  0.00     0.163 HD
ATOM     64  O   UNL A   1      35.118  32.469  31.116  1.00  0.00    -0.269 OA
BRANCH  62  65
ATOM     65  C   UNL A   1      36.531  31.077  29.862  1.00  0.00     0.039 A 
ATOM     66  C   UNL A   1      36.546  29.685  29.850  1.00  0.00    -0.049 A 
ATOM     67  C   UNL A   1      37.760  31.758  29.774  1.00  0.00    -0.049 A 
ATOM     68  C   UNL A   1      37.743  28.996  29.938  1.00  0.00    -0.053 A 
ATOM     69  H   UNL A   1      35.659  29.164  29.775  1.00  0.00     0.063 H 
ATOM     70  C   UNL A   1      38.969  31.068  29.780  1.00  0.00    -0.053 A 
ATOM     71  H   UNL A   1      37.763  32.787  29.703  1.00  0.00     0.063 H 
ATOM     72  C   UNL A   1      38.958  29.687  29.926  1.00  0.00    -0.014 A 
ATOM     73  H   UNL A   1      37.739  27.967  30.015  1.00  0.00     0.063 H 
ATOM     74  H   UNL A   1      39.861  31.577  29.680  1.00  0.00     0.063 H 
BRANCH  72  75
ATOM     75  C   UNL A   1      40.168  28.868  29.933  1.00  0.00     0.031 A 
ATOM     76  C   UNL A   1      40.761  28.704  31.288  1.00  0.00     0.074 A 
ATOM     77  C   UNL A   1      40.717  28.285  28.849  1.00  0.00     0.049 A 
ATOM     78  N   UNL A   1      41.891  29.168  31.707  1.00  0.00    -0.248 NA
ATOM     79  C   UNL A   1      39.938  28.093  32.343  1.00  0.00    -0.034 C 
ATOM     80  C   UNL A   1      40.132  28.140  27.516  1.00  0.00    -0.036 A 
ATOM     81  N   UNL A   1      41.908  27.620  28.738  1.00  0.00    -0.354 N 
ATOM     82  C   UNL A   1      42.013  28.749  33.029  1.00  0.00     0.074 A 
ATOM     83  C   UNL A   1      40.732  28.219  33.409  1.00  0.00    -0.034 C 
ATOM     84  H   UNL A   1      38.996  27.676  32.277  1.00  0.00     0.065 H 
ATOM     85  C   UNL A   1      40.850  27.239  26.809  1.00  0.00    -0.036 A 
ATOM     86  H   UNL A   1      39.302  28.646  27.169  1.00  0.00     0.065 H 
ATOM     87  C   UNL A   1      42.030  26.874  27.574  1.00  0.00     0.049 A 
ATOM     88  H   UNL A   1      42.614  27.666  29.423  1.00  0.00     0.167 HD
ATOM     89  C   UNL A   1      43.242  28.644  33.604  1.00  0.00     0.037 A 
ATOM     90  H   UNL A   1      40.462  27.970  34.374  1.00  0.00     0.065 H 
ATOM     91  H   UNL A   1      40.601  26.871  25.877  1.00  0.00     0.065 H 
ATOM     92  C   UNL A   1      43.016  25.995  27.275  1.00  0.00     0.037 A 
ATOM     93  C   UNL A   1      44.226  29.381  32.855  1.00  0.00     0.049 A 
ATOM     94  C   UNL A   1      44.214  26.376  28.057  1.00  0.00     0.074 A 
ATOM     95  C   UNL A   1      44.645  30.687  32.745  1.00  0.00    -0.036 A 
ATOM     96  N   UNL A   1      44.703  28.706  31.766  1.00  0.00    -0.354 N 
ATOM     97  N   UNL A   1      44.886  27.476  27.856  1.00  0.00    -0.248 NA
ATOM     98  C   UNL A   1      44.523  25.669  29.296  1.00  0.00    -0.034 C 
ATOM     99  C   UNL A   1      45.281  30.800  31.471  1.00  0.00    -0.036 A 
ATOM    100  H   UNL A   1      44.524  31.436  33.445  1.00  0.00     0.065 H 
ATOM    101  C   UNL A   1      45.258  29.555  30.850  1.00  0.00     0.049 A 
ATOM    102  H   UNL A   1      44.652  27.729  31.656  1.00  0.00     0.167 HD
ATOM    103  C   UNL A   1      45.361  27.810  29.105  1.00  0.00     0.074 A 
ATOM    104  C   UNL A   1      45.280  26.591  29.897  1.00  0.00    -0.034 C 
ATOM    105  H   UNL A   1      44.240  24.729  29.615  1.00  0.00     0.065 H 
ATOM    106  H   UNL A   1      45.689  31.661  31.076  1.00  0.00     0.065 H 
ATOM    107  C   UNL A   1      45.450  29.114  29.489  1.00  0.00     0.037 A 
ATOM    108  H   UNL A   1      45.747  26.456  30.807  1.00  0.00     0.065 H 
BRANCH  89 109
ATOM    109  C   UNL A   1      43.666  27.495  34.497  1.00  0.00     0.064 A 
ATOM    110  C   UNL A   1      43.702  26.188  33.962  1.00  0.00     0.173 A 
ATOM    111  C   UNL A   1      43.700  27.569  35.906  1.00  0.00     0.173 A 
ATOM    112  F   UNL A   1      43.655  25.991  32.636  1.00  0.00    -0.203 F 
ATOM    113  C   UNL A   1      43.693  25.052  34.778  1.00  0.00     0.198 A 
ATOM    114  C   UNL A   1      43.739  26.434  36.716  1.00  0.00     0.198 A 
ATOM    115  F   UNL A   1      43.578  28.728  36.564  1.00  0.00    -0.203 F 
ATOM    116  F   UNL A   1      43.605  23.834  34.225  1.00  0.00    -0.200 F 
ATOM    117  C   UNL A   1      43.704  25.176  36.154  1.00  0.00     0.200 A 
ATOM    118  F   UNL A   1      43.722  26.576  38.049  1.00  0.00    -0.200 F 
ATOM    119  F   UNL A   1      43.634  24.093  36.938  1.00  0.00    -0.200 F 
ENDBRANCH  89 109
BRANCH  92 120
ATOM    120  C   UNL A   1      42.917  24.684  26.591  1.00  0.00     0.064 A 
ATOM    121  C   UNL A   1      43.581  24.463  25.370  1.00  0.00     0.173 A 
ATOM    122  C   UNL A   1      42.457  23.539  27.268  1.00  0.00     0.173 A 
ATOM    123  F   UNL A   1      44.072  25.498  24.672  1.00  0.00    -0.203 F 
ATOM    124  C   UNL A   1      43.833  23.173  24.895  1.00  0.00     0.198 A 
ATOM    125  C   UNL A   1      42.703  22.252  26.787  1.00  0.00     0.198 A 
ATOM    126  F   UNL A   1      41.853  23.641  28.461  1.00  0.00    -0.203 F 
ATOM    127  F   UNL A   1      44.550  23.003  23.774  1.00  0.00    -0.200 F 
ATOM    128  C   UNL A   1      43.411  22.069  25.615  1.00  0.00     0.200 A 
ATOM    129  F   UNL A   1      42.315  21.190  27.507  1.00  0.00    -0.200 F 
ATOM    130  F   UNL A   1      43.727  20.832  25.204  1.00  0.00    -0.200 F 
ENDBRANCH  92 120
BRANCH 107 131
ATOM    131  C   UNL A   1      45.574  30.144  28.414  1.00  0.00     0.064 A 
ATOM    132  C   UNL A   1      44.488  30.786  27.799  1.00  0.00     0.173 A 
ATOM    133  C   UNL A   1      46.865  30.550  28.050  1.00  0.00     0.173 A 
ATOM    134  F   UNL A   1      43.228  30.499  28.150  1.00  0.00    -0.203 F 
ATOM    135  C   UNL A   1      44.693  31.774  26.837  1.00  0.00     0.198 A 
ATOM    136  C   UNL A   1      47.066  31.559  27.116  1.00  0.00     0.198 A 
ATOM    137  F   UNL A   1      47.935  29.990  28.635  1.00  0.00    -0.203 F 
ATOM    138  F   UNL A   1      43.645  32.369  26.250  1.00  0.00    -0.200 F 
ATOM    139  C   UNL A   1      45.981  32.164  26.503  1.00  0.00     0.200 A 
ATOM    140  F   UNL A   1      48.311  31.960  26.828  1.00  0.00    -0.200 F 
ATOM    141  F   UNL A   1      46.178  33.142  25.608  1.00  0.00    -0.200 F 
ENDBRANCH 107 131
ENDBRANCH  72  75
ENDBRANCH  62  65
ENDBRANCH  58  61
ENDBRANCH  55  58
ENDBRANCH  52  55
ENDBRANCH   1  52
TORSDOF 18
ENDMDL
MODEL 4
REMARK VINA RESULT:     -11.6      4.576     10.779
REMARK SMILES CCc1cccc2c3c([nH]c12)[C@](CC)(CC(=O)NCCCCCCNC(=O)c1ccc(-c2c4nc(c(-c5c(F)c(F)c(F)c(F)c5F)c5ccc([nH]5)c(-c5c(F)c(F)c(F)c(F)c5F)c5nc(c(-c6c(F)c(F)c(F)c(F)c6F)c6ccc2[nH]6)C=C5)C=C4)cc1)OCC3
REMARK SMILES IDX 21 1 20 4 19 7 18 10 16 11 17 12 15 14 12 17 3 18 4 19 11 20
REMARK SMILES IDX 5 21 7 23 10 24 6 25 8 27 9 28 93 31 92 32 91 35 2 38 1 41
REMARK SMILES IDX 13 45 14 48 22 52 23 55 24 58 25 61 26 62 27 64 28 65 29 66
REMARK SMILES IDX 90 67 30 68 89 70 31 72 32 75 33 76 83 77 34 78 88 79 82 80
REMARK SMILES IDX 84 81 35 82 87 83 81 85 80 87 36 89 68 92 48 93 67 94 49 95
REMARK SMILES IDX 52 96 66 97 85 98 50 99 51 101 65 103 86 104 53 107 37 109
REMARK SMILES IDX 38 110 46 111 39 112 40 113 44 114 47 115 41 116 42 117
REMARK SMILES IDX 45 118 43 119 69 120 70 121 78 122 71 123 72 124 76 125
REMARK SMILES IDX 79 126 73 127 74 128 77 129 75 130 54 131 55 132 63 133
REMARK SMILES IDX 56 134 57 135 61 136 64 137 58 138 59 139 62 140 60 141
REMARK H PARENT 21 2 21 3 20 5 20 6 19 8 19 9 18 13 15 15 15 16 4 22 5 26
REMARK H PARENT 10 29 6 30 93 33 93 34 92 36 92 37 2 39 2 40 1 42 1 43 1 44
REMARK H PARENT 13 46 13 47 14 49 14 50 14 51 22 53 22 54 23 56 23 57 24 59
REMARK H PARENT 24 60 25 63 29 69 90 71 30 73 89 74 88 84 82 86 84 88 87 90
REMARK H PARENT 81 91 49 100 52 102 85 105 50 106 86 108
REMARK Flexibility Score: inf
ROOT
ATOM      1  C   UNL A   1      36.064  32.048  32.696  1.00  0.00    -0.052 C 
ATOM      2  H   UNL A   1      36.802  32.787  32.463  1.00  0.00     0.027 H 
ATOM      3  H   UNL A   1      35.740  32.084  33.715  1.00  0.00     0.027 H 
ENDROOT
BRANCH   1   4
ATOM      4  C   UNL A   1      36.694  30.659  32.487  1.00  0.00    -0.036 C 
ATOM      5  H   UNL A   1      35.955  29.924  32.732  1.00  0.00     0.028 H 
ATOM      6  H   UNL A   1      37.010  30.638  31.465  1.00  0.00     0.028 H 
BRANCH   4   7
ATOM      7  C   UNL A   1      37.952  30.354  33.314  1.00  0.00     0.017 C 
ATOM      8  H   UNL A   1      38.269  29.358  33.083  1.00  0.00     0.049 H 
ATOM      9  H   UNL A   1      38.671  31.100  33.052  1.00  0.00     0.049 H 
BRANCH   7  10
ATOM     10  N   UNL A   1      37.777  30.448  34.758  1.00  0.00    -0.356 N 
ATOM     11  C   UNL A   1      38.667  30.612  35.783  1.00  0.00     0.223 C 
ATOM     12  O   UNL A   1      38.228  30.581  36.934  1.00  0.00    -0.275 OA
ATOM     13  H   UNL A   1      36.839  30.382  35.051  1.00  0.00     0.163 HD
BRANCH  11  14
ATOM     14  C   UNL A   1      40.124  30.891  35.505  1.00  0.00     0.061 C 
ATOM     15  H   UNL A   1      40.673  30.561  36.360  1.00  0.00     0.040 H 
ATOM     16  H   UNL A   1      40.307  30.379  34.584  1.00  0.00     0.040 H 
BRANCH  14  17
ATOM     17  C   UNL A   1      40.576  32.343  35.212  1.00  0.00     0.117 C 
ATOM     18  C   UNL A   1      40.973  33.613  30.296  1.00  0.00    -0.024 A 
ATOM     19  C   UNL A   1      40.148  34.426  29.483  1.00  0.00    -0.057 A 
ATOM     20  C   UNL A   1      40.500  33.383  31.607  1.00  0.00     0.049 A 
ATOM     21  C   UNL A   1      38.945  34.967  29.928  1.00  0.00    -0.061 A 
ATOM     22  H   UNL A   1      40.451  34.627  28.517  1.00  0.00     0.063 H 
ATOM     23  C   UNL A   1      39.320  33.957  32.077  1.00  0.00     0.003 A 
ATOM     24  N   UNL A   1      41.033  32.649  32.663  1.00  0.00    -0.356 N 
ATOM     25  C   UNL A   1      38.523  34.743  31.230  1.00  0.00    -0.053 A 
ATOM     26  H   UNL A   1      38.367  35.535  29.289  1.00  0.00     0.062 H 
ATOM     27  C   UNL A   1      39.239  33.658  33.449  1.00  0.00    -0.014 A 
ATOM     28  C   UNL A   1      40.277  32.823  33.803  1.00  0.00     0.052 A 
ATOM     29  H   UNL A   1      41.836  32.083  32.604  1.00  0.00     0.166 HD
ATOM     30  H   UNL A   1      37.638  35.148  31.572  1.00  0.00     0.063 H 
ATOM     31  C   UNL A   1      38.310  34.236  34.422  1.00  0.00    -0.002 C 
ATOM     32  C   UNL A   1      38.628  33.733  35.816  1.00  0.00     0.052 C 
ATOM     33  H   UNL A   1      37.310  33.956  34.167  1.00  0.00     0.034 H 
ATOM     34  H   UNL A   1      38.407  35.302  34.407  1.00  0.00     0.034 H 
ATOM     35  O   UNL A   1      39.980  33.327  36.093  1.00  0.00    -0.368 OA
ATOM     36  H   UNL A   1      38.384  34.518  36.501  1.00  0.00     0.057 H 
ATOM     37  H   UNL A   1      38.054  32.835  35.913  1.00  0.00     0.057 H 
BRANCH  18  38
ATOM     38  C   UNL A   1      42.293  33.064  29.811  1.00  0.00    -0.029 C 
ATOM     39  H   UNL A   1      42.648  32.372  30.545  1.00  0.00     0.031 H 
ATOM     40  H   UNL A   1      42.088  32.630  28.856  1.00  0.00     0.031 H 
BRANCH  38  41
ATOM     41  C   UNL A   1      43.398  34.086  29.564  1.00  0.00    -0.061 C 
ATOM     42  H   UNL A   1      42.999  34.921  29.027  1.00  0.00     0.023 H 
ATOM     43  H   UNL A   1      44.181  33.634  28.990  1.00  0.00     0.023 H 
ATOM     44  H   UNL A   1      43.792  34.420  30.501  1.00  0.00     0.023 H 
ENDBRANCH  38  41
ENDBRANCH  18  38
BRANCH  17  45
ATOM     45  C   UNL A   1      42.112  32.444  35.494  1.00  0.00    -0.020 C 
ATOM     46  H   UNL A   1      42.619  31.835  34.775  1.00  0.00     0.030 H 
ATOM     47  H   UNL A   1      42.246  32.121  36.506  1.00  0.00     0.030 H 
BRANCH  45  48
ATOM     48  C   UNL A   1      42.705  33.856  35.420  1.00  0.00    -0.062 C 
ATOM     49  H   UNL A   1      42.167  34.504  36.079  1.00  0.00     0.023 H 
ATOM     50  H   UNL A   1      42.629  34.222  34.417  1.00  0.00     0.023 H 
ATOM     51  H   UNL A   1      43.734  33.826  35.710  1.00  0.00     0.023 H 
ENDBRANCH  45  48
ENDBRANCH  17  45
ENDBRANCH  14  17
ENDBRANCH  11  14
ENDBRANCH   7  10
ENDBRANCH   4   7
ENDBRANCH   1   4
BRANCH   1  52
ATOM     52  C   UNL A   1      34.835  32.322  31.844  1.00  0.00    -0.052 C 
ATOM     53  H   UNL A   1      33.968  32.212  32.462  1.00  0.00     0.027 H 
ATOM     54  H   UNL A   1      34.859  31.624  31.034  1.00  0.00     0.027 H 
BRANCH  52  55
ATOM     55  C   UNL A   1      34.803  33.717  31.220  1.00  0.00    -0.036 C 
ATOM     56  H   UNL A   1      35.266  34.397  31.904  1.00  0.00     0.028 H 
ATOM     57  H   UNL A   1      33.773  33.938  31.034  1.00  0.00     0.028 H 
BRANCH  55  58
ATOM     58  C   UNL A   1      35.519  33.837  29.869  1.00  0.00     0.018 C 
ATOM     59  H   UNL A   1      36.542  33.554  30.004  1.00  0.00     0.049 H 
ATOM     60  H   UNL A   1      35.412  34.853  29.551  1.00  0.00     0.049 H 
BRANCH  58  61
ATOM     61  N   UNL A   1      34.951  33.009  28.826  1.00  0.00    -0.352 N 
ATOM     62  C   UNL A   1      35.273  31.770  28.337  1.00  0.00     0.251 C 
ATOM     63  H   UNL A   1      34.175  33.418  28.377  1.00  0.00     0.163 HD
ATOM     64  O   UNL A   1      34.504  31.277  27.506  1.00  0.00    -0.269 OA
BRANCH  62  65
ATOM     65  C   UNL A   1      36.522  31.036  28.678  1.00  0.00     0.039 A 
ATOM     66  C   UNL A   1      37.695  31.626  29.139  1.00  0.00    -0.049 A 
ATOM     67  C   UNL A   1      36.520  29.647  28.450  1.00  0.00    -0.049 A 
ATOM     68  C   UNL A   1      38.872  30.900  29.192  1.00  0.00    -0.053 A 
ATOM     69  H   UNL A   1      37.687  32.612  29.445  1.00  0.00     0.063 H 
ATOM     70  C   UNL A   1      37.683  28.893  28.579  1.00  0.00    -0.053 A 
ATOM     71  H   UNL A   1      35.639  29.180  28.182  1.00  0.00     0.063 H 
ATOM     72  C   UNL A   1      38.874  29.535  28.890  1.00  0.00    -0.014 A 
ATOM     73  H   UNL A   1      39.754  31.369  29.454  1.00  0.00     0.063 H 
ATOM     74  H   UNL A   1      37.660  27.871  28.443  1.00  0.00     0.063 H 
BRANCH  72  75
ATOM     75  C   UNL A   1      40.145  28.837  29.060  1.00  0.00     0.031 A 
ATOM     76  C   UNL A   1      40.551  28.687  30.484  1.00  0.00     0.074 A 
ATOM     77  C   UNL A   1      40.900  28.344  28.058  1.00  0.00     0.049 A 
ATOM     78  N   UNL A   1      41.558  29.245  31.072  1.00  0.00    -0.248 NA
ATOM     79  C   UNL A   1      39.651  27.967  31.396  1.00  0.00    -0.034 C 
ATOM     80  C   UNL A   1      40.530  28.185  26.651  1.00  0.00    -0.036 A 
ATOM     81  N   UNL A   1      42.155  27.801  28.111  1.00  0.00    -0.354 N 
ATOM     82  C   UNL A   1      41.529  28.798  32.390  1.00  0.00     0.074 A 
ATOM     83  C   UNL A   1      40.266  28.135  32.570  1.00  0.00    -0.034 C 
ATOM     84  H   UNL A   1      38.775  27.463  31.186  1.00  0.00     0.065 H 
ATOM     85  C   UNL A   1      41.430  27.381  26.041  1.00  0.00    -0.036 A 
ATOM     86  H   UNL A   1      39.713  28.620  26.196  1.00  0.00     0.065 H 
ATOM     87  C   UNL A   1      42.518  27.107  26.964  1.00  0.00     0.049 A 
ATOM     88  H   UNL A   1      42.748  27.893  28.892  1.00  0.00     0.167 HD
ATOM     89  C   UNL A   1      42.667  28.794  33.136  1.00  0.00     0.037 A 
ATOM     90  H   UNL A   1      39.887  27.831  33.480  1.00  0.00     0.065 H 
ATOM     91  H   UNL A   1      41.355  27.020  25.076  1.00  0.00     0.065 H 
ATOM     92  C   UNL A   1      43.620  26.337  26.798  1.00  0.00     0.037 A 
ATOM     93  C   UNL A   1      43.669  29.646  32.552  1.00  0.00     0.049 A 
ATOM     94  C   UNL A   1      44.648  26.808  27.752  1.00  0.00     0.074 A 
ATOM     95  C   UNL A   1      43.967  30.989  32.527  1.00  0.00    -0.036 A 
ATOM     96  N   UNL A   1      44.363  29.055  31.533  1.00  0.00    -0.354 N 
ATOM     97  N   UNL A   1      45.229  27.972  27.671  1.00  0.00    -0.248 NA
ATOM     98  C   UNL A   1      44.846  26.094  29.011  1.00  0.00    -0.034 C 
ATOM     99  C   UNL A   1      44.765  31.203  31.362  1.00  0.00    -0.036 A 
ATOM    100  H   UNL A   1      43.672  31.701  33.214  1.00  0.00     0.065 H 
ATOM    101  C   UNL A   1      44.957  29.982  30.722  1.00  0.00     0.049 A 
ATOM    102  H   UNL A   1      44.427  28.082  31.399  1.00  0.00     0.167 HD
ATOM    103  C   UNL A   1      45.483  28.312  28.982  1.00  0.00     0.074 A 
ATOM    104  C   UNL A   1      45.412  27.065  29.731  1.00  0.00    -0.034 C 
ATOM    105  H   UNL A   1      44.615  25.122  29.269  1.00  0.00     0.065 H 
ATOM    106  H   UNL A   1      45.138  32.112  31.046  1.00  0.00     0.065 H 
ATOM    107  C   UNL A   1      45.385  29.605  29.397  1.00  0.00     0.037 A 
ATOM    108  H   UNL A   1      45.755  26.948  30.698  1.00  0.00     0.065 H 
BRANCH  89 109
ATOM    109  C   UNL A   1      43.071  27.664  34.062  1.00  0.00     0.064 A 
ATOM    110  C   UNL A   1      43.404  26.408  33.506  1.00  0.00     0.173 A 
ATOM    111  C   UNL A   1      42.816  27.658  35.450  1.00  0.00     0.173 A 
ATOM    112  F   UNL A   1      43.647  26.285  32.192  1.00  0.00    -0.203 F 
ATOM    113  C   UNL A   1      43.401  25.235  34.268  1.00  0.00     0.198 A 
ATOM    114  C   UNL A   1      42.861  26.493  36.216  1.00  0.00     0.198 A 
ATOM    115  F   UNL A   1      42.399  28.748  36.104  1.00  0.00    -0.203 F 
ATOM    116  F   UNL A   1      43.604  24.052  33.672  1.00  0.00    -0.200 F 
ATOM    117  C   UNL A   1      43.123  25.278  35.621  1.00  0.00     0.200 A 
ATOM    118  F   UNL A   1      42.562  26.552  37.522  1.00  0.00    -0.200 F 
ATOM    119  F   UNL A   1      43.060  24.151  36.342  1.00  0.00    -0.200 F 
ENDBRANCH  89 109
BRANCH  92 120
ATOM    120  C   UNL A   1      43.752  25.045  26.083  1.00  0.00     0.064 A 
ATOM    121  C   UNL A   1      44.783  24.849  25.146  1.00  0.00     0.173 A 
ATOM    122  C   UNL A   1      43.091  23.889  26.538  1.00  0.00     0.173 A 
ATOM    123  F   UNL A   1      45.479  25.896  24.679  1.00  0.00    -0.203 F 
ATOM    124  C   UNL A   1      45.177  23.569  24.746  1.00  0.00     0.198 A 
ATOM    125  C   UNL A   1      43.481  22.612  26.131  1.00  0.00     0.198 A 
ATOM    126  F   UNL A   1      42.126  23.966  27.465  1.00  0.00    -0.203 F 
ATOM    127  F   UNL A   1      46.224  23.420  23.923  1.00  0.00    -0.200 F 
ATOM    128  C   UNL A   1      44.538  22.451  25.255  1.00  0.00     0.200 A 
ATOM    129  F   UNL A   1      42.875  21.536  26.652  1.00  0.00    -0.200 F 
ATOM    130  F   UNL A   1      44.971  21.222  24.939  1.00  0.00    -0.200 F 
ENDBRANCH  92 120
BRANCH 107 131
ATOM    131  C   UNL A   1      45.559  30.676  28.370  1.00  0.00     0.064 A 
ATOM    132  C   UNL A   1      44.529  31.170  27.555  1.00  0.00     0.173 A 
ATOM    133  C   UNL A   1      46.819  31.279  28.268  1.00  0.00     0.173 A 
ATOM    134  F   UNL A   1      43.282  30.689  27.650  1.00  0.00    -0.203 F 
ATOM    135  C   UNL A   1      44.765  32.207  26.654  1.00  0.00     0.198 A 
ATOM    136  C   UNL A   1      47.043  32.336  27.394  1.00  0.00     0.198 A 
ATOM    137  F   UNL A   1      47.828  30.864  29.050  1.00  0.00    -0.203 F 
ATOM    138  F   UNL A   1      43.773  32.659  25.873  1.00  0.00    -0.200 F 
ATOM    139  C   UNL A   1      46.019  32.794  26.581  1.00  0.00     0.200 A 
ATOM    140  F   UNL A   1      48.246  32.925  27.357  1.00  0.00    -0.200 F 
ATOM    141  F   UNL A   1      46.237  33.818  25.744  1.00  0.00    -0.200 F 
ENDBRANCH 107 131
ENDBRANCH  72  75
ENDBRANCH  62  65
ENDBRANCH  58  61
ENDBRANCH  55  58
ENDBRANCH  52  55
ENDBRANCH   1  52
TORSDOF 18
ENDMDL
MODEL 5
REMARK VINA RESULT:     -11.5      2.281      3.710
REMARK SMILES CCc1cccc2c3c([nH]c12)[C@](CC)(CC(=O)NCCCCCCNC(=O)c1ccc(-c2c4nc(c(-c5c(F)c(F)c(F)c(F)c5F)c5ccc([nH]5)c(-c5c(F)c(F)c(F)c(F)c5F)c5nc(c(-c6c(F)c(F)c(F)c(F)c6F)c6ccc2[nH]6)C=C5)C=C4)cc1)OCC3
REMARK SMILES IDX 21 1 20 4 19 7 18 10 16 11 17 12 15 14 12 17 3 18 4 19 11 20
REMARK SMILES IDX 5 21 7 23 10 24 6 25 8 27 9 28 93 31 92 32 91 35 2 38 1 41
REMARK SMILES IDX 13 45 14 48 22 52 23 55 24 58 25 61 26 62 27 64 28 65 29 66
REMARK SMILES IDX 90 67 30 68 89 70 31 72 32 75 33 76 83 77 34 78 88 79 82 80
REMARK SMILES IDX 84 81 35 82 87 83 81 85 80 87 36 89 68 92 48 93 67 94 49 95
REMARK SMILES IDX 52 96 66 97 85 98 50 99 51 101 65 103 86 104 53 107 37 109
REMARK SMILES IDX 38 110 46 111 39 112 40 113 44 114 47 115 41 116 42 117
REMARK SMILES IDX 45 118 43 119 69 120 70 121 78 122 71 123 72 124 76 125
REMARK SMILES IDX 79 126 73 127 74 128 77 129 75 130 54 131 55 132 63 133
REMARK SMILES IDX 56 134 57 135 61 136 64 137 58 138 59 139 62 140 60 141
REMARK H PARENT 21 2 21 3 20 5 20 6 19 8 19 9 18 13 15 15 15 16 4 22 5 26
REMARK H PARENT 10 29 6 30 93 33 93 34 92 36 92 37 2 39 2 40 1 42 1 43 1 44
REMARK H PARENT 13 46 13 47 14 49 14 50 14 51 22 53 22 54 23 56 23 57 24 59
REMARK H PARENT 24 60 25 63 29 69 90 71 30 73 89 74 88 84 82 86 84 88 87 90
REMARK H PARENT 81 91 49 100 52 102 85 105 50 106 86 108
REMARK Flexibility Score: inf
ROOT
ATOM      1  C   UNL A   1      35.608  22.921  23.147  1.00  0.00    -0.052 C 
ATOM      2  H   UNL A   1      35.217  23.856  22.807  1.00  0.00     0.027 H 
ATOM      3  H   UNL A   1      36.163  22.399  22.395  1.00  0.00     0.027 H 
ENDROOT
BRANCH   1   4
ATOM      4  C   UNL A   1      34.421  22.013  23.521  1.00  0.00    -0.036 C 
ATOM      5  H   UNL A   1      34.436  21.168  22.864  1.00  0.00     0.028 H 
ATOM      6  H   UNL A   1      34.562  21.768  24.554  1.00  0.00     0.028 H 
BRANCH   4   7
ATOM      7  C   UNL A   1      33.027  22.651  23.435  1.00  0.00     0.017 C 
ATOM      8  H   UNL A   1      32.310  21.867  23.305  1.00  0.00     0.049 H 
ATOM      9  H   UNL A   1      32.893  23.202  24.341  1.00  0.00     0.049 H 
BRANCH   7  10
ATOM     10  N   UNL A   1      32.853  23.606  22.348  1.00  0.00    -0.356 N 
ATOM     11  C   UNL A   1      33.052  24.956  22.270  1.00  0.00     0.223 C 
ATOM     12  O   UNL A   1      32.744  25.522  21.220  1.00  0.00    -0.275 OA
ATOM     13  H   UNL A   1      32.531  23.202  21.510  1.00  0.00     0.163 HD
BRANCH  11  14
ATOM     14  C   UNL A   1      33.694  25.710  23.409  1.00  0.00     0.061 C 
ATOM     15  H   UNL A   1      34.584  25.179  23.673  1.00  0.00     0.040 H 
ATOM     16  H   UNL A   1      33.819  26.698  23.019  1.00  0.00     0.040 H 
BRANCH  14  17
ATOM     17  C   UNL A   1      32.897  25.932  24.718  1.00  0.00     0.117 C 
ATOM     18  C   UNL A   1      34.042  30.140  27.349  1.00  0.00    -0.024 A 
ATOM     19  C   UNL A   1      33.328  31.352  27.508  1.00  0.00    -0.057 A 
ATOM     20  C   UNL A   1      33.473  29.211  26.448  1.00  0.00     0.049 A 
ATOM     21  C   UNL A   1      32.146  31.629  26.826  1.00  0.00    -0.061 A 
ATOM     22  H   UNL A   1      33.700  32.062  28.158  1.00  0.00     0.063 H 
ATOM     23  C   UNL A   1      32.268  29.461  25.795  1.00  0.00     0.003 A 
ATOM     24  N   UNL A   1      33.887  27.945  26.048  1.00  0.00    -0.356 N 
ATOM     25  C   UNL A   1      31.602  30.684  25.969  1.00  0.00    -0.053 A 
ATOM     26  H   UNL A   1      31.675  32.537  26.959  1.00  0.00     0.062 H 
ATOM     27  C   UNL A   1      31.919  28.279  25.116  1.00  0.00    -0.014 A 
ATOM     28  C   UNL A   1      32.934  27.356  25.245  1.00  0.00     0.052 A 
ATOM     29  H   UNL A   1      34.742  27.527  26.302  1.00  0.00     0.166 HD
ATOM     30  H   UNL A   1      30.721  30.877  25.466  1.00  0.00     0.063 H 
ATOM     31  C   UNL A   1      30.633  27.972  24.488  1.00  0.00    -0.002 C 
ATOM     32  C   UNL A   1      30.629  26.549  23.967  1.00  0.00     0.052 C 
ATOM     33  H   UNL A   1      30.467  28.645  23.673  1.00  0.00     0.034 H 
ATOM     34  H   UNL A   1      29.855  28.077  25.215  1.00  0.00     0.034 H 
ATOM     35  O   UNL A   1      31.492  25.594  24.608  1.00  0.00    -0.368 OA
ATOM     36  H   UNL A   1      29.628  26.181  24.051  1.00  0.00     0.057 H 
ATOM     37  H   UNL A   1      31.012  26.628  22.970  1.00  0.00     0.057 H 
BRANCH  18  38
ATOM     38  C   UNL A   1      35.302  29.839  28.123  1.00  0.00    -0.029 C 
ATOM     39  H   UNL A   1      35.329  30.493  28.969  1.00  0.00     0.031 H 
ATOM     40  H   UNL A   1      35.244  28.800  28.369  1.00  0.00     0.031 H 
BRANCH  38  41
ATOM     41  C   UNL A   1      36.615  30.005  27.366  1.00  0.00    -0.061 C 
ATOM     42  H   UNL A   1      36.414  30.364  26.378  1.00  0.00     0.023 H 
ATOM     43  H   UNL A   1      37.115  29.060  27.306  1.00  0.00     0.023 H 
ATOM     44  H   UNL A   1      37.238  30.706  27.881  1.00  0.00     0.023 H 
ENDBRANCH  38  41
ENDBRANCH  18  38
BRANCH  17  45
ATOM     45  C   UNL A   1      33.452  24.949  25.802  1.00  0.00    -0.020 C 
ATOM     46  H   UNL A   1      34.001  25.525  26.518  1.00  0.00     0.030 H 
ATOM     47  H   UNL A   1      34.050  24.236  25.273  1.00  0.00     0.030 H 
BRANCH  45  48
ATOM     48  C   UNL A   1      32.396  24.136  26.559  1.00  0.00    -0.062 C 
ATOM     49  H   UNL A   1      32.786  23.842  27.510  1.00  0.00     0.023 H 
ATOM     50  H   UNL A   1      32.144  23.264  25.992  1.00  0.00     0.023 H 
ATOM     51  H   UNL A   1      31.520  24.733  26.701  1.00  0.00     0.023 H 
ENDBRANCH  45  48
ENDBRANCH  17  45
ENDBRANCH  14  17
ENDBRANCH  11  14
ENDBRANCH   7  10
ENDBRANCH   4   7
ENDBRANCH   1   4
BRANCH   1  52
ATOM     52  C   UNL A   1      36.578  23.197  24.284  1.00  0.00    -0.052 C 
ATOM     53  H   UNL A   1      36.024  23.598  25.108  1.00  0.00     0.027 H 
ATOM     54  H   UNL A   1      37.311  23.879  23.905  1.00  0.00     0.027 H 
BRANCH  52  55
ATOM     55  C   UNL A   1      37.338  21.965  24.773  1.00  0.00    -0.036 C 
ATOM     56  H   UNL A   1      37.984  21.638  23.985  1.00  0.00     0.028 H 
ATOM     57  H   UNL A   1      36.596  21.242  25.040  1.00  0.00     0.028 H 
BRANCH  55  58
ATOM     58  C   UNL A   1      38.192  22.188  26.028  1.00  0.00     0.018 C 
ATOM     59  H   UNL A   1      37.866  21.504  26.783  1.00  0.00     0.049 H 
ATOM     60  H   UNL A   1      38.059  23.210  26.315  1.00  0.00     0.049 H 
BRANCH  58  61
ATOM     61  N   UNL A   1      39.611  21.992  25.816  1.00  0.00    -0.352 N 
ATOM     62  C   UNL A   1      40.722  22.667  26.248  1.00  0.00     0.251 C 
ATOM     63  H   UNL A   1      39.820  21.216  25.247  1.00  0.00     0.163 HD
ATOM     64  O   UNL A   1      41.820  22.167  25.985  1.00  0.00    -0.269 OA
BRANCH  62  65
ATOM     65  C   UNL A   1      40.684  23.991  26.928  1.00  0.00     0.039 A 
ATOM     66  C   UNL A   1      39.898  25.070  26.533  1.00  0.00    -0.049 A 
ATOM     67  C   UNL A   1      41.563  24.169  28.012  1.00  0.00    -0.049 A 
ATOM     68  C   UNL A   1      40.112  26.327  27.069  1.00  0.00    -0.053 A 
ATOM     69  H   UNL A   1      39.150  24.931  25.835  1.00  0.00     0.063 H 
ATOM     70  C   UNL A   1      41.726  25.415  28.612  1.00  0.00    -0.053 A 
ATOM     71  H   UNL A   1      42.097  23.360  28.369  1.00  0.00     0.063 H 
ATOM     72  C   UNL A   1      41.043  26.507  28.096  1.00  0.00    -0.014 A 
ATOM     73  H   UNL A   1      39.582  27.137  26.709  1.00  0.00     0.063 H 
ATOM     74  H   UNL A   1      42.347  25.523  29.429  1.00  0.00     0.063 H 
BRANCH  72  75
ATOM     75  C   UNL A   1      41.134  27.853  28.658  1.00  0.00     0.031 A 
ATOM     76  C   UNL A   1      42.365  28.581  28.249  1.00  0.00     0.074 A 
ATOM     77  C   UNL A   1      40.210  28.426  29.455  1.00  0.00     0.049 A 
ATOM     78  N   UNL A   1      43.351  28.935  29.006  1.00  0.00    -0.248 NA
ATOM     79  C   UNL A   1      42.604  28.801  26.815  1.00  0.00    -0.034 C 
ATOM     80  C   UNL A   1      38.854  27.953  29.740  1.00  0.00    -0.036 A 
ATOM     81  N   UNL A   1      40.271  29.614  30.130  1.00  0.00    -0.354 N 
ATOM     82  C   UNL A   1      44.256  29.592  28.176  1.00  0.00     0.074 A 
ATOM     83  C   UNL A   1      43.819  29.357  26.827  1.00  0.00    -0.034 C 
ATOM     84  H   UNL A   1      41.995  28.585  26.011  1.00  0.00     0.065 H 
ATOM     85  C   UNL A   1      38.149  28.947  30.324  1.00  0.00    -0.036 A 
ATOM     86  H   UNL A   1      38.495  27.009  29.530  1.00  0.00     0.065 H 
ATOM     87  C   UNL A   1      39.043  30.058  30.602  1.00  0.00     0.049 A 
ATOM     88  H   UNL A   1      41.110  30.112  30.268  1.00  0.00     0.167 HD
ATOM     89  C   UNL A   1      45.139  30.486  28.699  1.00  0.00     0.037 A 
ATOM     90  H   UNL A   1      44.368  29.586  25.983  1.00  0.00     0.065 H 
ATOM     91  H   UNL A   1      37.139  28.921  30.537  1.00  0.00     0.065 H 
ATOM     92  C   UNL A   1      38.776  31.266  31.154  1.00  0.00     0.037 A 
ATOM     93  C   UNL A   1      45.264  30.315  30.122  1.00  0.00     0.049 A 
ATOM     94  C   UNL A   1      40.038  31.793  31.720  1.00  0.00     0.074 A 
ATOM     95  C   UNL A   1      45.946  29.490  30.986  1.00  0.00    -0.036 A 
ATOM     96  N   UNL A   1      44.266  30.919  30.836  1.00  0.00    -0.354 N 
ATOM     97  N   UNL A   1      40.649  31.260  32.741  1.00  0.00    -0.248 NA
ATOM     98  C   UNL A   1      40.815  32.772  30.965  1.00  0.00    -0.034 C 
ATOM     99  C   UNL A   1      45.228  29.519  32.221  1.00  0.00    -0.036 A 
ATOM    100  H   UNL A   1      46.805  28.956  30.783  1.00  0.00     0.065 H 
ATOM    101  C   UNL A   1      44.145  30.382  32.087  1.00  0.00     0.049 A 
ATOM    102  H   UNL A   1      43.704  31.649  30.490  1.00  0.00     0.167 HD
ATOM    103  C   UNL A   1      41.982  31.502  32.497  1.00  0.00     0.074 A 
ATOM    104  C   UNL A   1      42.014  32.581  31.520  1.00  0.00    -0.034 C 
ATOM    105  H   UNL A   1      40.523  33.422  30.218  1.00  0.00     0.065 H 
ATOM    106  H   UNL A   1      45.472  28.988  33.072  1.00  0.00     0.065 H 
ATOM    107  C   UNL A   1      42.929  30.584  32.838  1.00  0.00     0.037 A 
ATOM    108  H   UNL A   1      42.857  33.129  31.286  1.00  0.00     0.065 H 
BRANCH  89 109
ATOM    109  C   UNL A   1      45.479  31.817  28.057  1.00  0.00     0.064 A 
ATOM    110  C   UNL A   1      44.436  32.723  27.765  1.00  0.00     0.173 A 
ATOM    111  C   UNL A   1      46.707  32.086  27.414  1.00  0.00     0.173 A 
ATOM    112  F   UNL A   1      43.217  32.559  28.300  1.00  0.00    -0.203 F 
ATOM    113  C   UNL A   1      44.594  33.765  26.844  1.00  0.00     0.198 A 
ATOM    114  C   UNL A   1      46.874  33.155  26.534  1.00  0.00     0.198 A 
ATOM    115  F   UNL A   1      47.760  31.267  27.516  1.00  0.00    -0.203 F 
ATOM    116  F   UNL A   1      43.542  34.525  26.510  1.00  0.00    -0.200 F 
ATOM    117  C   UNL A   1      45.811  33.975  26.225  1.00  0.00     0.200 A 
ATOM    118  F   UNL A   1      48.056  33.325  25.923  1.00  0.00    -0.200 F 
ATOM    119  F   UNL A   1      45.950  34.933  25.299  1.00  0.00    -0.200 F 
ENDBRANCH  89 109
BRANCH  92 120
ATOM    120  C   UNL A   1      37.582  32.126  30.975  1.00  0.00     0.064 A 
ATOM    121  C   UNL A   1      37.327  32.745  29.739  1.00  0.00     0.173 A 
ATOM    122  C   UNL A   1      36.513  32.090  31.890  1.00  0.00     0.173 A 
ATOM    123  F   UNL A   1      38.284  32.802  28.801  1.00  0.00    -0.203 F 
ATOM    124  C   UNL A   1      36.058  33.232  29.410  1.00  0.00     0.198 A 
ATOM    125  C   UNL A   1      35.249  32.584  31.563  1.00  0.00     0.198 A 
ATOM    126  F   UNL A   1      36.643  31.481  33.078  1.00  0.00    -0.203 F 
ATOM    127  F   UNL A   1      35.831  33.732  28.187  1.00  0.00    -0.200 F 
ATOM    128  C   UNL A   1      35.015  33.132  30.315  1.00  0.00     0.200 A 
ATOM    129  F   UNL A   1      34.240  32.455  32.436  1.00  0.00    -0.200 F 
ATOM    130  F   UNL A   1      33.780  33.519  29.970  1.00  0.00    -0.200 F 
ENDBRANCH  92 120
BRANCH 107 131
ATOM    131  C   UNL A   1      42.601  29.627  33.936  1.00  0.00     0.064 A 
ATOM    132  C   UNL A   1      41.951  28.397  33.751  1.00  0.00     0.173 A 
ATOM    133  C   UNL A   1      43.039  29.946  35.229  1.00  0.00     0.173 A 
ATOM    134  F   UNL A   1      41.568  27.995  32.532  1.00  0.00    -0.203 F 
ATOM    135  C   UNL A   1      41.725  27.538  34.826  1.00  0.00     0.198 A 
ATOM    136  C   UNL A   1      42.843  29.072  36.291  1.00  0.00     0.198 A 
ATOM    137  F   UNL A   1      43.695  31.095  35.450  1.00  0.00    -0.203 F 
ATOM    138  F   UNL A   1      41.091  26.372  34.633  1.00  0.00    -0.200 F 
ATOM    139  C   UNL A   1      42.179  27.873  36.092  1.00  0.00     0.200 A 
ATOM    140  F   UNL A   1      43.321  29.383  37.504  1.00  0.00    -0.200 F 
ATOM    141  F   UNL A   1      41.998  27.030  37.118  1.00  0.00    -0.200 F 
ENDBRANCH 107 131
ENDBRANCH  72  75
ENDBRANCH  62  65
ENDBRANCH  58  61
ENDBRANCH  55  58
ENDBRANCH  52  55
ENDBRANCH   1  52
TORSDOF 18
ENDMDL
MODEL 6
REMARK VINA RESULT:     -11.4      3.059      8.827
REMARK SMILES CCc1cccc2c3c([nH]c12)[C@](CC)(CC(=O)NCCCCCCNC(=O)c1ccc(-c2c4nc(c(-c5c(F)c(F)c(F)c(F)c5F)c5ccc([nH]5)c(-c5c(F)c(F)c(F)c(F)c5F)c5nc(c(-c6c(F)c(F)c(F)c(F)c6F)c6ccc2[nH]6)C=C5)C=C4)cc1)OCC3
REMARK SMILES IDX 21 1 20 4 19 7 18 10 16 11 17 12 15 14 12 17 3 18 4 19 11 20
REMARK SMILES IDX 5 21 7 23 10 24 6 25 8 27 9 28 93 31 92 32 91 35 2 38 1 41
REMARK SMILES IDX 13 45 14 48 22 52 23 55 24 58 25 61 26 62 27 64 28 65 29 66
REMARK SMILES IDX 90 67 30 68 89 70 31 72 32 75 33 76 83 77 34 78 88 79 82 80
REMARK SMILES IDX 84 81 35 82 87 83 81 85 80 87 36 89 68 92 48 93 67 94 49 95
REMARK SMILES IDX 52 96 66 97 85 98 50 99 51 101 65 103 86 104 53 107 37 109
REMARK SMILES IDX 38 110 46 111 39 112 40 113 44 114 47 115 41 116 42 117
REMARK SMILES IDX 45 118 43 119 69 120 70 121 78 122 71 123 72 124 76 125
REMARK SMILES IDX 79 126 73 127 74 128 77 129 75 130 54 131 55 132 63 133
REMARK SMILES IDX 56 134 57 135 61 136 64 137 58 138 59 139 62 140 60 141
REMARK H PARENT 21 2 21 3 20 5 20 6 19 8 19 9 18 13 15 15 15 16 4 22 5 26
REMARK H PARENT 10 29 6 30 93 33 93 34 92 36 92 37 2 39 2 40 1 42 1 43 1 44
REMARK H PARENT 13 46 13 47 14 49 14 50 14 51 22 53 22 54 23 56 23 57 24 59
REMARK H PARENT 24 60 25 63 29 69 90 71 30 73 89 74 88 84 82 86 84 88 87 90
REMARK H PARENT 81 91 49 100 52 102 85 105 50 106 86 108
REMARK Flexibility Score: inf
ROOT
ATOM      1  C   UNL A   1      33.780  31.474  27.889  1.00  0.00    -0.052 C 
ATOM      2  H   UNL A   1      33.348  31.149  28.812  1.00  0.00     0.027 H 
ATOM      3  H   UNL A   1      33.122  31.360  27.054  1.00  0.00     0.027 H 
ENDROOT
BRANCH   1   4
ATOM      4  C   UNL A   1      35.009  30.593  27.599  1.00  0.00    -0.036 C 
ATOM      5  H   UNL A   1      35.584  31.075  26.835  1.00  0.00     0.028 H 
ATOM      6  H   UNL A   1      35.520  30.495  28.535  1.00  0.00     0.028 H 
BRANCH   4   7
ATOM      7  C   UNL A   1      34.720  29.158  27.134  1.00  0.00     0.017 C 
ATOM      8  H   UNL A   1      34.649  29.162  26.067  1.00  0.00     0.049 H 
ATOM      9  H   UNL A   1      35.524  28.556  27.503  1.00  0.00     0.049 H 
BRANCH   7  10
ATOM     10  N   UNL A   1      33.496  28.573  27.666  1.00  0.00    -0.356 N 
ATOM     11  C   UNL A   1      32.303  28.250  27.083  1.00  0.00     0.223 C 
ATOM     12  O   UNL A   1      31.404  27.827  27.812  1.00  0.00    -0.275 OA
ATOM     13  H   UNL A   1      33.537  28.371  28.629  1.00  0.00     0.163 HD
BRANCH  11  14
ATOM     14  C   UNL A   1      32.123  28.341  25.587  1.00  0.00     0.061 C 
ATOM     15  H   UNL A   1      31.212  28.872  25.414  1.00  0.00     0.040 H 
ATOM     16  H   UNL A   1      33.026  28.808  25.253  1.00  0.00     0.040 H 
BRANCH  14  17
ATOM     17  C   UNL A   1      32.054  27.041  24.749  1.00  0.00     0.117 C 
ATOM     18  C   UNL A   1      35.355  23.379  26.025  1.00  0.00    -0.024 A 
ATOM     19  C   UNL A   1      35.157  22.151  26.700  1.00  0.00    -0.057 A 
ATOM     20  C   UNL A   1      34.220  24.215  25.933  1.00  0.00     0.049 A 
ATOM     21  C   UNL A   1      33.932  21.779  27.248  1.00  0.00    -0.061 A 
ATOM     22  H   UNL A   1      35.955  21.503  26.791  1.00  0.00     0.063 H 
ATOM     23  C   UNL A   1      32.979  23.832  26.439  1.00  0.00     0.003 A 
ATOM     24  N   UNL A   1      34.044  25.469  25.356  1.00  0.00    -0.356 N 
ATOM     25  C   UNL A   1      32.831  22.612  27.116  1.00  0.00    -0.053 A 
ATOM     26  H   UNL A   1      33.843  20.882  27.751  1.00  0.00     0.062 H 
ATOM     27  C   UNL A   1      32.054  24.812  26.036  1.00  0.00    -0.014 A 
ATOM     28  C   UNL A   1      32.716  25.838  25.397  1.00  0.00     0.052 A 
ATOM     29  H   UNL A   1      34.766  26.017  24.972  1.00  0.00     0.166 HD
ATOM     30  H   UNL A   1      31.917  22.340  27.511  1.00  0.00     0.063 H 
ATOM     31  C   UNL A   1      30.594  24.732  26.121  1.00  0.00    -0.002 C 
ATOM     32  C   UNL A   1      29.963  25.948  25.473  1.00  0.00     0.052 C 
ATOM     33  H   UNL A   1      30.302  24.689  27.149  1.00  0.00     0.034 H 
ATOM     34  H   UNL A   1      30.263  23.854  25.608  1.00  0.00     0.034 H 
ATOM     35  O   UNL A   1      30.702  26.620  24.438  1.00  0.00    -0.368 OA
ATOM     36  H   UNL A   1      29.033  25.635  25.048  1.00  0.00     0.057 H 
ATOM     37  H   UNL A   1      29.895  26.667  26.264  1.00  0.00     0.057 H 
BRANCH  18  38
ATOM     38  C   UNL A   1      36.680  23.752  25.404  1.00  0.00    -0.029 C 
ATOM     39  H   UNL A   1      36.996  22.933  24.794  1.00  0.00     0.031 H 
ATOM     40  H   UNL A   1      36.497  24.659  24.867  1.00  0.00     0.031 H 
BRANCH  38  41
ATOM     41  C   UNL A   1      37.812  24.074  26.373  1.00  0.00    -0.061 C 
ATOM     42  H   UNL A   1      37.402  24.366  27.317  1.00  0.00     0.023 H 
ATOM     43  H   UNL A   1      38.403  24.875  25.978  1.00  0.00     0.023 H 
ATOM     44  H   UNL A   1      38.428  23.209  26.504  1.00  0.00     0.023 H 
ENDBRANCH  38  41
ENDBRANCH  18  38
BRANCH  17  45
ATOM     45  C   UNL A   1      32.707  27.321  23.355  1.00  0.00    -0.020 C 
ATOM     46  H   UNL A   1      31.918  27.458  22.644  1.00  0.00     0.030 H 
ATOM     47  H   UNL A   1      33.331  26.476  23.149  1.00  0.00     0.030 H 
BRANCH  45  48
ATOM     48  C   UNL A   1      33.622  28.548  23.289  1.00  0.00    -0.062 C 
ATOM     49  H   UNL A   1      34.636  28.245  23.440  1.00  0.00     0.023 H 
ATOM     50  H   UNL A   1      33.340  29.244  24.051  1.00  0.00     0.023 H 
ATOM     51  H   UNL A   1      33.528  29.013  22.330  1.00  0.00     0.023 H 
ENDBRANCH  45  48
ENDBRANCH  17  45
ENDBRANCH  14  17
ENDBRANCH  11  14
ENDBRANCH   7  10
ENDBRANCH   4   7
ENDBRANCH   1   4
BRANCH   1  52
ATOM     52  C   UNL A   1      34.077  32.960  28.003  1.00  0.00    -0.052 C 
ATOM     53  H   UNL A   1      33.713  33.303  28.950  1.00  0.00     0.027 H 
ATOM     54  H   UNL A   1      33.593  33.436  27.176  1.00  0.00     0.027 H 
BRANCH  52  55
ATOM     55  C   UNL A   1      35.560  33.313  27.904  1.00  0.00    -0.036 C 
ATOM     56  H   UNL A   1      35.661  34.143  27.237  1.00  0.00     0.028 H 
ATOM     57  H   UNL A   1      36.055  32.430  27.559  1.00  0.00     0.028 H 
BRANCH  55  58
ATOM     58  C   UNL A   1      36.225  33.687  29.235  1.00  0.00     0.018 C 
ATOM     59  H   UNL A   1      36.298  34.753  29.287  1.00  0.00     0.049 H 
ATOM     60  H   UNL A   1      37.182  33.208  29.248  1.00  0.00     0.049 H 
BRANCH  58  61
ATOM     61  N   UNL A   1      35.507  33.222  30.403  1.00  0.00    -0.352 N 
ATOM     62  C   UNL A   1      35.810  32.319  31.388  1.00  0.00     0.251 C 
ATOM     63  H   UNL A   1      34.622  33.639  30.512  1.00  0.00     0.163 HD
ATOM     64  O   UNL A   1      35.017  32.230  32.331  1.00  0.00    -0.269 OA
BRANCH  62  65
ATOM     65  C   UNL A   1      36.973  31.391  31.342  1.00  0.00     0.039 A 
ATOM     66  C   UNL A   1      38.296  31.755  31.577  1.00  0.00    -0.049 A 
ATOM     67  C   UNL A   1      36.705  30.061  30.969  1.00  0.00    -0.049 A 
ATOM     68  C   UNL A   1      39.328  30.886  31.271  1.00  0.00    -0.053 A 
ATOM     69  H   UNL A   1      38.508  32.680  31.983  1.00  0.00     0.063 H 
ATOM     70  C   UNL A   1      37.736  29.154  30.737  1.00  0.00    -0.053 A 
ATOM     71  H   UNL A   1      35.725  29.752  30.866  1.00  0.00     0.063 H 
ATOM     72  C   UNL A   1      39.051  29.589  30.829  1.00  0.00    -0.014 A 
ATOM     73  H   UNL A   1      40.308  31.196  31.369  1.00  0.00     0.063 H 
ATOM     74  H   UNL A   1      37.525  28.173  30.498  1.00  0.00     0.063 H 
BRANCH  72  75
ATOM     75  C   UNL A   1      40.204  28.718  30.617  1.00  0.00     0.031 A 
ATOM     76  C   UNL A   1      40.983  28.457  31.857  1.00  0.00     0.074 A 
ATOM     77  C   UNL A   1      40.556  28.168  29.437  1.00  0.00     0.049 A 
ATOM     78  N   UNL A   1      42.185  28.849  32.122  1.00  0.00    -0.248 NA
ATOM     79  C   UNL A   1      40.295  27.829  32.996  1.00  0.00    -0.034 C 
ATOM     80  C   UNL A   1      39.772  28.119  28.202  1.00  0.00    -0.036 A 
ATOM     81  N   UNL A   1      41.681  27.459  29.118  1.00  0.00    -0.354 N 
ATOM     82  C   UNL A   1      42.480  28.356  33.391  1.00  0.00     0.074 A 
ATOM     83  C   UNL A   1      41.244  27.863  33.935  1.00  0.00    -0.034 C 
ATOM     84  H   UNL A   1      39.334  27.458  33.054  1.00  0.00     0.065 H 
ATOM     85  C   UNL A   1      40.331  27.226  27.354  1.00  0.00    -0.036 A 
ATOM     86  H   UNL A   1      38.928  28.679  28.008  1.00  0.00     0.065 H 
ATOM     87  C   UNL A   1      41.591  26.770  27.916  1.00  0.00     0.049 A 
ATOM     88  H   UNL A   1      42.483  27.437  29.689  1.00  0.00     0.167 HD
ATOM     89  C   UNL A   1      43.774  28.167  33.767  1.00  0.00     0.037 A 
ATOM     90  H   UNL A   1      41.108  27.577  34.917  1.00  0.00     0.065 H 
ATOM     91  H   UNL A   1      39.927  26.918  26.455  1.00  0.00     0.065 H 
ATOM     92  C   UNL A   1      42.475  25.865  27.433  1.00  0.00     0.037 A 
ATOM     93  C   UNL A   1      44.672  28.898  32.913  1.00  0.00     0.049 A 
ATOM     94  C   UNL A   1      43.793  26.152  28.041  1.00  0.00     0.074 A 
ATOM     95  C   UNL A   1      45.137  30.188  32.800  1.00  0.00    -0.036 A 
ATOM     96  N   UNL A   1      44.947  28.261  31.735  1.00  0.00    -0.354 N 
ATOM     97  N   UNL A   1      44.484  27.229  27.791  1.00  0.00    -0.248 NA
ATOM     98  C   UNL A   1      44.247  25.367  29.186  1.00  0.00    -0.034 C 
ATOM     99  C   UNL A   1      45.582  30.339  31.451  1.00  0.00    -0.036 A 
ATOM    100  H   UNL A   1      45.160  30.904  33.543  1.00  0.00     0.065 H 
ATOM    101  C   UNL A   1      45.403  29.130  30.785  1.00  0.00     0.049 A 
ATOM    102  H   UNL A   1      44.830  27.294  31.590  1.00  0.00     0.167 HD
ATOM    103  C   UNL A   1      45.156  27.477  28.968  1.00  0.00     0.074 A 
ATOM    104  C   UNL A   1      45.130  26.222  29.707  1.00  0.00    -0.034 C 
ATOM    105  H   UNL A   1      43.966  24.425  29.502  1.00  0.00     0.065 H 
ATOM    106  H   UNL A   1      45.971  31.201  31.039  1.00  0.00     0.065 H 
ATOM    107  C   UNL A   1      45.367  28.754  29.392  1.00  0.00     0.037 A 
ATOM    108  H   UNL A   1      45.720  26.019  30.529  1.00  0.00     0.065 H 
BRANCH  89 109
ATOM    109  C   UNL A   1      44.266  26.955  34.534  1.00  0.00     0.064 A 
ATOM    110  C   UNL A   1      44.096  25.672  33.969  1.00  0.00     0.173 A 
ATOM    111  C   UNL A   1      44.572  26.970  35.912  1.00  0.00     0.173 A 
ATOM    112  F   UNL A   1      43.783  25.531  32.672  1.00  0.00    -0.203 F 
ATOM    113  C   UNL A   1      44.150  24.507  34.743  1.00  0.00     0.198 A 
ATOM    114  C   UNL A   1      44.672  25.803  36.670  1.00  0.00     0.198 A 
ATOM    115  F   UNL A   1      44.670  28.108  36.610  1.00  0.00    -0.203 F 
ATOM    116  F   UNL A   1      43.863  23.322  34.187  1.00  0.00    -0.200 F 
ATOM    117  C   UNL A   1      44.431  24.575  36.094  1.00  0.00     0.200 A 
ATOM    118  F   UNL A   1      44.920  25.893  37.986  1.00  0.00    -0.200 F 
ATOM    119  F   UNL A   1      44.425  23.470  36.850  1.00  0.00    -0.200 F 
ENDBRANCH  89 109
BRANCH  92 120
ATOM    120  C   UNL A   1      42.208  24.597  26.712  1.00  0.00     0.064 A 
ATOM    121  C   UNL A   1      42.987  24.229  25.600  1.00  0.00     0.173 A 
ATOM    122  C   UNL A   1      41.421  23.582  27.288  1.00  0.00     0.173 A 
ATOM    123  F   UNL A   1      43.784  25.131  25.006  1.00  0.00    -0.203 F 
ATOM    124  C   UNL A   1      43.033  22.911  25.140  1.00  0.00     0.198 A 
ATOM    125  C   UNL A   1      41.462  22.267  26.821  1.00  0.00     0.198 A 
ATOM    126  F   UNL A   1      40.680  23.820  28.379  1.00  0.00    -0.203 F 
ATOM    127  F   UNL A   1      43.858  22.582  24.135  1.00  0.00    -0.200 F 
ATOM    128  C   UNL A   1      42.285  21.927  25.764  1.00  0.00     0.200 A 
ATOM    129  F   UNL A   1      40.757  21.317  27.452  1.00  0.00    -0.200 F 
ATOM    130  F   UNL A   1      42.393  20.647  25.379  1.00  0.00    -0.200 F 
ENDBRANCH  92 120
BRANCH 107 131
ATOM    131  C   UNL A   1      45.384  29.832  28.359  1.00  0.00     0.064 A 
ATOM    132  C   UNL A   1      44.249  30.535  27.926  1.00  0.00     0.173 A 
ATOM    133  C   UNL A   1      46.628  30.217  27.842  1.00  0.00     0.173 A 
ATOM    134  F   UNL A   1      43.037  30.268  28.431  1.00  0.00    -0.203 F 
ATOM    135  C   UNL A   1      44.359  31.563  26.991  1.00  0.00     0.198 A 
ATOM    136  C   UNL A   1      46.738  31.265  26.937  1.00  0.00     0.198 A 
ATOM    137  F   UNL A   1      47.746  29.597  28.251  1.00  0.00    -0.203 F 
ATOM    138  F   UNL A   1      43.263  32.217  26.579  1.00  0.00    -0.200 F 
ATOM    139  C   UNL A   1      45.604  31.932  26.504  1.00  0.00     0.200 A 
ATOM    140  F   UNL A   1      47.948  31.644  26.502  1.00  0.00    -0.200 F 
ATOM    141  F   UNL A   1      45.714  32.947  25.636  1.00  0.00    -0.200 F 
ENDBRANCH 107 131
ENDBRANCH  72  75
ENDBRANCH  62  65
ENDBRANCH  58  61
ENDBRANCH  55  58
ENDBRANCH  52  55
ENDBRANCH   1  52
TORSDOF 18
ENDMDL
MODEL 7
REMARK VINA RESULT:     -11.4      2.922      8.805
REMARK SMILES CCc1cccc2c3c([nH]c12)[C@](CC)(CC(=O)NCCCCCCNC(=O)c1ccc(-c2c4nc(c(-c5c(F)c(F)c(F)c(F)c5F)c5ccc([nH]5)c(-c5c(F)c(F)c(F)c(F)c5F)c5nc(c(-c6c(F)c(F)c(F)c(F)c6F)c6ccc2[nH]6)C=C5)C=C4)cc1)OCC3
REMARK SMILES IDX 21 1 20 4 19 7 18 10 16 11 17 12 15 14 12 17 3 18 4 19 11 20
REMARK SMILES IDX 5 21 7 23 10 24 6 25 8 27 9 28 93 31 92 32 91 35 2 38 1 41
REMARK SMILES IDX 13 45 14 48 22 52 23 55 24 58 25 61 26 62 27 64 28 65 29 66
REMARK SMILES IDX 90 67 30 68 89 70 31 72 32 75 33 76 83 77 34 78 88 79 82 80
REMARK SMILES IDX 84 81 35 82 87 83 81 85 80 87 36 89 68 92 48 93 67 94 49 95
REMARK SMILES IDX 52 96 66 97 85 98 50 99 51 101 65 103 86 104 53 107 37 109
REMARK SMILES IDX 38 110 46 111 39 112 40 113 44 114 47 115 41 116 42 117
REMARK SMILES IDX 45 118 43 119 69 120 70 121 78 122 71 123 72 124 76 125
REMARK SMILES IDX 79 126 73 127 74 128 77 129 75 130 54 131 55 132 63 133
REMARK SMILES IDX 56 134 57 135 61 136 64 137 58 138 59 139 62 140 60 141
REMARK H PARENT 21 2 21 3 20 5 20 6 19 8 19 9 18 13 15 15 15 16 4 22 5 26
REMARK H PARENT 10 29 6 30 93 33 93 34 92 36 92 37 2 39 2 40 1 42 1 43 1 44
REMARK H PARENT 13 46 13 47 14 49 14 50 14 51 22 53 22 54 23 56 23 57 24 59
REMARK H PARENT 24 60 25 63 29 69 90 71 30 73 89 74 88 84 82 86 84 88 87 90
REMARK H PARENT 81 91 49 100 52 102 85 105 50 106 86 108
REMARK Flexibility Score: inf
ROOT
ATOM      1  C   UNL A   1      31.447  28.980  25.244  1.00  0.00    -0.052 C 
ATOM      2  H   UNL A   1      31.469  27.916  25.354  1.00  0.00     0.027 H 
ATOM      3  H   UNL A   1      30.757  29.457  25.908  1.00  0.00     0.027 H 
ENDROOT
BRANCH   1   4
ATOM      4  C   UNL A   1      30.974  29.304  23.815  1.00  0.00    -0.036 C 
ATOM      5  H   UNL A   1      30.063  29.863  23.891  1.00  0.00     0.028 H 
ATOM      6  H   UNL A   1      31.781  29.840  23.360  1.00  0.00     0.028 H 
BRANCH   4   7
ATOM      7  C   UNL A   1      30.710  28.099  22.899  1.00  0.00     0.017 C 
ATOM      8  H   UNL A   1      30.374  27.286  23.508  1.00  0.00     0.049 H 
ATOM      9  H   UNL A   1      29.984  28.421  22.183  1.00  0.00     0.049 H 
BRANCH   7  10
ATOM     10  N   UNL A   1      31.863  27.644  22.134  1.00  0.00    -0.356 N 
ATOM     11  C   UNL A   1      32.417  26.406  21.955  1.00  0.00     0.223 C 
ATOM     12  O   UNL A   1      33.456  26.333  21.298  1.00  0.00    -0.275 OA
ATOM     13  H   UNL A   1      32.331  28.363  21.652  1.00  0.00     0.163 HD
BRANCH  11  14
ATOM     14  C   UNL A   1      31.735  25.169  22.487  1.00  0.00     0.061 C 
ATOM     15  H   UNL A   1      30.682  25.332  22.401  1.00  0.00     0.040 H 
ATOM     16  H   UNL A   1      32.153  24.379  21.899  1.00  0.00     0.040 H 
BRANCH  14  17
ATOM     17  C   UNL A   1      32.005  24.721  23.945  1.00  0.00     0.117 C 
ATOM     18  C   UNL A   1      33.727  19.966  24.541  1.00  0.00    -0.024 A 
ATOM     19  C   UNL A   1      35.016  19.486  24.873  1.00  0.00    -0.057 A 
ATOM     20  C   UNL A   1      33.627  21.362  24.350  1.00  0.00     0.049 A 
ATOM     21  C   UNL A   1      36.124  20.320  25.001  1.00  0.00    -0.061 A 
ATOM     22  H   UNL A   1      35.142  18.473  25.027  1.00  0.00     0.063 H 
ATOM     23  C   UNL A   1      34.720  22.210  24.519  1.00  0.00     0.003 A 
ATOM     24  N   UNL A   1      32.544  22.171  24.020  1.00  0.00    -0.356 N 
ATOM     25  C   UNL A   1      35.985  21.689  24.832  1.00  0.00    -0.053 A 
ATOM     26  H   UNL A   1      37.049  19.919  25.222  1.00  0.00     0.062 H 
ATOM     27  C   UNL A   1      34.235  23.527  24.415  1.00  0.00    -0.014 A 
ATOM     28  C   UNL A   1      32.900  23.502  24.074  1.00  0.00     0.052 A 
ATOM     29  H   UNL A   1      31.648  21.840  23.781  1.00  0.00     0.166 HD
ATOM     30  H   UNL A   1      36.799  22.316  24.934  1.00  0.00     0.063 H 
ATOM     31  C   UNL A   1      34.952  24.758  24.753  1.00  0.00    -0.002 C 
ATOM     32  C   UNL A   1      34.035  25.956  24.608  1.00  0.00     0.052 C 
ATOM     33  H   UNL A   1      35.788  24.872  24.096  1.00  0.00     0.034 H 
ATOM     34  H   UNL A   1      35.288  24.699  25.767  1.00  0.00     0.034 H 
ATOM     35  O   UNL A   1      32.621  25.746  24.764  1.00  0.00    -0.368 OA
ATOM     36  H   UNL A   1      34.333  26.675  25.342  1.00  0.00     0.057 H 
ATOM     37  H   UNL A   1      34.150  26.258  23.588  1.00  0.00     0.057 H 
BRANCH  18  38
ATOM     38  C   UNL A   1      32.528  19.054  24.443  1.00  0.00    -0.029 C 
ATOM     39  H   UNL A   1      31.659  19.632  24.677  1.00  0.00     0.031 H 
ATOM     40  H   UNL A   1      32.546  18.666  23.447  1.00  0.00     0.031 H 
BRANCH  38  41
ATOM     41  C   UNL A   1      32.533  17.833  25.356  1.00  0.00    -0.061 C 
ATOM     42  H   UNL A   1      33.383  17.876  26.005  1.00  0.00     0.023 H 
ATOM     43  H   UNL A   1      32.582  16.943  24.763  1.00  0.00     0.023 H 
ATOM     44  H   UNL A   1      31.638  17.821  25.942  1.00  0.00     0.023 H 
ENDBRANCH  38  41
ENDBRANCH  18  38
BRANCH  17  45
ATOM     45  C   UNL A   1      30.627  24.445  24.635  1.00  0.00    -0.020 C 
ATOM     46  H   UNL A   1      30.706  23.521  25.168  1.00  0.00     0.030 H 
ATOM     47  H   UNL A   1      29.903  24.429  23.847  1.00  0.00     0.030 H 
BRANCH  45  48
ATOM     48  C   UNL A   1      30.155  25.521  25.619  1.00  0.00    -0.062 C 
ATOM     49  H   UNL A   1      29.750  26.349  25.076  1.00  0.00     0.023 H 
ATOM     50  H   UNL A   1      30.984  25.852  26.210  1.00  0.00     0.023 H 
ATOM     51  H   UNL A   1      29.402  25.112  26.260  1.00  0.00     0.023 H 
ENDBRANCH  45  48
ENDBRANCH  17  45
ENDBRANCH  14  17
ENDBRANCH  11  14
ENDBRANCH   7  10
ENDBRANCH   4   7
ENDBRANCH   1   4
BRANCH   1  52
ATOM     52  C   UNL A   1      32.824  29.521  25.595  1.00  0.00    -0.052 C 
ATOM     53  H   UNL A   1      33.181  30.092  24.762  1.00  0.00     0.027 H 
ATOM     54  H   UNL A   1      33.441  28.675  25.814  1.00  0.00     0.027 H 
BRANCH  52  55
ATOM     55  C   UNL A   1      32.849  30.415  26.833  1.00  0.00    -0.036 C 
ATOM     56  H   UNL A   1      32.310  29.919  27.613  1.00  0.00     0.028 H 
ATOM     57  H   UNL A   1      32.411  31.345  26.540  1.00  0.00     0.028 H 
BRANCH  55  58
ATOM     58  C   UNL A   1      34.251  30.748  27.361  1.00  0.00     0.018 C 
ATOM     59  H   UNL A   1      34.814  31.188  26.565  1.00  0.00     0.049 H 
ATOM     60  H   UNL A   1      34.677  29.831  27.708  1.00  0.00     0.049 H 
BRANCH  58  61
ATOM     61  N   UNL A   1      34.254  31.664  28.482  1.00  0.00    -0.352 N 
ATOM     62  C   UNL A   1      35.196  31.984  29.424  1.00  0.00     0.251 C 
ATOM     63  H   UNL A   1      33.409  32.158  28.590  1.00  0.00     0.163 HD
ATOM     64  O   UNL A   1      34.928  32.911  30.194  1.00  0.00    -0.269 OA
BRANCH  62  65
ATOM     65  C   UNL A   1      36.465  31.231  29.626  1.00  0.00     0.039 A 
ATOM     66  C   UNL A   1      37.742  31.780  29.544  1.00  0.00    -0.049 A 
ATOM     67  C   UNL A   1      36.348  29.848  29.854  1.00  0.00    -0.049 A 
ATOM     68  C   UNL A   1      38.856  30.961  29.501  1.00  0.00    -0.053 A 
ATOM     69  H   UNL A   1      37.858  32.805  29.515  1.00  0.00     0.063 H 
ATOM     70  C   UNL A   1      37.471  29.025  29.893  1.00  0.00    -0.053 A 
ATOM     71  H   UNL A   1      35.413  29.435  29.995  1.00  0.00     0.063 H 
ATOM     72  C   UNL A   1      38.722  29.578  29.653  1.00  0.00    -0.014 A 
ATOM     73  H   UNL A   1      39.791  31.373  29.354  1.00  0.00     0.063 H 
ATOM     74  H   UNL A   1      37.374  28.018  30.096  1.00  0.00     0.063 H 
BRANCH  72  75
ATOM     75  C   UNL A   1      39.962  28.807  29.682  1.00  0.00     0.031 A 
ATOM     76  C   UNL A   1      40.522  28.640  31.050  1.00  0.00     0.074 A 
ATOM     77  C   UNL A   1      40.566  28.267  28.604  1.00  0.00     0.049 A 
ATOM     78  N   UNL A   1      41.620  29.140  31.512  1.00  0.00    -0.248 NA
ATOM     79  C   UNL A   1      39.693  27.976  32.068  1.00  0.00    -0.034 C 
ATOM     80  C   UNL A   1      40.027  28.125  27.251  1.00  0.00    -0.036 A 
ATOM     81  N   UNL A   1      41.786  27.653  28.517  1.00  0.00    -0.354 N 
ATOM     82  C   UNL A   1      41.719  28.700  32.830  1.00  0.00     0.074 A 
ATOM     83  C   UNL A   1      40.449  28.112  33.161  1.00  0.00    -0.034 C 
ATOM     84  H   UNL A   1      38.771  27.524  31.966  1.00  0.00     0.065 H 
ATOM     85  C   UNL A   1      40.802  27.268  26.549  1.00  0.00    -0.036 A 
ATOM     86  H   UNL A   1      39.188  28.606  26.889  1.00  0.00     0.065 H 
ATOM     87  C   UNL A   1      41.972  26.935  27.343  1.00  0.00     0.049 A 
ATOM     88  H   UNL A   1      42.469  27.712  29.223  1.00  0.00     0.167 HD
ATOM     89  C   UNL A   1      42.934  28.632  33.439  1.00  0.00     0.037 A 
ATOM     90  H   UNL A   1      40.161  27.834  34.112  1.00  0.00     0.065 H 
ATOM     91  H   UNL A   1      40.595  26.908  25.604  1.00  0.00     0.065 H 
ATOM     92  C   UNL A   1      43.001  26.101  27.059  1.00  0.00     0.037 A 
ATOM     93  C   UNL A   1      43.909  29.422  32.733  1.00  0.00     0.049 A 
ATOM     94  C   UNL A   1      44.159  26.515  27.883  1.00  0.00     0.074 A 
ATOM     95  C   UNL A   1      44.278  30.746  32.661  1.00  0.00    -0.036 A 
ATOM     96  N   UNL A   1      44.444  28.789  31.647  1.00  0.00    -0.354 N 
ATOM     97  N   UNL A   1      44.792  27.643  27.723  1.00  0.00    -0.248 NA
ATOM     98  C   UNL A   1      44.460  25.795  29.117  1.00  0.00    -0.034 C 
ATOM     99  C   UNL A   1      44.946  30.908  31.409  1.00  0.00    -0.036 A 
ATOM    100  H   UNL A   1      44.107  31.476  33.370  1.00  0.00     0.065 H 
ATOM    101  C   UNL A   1      44.992  29.676  30.764  1.00  0.00     0.049 A 
ATOM    102  H   UNL A   1      44.436  27.812  31.517  1.00  0.00     0.167 HD
ATOM    103  C   UNL A   1      45.216  27.971  28.991  1.00  0.00     0.074 A 
ATOM    104  C   UNL A   1      45.160  26.734  29.758  1.00  0.00    -0.034 C 
ATOM    105  H   UNL A   1      44.205  24.839  29.410  1.00  0.00     0.065 H 
ATOM    106  H   UNL A   1      45.331  31.793  31.042  1.00  0.00     0.065 H 
ATOM    107  C   UNL A   1      45.241  29.270  29.402  1.00  0.00     0.037 A 
ATOM    108  H   UNL A   1      45.606  26.600  30.679  1.00  0.00     0.065 H 
BRANCH  89 109
ATOM    109  C   UNL A   1      43.377  27.484  34.323  1.00  0.00     0.064 A 
ATOM    110  C   UNL A   1      43.505  26.195  33.759  1.00  0.00     0.173 A 
ATOM    111  C   UNL A   1      43.344  27.523  35.734  1.00  0.00     0.173 A 
ATOM    112  F   UNL A   1      43.526  26.029  32.428  1.00  0.00    -0.203 F 
ATOM    113  C   UNL A   1      43.518  25.038  34.547  1.00  0.00     0.198 A 
ATOM    114  C   UNL A   1      43.406  26.370  36.517  1.00  0.00     0.198 A 
ATOM    115  F   UNL A   1      43.134  28.657  36.412  1.00  0.00    -0.203 F 
ATOM    116  F   UNL A   1      43.519  23.833  33.962  1.00  0.00    -0.200 F 
ATOM    117  C   UNL A   1      43.462  25.127  35.924  1.00  0.00     0.200 A 
ATOM    118  F   UNL A   1      43.323  26.477  37.851  1.00  0.00    -0.200 F 
ATOM    119  F   UNL A   1      43.414  24.022  36.679  1.00  0.00    -0.200 F 
ENDBRANCH  89 109
BRANCH  92 120
ATOM    120  C   UNL A   1      42.975  24.801  26.347  1.00  0.00     0.064 A 
ATOM    121  C   UNL A   1      43.805  24.580  25.233  1.00  0.00     0.173 A 
ATOM    122  C   UNL A   1      42.396  23.660  26.933  1.00  0.00     0.173 A 
ATOM    123  F   UNL A   1      44.414  25.611  24.629  1.00  0.00    -0.203 F 
ATOM    124  C   UNL A   1      44.096  23.290  24.780  1.00  0.00     0.198 A 
ATOM    125  C   UNL A   1      42.682  22.373  26.474  1.00  0.00     0.198 A 
ATOM    126  F   UNL A   1      41.627  23.762  28.026  1.00  0.00    -0.203 F 
ATOM    127  F   UNL A   1      44.964  23.116  23.773  1.00  0.00    -0.200 F 
ATOM    128  C   UNL A   1      43.550  22.187  25.414  1.00  0.00     0.200 A 
ATOM    129  F   UNL A   1      42.171  21.312  27.113  1.00  0.00    -0.200 F 
ATOM    130  F   UNL A   1      43.895  20.948  25.036  1.00  0.00    -0.200 F 
ENDBRANCH  92 120
BRANCH 107 131
ATOM    131  C   UNL A   1      45.356  30.325  28.351  1.00  0.00     0.064 A 
ATOM    132  C   UNL A   1      44.264  30.928  27.708  1.00  0.00     0.173 A 
ATOM    133  C   UNL A   1      46.638  30.797  28.041  1.00  0.00     0.173 A 
ATOM    134  F   UNL A   1      43.006  30.577  28.007  1.00  0.00    -0.203 F 
ATOM    135  C   UNL A   1      44.457  31.943  26.771  1.00  0.00     0.198 A 
ATOM    136  C   UNL A   1      46.825  31.831  27.133  1.00  0.00     0.198 A 
ATOM    137  F   UNL A   1      47.712  30.275  28.655  1.00  0.00    -0.203 F 
ATOM    138  F   UNL A   1      43.403  32.500  26.156  1.00  0.00    -0.200 F 
ATOM    139  C   UNL A   1      45.736  32.398  26.491  1.00  0.00     0.200 A 
ATOM    140  F   UNL A   1      48.060  32.295  26.898  1.00  0.00    -0.200 F 
ATOM    141  F   UNL A   1      45.920  33.401  25.621  1.00  0.00    -0.200 F 
ENDBRANCH 107 131
ENDBRANCH  72  75
ENDBRANCH  62  65
ENDBRANCH  58  61
ENDBRANCH  55  58
ENDBRANCH  52  55
ENDBRANCH   1  52
TORSDOF 18
ENDMDL
MODEL 8
REMARK VINA RESULT:     -11.4      2.996      8.888
REMARK SMILES CCc1cccc2c3c([nH]c12)[C@](CC)(CC(=O)NCCCCCCNC(=O)c1ccc(-c2c4nc(c(-c5c(F)c(F)c(F)c(F)c5F)c5ccc([nH]5)c(-c5c(F)c(F)c(F)c(F)c5F)c5nc(c(-c6c(F)c(F)c(F)c(F)c6F)c6ccc2[nH]6)C=C5)C=C4)cc1)OCC3
REMARK SMILES IDX 21 1 20 4 19 7 18 10 16 11 17 12 15 14 12 17 3 18 4 19 11 20
REMARK SMILES IDX 5 21 7 23 10 24 6 25 8 27 9 28 93 31 92 32 91 35 2 38 1 41
REMARK SMILES IDX 13 45 14 48 22 52 23 55 24 58 25 61 26 62 27 64 28 65 29 66
REMARK SMILES IDX 90 67 30 68 89 70 31 72 32 75 33 76 83 77 34 78 88 79 82 80
REMARK SMILES IDX 84 81 35 82 87 83 81 85 80 87 36 89 68 92 48 93 67 94 49 95
REMARK SMILES IDX 52 96 66 97 85 98 50 99 51 101 65 103 86 104 53 107 37 109
REMARK SMILES IDX 38 110 46 111 39 112 40 113 44 114 47 115 41 116 42 117
REMARK SMILES IDX 45 118 43 119 69 120 70 121 78 122 71 123 72 124 76 125
REMARK SMILES IDX 79 126 73 127 74 128 77 129 75 130 54 131 55 132 63 133
REMARK SMILES IDX 56 134 57 135 61 136 64 137 58 138 59 139 62 140 60 141
REMARK H PARENT 21 2 21 3 20 5 20 6 19 8 19 9 18 13 15 15 15 16 4 22 5 26
REMARK H PARENT 10 29 6 30 93 33 93 34 92 36 92 37 2 39 2 40 1 42 1 43 1 44
REMARK H PARENT 13 46 13 47 14 49 14 50 14 51 22 53 22 54 23 56 23 57 24 59
REMARK H PARENT 24 60 25 63 29 69 90 71 30 73 89 74 88 84 82 86 84 88 87 90
REMARK H PARENT 81 91 49 100 52 102 85 105 50 106 86 108
REMARK Flexibility Score: inf
ROOT
ATOM      1  C   UNL A   1      31.528  28.138  26.071  1.00  0.00    -0.052 C 
ATOM      2  H   UNL A   1      30.826  28.739  25.533  1.00  0.00     0.027 H 
ATOM      3  H   UNL A   1      32.395  27.887  25.496  1.00  0.00     0.027 H 
ENDROOT
BRANCH   1   4
ATOM      4  C   UNL A   1      30.844  26.807  26.433  1.00  0.00    -0.036 C 
ATOM      5  H   UNL A   1      31.471  26.296  27.133  1.00  0.00     0.028 H 
ATOM      6  H   UNL A   1      29.882  27.075  26.820  1.00  0.00     0.028 H 
BRANCH   4   7
ATOM      7  C   UNL A   1      30.566  25.849  25.264  1.00  0.00     0.017 C 
ATOM      8  H   UNL A   1      29.840  26.307  24.624  1.00  0.00     0.049 H 
ATOM      9  H   UNL A   1      31.507  25.680  24.786  1.00  0.00     0.049 H 
BRANCH   7  10
ATOM     10  N   UNL A   1      30.063  24.537  25.650  1.00  0.00    -0.356 N 
ATOM     11  C   UNL A   1      30.654  23.473  26.272  1.00  0.00     0.223 C 
ATOM     12  O   UNL A   1      29.989  22.444  26.405  1.00  0.00    -0.275 OA
ATOM     13  H   UNL A   1      29.117  24.389  25.419  1.00  0.00     0.163 HD
BRANCH  11  14
ATOM     14  C   UNL A   1      32.049  23.586  26.839  1.00  0.00     0.061 C 
ATOM     15  H   UNL A   1      32.261  24.628  26.938  1.00  0.00     0.040 H 
ATOM     16  H   UNL A   1      32.001  23.013  27.742  1.00  0.00     0.040 H 
BRANCH  14  17
ATOM     17  C   UNL A   1      33.235  22.954  26.069  1.00  0.00     0.117 C 
ATOM     18  C   UNL A   1      32.597  18.140  24.535  1.00  0.00    -0.024 A 
ATOM     19  C   UNL A   1      32.358  17.605  23.247  1.00  0.00    -0.057 A 
ATOM     20  C   UNL A   1      32.615  19.550  24.617  1.00  0.00     0.049 A 
ATOM     21  C   UNL A   1      32.146  18.403  22.125  1.00  0.00    -0.061 A 
ATOM     22  H   UNL A   1      32.338  16.580  23.133  1.00  0.00     0.063 H 
ATOM     23  C   UNL A   1      32.450  20.356  23.492  1.00  0.00     0.003 A 
ATOM     24  N   UNL A   1      32.814  20.408  25.694  1.00  0.00    -0.356 N 
ATOM     25  C   UNL A   1      32.197  19.784  22.235  1.00  0.00    -0.053 A 
ATOM     26  H   UNL A   1      31.953  17.965  21.210  1.00  0.00     0.062 H 
ATOM     27  C   UNL A   1      32.685  21.682  23.901  1.00  0.00    -0.014 A 
ATOM     28  C   UNL A   1      32.876  21.717  25.265  1.00  0.00     0.052 A 
ATOM     29  H   UNL A   1      32.898  20.121  26.632  1.00  0.00     0.166 HD
ATOM     30  H   UNL A   1      32.051  20.382  21.407  1.00  0.00     0.063 H 
ATOM     31  C   UNL A   1      32.860  22.851  23.037  1.00  0.00    -0.002 C 
ATOM     32  C   UNL A   1      33.209  24.070  23.868  1.00  0.00     0.052 C 
ATOM     33  H   UNL A   1      31.951  23.037  22.505  1.00  0.00     0.034 H 
ATOM     34  H   UNL A   1      33.656  22.660  22.349  1.00  0.00     0.034 H 
ATOM     35  O   UNL A   1      33.866  23.860  25.130  1.00  0.00    -0.368 OA
ATOM     36  H   UNL A   1      33.849  24.687  23.274  1.00  0.00     0.057 H 
ATOM     37  H   UNL A   1      32.262  24.496  24.127  1.00  0.00     0.057 H 
BRANCH  18  38
ATOM     38  C   UNL A   1      32.861  17.263  25.735  1.00  0.00    -0.029 C 
ATOM     39  H   UNL A   1      33.803  17.553  26.150  1.00  0.00     0.031 H 
ATOM     40  H   UNL A   1      32.026  17.412  26.387  1.00  0.00     0.031 H 
BRANCH  38  41
ATOM     41  C   UNL A   1      32.911  15.761  25.475  1.00  0.00    -0.061 C 
ATOM     42  H   UNL A   1      33.889  15.393  25.702  1.00  0.00     0.023 H 
ATOM     43  H   UNL A   1      32.687  15.570  24.446  1.00  0.00     0.023 H 
ATOM     44  H   UNL A   1      32.191  15.267  26.094  1.00  0.00     0.023 H 
ENDBRANCH  38  41
ENDBRANCH  18  38
BRANCH  17  45
ATOM     45  C   UNL A   1      34.361  22.611  27.100  1.00  0.00    -0.020 C 
ATOM     46  H   UNL A   1      34.104  21.686  27.573  1.00  0.00     0.030 H 
ATOM     47  H   UNL A   1      34.406  23.443  27.773  1.00  0.00     0.030 H 
BRANCH  45  48
ATOM     48  C   UNL A   1      35.770  22.467  26.514  1.00  0.00    -0.062 C 
ATOM     49  H   UNL A   1      35.702  22.220  25.476  1.00  0.00     0.023 H 
ATOM     50  H   UNL A   1      36.294  21.691  27.032  1.00  0.00     0.023 H 
ATOM     51  H   UNL A   1      36.300  23.390  26.627  1.00  0.00     0.023 H 
ENDBRANCH  45  48
ENDBRANCH  17  45
ENDBRANCH  14  17
ENDBRANCH  11  14
ENDBRANCH   7  10
ENDBRANCH   4   7
ENDBRANCH   1   4
BRANCH   1  52
ATOM     52  C   UNL A   1      32.023  28.942  27.264  1.00  0.00    -0.052 C 
ATOM     53  H   UNL A   1      32.897  28.460  27.653  1.00  0.00     0.027 H 
ATOM     54  H   UNL A   1      31.219  28.975  27.968  1.00  0.00     0.027 H 
BRANCH  52  55
ATOM     55  C   UNL A   1      32.380  30.391  26.938  1.00  0.00    -0.036 C 
ATOM     56  H   UNL A   1      31.750  31.028  27.523  1.00  0.00     0.028 H 
ATOM     57  H   UNL A   1      32.238  30.505  25.884  1.00  0.00     0.028 H 
BRANCH  55  58
ATOM     58  C   UNL A   1      33.839  30.775  27.219  1.00  0.00     0.018 C 
ATOM     59  H   UNL A   1      34.195  31.363  26.399  1.00  0.00     0.049 H 
ATOM     60  H   UNL A   1      34.383  29.862  27.337  1.00  0.00     0.049 H 
BRANCH  58  61
ATOM     61  N   UNL A   1      34.023  31.535  28.438  1.00  0.00    -0.352 N 
ATOM     62  C   UNL A   1      35.106  31.755  29.246  1.00  0.00     0.251 C 
ATOM     63  H   UNL A   1      33.203  31.984  28.748  1.00  0.00     0.163 HD
ATOM     64  O   UNL A   1      34.963  32.565  30.168  1.00  0.00    -0.269 OA
BRANCH  62  65
ATOM     65  C   UNL A   1      36.397  31.021  29.133  1.00  0.00     0.039 A 
ATOM     66  C   UNL A   1      36.521  29.651  28.922  1.00  0.00    -0.049 A 
ATOM     67  C   UNL A   1      37.570  31.776  29.321  1.00  0.00    -0.049 A 
ATOM     68  C   UNL A   1      37.745  29.026  29.078  1.00  0.00    -0.053 A 
ATOM     69  H   UNL A   1      35.694  29.098  28.647  1.00  0.00     0.063 H 
ATOM     70  C   UNL A   1      38.817  31.163  29.398  1.00  0.00    -0.053 A 
ATOM     71  H   UNL A   1      37.503  32.803  29.401  1.00  0.00     0.063 H 
ATOM     72  C   UNL A   1      38.894  29.778  29.339  1.00  0.00    -0.014 A 
ATOM     73  H   UNL A   1      37.811  27.998  29.003  1.00  0.00     0.063 H 
ATOM     74  H   UNL A   1      39.673  31.731  29.500  1.00  0.00     0.063 H 
BRANCH  72  75
ATOM     75  C   UNL A   1      40.152  29.038  29.399  1.00  0.00     0.031 A 
ATOM     76  C   UNL A   1      40.668  28.862  30.783  1.00  0.00     0.074 A 
ATOM     77  C   UNL A   1      40.806  28.530  28.334  1.00  0.00     0.049 A 
ATOM     78  N   UNL A   1      41.737  29.381  31.290  1.00  0.00    -0.248 NA
ATOM     79  C   UNL A   1      39.822  28.162  31.761  1.00  0.00    -0.034 C 
ATOM     80  C   UNL A   1      40.316  28.397  26.961  1.00  0.00    -0.036 A 
ATOM     81  N   UNL A   1      42.042  27.947  28.280  1.00  0.00    -0.354 N 
ATOM     82  C   UNL A   1      41.803  28.923  32.603  1.00  0.00     0.074 A 
ATOM     83  C   UNL A   1      40.537  28.299  32.881  1.00  0.00    -0.034 C 
ATOM     84  H   UNL A   1      38.916  27.689  31.621  1.00  0.00     0.065 H 
ATOM     85  C   UNL A   1      41.136  27.570  26.274  1.00  0.00    -0.036 A 
ATOM     86  H   UNL A   1      39.479  28.862  26.578  1.00  0.00     0.065 H 
ATOM     87  C   UNL A   1      42.286  27.253  27.102  1.00  0.00     0.049 A 
ATOM     88  H   UNL A   1      42.700  28.012  29.010  1.00  0.00     0.167 HD
ATOM     89  C   UNL A   1      42.997  28.875  33.252  1.00  0.00     0.037 A 
ATOM     90  H   UNL A   1      40.224  27.999  33.818  1.00  0.00     0.065 H 
ATOM     91  H   UNL A   1      40.970  27.221  25.316  1.00  0.00     0.065 H 
ATOM     92  C   UNL A   1      43.345  26.449  26.841  1.00  0.00     0.037 A 
ATOM     93  C   UNL A   1      43.976  29.699  32.594  1.00  0.00     0.049 A 
ATOM     94  C   UNL A   1      44.463  26.877  27.711  1.00  0.00     0.074 A 
ATOM     95  C   UNL A   1      44.314  31.032  32.554  1.00  0.00    -0.036 A 
ATOM     96  N   UNL A   1      44.564  29.096  31.517  1.00  0.00    -0.354 N 
ATOM     97  N   UNL A   1      45.073  28.023  27.590  1.00  0.00    -0.248 NA
ATOM     98  C   UNL A   1      44.740  26.145  28.944  1.00  0.00    -0.034 C 
ATOM     99  C   UNL A   1      45.021  31.231  31.328  1.00  0.00    -0.036 A 
ATOM    100  H   UNL A   1      44.101  31.746  33.268  1.00  0.00     0.065 H 
ATOM    101  C   UNL A   1      45.119  30.011  30.667  1.00  0.00     0.049 A 
ATOM    102  H   UNL A   1      44.584  28.123  31.372  1.00  0.00     0.167 HD
ATOM    103  C   UNL A   1      45.446  28.341  28.877  1.00  0.00     0.074 A 
ATOM    104  C   UNL A   1      45.394  27.091  29.622  1.00  0.00    -0.034 C 
ATOM    105  H   UNL A   1      44.499  25.179  29.213  1.00  0.00     0.065 H 
ATOM    106  H   UNL A   1      45.396  32.131  30.989  1.00  0.00     0.065 H 
ATOM    107  C   UNL A   1      45.424  29.633  29.308  1.00  0.00     0.037 A 
ATOM    108  H   UNL A   1      45.811  26.953  30.556  1.00  0.00     0.065 H 
BRANCH  89 109
ATOM    109  C   UNL A   1      43.438  27.723  34.134  1.00  0.00     0.064 A 
ATOM    110  C   UNL A   1      43.587  26.440  33.562  1.00  0.00     0.173 A 
ATOM    111  C   UNL A   1      43.384  27.750  35.544  1.00  0.00     0.173 A 
ATOM    112  F   UNL A   1      43.630  26.286  32.230  1.00  0.00    -0.203 F 
ATOM    113  C   UNL A   1      43.600  25.277  34.340  1.00  0.00     0.198 A 
ATOM    114  C   UNL A   1      43.446  26.592  36.319  1.00  0.00     0.198 A 
ATOM    115  F   UNL A   1      43.153  28.876  36.229  1.00  0.00    -0.203 F 
ATOM    116  F   UNL A   1      43.621  24.077  33.745  1.00  0.00    -0.200 F 
ATOM    117  C   UNL A   1      43.523  25.354  35.717  1.00  0.00     0.200 A 
ATOM    118  F   UNL A   1      43.343  26.686  37.653  1.00  0.00    -0.200 F 
ATOM    119  F   UNL A   1      43.474  24.242  36.462  1.00  0.00    -0.200 F 
ENDBRANCH  89 109
BRANCH  92 120
ATOM    120  C   UNL A   1      43.375  25.160  26.109  1.00  0.00     0.064 A 
ATOM    121  C   UNL A   1      44.408  24.882  25.195  1.00  0.00     0.173 A 
ATOM    122  C   UNL A   1      42.598  24.064  26.528  1.00  0.00     0.173 A 
ATOM    123  F   UNL A   1      45.210  25.866  24.762  1.00  0.00    -0.203 F 
ATOM    124  C   UNL A   1      44.692  23.576  24.784  1.00  0.00     0.198 A 
ATOM    125  C   UNL A   1      42.879  22.762  26.110  1.00  0.00     0.198 A 
ATOM    126  F   UNL A   1      41.620  24.219  27.432  1.00  0.00    -0.203 F 
ATOM    127  F   UNL A   1      45.742  23.341  23.985  1.00  0.00    -0.200 F 
ATOM    128  C   UNL A   1      43.939  22.515  25.259  1.00  0.00     0.200 A 
ATOM    129  F   UNL A   1      42.162  21.740  26.599  1.00  0.00    -0.200 F 
ATOM    130  F   UNL A   1      44.264  21.256  24.934  1.00  0.00    -0.200 F 
ENDBRANCH  92 120
BRANCH 107 131
ATOM    131  C   UNL A   1      45.548  30.708  28.278  1.00  0.00     0.064 A 
ATOM    132  C   UNL A   1      44.465  31.291  27.603  1.00  0.00     0.173 A 
ATOM    133  C   UNL A   1      46.828  31.219  28.024  1.00  0.00     0.173 A 
ATOM    134  F   UNL A   1      43.207  30.900  27.849  1.00  0.00    -0.203 F 
ATOM    135  C   UNL A   1      44.664  32.324  26.689  1.00  0.00     0.198 A 
ATOM    136  C   UNL A   1      47.020  32.273  27.139  1.00  0.00     0.198 A 
ATOM    137  F   UNL A   1      47.892  30.718  28.670  1.00  0.00    -0.203 F 
ATOM    138  F   UNL A   1      43.619  32.862  26.043  1.00  0.00    -0.200 F 
ATOM    139  C   UNL A   1      45.940  32.820  26.465  1.00  0.00     0.200 A 
ATOM    140  F   UNL A   1      48.249  32.774  26.958  1.00  0.00    -0.200 F 
ATOM    141  F   UNL A   1      46.127  33.841  25.617  1.00  0.00    -0.200 F 
ENDBRANCH 107 131
ENDBRANCH  72  75
ENDBRANCH  62  65
ENDBRANCH  58  61
ENDBRANCH  55  58
ENDBRANCH  52  55
ENDBRANCH   1  52
TORSDOF 18
ENDMDL
MODEL 9
REMARK VINA RESULT:     -11.3      2.659      3.863
REMARK SMILES CCc1cccc2c3c([nH]c12)[C@](CC)(CC(=O)NCCCCCCNC(=O)c1ccc(-c2c4nc(c(-c5c(F)c(F)c(F)c(F)c5F)c5ccc([nH]5)c(-c5c(F)c(F)c(F)c(F)c5F)c5nc(c(-c6c(F)c(F)c(F)c(F)c6F)c6ccc2[nH]6)C=C5)C=C4)cc1)OCC3
REMARK SMILES IDX 21 1 20 4 19 7 18 10 16 11 17 12 15 14 12 17 3 18 4 19 11 20
REMARK SMILES IDX 5 21 7 23 10 24 6 25 8 27 9 28 93 31 92 32 91 35 2 38 1 41
REMARK SMILES IDX 13 45 14 48 22 52 23 55 24 58 25 61 26 62 27 64 28 65 29 66
REMARK SMILES IDX 90 67 30 68 89 70 31 72 32 75 33 76 83 77 34 78 88 79 82 80
REMARK SMILES IDX 84 81 35 82 87 83 81 85 80 87 36 89 68 92 48 93 67 94 49 95
REMARK SMILES IDX 52 96 66 97 85 98 50 99 51 101 65 103 86 104 53 107 37 109
REMARK SMILES IDX 38 110 46 111 39 112 40 113 44 114 47 115 41 116 42 117
REMARK SMILES IDX 45 118 43 119 69 120 70 121 78 122 71 123 72 124 76 125
REMARK SMILES IDX 79 126 73 127 74 128 77 129 75 130 54 131 55 132 63 133
REMARK SMILES IDX 56 134 57 135 61 136 64 137 58 138 59 139 62 140 60 141
REMARK H PARENT 21 2 21 3 20 5 20 6 19 8 19 9 18 13 15 15 15 16 4 22 5 26
REMARK H PARENT 10 29 6 30 93 33 93 34 92 36 92 37 2 39 2 40 1 42 1 43 1 44
REMARK H PARENT 13 46 13 47 14 49 14 50 14 51 22 53 22 54 23 56 23 57 24 59
REMARK H PARENT 24 60 25 63 29 69 90 71 30 73 89 74 88 84 82 86 84 88 87 90
REMARK H PARENT 81 91 49 100 52 102 85 105 50 106 86 108
REMARK Flexibility Score: inf
ROOT
ATOM      1  C   UNL A   1      35.419  22.957  22.877  1.00  0.00    -0.052 C 
ATOM      2  H   UNL A   1      35.233  23.857  22.330  1.00  0.00     0.027 H 
ATOM      3  H   UNL A   1      35.634  22.119  22.247  1.00  0.00     0.027 H 
ENDROOT
BRANCH   1   4
ATOM      4  C   UNL A   1      34.141  22.598  23.658  1.00  0.00    -0.036 C 
ATOM      5  H   UNL A   1      33.949  21.555  23.511  1.00  0.00     0.028 H 
ATOM      6  H   UNL A   1      34.341  22.868  24.674  1.00  0.00     0.028 H 
BRANCH   4   7
ATOM      7  C   UNL A   1      32.871  23.369  23.269  1.00  0.00     0.017 C 
ATOM      8  H   UNL A   1      32.204  22.688  22.783  1.00  0.00     0.049 H 
ATOM      9  H   UNL A   1      32.477  23.774  24.177  1.00  0.00     0.049 H 
BRANCH   7  10
ATOM     10  N   UNL A   1      33.086  24.502  22.378  1.00  0.00    -0.356 N 
ATOM     11  C   UNL A   1      33.520  25.779  22.603  1.00  0.00     0.223 C 
ATOM     12  O   UNL A   1      33.534  26.557  21.648  1.00  0.00    -0.275 OA
ATOM     13  H   UNL A   1      32.881  24.311  21.434  1.00  0.00     0.163 HD
BRANCH  11  14
ATOM     14  C   UNL A   1      34.031  26.194  23.962  1.00  0.00     0.061 C 
ATOM     15  H   UNL A   1      34.307  25.300  24.477  1.00  0.00     0.040 H 
ATOM     16  H   UNL A   1      34.816  26.885  23.735  1.00  0.00     0.040 H 
BRANCH  14  17
ATOM     17  C   UNL A   1      33.103  26.993  24.910  1.00  0.00     0.117 C 
ATOM     18  C   UNL A   1      29.038  29.171  22.750  1.00  0.00    -0.024 A 
ATOM     19  C   UNL A   1      27.666  28.824  22.804  1.00  0.00    -0.057 A 
ATOM     20  C   UNL A   1      29.920  28.271  23.389  1.00  0.00     0.049 A 
ATOM     21  C   UNL A   1      27.202  27.674  23.436  1.00  0.00    -0.061 A 
ATOM     22  H   UNL A   1      26.980  29.451  22.355  1.00  0.00     0.063 H 
ATOM     23  C   UNL A   1      29.461  27.141  24.063  1.00  0.00     0.003 A 
ATOM     24  N   UNL A   1      31.304  28.285  23.535  1.00  0.00    -0.356 N 
ATOM     25  C   UNL A   1      28.093  26.826  24.076  1.00  0.00    -0.053 A 
ATOM     26  H   UNL A   1      26.194  27.452  23.428  1.00  0.00     0.062 H 
ATOM     27  C   UNL A   1      30.572  26.572  24.710  1.00  0.00    -0.014 A 
ATOM     28  C   UNL A   1      31.714  27.257  24.357  1.00  0.00     0.052 A 
ATOM     29  H   UNL A   1      31.906  28.937  23.109  1.00  0.00     0.166 HD
ATOM     30  H   UNL A   1      27.756  25.976  24.555  1.00  0.00     0.063 H 
ATOM     31  C   UNL A   1      30.554  25.515  25.724  1.00  0.00    -0.002 C 
ATOM     32  C   UNL A   1      31.954  25.270  26.251  1.00  0.00     0.052 C 
ATOM     33  H   UNL A   1      30.178  24.614  25.289  1.00  0.00     0.034 H 
ATOM     34  H   UNL A   1      29.927  25.821  26.535  1.00  0.00     0.034 H 
ATOM     35  O   UNL A   1      32.895  26.355  26.195  1.00  0.00    -0.368 OA
ATOM     36  H   UNL A   1      31.861  24.981  27.277  1.00  0.00     0.057 H 
ATOM     37  H   UNL A   1      32.360  24.529  25.594  1.00  0.00     0.057 H 
BRANCH  18  38
ATOM     38  C   UNL A   1      29.522  30.441  22.094  1.00  0.00    -0.029 C 
ATOM     39  H   UNL A   1      29.982  31.043  22.849  1.00  0.00     0.031 H 
ATOM     40  H   UNL A   1      30.185  30.125  21.316  1.00  0.00     0.031 H 
BRANCH  38  41
ATOM     41  C   UNL A   1      28.461  31.292  21.404  1.00  0.00    -0.061 C 
ATOM     42  H   UNL A   1      28.891  32.224  21.104  1.00  0.00     0.023 H 
ATOM     43  H   UNL A   1      27.653  31.473  22.083  1.00  0.00     0.023 H 
ATOM     44  H   UNL A   1      28.093  30.775  20.542  1.00  0.00     0.023 H 
ENDBRANCH  38  41
ENDBRANCH  18  38
BRANCH  17  45
ATOM     45  C   UNL A   1      33.805  28.348  25.255  1.00  0.00    -0.020 C 
ATOM     46  H   UNL A   1      33.493  29.074  24.533  1.00  0.00     0.030 H 
ATOM     47  H   UNL A   1      34.857  28.147  25.237  1.00  0.00     0.030 H 
BRANCH  45  48
ATOM     48  C   UNL A   1      33.507  28.910  26.650  1.00  0.00    -0.062 C 
ATOM     49  H   UNL A   1      32.924  28.204  27.202  1.00  0.00     0.023 H 
ATOM     50  H   UNL A   1      32.964  29.827  26.556  1.00  0.00     0.023 H 
ATOM     51  H   UNL A   1      34.427  29.093  27.164  1.00  0.00     0.023 H 
ENDBRANCH  45  48
ENDBRANCH  17  45
ENDBRANCH  14  17
ENDBRANCH  11  14
ENDBRANCH   7  10
ENDBRANCH   4   7
ENDBRANCH   1   4
BRANCH   1  52
ATOM     52  C   UNL A   1      36.651  23.172  23.740  1.00  0.00    -0.052 C 
ATOM     53  H   UNL A   1      36.414  23.903  24.486  1.00  0.00     0.027 H 
ATOM     54  H   UNL A   1      37.436  23.488  23.085  1.00  0.00     0.027 H 
BRANCH  52  55
ATOM     55  C   UNL A   1      37.150  21.912  24.446  1.00  0.00    -0.036 C 
ATOM     56  H   UNL A   1      37.851  21.425  23.801  1.00  0.00     0.028 H 
ATOM     57  H   UNL A   1      36.283  21.321  24.653  1.00  0.00     0.028 H 
BRANCH  55  58
ATOM     58  C   UNL A   1      37.835  22.157  25.797  1.00  0.00     0.018 C 
ATOM     59  H   UNL A   1      37.340  21.563  26.537  1.00  0.00     0.049 H 
ATOM     60  H   UNL A   1      37.762  23.206  25.996  1.00  0.00     0.049 H 
BRANCH  58  61
ATOM     61  N   UNL A   1      39.244  21.823  25.811  1.00  0.00    -0.352 N 
ATOM     62  C   UNL A   1      40.332  22.389  26.422  1.00  0.00     0.251 C 
ATOM     63  H   UNL A   1      39.465  21.028  25.274  1.00  0.00     0.163 HD
ATOM     64  O   UNL A   1      41.404  21.784  26.331  1.00  0.00    -0.269 OA
BRANCH  62  65
ATOM     65  C   UNL A   1      40.314  23.714  27.101  1.00  0.00     0.039 A 
ATOM     66  C   UNL A   1      39.347  24.697  26.910  1.00  0.00    -0.049 A 
ATOM     67  C   UNL A   1      41.399  24.002  27.949  1.00  0.00    -0.049 A 
ATOM     68  C   UNL A   1      39.546  25.979  27.390  1.00  0.00    -0.053 A 
ATOM     69  H   UNL A   1      38.476  24.468  26.407  1.00  0.00     0.063 H 
ATOM     70  C   UNL A   1      41.565  25.268  28.504  1.00  0.00    -0.053 A 
ATOM     71  H   UNL A   1      42.084  23.261  28.164  1.00  0.00     0.063 H 
ATOM     72  C   UNL A   1      40.668  26.274  28.171  1.00  0.00    -0.014 A 
ATOM     73  H   UNL A   1      38.864  26.722  27.171  1.00  0.00     0.063 H 
ATOM     74  H   UNL A   1      42.345  25.456  29.152  1.00  0.00     0.063 H 
BRANCH  72  75
ATOM     75  C   UNL A   1      40.745  27.632  28.705  1.00  0.00     0.031 A 
ATOM     76  C   UNL A   1      41.895  28.411  28.174  1.00  0.00     0.074 A 
ATOM     77  C   UNL A   1      39.873  28.173  29.579  1.00  0.00     0.049 A 
ATOM     78  N   UNL A   1      42.929  28.824  28.830  1.00  0.00    -0.248 NA
ATOM     79  C   UNL A   1      41.989  28.619  26.721  1.00  0.00    -0.034 C 
ATOM     80  C   UNL A   1      38.574  27.641  29.996  1.00  0.00    -0.036 A 
ATOM     81  N   UNL A   1      39.938  29.374  30.231  1.00  0.00    -0.354 N 
ATOM     82  C   UNL A   1      43.720  29.509  27.911  1.00  0.00     0.074 A 
ATOM     83  C   UNL A   1      43.170  29.232  26.612  1.00  0.00    -0.034 C 
ATOM     84  H   UNL A   1      41.318  28.360  25.980  1.00  0.00     0.065 H 
ATOM     85  C   UNL A   1      37.878  28.610  30.631  1.00  0.00    -0.036 A 
ATOM     86  H   UNL A   1      38.243  26.677  29.831  1.00  0.00     0.065 H 
ATOM     87  C   UNL A   1      38.739  29.766  30.811  1.00  0.00     0.049 A 
ATOM     88  H   UNL A   1      40.761  29.913  30.283  1.00  0.00     0.167 HD
ATOM     89  C   UNL A   1      44.602  30.454  28.338  1.00  0.00     0.037 A 
ATOM     90  H   UNL A   1      43.626  29.473  25.718  1.00  0.00     0.065 H 
ATOM     91  H   UNL A   1      36.895  28.539  30.939  1.00  0.00     0.065 H 
ATOM     92  C   UNL A   1      38.466  30.969  31.371  1.00  0.00     0.037 A 
ATOM     93  C   UNL A   1      44.868  30.312  29.745  1.00  0.00     0.049 A 
ATOM     94  C   UNL A   1      39.748  31.565  31.810  1.00  0.00     0.074 A 
ATOM     95  C   UNL A   1      45.667  29.534  30.551  1.00  0.00    -0.036 A 
ATOM     96  N   UNL A   1      43.913  30.879  30.542  1.00  0.00    -0.354 N 
ATOM     97  N   UNL A   1      40.476  31.078  32.776  1.00  0.00    -0.248 NA
ATOM     98  C   UNL A   1      40.402  32.567  30.973  1.00  0.00    -0.034 C 
ATOM     99  C   UNL A   1      45.067  29.550  31.848  1.00  0.00    -0.036 A 
ATOM    100  H   UNL A   1      46.529  29.039  30.274  1.00  0.00     0.065 H 
ATOM    101  C   UNL A   1      43.935  30.358  31.806  1.00  0.00     0.049 A 
ATOM    102  H   UNL A   1      43.286  31.576  30.242  1.00  0.00     0.167 HD
ATOM    103  C   UNL A   1      41.768  31.380  32.404  1.00  0.00     0.074 A 
ATOM    104  C   UNL A   1      41.656  32.443  31.416  1.00  0.00    -0.034 C 
ATOM    105  H   UNL A   1      40.010  33.190  30.250  1.00  0.00     0.065 H 
ATOM    106  H   UNL A   1      45.415  29.045  32.678  1.00  0.00     0.065 H 
ATOM    107  C   UNL A   1      42.787  30.513  32.666  1.00  0.00     0.037 A 
ATOM    108  H   UNL A   1      42.445  33.026  31.097  1.00  0.00     0.065 H 
BRANCH  89 109
ATOM    109  C   UNL A   1      44.816  31.788  27.651  1.00  0.00     0.064 A 
ATOM    110  C   UNL A   1      46.015  32.006  26.937  1.00  0.00     0.173 A 
ATOM    111  C   UNL A   1      44.073  32.950  27.947  1.00  0.00     0.173 A 
ATOM    112  F   UNL A   1      46.817  30.979  26.616  1.00  0.00    -0.203 F 
ATOM    113  C   UNL A   1      46.465  33.292  26.618  1.00  0.00     0.198 A 
ATOM    114  C   UNL A   1      44.502  34.227  27.585  1.00  0.00     0.198 A 
ATOM    115  F   UNL A   1      42.965  32.918  28.697  1.00  0.00    -0.203 F 
ATOM    116  F   UNL A   1      47.667  33.455  26.047  1.00  0.00    -0.200 F 
ATOM    117  C   UNL A   1      45.711  34.401  26.949  1.00  0.00     0.200 A 
ATOM    118  F   UNL A   1      43.768  35.293  27.939  1.00  0.00    -0.200 F 
ATOM    119  F   UNL A   1      46.167  35.636  26.699  1.00  0.00    -0.200 F 
ENDBRANCH  89 109
BRANCH  92 120
ATOM    120  C   UNL A   1      37.220  31.768  31.295  1.00  0.00     0.064 A 
ATOM    121  C   UNL A   1      36.492  32.068  32.461  1.00  0.00     0.173 A 
ATOM    122  C   UNL A   1      36.904  32.521  30.149  1.00  0.00     0.173 A 
ATOM    123  F   UNL A   1      36.746  31.413  33.604  1.00  0.00    -0.203 F 
ATOM    124  C   UNL A   1      35.558  33.107  32.496  1.00  0.00     0.198 A 
ATOM    125  C   UNL A   1      35.966  33.554  30.184  1.00  0.00     0.198 A 
ATOM    126  F   UNL A   1      37.574  32.343  29.002  1.00  0.00    -0.203 F 
ATOM    127  F   UNL A   1      34.952  33.422  33.649  1.00  0.00    -0.200 F 
ATOM    128  C   UNL A   1      35.311  33.863  31.362  1.00  0.00     0.200 A 
ATOM    129  F   UNL A   1      35.756  34.297  29.088  1.00  0.00    -0.200 F 
ATOM    130  F   UNL A   1      34.481  34.913  31.416  1.00  0.00    -0.200 F 
ENDBRANCH  92 120
BRANCH 107 131
ATOM    131  C   UNL A   1      42.609  29.560  33.801  1.00  0.00     0.064 A 
ATOM    132  C   UNL A   1      41.998  28.301  33.694  1.00  0.00     0.173 A 
ATOM    133  C   UNL A   1      43.157  29.917  35.040  1.00  0.00     0.173 A 
ATOM    134  F   UNL A   1      41.515  27.866  32.523  1.00  0.00    -0.203 F 
ATOM    135  C   UNL A   1      41.917  27.450  34.795  1.00  0.00     0.198 A 
ATOM    136  C   UNL A   1      43.105  29.052  36.127  1.00  0.00     0.198 A 
ATOM    137  F   UNL A   1      43.782  31.096  35.184  1.00  0.00    -0.203 F 
ATOM    138  F   UNL A   1      41.318  26.255  34.679  1.00  0.00    -0.200 F 
ATOM    139  C   UNL A   1      42.477  27.823  36.007  1.00  0.00     0.200 A 
ATOM    140  F   UNL A   1      43.686  29.401  37.283  1.00  0.00    -0.200 F 
ATOM    141  F   UNL A   1      42.435  26.988  37.055  1.00  0.00    -0.200 F 
ENDBRANCH 107 131
ENDBRANCH  72  75
ENDBRANCH  62  65
ENDBRANCH  58  61
ENDBRANCH  55  58
ENDBRANCH  52  55
ENDBRANCH   1  52
TORSDOF 18
ENDMDL
MODEL 10
REMARK VINA RESULT:     -11.3      3.731      7.316
REMARK SMILES CCc1cccc2c3c([nH]c12)[C@](CC)(CC(=O)NCCCCCCNC(=O)c1ccc(-c2c4nc(c(-c5c(F)c(F)c(F)c(F)c5F)c5ccc([nH]5)c(-c5c(F)c(F)c(F)c(F)c5F)c5nc(c(-c6c(F)c(F)c(F)c(F)c6F)c6ccc2[nH]6)C=C5)C=C4)cc1)OCC3
REMARK SMILES IDX 21 1 20 4 19 7 18 10 16 11 17 12 15 14 12 17 3 18 4 19 11 20
REMARK SMILES IDX 5 21 7 23 10 24 6 25 8 27 9 28 93 31 92 32 91 35 2 38 1 41
REMARK SMILES IDX 13 45 14 48 22 52 23 55 24 58 25 61 26 62 27 64 28 65 29 66
REMARK SMILES IDX 90 67 30 68 89 70 31 72 32 75 33 76 83 77 34 78 88 79 82 80
REMARK SMILES IDX 84 81 35 82 87 83 81 85 80 87 36 89 68 92 48 93 67 94 49 95
REMARK SMILES IDX 52 96 66 97 85 98 50 99 51 101 65 103 86 104 53 107 37 109
REMARK SMILES IDX 38 110 46 111 39 112 40 113 44 114 47 115 41 116 42 117
REMARK SMILES IDX 45 118 43 119 69 120 70 121 78 122 71 123 72 124 76 125
REMARK SMILES IDX 79 126 73 127 74 128 77 129 75 130 54 131 55 132 63 133
REMARK SMILES IDX 56 134 57 135 61 136 64 137 58 138 59 139 62 140 60 141
REMARK H PARENT 21 2 21 3 20 5 20 6 19 8 19 9 18 13 15 15 15 16 4 22 5 26
REMARK H PARENT 10 29 6 30 93 33 93 34 92 36 92 37 2 39 2 40 1 42 1 43 1 44
REMARK H PARENT 13 46 13 47 14 49 14 50 14 51 22 53 22 54 23 56 23 57 24 59
REMARK H PARENT 24 60 25 63 29 69 90 71 30 73 89 74 88 84 82 86 84 88 87 90
REMARK H PARENT 81 91 49 100 52 102 85 105 50 106 86 108
REMARK Flexibility Score: inf
ROOT
ATOM      1  C   UNL A   1      42.933  24.744  24.625  1.00  0.00    -0.052 C 
ATOM      2  H   UNL A   1      43.121  24.653  23.576  1.00  0.00     0.027 H 
ATOM      3  H   UNL A   1      41.946  24.438  24.903  1.00  0.00     0.027 H 
ENDROOT
BRANCH   1   4
ATOM      4  C   UNL A   1      43.054  26.230  25.007  1.00  0.00    -0.036 C 
ATOM      5  H   UNL A   1      42.948  26.808  24.112  1.00  0.00     0.028 H 
ATOM      6  H   UNL A   1      42.287  26.403  25.734  1.00  0.00     0.028 H 
BRANCH   4   7
ATOM      7  C   UNL A   1      44.367  26.651  25.685  1.00  0.00     0.017 C 
ATOM      8  H   UNL A   1      44.151  27.451  26.362  1.00  0.00     0.049 H 
ATOM      9  H   UNL A   1      44.748  25.776  26.169  1.00  0.00     0.049 H 
BRANCH   7  10
ATOM     10  N   UNL A   1      45.413  27.100  24.776  1.00  0.00    -0.356 N 
ATOM     11  C   UNL A   1      46.473  27.948  24.940  1.00  0.00     0.223 C 
ATOM     12  O   UNL A   1      47.163  28.203  23.952  1.00  0.00    -0.275 OA
ATOM     13  H   UNL A   1      45.345  26.719  23.870  1.00  0.00     0.163 HD
BRANCH  11  14
ATOM     14  C   UNL A   1      46.822  28.494  26.304  1.00  0.00     0.061 C 
ATOM     15  H   UNL A   1      47.469  29.330  26.148  1.00  0.00     0.040 H 
ATOM     16  H   UNL A   1      45.869  28.695  26.746  1.00  0.00     0.040 H 
BRANCH  14  17
ATOM     17  C   UNL A   1      47.516  27.571  27.336  1.00  0.00     0.117 C 
ATOM     18  C   UNL A   1      44.461  25.310  30.725  1.00  0.00    -0.024 A 
ATOM     19  C   UNL A   1      44.031  23.965  30.827  1.00  0.00    -0.057 A 
ATOM     20  C   UNL A   1      45.231  25.618  29.581  1.00  0.00     0.049 A 
ATOM     21  C   UNL A   1      44.331  23.000  29.869  1.00  0.00    -0.061 A 
ATOM     22  H   UNL A   1      43.468  23.688  31.647  1.00  0.00     0.063 H 
ATOM     23  C   UNL A   1      45.575  24.650  28.640  1.00  0.00     0.003 A 
ATOM     24  N   UNL A   1      45.811  26.809  29.156  1.00  0.00    -0.356 N 
ATOM     25  C   UNL A   1      45.111  23.331  28.772  1.00  0.00    -0.053 A 
ATOM     26  H   UNL A   1      43.975  22.037  29.977  1.00  0.00     0.062 H 
ATOM     27  C   UNL A   1      46.467  25.256  27.737  1.00  0.00    -0.014 A 
ATOM     28  C   UNL A   1      46.586  26.596  28.035  1.00  0.00     0.052 A 
ATOM     29  H   UNL A   1      45.686  27.683  29.593  1.00  0.00     0.166 HD
ATOM     30  H   UNL A   1      45.347  22.620  28.062  1.00  0.00     0.063 H 
ATOM     31  C   UNL A   1      47.282  24.587  26.721  1.00  0.00    -0.002 C 
ATOM     32  C   UNL A   1      48.193  25.585  26.037  1.00  0.00     0.052 C 
ATOM     33  H   UNL A   1      46.640  24.138  25.992  1.00  0.00     0.034 H 
ATOM     34  H   UNL A   1      47.881  23.837  27.193  1.00  0.00     0.034 H 
ATOM     35  O   UNL A   1      48.577  26.761  26.771  1.00  0.00    -0.368 OA
ATOM     36  H   UNL A   1      49.090  25.068  25.772  1.00  0.00     0.057 H 
ATOM     37  H   UNL A   1      47.613  25.959  25.218  1.00  0.00     0.057 H 
BRANCH  18  38
ATOM     38  C   UNL A   1      44.159  26.336  31.790  1.00  0.00    -0.029 C 
ATOM     39  H   UNL A   1      44.494  27.286  31.432  1.00  0.00     0.031 H 
ATOM     40  H   UNL A   1      43.104  26.272  31.956  1.00  0.00     0.031 H 
BRANCH  38  41
ATOM     41  C   UNL A   1      44.800  26.102  33.154  1.00  0.00    -0.061 C 
ATOM     42  H   UNL A   1      45.037  25.064  33.263  1.00  0.00     0.023 H 
ATOM     43  H   UNL A   1      44.117  26.394  33.925  1.00  0.00     0.023 H 
ATOM     44  H   UNL A   1      45.696  26.682  33.232  1.00  0.00     0.023 H 
ENDBRANCH  38  41
ENDBRANCH  18  38
BRANCH  17  45
ATOM     45  C   UNL A   1      48.234  28.474  28.394  1.00  0.00    -0.020 C 
ATOM     46  H   UNL A   1      48.062  28.048  29.360  1.00  0.00     0.030 H 
ATOM     47  H   UNL A   1      47.820  29.453  28.273  1.00  0.00     0.030 H 
BRANCH  45  48
ATOM     48  C   UNL A   1      49.748  28.630  28.209  1.00  0.00    -0.062 C 
ATOM     49  H   UNL A   1      50.029  29.642  28.410  1.00  0.00     0.023 H 
ATOM     50  H   UNL A   1      50.012  28.379  27.203  1.00  0.00     0.023 H 
ATOM     51  H   UNL A   1      50.259  27.977  28.885  1.00  0.00     0.023 H 
ENDBRANCH  45  48
ENDBRANCH  17  45
ENDBRANCH  14  17
ENDBRANCH  11  14
ENDBRANCH   7  10
ENDBRANCH   4   7
ENDBRANCH   1   4
BRANCH   1  52
ATOM     52  C   UNL A   1      43.891  23.820  25.359  1.00  0.00    -0.052 C 
ATOM     53  H   UNL A   1      43.984  24.167  26.368  1.00  0.00     0.027 H 
ATOM     54  H   UNL A   1      44.817  23.847  24.824  1.00  0.00     0.027 H 
BRANCH  52  55
ATOM     55  C   UNL A   1      43.449  22.358  25.395  1.00  0.00    -0.036 C 
ATOM     56  H   UNL A   1      44.316  21.745  25.270  1.00  0.00     0.028 H 
ATOM     57  H   UNL A   1      42.731  22.243  24.611  1.00  0.00     0.028 H 
BRANCH  55  58
ATOM     58  C   UNL A   1      42.744  21.928  26.688  1.00  0.00     0.018 C 
ATOM     59  H   UNL A   1      43.022  22.609  27.465  1.00  0.00     0.049 H 
ATOM     60  H   UNL A   1      43.054  20.924  26.891  1.00  0.00     0.049 H 
BRANCH  58  61
ATOM     61  N   UNL A   1      41.299  21.910  26.593  1.00  0.00    -0.352 N 
ATOM     62  C   UNL A   1      40.344  22.887  26.696  1.00  0.00     0.251 C 
ATOM     63  H   UNL A   1      40.927  21.015  26.419  1.00  0.00     0.163 HD
ATOM     64  O   UNL A   1      39.180  22.563  26.443  1.00  0.00    -0.269 OA
BRANCH  62  65
ATOM     65  C   UNL A   1      40.613  24.271  27.174  1.00  0.00     0.039 A 
ATOM     66  C   UNL A   1      41.533  24.612  28.161  1.00  0.00    -0.049 A 
ATOM     67  C   UNL A   1      39.821  25.294  26.620  1.00  0.00    -0.049 A 
ATOM     68  C   UNL A   1      41.536  25.882  28.709  1.00  0.00    -0.053 A 
ATOM     69  H   UNL A   1      42.219  23.912  28.485  1.00  0.00     0.063 H 
ATOM     70  C   UNL A   1      39.876  26.596  27.112  1.00  0.00    -0.053 A 
ATOM     71  H   UNL A   1      39.188  25.075  25.835  1.00  0.00     0.063 H 
ATOM     72  C   UNL A   1      40.691  26.873  28.201  1.00  0.00    -0.014 A 
ATOM     73  H   UNL A   1      42.165  26.100  29.499  1.00  0.00     0.063 H 
ATOM     74  H   UNL A   1      39.316  27.344  26.674  1.00  0.00     0.063 H 
BRANCH  72  75
ATOM     75  C   UNL A   1      40.830  28.204  28.786  1.00  0.00     0.031 A 
ATOM     76  C   UNL A   1      42.047  28.926  28.327  1.00  0.00     0.074 A 
ATOM     77  C   UNL A   1      39.958  28.770  29.645  1.00  0.00     0.049 A 
ATOM     78  N   UNL A   1      43.077  29.250  29.038  1.00  0.00    -0.248 NA
ATOM     79  C   UNL A   1      42.212  29.176  26.888  1.00  0.00    -0.034 C 
ATOM     80  C   UNL A   1      38.613  28.308  29.992  1.00  0.00    -0.036 A 
ATOM     81  N   UNL A   1      40.071  29.942  30.341  1.00  0.00    -0.354 N 
ATOM     82  C   UNL A   1      43.945  29.914  28.175  1.00  0.00     0.074 A 
ATOM     83  C   UNL A   1      43.433  29.716  26.846  1.00  0.00    -0.034 C 
ATOM     84  H   UNL A   1      41.557  28.985  26.113  1.00  0.00     0.065 H 
ATOM     85  C   UNL A   1      37.953  29.297  30.634  1.00  0.00    -0.036 A 
ATOM     86  H   UNL A   1      38.230  27.373  29.780  1.00  0.00     0.065 H 
ATOM     87  C   UNL A   1      38.877  30.390  30.888  1.00  0.00     0.049 A 
ATOM     88  H   UNL A   1      40.923  30.426  30.444  1.00  0.00     0.167 HD
ATOM     89  C   UNL A   1      44.866  30.786  28.669  1.00  0.00     0.037 A 
ATOM     90  H   UNL A   1      43.939  29.957  25.980  1.00  0.00     0.065 H 
ATOM     91  H   UNL A   1      36.956  29.279  30.900  1.00  0.00     0.065 H 
ATOM     92  C   UNL A   1      38.656  31.588  31.480  1.00  0.00     0.037 A 
ATOM     93  C   UNL A   1      45.065  30.581  30.079  1.00  0.00     0.049 A 
ATOM     94  C   UNL A   1      39.953  32.087  31.988  1.00  0.00     0.074 A 
ATOM     95  C   UNL A   1      45.782  29.728  30.887  1.00  0.00    -0.036 A 
ATOM     96  N   UNL A   1      44.116  31.181  30.859  1.00  0.00    -0.354 N 
ATOM     97  N   UNL A   1      40.610  31.523  32.964  1.00  0.00    -0.248 NA
ATOM     98  C   UNL A   1      40.702  33.073  31.214  1.00  0.00    -0.034 C 
ATOM     99  C   UNL A   1      45.131  29.738  32.159  1.00  0.00    -0.036 A 
ATOM    100  H   UNL A   1      46.622  29.188  30.626  1.00  0.00     0.065 H 
ATOM    101  C   UNL A   1      44.054  30.618  32.103  1.00  0.00     0.049 A 
ATOM    102  H   UNL A   1      43.546  31.926  30.560  1.00  0.00     0.167 HD
ATOM    103  C   UNL A   1      41.932  31.754  32.653  1.00  0.00     0.074 A 
ATOM    104  C   UNL A   1      41.926  32.855  31.700  1.00  0.00    -0.034 C 
ATOM    105  H   UNL A   1      40.379  33.743  30.499  1.00  0.00     0.065 H 
ATOM    106  H   UNL A   1      45.413  29.185  32.984  1.00  0.00     0.065 H 
ATOM    107  C   UNL A   1      42.884  30.817  32.922  1.00  0.00     0.037 A 
ATOM    108  H   UNL A   1      42.762  33.397  31.433  1.00  0.00     0.065 H 
BRANCH  89 109
ATOM    109  C   UNL A   1      45.190  32.126  28.039  1.00  0.00     0.064 A 
ATOM    110  C   UNL A   1      44.144  33.050  27.819  1.00  0.00     0.173 A 
ATOM    111  C   UNL A   1      46.387  32.396  27.341  1.00  0.00     0.173 A 
ATOM    112  F   UNL A   1      42.952  32.887  28.411  1.00  0.00    -0.203 F 
ATOM    113  C   UNL A   1      44.268  34.110  26.914  1.00  0.00     0.198 A 
ATOM    114  C   UNL A   1      46.522  33.482  26.476  1.00  0.00     0.198 A 
ATOM    115  F   UNL A   1      47.435  31.564  27.372  1.00  0.00    -0.203 F 
ATOM    116  F   UNL A   1      43.210  34.888  26.649  1.00  0.00    -0.200 F 
ATOM    117  C   UNL A   1      45.455  34.320  26.239  1.00  0.00     0.200 A 
ATOM    118  F   UNL A   1      47.674  33.652  25.810  1.00  0.00    -0.200 F 
ATOM    119  F   UNL A   1      45.559  35.296  25.327  1.00  0.00    -0.200 F 
ENDBRANCH  89 109
BRANCH  92 120
ATOM    120  C   UNL A   1      37.466  32.467  31.385  1.00  0.00     0.064 A 
ATOM    121  C   UNL A   1      37.197  33.180  30.202  1.00  0.00     0.173 A 
ATOM    122  C   UNL A   1      36.410  32.368  32.310  1.00  0.00     0.173 A 
ATOM    123  F   UNL A   1      38.141  33.302  29.257  1.00  0.00    -0.203 F 
ATOM    124  C   UNL A   1      35.927  33.698  29.931  1.00  0.00     0.198 A 
ATOM    125  C   UNL A   1      35.145  32.893  32.040  1.00  0.00     0.198 A 
ATOM    126  F   UNL A   1      36.552  31.671  33.446  1.00  0.00    -0.203 F 
ATOM    127  F   UNL A   1      35.686  34.290  28.752  1.00  0.00    -0.200 F 
ATOM    128  C   UNL A   1      34.897  33.536  30.841  1.00  0.00     0.200 A 
ATOM    129  F   UNL A   1      34.148  32.705  32.916  1.00  0.00    -0.200 F 
ATOM    130  F   UNL A   1      33.659  33.956  30.545  1.00  0.00    -0.200 F 
ENDBRANCH  92 120
BRANCH 107 131
ATOM    131  C   UNL A   1      42.601  29.840  34.016  1.00  0.00     0.064 A 
ATOM    132  C   UNL A   1      41.961  28.604  33.832  1.00  0.00     0.173 A 
ATOM    133  C   UNL A   1      43.075  30.145  35.298  1.00  0.00     0.173 A 
ATOM    134  F   UNL A   1      41.546  28.216  32.619  1.00  0.00    -0.203 F 
ATOM    135  C   UNL A   1      41.780  27.727  34.900  1.00  0.00     0.198 A 
ATOM    136  C   UNL A   1      42.924  29.253  36.353  1.00  0.00     0.198 A 
ATOM    137  F   UNL A   1      43.724  31.299  35.517  1.00  0.00    -0.203 F 
ATOM    138  F   UNL A   1      41.155  26.555  34.709  1.00  0.00    -0.200 F 
ATOM    139  C   UNL A   1      42.269  28.049  36.157  1.00  0.00     0.200 A 
ATOM    140  F   UNL A   1      43.435  29.552  37.555  1.00  0.00    -0.200 F 
ATOM    141  F   UNL A   1      42.130  27.188  37.175  1.00  0.00    -0.200 F 
ENDBRANCH 107 131
ENDBRANCH  72  75
ENDBRANCH  62  65
ENDBRANCH  58  61
ENDBRANCH  55  58
ENDBRANCH  52  55
ENDBRANCH   1  52
TORSDOF 18
ENDMDL
