MODEL 1
REMARK VINA RESULT:     -12.3      0.000      0.000
REMARK SMILES O=C(NCCCCCCNC(=O)c1cccc(Nc2ccc([N+](=O)[O-])cc2)c1)c1ccc(-c2c3nc(c(-c4c(F)c(F)c(F)c(F)c4F)c4ccc([nH]4)c(-c4c(F)c(F)c(F)c(F)c4F)c4nc(c(-c5c(F)c(F)c(F)c(F)c5F)c5ccc2[nH]5)C=C4)C=C3)cc1
REMARK SMILES IDX 7 1 6 4 5 7 4 10 3 13 1 14 2 15 29 17 30 18 91 19 31 20
REMARK SMILES IDX 90 22 32 24 33 27 34 28 84 29 35 30 89 31 83 32 85 33 36 34
REMARK SMILES IDX 88 35 82 37 81 39 37 41 69 44 49 45 68 46 50 47 53 48 67 49
REMARK SMILES IDX 86 50 51 51 52 53 66 55 87 56 54 59 38 61 39 62 47 63 40 64
REMARK SMILES IDX 41 65 45 66 48 67 42 68 43 69 46 70 44 71 70 72 71 73 79 74
REMARK SMILES IDX 72 75 73 76 77 77 80 78 74 79 75 80 78 81 76 82 55 83 56 84
REMARK SMILES IDX 64 85 57 86 58 87 62 88 65 89 59 90 60 91 63 92 61 93 8 94
REMARK SMILES IDX 9 97 10 100 11 101 12 103 13 104 14 105 28 106 15 107 17 109
REMARK SMILES IDX 16 111 18 114 19 116 20 117 27 118 21 119 26 121 22 123
REMARK SMILES IDX 23 126 24 127 25 128
REMARK H PARENT 7 2 7 3 6 5 6 6 5 8 5 9 4 11 4 12 3 16 30 21 91 23 31 25 90 26
REMARK H PARENT 89 36 83 38 85 40 88 42 82 43 50 52 53 54 86 57 51 58 87 60
REMARK H PARENT 8 95 8 96 9 98 9 99 10 102 14 108 28 110 15 112 16 113 18 115
REMARK H PARENT 20 120 27 122 21 124 26 125
REMARK Flexibility Score: inf
ROOT
ATOM      1  C   UNL A   1      32.992  30.144  26.535  1.00  0.00    -0.052 C 
ATOM      2  H   UNL A   1      33.406  30.645  27.385  1.00  0.00     0.027 H 
ATOM      3  H   UNL A   1      33.535  30.301  25.627  1.00  0.00     0.027 H 
ENDROOT
BRANCH   1   4
ATOM      4  C   UNL A   1      31.594  30.718  26.288  1.00  0.00    -0.052 C 
ATOM      5  H   UNL A   1      31.381  30.627  25.243  1.00  0.00     0.027 H 
ATOM      6  H   UNL A   1      30.931  30.157  26.913  1.00  0.00     0.027 H 
BRANCH   4   7
ATOM      7  C   UNL A   1      31.404  32.181  26.681  1.00  0.00    -0.036 C 
ATOM      8  H   UNL A   1      30.993  32.700  25.841  1.00  0.00     0.028 H 
ATOM      9  H   UNL A   1      30.760  32.180  27.536  1.00  0.00     0.028 H 
BRANCH   7  10
ATOM     10  C   UNL A   1      32.673  32.905  27.107  1.00  0.00     0.018 C 
ATOM     11  H   UNL A   1      33.155  32.328  27.870  1.00  0.00     0.049 H 
ATOM     12  H   UNL A   1      33.289  33.010  26.239  1.00  0.00     0.049 H 
BRANCH  10  13
ATOM     13  N   UNL A   1      32.420  34.238  27.626  1.00  0.00    -0.352 N 
ATOM     14  O   UNL A   1      32.600  35.969  29.068  1.00  0.00    -0.269 OA
ATOM     15  C   UNL A   1      33.030  34.891  28.671  1.00  0.00     0.251 C 
ATOM     16  H   UNL A   1      31.712  34.746  27.165  1.00  0.00     0.163 HD
BRANCH  15  17
ATOM     17  C   UNL A   1      34.196  34.271  29.339  1.00  0.00     0.039 A 
ATOM     18  C   UNL A   1      35.492  34.540  28.898  1.00  0.00    -0.049 A 
ATOM     19  C   UNL A   1      33.987  33.406  30.418  1.00  0.00    -0.049 A 
ATOM     20  C   UNL A   1      36.562  33.833  29.433  1.00  0.00    -0.053 A 
ATOM     21  H   UNL A   1      35.656  35.262  28.178  1.00  0.00     0.063 H 
ATOM     22  C   UNL A   1      35.076  32.766  31.017  1.00  0.00    -0.053 A 
ATOM     23  H   UNL A   1      33.031  33.240  30.770  1.00  0.00     0.063 H 
ATOM     24  C   UNL A   1      36.370  32.951  30.509  1.00  0.00    -0.014 A 
ATOM     25  H   UNL A   1      37.506  33.958  29.035  1.00  0.00     0.063 H 
ATOM     26  H   UNL A   1      34.927  32.155  31.835  1.00  0.00     0.063 H 
BRANCH  24  27
ATOM     27  C   UNL A   1      37.556  32.296  31.120  1.00  0.00     0.031 A 
ATOM     28  C   UNL A   1      38.010  32.634  32.511  1.00  0.00     0.074 A 
ATOM     29  C   UNL A   1      38.194  31.344  30.412  1.00  0.00     0.049 A 
ATOM     30  N   UNL A   1      38.994  32.118  33.204  1.00  0.00    -0.248 NA
ATOM     31  C   UNL A   1      37.271  33.691  33.218  1.00  0.00    -0.034 C 
ATOM     32  C   UNL A   1      37.855  30.948  29.042  1.00  0.00    -0.036 A 
ATOM     33  N   UNL A   1      39.240  30.524  30.744  1.00  0.00    -0.354 N 
ATOM     34  C   UNL A   1      38.997  32.786  34.422  1.00  0.00     0.074 A 
ATOM     35  C   UNL A   1      37.939  33.772  34.361  1.00  0.00    -0.034 C 
ATOM     36  H   UNL A   1      36.448  34.230  32.907  1.00  0.00     0.065 H 
ATOM     37  C   UNL A   1      38.642  29.928  28.671  1.00  0.00    -0.036 A 
ATOM     38  H   UNL A   1      37.126  31.383  28.457  1.00  0.00     0.065 H 
ATOM     39  C   UNL A   1      39.581  29.640  29.749  1.00  0.00     0.049 A 
ATOM     40  H   UNL A   1      39.703  30.563  31.612  1.00  0.00     0.167 HD
ATOM     41  C   UNL A   1      39.803  32.585  35.493  1.00  0.00     0.037 A 
ATOM     42  H   UNL A   1      37.731  34.451  35.111  1.00  0.00     0.065 H 
ATOM     43  H   UNL A   1      38.591  29.429  27.769  1.00  0.00     0.065 H 
ATOM     44  C   UNL A   1      40.551  28.709  29.701  1.00  0.00     0.037 A 
ATOM     45  C   UNL A   1      40.855  31.600  35.546  1.00  0.00     0.049 A 
ATOM     46  C   UNL A   1      41.437  28.522  30.899  1.00  0.00     0.074 A 
ATOM     47  C   UNL A   1      41.723  31.317  36.588  1.00  0.00    -0.036 A 
ATOM     48  N   UNL A   1      41.182  30.736  34.511  1.00  0.00    -0.354 N 
ATOM     49  N   UNL A   1      41.412  29.144  32.051  1.00  0.00    -0.248 NA
ATOM     50  C   UNL A   1      42.487  27.501  30.788  1.00  0.00    -0.034 C 
ATOM     51  C   UNL A   1      42.598  30.309  36.170  1.00  0.00    -0.036 A 
ATOM     52  H   UNL A   1      41.723  31.771  37.515  1.00  0.00     0.065 H 
ATOM     53  C   UNL A   1      42.246  29.929  34.886  1.00  0.00     0.049 A 
ATOM     54  H   UNL A   1      40.726  30.701  33.639  1.00  0.00     0.167 HD
ATOM     55  C   UNL A   1      42.430  28.585  32.808  1.00  0.00     0.074 A 
ATOM     56  C   UNL A   1      43.034  27.551  31.994  1.00  0.00    -0.034 C 
ATOM     57  H   UNL A   1      42.732  26.903  29.985  1.00  0.00     0.065 H 
ATOM     58  H   UNL A   1      43.374  29.916  36.725  1.00  0.00     0.065 H 
ATOM     59  C   UNL A   1      42.836  28.905  34.061  1.00  0.00     0.037 A 
ATOM     60  H   UNL A   1      43.795  26.931  32.312  1.00  0.00     0.065 H 
BRANCH  41  61
ATOM     61  C   UNL A   1      39.584  33.447  36.703  1.00  0.00     0.064 A 
ATOM     62  C   UNL A   1      38.728  33.049  37.741  1.00  0.00     0.173 A 
ATOM     63  C   UNL A   1      40.283  34.655  36.858  1.00  0.00     0.173 A 
ATOM     64  F   UNL A   1      38.029  31.909  37.640  1.00  0.00    -0.203 F 
ATOM     65  C   UNL A   1      38.567  33.836  38.880  1.00  0.00     0.198 A 
ATOM     66  C   UNL A   1      40.139  35.426  38.009  1.00  0.00     0.198 A 
ATOM     67  F   UNL A   1      41.120  35.079  35.899  1.00  0.00    -0.203 F 
ATOM     68  F   UNL A   1      37.717  33.453  39.842  1.00  0.00    -0.200 F 
ATOM     69  C   UNL A   1      39.278  35.018  39.016  1.00  0.00     0.200 A 
ATOM     70  F   UNL A   1      40.837  36.562  38.145  1.00  0.00    -0.200 F 
ATOM     71  F   UNL A   1      39.131  35.767  40.118  1.00  0.00    -0.200 F 
ENDBRANCH  41  61
BRANCH  44  72
ATOM     72  C   UNL A   1      40.735  27.897  28.471  1.00  0.00     0.064 A 
ATOM     73  C   UNL A   1      41.541  28.348  27.418  1.00  0.00     0.173 A 
ATOM     74  C   UNL A   1      40.108  26.649  28.327  1.00  0.00     0.173 A 
ATOM     75  F   UNL A   1      42.148  29.541  27.501  1.00  0.00    -0.203 F 
ATOM     76  C   UNL A   1      41.696  27.591  26.259  1.00  0.00     0.198 A 
ATOM     77  C   UNL A   1      40.291  25.880  27.182  1.00  0.00     0.198 A 
ATOM     78  F   UNL A   1      39.332  26.170  29.311  1.00  0.00    -0.203 F 
ATOM     79  F   UNL A   1      42.434  28.066  25.246  1.00  0.00    -0.200 F 
ATOM     80  C   UNL A   1      41.077  26.356  26.144  1.00  0.00     0.200 A 
ATOM     81  F   UNL A   1      39.706  24.678  27.085  1.00  0.00    -0.200 F 
ATOM     82  F   UNL A   1      41.232  25.626  25.031  1.00  0.00    -0.200 F 
ENDBRANCH  44  72
BRANCH  59  83
ATOM     83  C   UNL A   1      43.973  28.108  34.628  1.00  0.00     0.064 A 
ATOM     84  C   UNL A   1      43.753  26.909  35.324  1.00  0.00     0.173 A 
ATOM     85  C   UNL A   1      45.296  28.544  34.469  1.00  0.00     0.173 A 
ATOM     86  F   UNL A   1      42.505  26.460  35.518  1.00  0.00    -0.203 F 
ATOM     87  C   UNL A   1      44.816  26.194  35.869  1.00  0.00     0.198 A 
ATOM     88  C   UNL A   1      46.359  27.810  34.989  1.00  0.00     0.198 A 
ATOM     89  F   UNL A   1      45.559  29.681  33.808  1.00  0.00    -0.203 F 
ATOM     90  F   UNL A   1      44.580  25.084  36.579  1.00  0.00    -0.200 F 
ATOM     91  C   UNL A   1      46.117  26.643  35.697  1.00  0.00     0.200 A 
ATOM     92  F   UNL A   1      47.617  28.240  34.814  1.00  0.00    -0.200 F 
ATOM     93  F   UNL A   1      47.140  25.954  36.223  1.00  0.00    -0.200 F 
ENDBRANCH  59  83
ENDBRANCH  24  27
ENDBRANCH  15  17
ENDBRANCH  10  13
ENDBRANCH   7  10
ENDBRANCH   4   7
ENDBRANCH   1   4
BRANCH   1  94
ATOM     94  C   UNL A   1      33.057  28.636  26.802  1.00  0.00    -0.036 C 
ATOM     95  H   UNL A   1      32.076  28.232  26.657  1.00  0.00     0.028 H 
ATOM     96  H   UNL A   1      33.421  28.528  27.802  1.00  0.00     0.028 H 
BRANCH  94  97
ATOM     97  C   UNL A   1      34.024  27.857  25.914  1.00  0.00     0.018 C 
ATOM     98  H   UNL A   1      35.024  28.167  26.135  1.00  0.00     0.049 H 
ATOM     99  H   UNL A   1      33.774  28.059  24.894  1.00  0.00     0.049 H 
BRANCH  97 100
ATOM    100  N   UNL A   1      33.919  26.425  26.126  1.00  0.00    -0.352 N 
ATOM    101  C   UNL A   1      33.159  25.503  25.457  1.00  0.00     0.251 C 
ATOM    102  H   UNL A   1      34.475  26.065  26.856  1.00  0.00     0.163 HD
ATOM    103  O   UNL A   1      33.046  24.361  25.893  1.00  0.00    -0.269 OA
BRANCH 101 104
ATOM    104  C   UNL A   1      32.469  25.882  24.209  1.00  0.00     0.041 A 
ATOM    105  C   UNL A   1      33.080  25.586  22.990  1.00  0.00    -0.049 A 
ATOM    106  C   UNL A   1      31.251  26.575  24.247  1.00  0.00    -0.026 A 
ATOM    107  C   UNL A   1      32.446  25.945  21.806  1.00  0.00    -0.059 A 
ATOM    108  H   UNL A   1      33.993  25.106  22.968  1.00  0.00     0.063 H 
ATOM    109  C   UNL A   1      30.605  26.946  23.063  1.00  0.00     0.039 A 
ATOM    110  H   UNL A   1      30.828  26.814  25.157  1.00  0.00     0.065 H 
ATOM    111  C   UNL A   1      31.215  26.609  21.846  1.00  0.00    -0.039 A 
ATOM    112  H   UNL A   1      32.882  25.721  20.898  1.00  0.00     0.062 H 
ATOM    113  H   UNL A   1      30.746  26.855  20.960  1.00  0.00     0.064 H 
BRANCH 109 114
ATOM    114  N   UNL A   1      29.366  27.609  23.142  1.00  0.00    -0.356 N 
ATOM    115  H   UNL A   1      28.635  27.079  23.533  1.00  0.00     0.167 HD
BRANCH 114 116
ATOM    116  C   UNL A   1      29.012  28.911  22.750  1.00  0.00     0.039 A 
ATOM    117  C   UNL A   1      27.853  29.489  23.284  1.00  0.00    -0.032 A 
ATOM    118  C   UNL A   1      29.835  29.693  21.929  1.00  0.00    -0.032 A 
ATOM    119  C   UNL A   1      27.542  30.828  23.039  1.00  0.00     0.018 A 
ATOM    120  H   UNL A   1      27.221  28.918  23.867  1.00  0.00     0.065 H 
ATOM    121  C   UNL A   1      29.528  31.032  21.669  1.00  0.00     0.018 A 
ATOM    122  H   UNL A   1      30.679  29.274  21.509  1.00  0.00     0.065 H 
ATOM    123  C   UNL A   1      28.391  31.603  22.244  1.00  0.00     0.269 A 
ATOM    124  H   UNL A   1      26.689  31.245  23.443  1.00  0.00     0.070 H 
ATOM    125  H   UNL A   1      30.139  31.595  21.057  1.00  0.00     0.070 H 
BRANCH 123 126
ATOM    126  N   UNL A   1      28.110  33.005  22.044  1.00  0.00     0.062 N 
ATOM    127  O   UNL A   1      28.403  33.828  22.885  1.00  0.00    -0.258 OA
ATOM    128  O   UNL A   1      27.539  33.454  20.876  1.00  0.00    -0.258 OA
ENDBRANCH 123 126
ENDBRANCH 114 116
ENDBRANCH 109 114
ENDBRANCH 101 104
ENDBRANCH  97 100
ENDBRANCH  94  97
ENDBRANCH   1  94
TORSDOF 16
ENDMDL
MODEL 2
REMARK VINA RESULT:     -12.2      1.718      3.993
REMARK SMILES O=C(NCCCCCCNC(=O)c1cccc(Nc2ccc([N+](=O)[O-])cc2)c1)c1ccc(-c2c3nc(c(-c4c(F)c(F)c(F)c(F)c4F)c4ccc([nH]4)c(-c4c(F)c(F)c(F)c(F)c4F)c4nc(c(-c5c(F)c(F)c(F)c(F)c5F)c5ccc2[nH]5)C=C4)C=C3)cc1
REMARK SMILES IDX 7 1 6 4 5 7 4 10 3 13 1 14 2 15 29 17 30 18 91 19 31 20
REMARK SMILES IDX 90 22 32 24 33 27 34 28 84 29 35 30 89 31 83 32 85 33 36 34
REMARK SMILES IDX 88 35 82 37 81 39 37 41 69 44 49 45 68 46 50 47 53 48 67 49
REMARK SMILES IDX 86 50 51 51 52 53 66 55 87 56 54 59 38 61 39 62 47 63 40 64
REMARK SMILES IDX 41 65 45 66 48 67 42 68 43 69 46 70 44 71 70 72 71 73 79 74
REMARK SMILES IDX 72 75 73 76 77 77 80 78 74 79 75 80 78 81 76 82 55 83 56 84
REMARK SMILES IDX 64 85 57 86 58 87 62 88 65 89 59 90 60 91 63 92 61 93 8 94
REMARK SMILES IDX 9 97 10 100 11 101 12 103 13 104 14 105 28 106 15 107 17 109
REMARK SMILES IDX 16 111 18 114 19 116 20 117 27 118 21 119 26 121 22 123
REMARK SMILES IDX 23 126 24 127 25 128
REMARK H PARENT 7 2 7 3 6 5 6 6 5 8 5 9 4 11 4 12 3 16 30 21 91 23 31 25 90 26
REMARK H PARENT 89 36 83 38 85 40 88 42 82 43 50 52 53 54 86 57 51 58 87 60
REMARK H PARENT 8 95 8 96 9 98 9 99 10 102 14 108 28 110 15 112 16 113 18 115
REMARK H PARENT 20 120 27 122 21 124 26 125
REMARK Flexibility Score: inf
ROOT
ATOM      1  C   UNL A   1      33.320  30.235  26.837  1.00  0.00    -0.052 C 
ATOM      2  H   UNL A   1      33.785  30.883  27.552  1.00  0.00     0.027 H 
ATOM      3  H   UNL A   1      33.704  30.336  25.844  1.00  0.00     0.027 H 
ENDROOT
BRANCH   1   4
ATOM      4  C   UNL A   1      31.840  30.617  26.751  1.00  0.00    -0.052 C 
ATOM      5  H   UNL A   1      31.467  30.279  25.806  1.00  0.00     0.027 H 
ATOM      6  H   UNL A   1      31.368  30.153  27.592  1.00  0.00     0.027 H 
BRANCH   4   7
ATOM      7  C   UNL A   1      31.536  32.109  26.870  1.00  0.00    -0.036 C 
ATOM      8  H   UNL A   1      31.013  32.413  25.987  1.00  0.00     0.028 H 
ATOM      9  H   UNL A   1      30.963  32.227  27.765  1.00  0.00     0.028 H 
BRANCH   7  10
ATOM     10  C   UNL A   1      32.756  33.005  27.027  1.00  0.00     0.018 C 
ATOM     11  H   UNL A   1      33.471  32.504  27.648  1.00  0.00     0.049 H 
ATOM     12  H   UNL A   1      33.143  33.194  26.048  1.00  0.00     0.049 H 
BRANCH  10  13
ATOM     13  N   UNL A   1      32.443  34.291  27.628  1.00  0.00    -0.352 N 
ATOM     14  O   UNL A   1      32.528  35.926  29.185  1.00  0.00    -0.269 OA
ATOM     15  C   UNL A   1      33.006  34.892  28.728  1.00  0.00     0.251 C 
ATOM     16  H   UNL A   1      31.728  34.803  27.184  1.00  0.00     0.163 HD
BRANCH  15  17
ATOM     17  C   UNL A   1      34.178  34.269  29.381  1.00  0.00     0.039 A 
ATOM     18  C   UNL A   1      35.471  34.543  28.931  1.00  0.00    -0.049 A 
ATOM     19  C   UNL A   1      33.980  33.397  30.457  1.00  0.00    -0.049 A 
ATOM     20  C   UNL A   1      36.547  33.834  29.451  1.00  0.00    -0.053 A 
ATOM     21  H   UNL A   1      35.627  35.269  28.214  1.00  0.00     0.063 H 
ATOM     22  C   UNL A   1      35.076  32.755  31.042  1.00  0.00    -0.053 A 
ATOM     23  H   UNL A   1      33.028  33.228  30.816  1.00  0.00     0.063 H 
ATOM     24  C   UNL A   1      36.365  32.945  30.524  1.00  0.00    -0.014 A 
ATOM     25  H   UNL A   1      37.487  33.962  29.046  1.00  0.00     0.063 H 
ATOM     26  H   UNL A   1      34.935  32.138  31.858  1.00  0.00     0.063 H 
BRANCH  24  27
ATOM     27  C   UNL A   1      37.557  32.287  31.119  1.00  0.00     0.031 A 
ATOM     28  C   UNL A   1      38.035  32.631  32.502  1.00  0.00     0.074 A 
ATOM     29  C   UNL A   1      38.179  31.328  30.407  1.00  0.00     0.049 A 
ATOM     30  N   UNL A   1      39.027  32.114  33.182  1.00  0.00    -0.248 NA
ATOM     31  C   UNL A   1      37.313  33.696  33.213  1.00  0.00    -0.034 C 
ATOM     32  C   UNL A   1      37.816  30.924  29.046  1.00  0.00    -0.036 A 
ATOM     33  N   UNL A   1      39.226  30.504  30.728  1.00  0.00    -0.354 N 
ATOM     34  C   UNL A   1      39.054  32.790  34.395  1.00  0.00     0.074 A 
ATOM     35  C   UNL A   1      37.999  33.781  34.345  1.00  0.00    -0.034 C 
ATOM     36  H   UNL A   1      36.488  34.238  32.912  1.00  0.00     0.065 H 
ATOM     37  C   UNL A   1      38.592  29.898  28.669  1.00  0.00    -0.036 A 
ATOM     38  H   UNL A   1      37.080  31.360  28.470  1.00  0.00     0.065 H 
ATOM     39  C   UNL A   1      39.546  29.612  29.733  1.00  0.00     0.049 A 
ATOM     40  H   UNL A   1      39.702  30.546  31.589  1.00  0.00     0.167 HD
ATOM     41  C   UNL A   1      39.875  32.591  35.454  1.00  0.00     0.037 A 
ATOM     42  H   UNL A   1      37.807  34.466  35.094  1.00  0.00     0.065 H 
ATOM     43  H   UNL A   1      38.524  29.394  27.771  1.00  0.00     0.065 H 
ATOM     44  C   UNL A   1      40.510  28.676  29.676  1.00  0.00     0.037 A 
ATOM     45  C   UNL A   1      40.923  31.602  35.497  1.00  0.00     0.049 A 
ATOM     46  C   UNL A   1      41.415  28.491  30.860  1.00  0.00     0.074 A 
ATOM     47  C   UNL A   1      41.805  31.320  36.526  1.00  0.00    -0.036 A 
ATOM     48  N   UNL A   1      41.229  30.729  34.462  1.00  0.00    -0.354 N 
ATOM     49  N   UNL A   1      41.411  29.121  32.009  1.00  0.00    -0.248 NA
ATOM     50  C   UNL A   1      42.457  27.464  30.740  1.00  0.00    -0.034 C 
ATOM     51  C   UNL A   1      42.669  30.305  36.101  1.00  0.00    -0.036 A 
ATOM     52  H   UNL A   1      41.823  31.780  37.451  1.00  0.00     0.065 H 
ATOM     53  C   UNL A   1      42.295  29.919  34.825  1.00  0.00     0.049 A 
ATOM     54  H   UNL A   1      40.759  30.691  33.598  1.00  0.00     0.167 HD
ATOM     55  C   UNL A   1      42.438  28.562  32.753  1.00  0.00     0.074 A 
ATOM     56  C   UNL A   1      43.024  27.519  31.936  1.00  0.00    -0.034 C 
ATOM     57  H   UNL A   1      42.687  26.861  29.936  1.00  0.00     0.065 H 
ATOM     58  H   UNL A   1      43.452  29.911  36.646  1.00  0.00     0.065 H 
ATOM     59  C   UNL A   1      42.866  28.887  33.997  1.00  0.00     0.037 A 
ATOM     60  H   UNL A   1      43.787  26.897  32.246  1.00  0.00     0.065 H 
BRANCH  41  61
ATOM     61  C   UNL A   1      39.680  33.462  36.663  1.00  0.00     0.064 A 
ATOM     62  C   UNL A   1      40.321  34.704  36.783  1.00  0.00     0.173 A 
ATOM     63  C   UNL A   1      38.796  33.080  37.685  1.00  0.00     0.173 A 
ATOM     64  F   UNL A   1      41.183  35.112  35.840  1.00  0.00    -0.203 F 
ATOM     65  C   UNL A   1      40.098  35.523  37.887  1.00  0.00     0.198 A 
ATOM     66  C   UNL A   1      38.556  33.913  38.776  1.00  0.00     0.198 A 
ATOM     67  F   UNL A   1      38.151  31.905  37.617  1.00  0.00    -0.203 F 
ATOM     68  F   UNL A   1      40.749  36.689  37.997  1.00  0.00    -0.200 F 
ATOM     69  C   UNL A   1      39.211  35.130  38.878  1.00  0.00     0.200 A 
ATOM     70  F   UNL A   1      37.688  33.538  39.725  1.00  0.00    -0.200 F 
ATOM     71  F   UNL A   1      38.989  35.925  39.934  1.00  0.00    -0.200 F 
ENDBRANCH  41  61
BRANCH  44  72
ATOM     72  C   UNL A   1      40.671  27.855  28.448  1.00  0.00     0.064 A 
ATOM     73  C   UNL A   1      40.039  26.611  28.320  1.00  0.00     0.173 A 
ATOM     74  C   UNL A   1      41.458  28.302  27.376  1.00  0.00     0.173 A 
ATOM     75  F   UNL A   1      39.290  26.133  29.324  1.00  0.00    -0.203 F 
ATOM     76  C   UNL A   1      40.207  25.836  27.175  1.00  0.00     0.198 A 
ATOM     77  C   UNL A   1      41.598  27.541  26.220  1.00  0.00     0.198 A 
ATOM     78  F   UNL A   1      42.077  29.490  27.447  1.00  0.00    -0.203 F 
ATOM     79  F   UNL A   1      39.632  24.628  27.097  1.00  0.00    -0.200 F 
ATOM     80  C   UNL A   1      40.981  26.304  26.124  1.00  0.00     0.200 A 
ATOM     81  F   UNL A   1      42.331  28.007  25.198  1.00  0.00    -0.200 F 
ATOM     82  F   UNL A   1      41.137  25.560  25.019  1.00  0.00    -0.200 F 
ENDBRANCH  44  72
BRANCH  59  83
ATOM     83  C   UNL A   1      44.007  28.088  34.551  1.00  0.00     0.064 A 
ATOM     84  C   UNL A   1      43.793  26.894  35.257  1.00  0.00     0.173 A 
ATOM     85  C   UNL A   1      45.330  28.516  34.369  1.00  0.00     0.173 A 
ATOM     86  F   UNL A   1      42.545  26.452  35.473  1.00  0.00    -0.203 F 
ATOM     87  C   UNL A   1      44.861  26.176  35.789  1.00  0.00     0.198 A 
ATOM     88  C   UNL A   1      46.397  27.780  34.877  1.00  0.00     0.198 A 
ATOM     89  F   UNL A   1      45.588  29.648  33.698  1.00  0.00    -0.203 F 
ATOM     90  F   UNL A   1      44.630  25.071  36.510  1.00  0.00    -0.200 F 
ATOM     91  C   UNL A   1      46.161  26.617  35.595  1.00  0.00     0.200 A 
ATOM     92  F   UNL A   1      47.654  28.202  34.679  1.00  0.00    -0.200 F 
ATOM     93  F   UNL A   1      47.188  25.927  36.109  1.00  0.00    -0.200 F 
ENDBRANCH  59  83
ENDBRANCH  24  27
ENDBRANCH  15  17
ENDBRANCH  10  13
ENDBRANCH   7  10
ENDBRANCH   4   7
ENDBRANCH   1   4
BRANCH   1  94
ATOM     94  C   UNL A   1      33.614  28.790  27.253  1.00  0.00    -0.036 C 
ATOM     95  H   UNL A   1      32.862  28.487  27.952  1.00  0.00     0.028 H 
ATOM     96  H   UNL A   1      34.603  28.794  27.661  1.00  0.00     0.028 H 
BRANCH  94  97
ATOM     97  C   UNL A   1      33.633  27.774  26.112  1.00  0.00     0.018 C 
ATOM     98  H   UNL A   1      32.654  27.357  26.004  1.00  0.00     0.049 H 
ATOM     99  H   UNL A   1      34.351  27.018  26.353  1.00  0.00     0.049 H 
BRANCH  97 100
ATOM    100  N   UNL A   1      34.027  28.381  24.854  1.00  0.00    -0.352 N 
ATOM    101  C   UNL A   1      33.354  28.417  23.661  1.00  0.00     0.251 C 
ATOM    102  H   UNL A   1      34.903  28.832  24.858  1.00  0.00     0.163 HD
ATOM    103  O   UNL A   1      33.918  28.807  22.644  1.00  0.00    -0.269 OA
BRANCH 101 104
ATOM    104  C   UNL A   1      31.945  27.979  23.596  1.00  0.00     0.041 A 
ATOM    105  C   UNL A   1      30.949  28.949  23.486  1.00  0.00    -0.049 A 
ATOM    106  C   UNL A   1      31.613  26.622  23.697  1.00  0.00    -0.026 A 
ATOM    107  C   UNL A   1      29.617  28.554  23.432  1.00  0.00    -0.059 A 
ATOM    108  H   UNL A   1      31.197  29.950  23.446  1.00  0.00     0.063 H 
ATOM    109  C   UNL A   1      30.276  26.211  23.648  1.00  0.00     0.039 A 
ATOM    110  H   UNL A   1      32.359  25.919  23.809  1.00  0.00     0.065 H 
ATOM    111  C   UNL A   1      29.289  27.196  23.501  1.00  0.00    -0.039 A 
ATOM    112  H   UNL A   1      28.871  29.261  23.339  1.00  0.00     0.062 H 
ATOM    113  H   UNL A   1      28.298  26.913  23.443  1.00  0.00     0.064 H 
BRANCH 109 114
ATOM    114  N   UNL A   1      29.983  24.836  23.718  1.00  0.00    -0.356 N 
ATOM    115  H   UNL A   1      29.054  24.597  23.499  1.00  0.00     0.167 HD
BRANCH 114 116
ATOM    116  C   UNL A   1      30.813  23.752  24.052  1.00  0.00     0.039 A 
ATOM    117  C   UNL A   1      30.872  23.331  25.387  1.00  0.00    -0.032 A 
ATOM    118  C   UNL A   1      31.499  23.010  23.082  1.00  0.00    -0.032 A 
ATOM    119  C   UNL A   1      31.565  22.171  25.742  1.00  0.00     0.018 A 
ATOM    120  H   UNL A   1      30.396  23.883  26.117  1.00  0.00     0.065 H 
ATOM    121  C   UNL A   1      32.204  21.853  23.428  1.00  0.00     0.018 A 
ATOM    122  H   UNL A   1      31.484  23.322  22.099  1.00  0.00     0.065 H 
ATOM    123  C   UNL A   1      32.217  21.424  24.756  1.00  0.00     0.269 A 
ATOM    124  H   UNL A   1      31.595  21.866  26.727  1.00  0.00     0.070 H 
ATOM    125  H   UNL A   1      32.710  21.319  22.705  1.00  0.00     0.070 H 
BRANCH 123 126
ATOM    126  N   UNL A   1      32.876  20.188  25.108  1.00  0.00     0.062 N 
ATOM    127  O   UNL A   1      34.084  20.133  25.215  1.00  0.00    -0.258 OA
ATOM    128  O   UNL A   1      32.153  19.049  25.372  1.00  0.00    -0.258 OA
ENDBRANCH 123 126
ENDBRANCH 114 116
ENDBRANCH 109 114
ENDBRANCH 101 104
ENDBRANCH  97 100
ENDBRANCH  94  97
ENDBRANCH   1  94
TORSDOF 16
ENDMDL
MODEL 3
REMARK VINA RESULT:     -12.0      0.492      7.359
REMARK SMILES O=C(NCCCCCCNC(=O)c1cccc(Nc2ccc([N+](=O)[O-])cc2)c1)c1ccc(-c2c3nc(c(-c4c(F)c(F)c(F)c(F)c4F)c4ccc([nH]4)c(-c4c(F)c(F)c(F)c(F)c4F)c4nc(c(-c5c(F)c(F)c(F)c(F)c5F)c5ccc2[nH]5)C=C4)C=C3)cc1
REMARK SMILES IDX 7 1 6 4 5 7 4 10 3 13 1 14 2 15 29 17 30 18 91 19 31 20
REMARK SMILES IDX 90 22 32 24 33 27 34 28 84 29 35 30 89 31 83 32 85 33 36 34
REMARK SMILES IDX 88 35 82 37 81 39 37 41 69 44 49 45 68 46 50 47 53 48 67 49
REMARK SMILES IDX 86 50 51 51 52 53 66 55 87 56 54 59 38 61 39 62 47 63 40 64
REMARK SMILES IDX 41 65 45 66 48 67 42 68 43 69 46 70 44 71 70 72 71 73 79 74
REMARK SMILES IDX 72 75 73 76 77 77 80 78 74 79 75 80 78 81 76 82 55 83 56 84
REMARK SMILES IDX 64 85 57 86 58 87 62 88 65 89 59 90 60 91 63 92 61 93 8 94
REMARK SMILES IDX 9 97 10 100 11 101 12 103 13 104 14 105 28 106 15 107 17 109
REMARK SMILES IDX 16 111 18 114 19 116 20 117 27 118 21 119 26 121 22 123
REMARK SMILES IDX 23 126 24 127 25 128
REMARK H PARENT 7 2 7 3 6 5 6 6 5 8 5 9 4 11 4 12 3 16 30 21 91 23 31 25 90 26
REMARK H PARENT 89 36 83 38 85 40 88 42 82 43 50 52 53 54 86 57 51 58 87 60
REMARK H PARENT 8 95 8 96 9 98 9 99 10 102 14 108 28 110 15 112 16 113 18 115
REMARK H PARENT 20 120 27 122 21 124 26 125
REMARK Flexibility Score: inf
ROOT
ATOM      1  C   UNL A   1      32.594  30.141  26.082  1.00  0.00    -0.052 C 
ATOM      2  H   UNL A   1      33.426  30.815  26.085  1.00  0.00     0.027 H 
ATOM      3  H   UNL A   1      32.266  29.858  25.103  1.00  0.00     0.027 H 
ENDROOT
BRANCH   1   4
ATOM      4  C   UNL A   1      31.406  30.859  26.727  1.00  0.00    -0.052 C 
ATOM      5  H   UNL A   1      30.510  30.482  26.279  1.00  0.00     0.027 H 
ATOM      6  H   UNL A   1      31.479  30.663  27.776  1.00  0.00     0.027 H 
BRANCH   4   7
ATOM      7  C   UNL A   1      31.399  32.380  26.584  1.00  0.00    -0.036 C 
ATOM      8  H   UNL A   1      31.187  32.616  25.562  1.00  0.00     0.028 H 
ATOM      9  H   UNL A   1      30.657  32.741  27.266  1.00  0.00     0.028 H 
BRANCH   7  10
ATOM     10  C   UNL A   1      32.700  33.070  26.968  1.00  0.00     0.018 C 
ATOM     11  H   UNL A   1      33.243  32.429  27.632  1.00  0.00     0.049 H 
ATOM     12  H   UNL A   1      33.241  33.259  26.065  1.00  0.00     0.049 H 
BRANCH  10  13
ATOM     13  N   UNL A   1      32.492  34.349  27.627  1.00  0.00    -0.352 N 
ATOM     14  O   UNL A   1      32.723  35.906  29.248  1.00  0.00    -0.269 OA
ATOM     15  C   UNL A   1      33.116  34.861  28.739  1.00  0.00     0.251 C 
ATOM     16  H   UNL A   1      31.808  34.930  27.219  1.00  0.00     0.163 HD
BRANCH  15  17
ATOM     17  C   UNL A   1      34.251  34.128  29.342  1.00  0.00     0.039 A 
ATOM     18  C   UNL A   1      34.026  33.119  30.279  1.00  0.00    -0.049 A 
ATOM     19  C   UNL A   1      35.556  34.460  28.967  1.00  0.00    -0.049 A 
ATOM     20  C   UNL A   1      35.102  32.549  30.949  1.00  0.00    -0.053 A 
ATOM     21  H   UNL A   1      33.065  32.796  30.474  1.00  0.00     0.063 H 
ATOM     22  C   UNL A   1      36.639  33.817  29.576  1.00  0.00    -0.053 A 
ATOM     23  H   UNL A   1      35.721  35.177  28.244  1.00  0.00     0.063 H 
ATOM     24  C   UNL A   1      36.421  32.878  30.594  1.00  0.00    -0.014 A 
ATOM     25  H   UNL A   1      34.930  31.878  31.714  1.00  0.00     0.063 H 
ATOM     26  H   UNL A   1      37.602  34.035  29.275  1.00  0.00     0.063 H 
BRANCH  24  27
ATOM     27  C   UNL A   1      37.542  32.167  31.262  1.00  0.00     0.031 A 
ATOM     28  C   UNL A   1      38.310  31.081  30.564  1.00  0.00     0.074 A 
ATOM     29  C   UNL A   1      37.893  32.555  32.504  1.00  0.00     0.049 A 
ATOM     30  N   UNL A   1      39.344  30.400  30.991  1.00  0.00    -0.248 NA
ATOM     31  C   UNL A   1      37.861  30.705  29.216  1.00  0.00    -0.034 C 
ATOM     32  C   UNL A   1      37.206  33.585  33.287  1.00  0.00    -0.036 A 
ATOM     33  N   UNL A   1      38.922  32.152  33.316  1.00  0.00    -0.354 N 
ATOM     34  C   UNL A   1      39.666  29.513  29.972  1.00  0.00     0.074 A 
ATOM     35  C   UNL A   1      38.695  29.717  28.917  1.00  0.00    -0.034 C 
ATOM     36  H   UNL A   1      37.096  31.103  28.649  1.00  0.00     0.065 H 
ATOM     37  C   UNL A   1      37.860  33.768  34.443  1.00  0.00    -0.036 A 
ATOM     38  H   UNL A   1      36.354  34.088  32.996  1.00  0.00     0.065 H 
ATOM     39  C   UNL A   1      38.973  32.829  34.510  1.00  0.00     0.049 A 
ATOM     40  H   UNL A   1      39.562  31.447  33.067  1.00  0.00     0.167 HD
ATOM     41  C   UNL A   1      40.684  28.621  29.919  1.00  0.00     0.037 A 
ATOM     42  H   UNL A   1      38.657  29.166  28.045  1.00  0.00     0.065 H 
ATOM     43  H   UNL A   1      37.614  34.461  35.167  1.00  0.00     0.065 H 
ATOM     44  C   UNL A   1      39.814  32.700  35.552  1.00  0.00     0.037 A 
ATOM     45  C   UNL A   1      41.648  28.423  30.973  1.00  0.00     0.049 A 
ATOM     46  C   UNL A   1      40.923  31.690  35.470  1.00  0.00     0.074 A 
ATOM     47  C   UNL A   1      42.719  27.546  31.013  1.00  0.00    -0.036 A 
ATOM     48  N   UNL A   1      41.656  29.114  32.177  1.00  0.00    -0.354 N 
ATOM     49  N   UNL A   1      41.229  30.877  34.489  1.00  0.00    -0.248 NA
ATOM     50  C   UNL A   1      41.804  31.582  36.639  1.00  0.00    -0.034 C 
ATOM     51  C   UNL A   1      43.352  27.680  32.254  1.00  0.00    -0.036 A 
ATOM     52  H   UNL A   1      43.003  26.904  30.257  1.00  0.00     0.065 H 
ATOM     53  C   UNL A   1      42.705  28.673  32.969  1.00  0.00     0.049 A 
ATOM     54  H   UNL A   1      41.012  29.814  32.431  1.00  0.00     0.167 HD
ATOM     55  C   UNL A   1      42.342  30.170  34.915  1.00  0.00     0.074 A 
ATOM     56  C   UNL A   1      42.677  30.673  36.231  1.00  0.00    -0.034 C 
ATOM     57  H   UNL A   1      41.755  32.082  37.540  1.00  0.00     0.065 H 
ATOM     58  H   UNL A   1      44.162  27.130  32.580  1.00  0.00     0.065 H 
ATOM     59  C   UNL A   1      43.022  29.185  34.279  1.00  0.00     0.037 A 
ATOM     60  H   UNL A   1      43.492  30.362  36.783  1.00  0.00     0.065 H 
BRANCH  41  61
ATOM     61  C   UNL A   1      40.816  27.782  28.680  1.00  0.00     0.064 A 
ATOM     62  C   UNL A   1      40.083  26.598  28.515  1.00  0.00     0.173 A 
ATOM     63  C   UNL A   1      41.637  28.198  27.619  1.00  0.00     0.173 A 
ATOM     64  F   UNL A   1      39.292  26.151  29.501  1.00  0.00    -0.203 F 
ATOM     65  C   UNL A   1      40.179  25.852  27.342  1.00  0.00     0.198 A 
ATOM     66  C   UNL A   1      41.711  27.462  26.438  1.00  0.00     0.198 A 
ATOM     67  F   UNL A   1      42.354  29.327  27.721  1.00  0.00    -0.203 F 
ATOM     68  F   UNL A   1      39.497  24.705  27.222  1.00  0.00    -0.200 F 
ATOM     69  C   UNL A   1      40.987  26.288  26.303  1.00  0.00     0.200 A 
ATOM     70  F   UNL A   1      42.481  27.893  25.429  1.00  0.00    -0.200 F 
ATOM     71  F   UNL A   1      41.069  25.575  25.171  1.00  0.00    -0.200 F 
ENDBRANCH  41  61
BRANCH  44  72
ATOM     72  C   UNL A   1      39.626  33.542  36.761  1.00  0.00     0.064 A 
ATOM     73  C   UNL A   1      38.804  33.124  37.816  1.00  0.00     0.173 A 
ATOM     74  C   UNL A   1      40.271  34.782  36.886  1.00  0.00     0.173 A 
ATOM     75  F   UNL A   1      38.154  31.954  37.736  1.00  0.00    -0.203 F 
ATOM     76  C   UNL A   1      38.616  33.925  38.940  1.00  0.00     0.198 A 
ATOM     77  C   UNL A   1      40.108  35.566  38.024  1.00  0.00     0.198 A 
ATOM     78  F   UNL A   1      41.074  35.224  35.907  1.00  0.00    -0.203 F 
ATOM     79  F   UNL A   1      37.787  33.525  39.913  1.00  0.00    -0.200 F 
ATOM     80  C   UNL A   1      39.273  35.142  39.046  1.00  0.00     0.200 A 
ATOM     81  F   UNL A   1      40.760  36.732  38.131  1.00  0.00    -0.200 F 
ATOM     82  F   UNL A   1      39.097  35.909  40.131  1.00  0.00    -0.200 F 
ENDBRANCH  44  72
BRANCH  59  83
ATOM     83  C   UNL A   1      44.207  28.609  34.995  1.00  0.00     0.064 A 
ATOM     84  C   UNL A   1      45.490  29.159  34.852  1.00  0.00     0.173 A 
ATOM     85  C   UNL A   1      44.057  27.498  35.839  1.00  0.00     0.173 A 
ATOM     86  F   UNL A   1      45.688  30.209  34.043  1.00  0.00    -0.203 F 
ATOM     87  C   UNL A   1      46.585  28.596  35.502  1.00  0.00     0.198 A 
ATOM     88  C   UNL A   1      45.150  26.957  36.511  1.00  0.00     0.198 A 
ATOM     89  F   UNL A   1      42.851  26.939  36.013  1.00  0.00    -0.203 F 
ATOM     90  F   UNL A   1      47.810  29.101  35.306  1.00  0.00    -0.200 F 
ATOM     91  C   UNL A   1      46.413  27.500  36.334  1.00  0.00     0.200 A 
ATOM     92  F   UNL A   1      44.980  25.904  37.323  1.00  0.00    -0.200 F 
ATOM     93  F   UNL A   1      47.469  26.958  36.958  1.00  0.00    -0.200 F 
ENDBRANCH  59  83
ENDBRANCH  24  27
ENDBRANCH  15  17
ENDBRANCH  10  13
ENDBRANCH   7  10
ENDBRANCH   4   7
ENDBRANCH   1   4
BRANCH   1  94
ATOM     94  C   UNL A   1      33.039  28.842  26.762  1.00  0.00    -0.036 C 
ATOM     95  H   UNL A   1      32.172  28.229  26.903  1.00  0.00     0.028 H 
ATOM     96  H   UNL A   1      33.511  29.133  27.677  1.00  0.00     0.028 H 
BRANCH  94  97
ATOM     97  C   UNL A   1      34.075  28.024  25.994  1.00  0.00     0.018 C 
ATOM     98  H   UNL A   1      35.053  28.348  26.280  1.00  0.00     0.049 H 
ATOM     99  H   UNL A   1      33.908  28.176  24.948  1.00  0.00     0.049 H 
BRANCH  97 100
ATOM    100  N   UNL A   1      33.952  26.604  26.266  1.00  0.00    -0.352 N 
ATOM    101  C   UNL A   1      33.200  25.659  25.620  1.00  0.00     0.251 C 
ATOM    102  H   UNL A   1      34.487  26.272  27.024  1.00  0.00     0.163 HD
ATOM    103  O   UNL A   1      33.066  24.539  26.102  1.00  0.00    -0.269 OA
BRANCH 101 104
ATOM    104  C   UNL A   1      32.543  25.989  24.340  1.00  0.00     0.041 A 
ATOM    105  C   UNL A   1      33.217  25.710  23.151  1.00  0.00    -0.049 A 
ATOM    106  C   UNL A   1      31.292  26.620  24.320  1.00  0.00    -0.026 A 
ATOM    107  C   UNL A   1      32.614  26.022  21.938  1.00  0.00    -0.059 A 
ATOM    108  H   UNL A   1      34.153  25.276  23.171  1.00  0.00     0.063 H 
ATOM    109  C   UNL A   1      30.676  26.943  23.106  1.00  0.00     0.039 A 
ATOM    110  H   UNL A   1      30.820  26.847  25.208  1.00  0.00     0.065 H 
ATOM    111  C   UNL A   1      31.351  26.623  21.920  1.00  0.00    -0.039 A 
ATOM    112  H   UNL A   1      33.098  25.809  21.051  1.00  0.00     0.062 H 
ATOM    113  H   UNL A   1      30.907  26.835  21.012  1.00  0.00     0.064 H 
BRANCH 109 114
ATOM    114  N   UNL A   1      29.404  27.545  23.127  1.00  0.00    -0.356 N 
ATOM    115  H   UNL A   1      28.650  26.919  23.219  1.00  0.00     0.167 HD
BRANCH 114 116
ATOM    116  C   UNL A   1      29.044  28.900  23.035  1.00  0.00     0.039 A 
ATOM    117  C   UNL A   1      29.902  29.867  23.576  1.00  0.00    -0.032 A 
ATOM    118  C   UNL A   1      27.912  29.326  22.328  1.00  0.00    -0.032 A 
ATOM    119  C   UNL A   1      29.660  31.228  23.380  1.00  0.00     0.018 A 
ATOM    120  H   UNL A   1      30.723  29.569  24.124  1.00  0.00     0.065 H 
ATOM    121  C   UNL A   1      27.655  30.686  22.134  1.00  0.00     0.018 A 
ATOM    122  H   UNL A   1      27.259  28.625  21.945  1.00  0.00     0.065 H 
ATOM    123  C   UNL A   1      28.544  31.635  22.644  1.00  0.00     0.269 A 
ATOM    124  H   UNL A   1      30.302  31.931  23.777  1.00  0.00     0.070 H 
ATOM    125  H   UNL A   1      26.815  30.987  21.616  1.00  0.00     0.070 H 
BRANCH 123 126
ATOM    126  N   UNL A   1      28.327  33.038  22.381  1.00  0.00     0.062 N 
ATOM    127  O   UNL A   1      28.766  33.890  23.126  1.00  0.00    -0.258 OA
ATOM    128  O   UNL A   1      27.653  33.453  21.256  1.00  0.00    -0.258 OA
ENDBRANCH 123 126
ENDBRANCH 114 116
ENDBRANCH 109 114
ENDBRANCH 101 104
ENDBRANCH  97 100
ENDBRANCH  94  97
ENDBRANCH   1  94
TORSDOF 16
ENDMDL
MODEL 4
REMARK VINA RESULT:     -12.0      1.715      4.262
REMARK SMILES O=C(NCCCCCCNC(=O)c1cccc(Nc2ccc([N+](=O)[O-])cc2)c1)c1ccc(-c2c3nc(c(-c4c(F)c(F)c(F)c(F)c4F)c4ccc([nH]4)c(-c4c(F)c(F)c(F)c(F)c4F)c4nc(c(-c5c(F)c(F)c(F)c(F)c5F)c5ccc2[nH]5)C=C4)C=C3)cc1
REMARK SMILES IDX 7 1 6 4 5 7 4 10 3 13 1 14 2 15 29 17 30 18 91 19 31 20
REMARK SMILES IDX 90 22 32 24 33 27 34 28 84 29 35 30 89 31 83 32 85 33 36 34
REMARK SMILES IDX 88 35 82 37 81 39 37 41 69 44 49 45 68 46 50 47 53 48 67 49
REMARK SMILES IDX 86 50 51 51 52 53 66 55 87 56 54 59 38 61 39 62 47 63 40 64
REMARK SMILES IDX 41 65 45 66 48 67 42 68 43 69 46 70 44 71 70 72 71 73 79 74
REMARK SMILES IDX 72 75 73 76 77 77 80 78 74 79 75 80 78 81 76 82 55 83 56 84
REMARK SMILES IDX 64 85 57 86 58 87 62 88 65 89 59 90 60 91 63 92 61 93 8 94
REMARK SMILES IDX 9 97 10 100 11 101 12 103 13 104 14 105 28 106 15 107 17 109
REMARK SMILES IDX 16 111 18 114 19 116 20 117 27 118 21 119 26 121 22 123
REMARK SMILES IDX 23 126 24 127 25 128
REMARK H PARENT 7 2 7 3 6 5 6 6 5 8 5 9 4 11 4 12 3 16 30 21 91 23 31 25 90 26
REMARK H PARENT 89 36 83 38 85 40 88 42 82 43 50 52 53 54 86 57 51 58 87 60
REMARK H PARENT 8 95 8 96 9 98 9 99 10 102 14 108 28 110 15 112 16 113 18 115
REMARK H PARENT 20 120 27 122 21 124 26 125
REMARK Flexibility Score: inf
ROOT
ATOM      1  C   UNL A   1      31.677  29.906  25.411  1.00  0.00    -0.052 C 
ATOM      2  H   UNL A   1      31.516  30.692  24.703  1.00  0.00     0.027 H 
ATOM      3  H   UNL A   1      30.868  29.209  25.481  1.00  0.00     0.027 H 
ENDROOT
BRANCH   1   4
ATOM      4  C   UNL A   1      31.797  30.542  26.798  1.00  0.00    -0.052 C 
ATOM      5  H   UNL A   1      31.089  30.064  27.443  1.00  0.00     0.027 H 
ATOM      6  H   UNL A   1      32.815  30.405  27.097  1.00  0.00     0.027 H 
BRANCH   4   7
ATOM      7  C   UNL A   1      31.542  32.048  26.857  1.00  0.00    -0.036 C 
ATOM      8  H   UNL A   1      31.079  32.342  25.938  1.00  0.00     0.028 H 
ATOM      9  H   UNL A   1      30.925  32.213  27.715  1.00  0.00     0.028 H 
BRANCH   7  10
ATOM     10  C   UNL A   1      32.784  32.905  27.054  1.00  0.00     0.018 C 
ATOM     11  H   UNL A   1      33.455  32.388  27.709  1.00  0.00     0.049 H 
ATOM     12  H   UNL A   1      33.216  33.069  26.090  1.00  0.00     0.049 H 
BRANCH  10  13
ATOM     13  N   UNL A   1      32.489  34.208  27.627  1.00  0.00    -0.352 N 
ATOM     14  O   UNL A   1      32.603  35.876  29.147  1.00  0.00    -0.269 OA
ATOM     15  C   UNL A   1      33.066  34.827  28.711  1.00  0.00     0.251 C 
ATOM     16  H   UNL A   1      31.777  34.718  27.176  1.00  0.00     0.163 HD
BRANCH  15  17
ATOM     17  C   UNL A   1      34.234  34.205  29.371  1.00  0.00     0.039 A 
ATOM     18  C   UNL A   1      35.532  34.548  28.987  1.00  0.00    -0.049 A 
ATOM     19  C   UNL A   1      34.028  33.265  30.385  1.00  0.00    -0.049 A 
ATOM     20  C   UNL A   1      36.612  33.845  29.507  1.00  0.00    -0.053 A 
ATOM     21  H   UNL A   1      35.689  35.320  28.320  1.00  0.00     0.063 H 
ATOM     22  C   UNL A   1      35.123  32.625  30.974  1.00  0.00    -0.053 A 
ATOM     23  H   UNL A   1      33.070  33.043  30.698  1.00  0.00     0.063 H 
ATOM     24  C   UNL A   1      36.423  32.888  30.518  1.00  0.00    -0.014 A 
ATOM     25  H   UNL A   1      37.561  34.028  29.145  1.00  0.00     0.063 H 
ATOM     26  H   UNL A   1      34.975  31.957  31.746  1.00  0.00     0.063 H 
BRANCH  24  27
ATOM     27  C   UNL A   1      37.615  32.236  31.119  1.00  0.00     0.031 A 
ATOM     28  C   UNL A   1      38.078  32.575  32.508  1.00  0.00     0.074 A 
ATOM     29  C   UNL A   1      38.251  31.286  30.407  1.00  0.00     0.049 A 
ATOM     30  N   UNL A   1      39.069  32.061  33.194  1.00  0.00    -0.248 NA
ATOM     31  C   UNL A   1      37.342  33.629  33.220  1.00  0.00    -0.034 C 
ATOM     32  C   UNL A   1      37.902  30.888  29.040  1.00  0.00    -0.036 A 
ATOM     33  N   UNL A   1      39.301  30.468  30.731  1.00  0.00    -0.354 N 
ATOM     34  C   UNL A   1      39.079  32.729  34.411  1.00  0.00     0.074 A 
ATOM     35  C   UNL A   1      38.018  33.712  34.358  1.00  0.00    -0.034 C 
ATOM     36  H   UNL A   1      36.515  34.166  32.915  1.00  0.00     0.065 H 
ATOM     37  C   UNL A   1      38.689  29.871  28.663  1.00  0.00    -0.036 A 
ATOM     38  H   UNL A   1      37.168  31.322  28.460  1.00  0.00     0.065 H 
ATOM     39  C   UNL A   1      39.637  29.585  29.733  1.00  0.00     0.049 A 
ATOM     40  H   UNL A   1      39.770  30.508  31.596  1.00  0.00     0.167 HD
ATOM     41  C   UNL A   1      39.893  32.530  35.476  1.00  0.00     0.037 A 
ATOM     42  H   UNL A   1      37.814  34.390  35.110  1.00  0.00     0.065 H 
ATOM     43  H   UNL A   1      38.633  29.372  27.761  1.00  0.00     0.065 H 
ATOM     44  C   UNL A   1      40.608  28.657  29.678  1.00  0.00     0.037 A 
ATOM     45  C   UNL A   1      40.948  31.548  35.522  1.00  0.00     0.049 A 
ATOM     46  C   UNL A   1      41.504  28.472  30.869  1.00  0.00     0.074 A 
ATOM     47  C   UNL A   1      41.824  31.266  36.557  1.00  0.00    -0.036 A 
ATOM     48  N   UNL A   1      41.270  30.684  34.484  1.00  0.00    -0.354 N 
ATOM     49  N   UNL A   1      41.485  29.094  32.022  1.00  0.00    -0.248 NA
ATOM     50  C   UNL A   1      42.555  27.453  30.751  1.00  0.00    -0.034 C 
ATOM     51  C   UNL A   1      42.699  30.260  36.132  1.00  0.00    -0.036 A 
ATOM     52  H   UNL A   1      41.830  31.721  37.484  1.00  0.00     0.065 H 
ATOM     53  C   UNL A   1      42.339  29.880  34.851  1.00  0.00     0.049 A 
ATOM     54  H   UNL A   1      40.807  30.648  33.615  1.00  0.00     0.167 HD
ATOM     55  C   UNL A   1      42.511  28.537  32.771  1.00  0.00     0.074 A 
ATOM     56  C   UNL A   1      43.111  27.504  31.953  1.00  0.00    -0.034 C 
ATOM     57  H   UNL A   1      42.797  26.857  29.945  1.00  0.00     0.065 H 
ATOM     58  H   UNL A   1      43.480  29.869  36.681  1.00  0.00     0.065 H 
ATOM     59  C   UNL A   1      42.925  28.857  34.021  1.00  0.00     0.037 A 
ATOM     60  H   UNL A   1      43.877  26.886  32.265  1.00  0.00     0.065 H 
BRANCH  41  61
ATOM     61  C   UNL A   1      39.681  33.391  36.688  1.00  0.00     0.064 A 
ATOM     62  C   UNL A   1      40.325  34.629  36.830  1.00  0.00     0.173 A 
ATOM     63  C   UNL A   1      38.778  33.004  37.692  1.00  0.00     0.173 A 
ATOM     64  F   UNL A   1      41.204  35.041  35.905  1.00  0.00    -0.203 F 
ATOM     65  C   UNL A   1      40.086  35.439  37.937  1.00  0.00     0.198 A 
ATOM     66  C   UNL A   1      38.523  33.828  38.786  1.00  0.00     0.198 A 
ATOM     67  F   UNL A   1      38.130  31.832  37.603  1.00  0.00    -0.203 F 
ATOM     68  F   UNL A   1      40.740  36.602  38.068  1.00  0.00    -0.200 F 
ATOM     69  C   UNL A   1      39.181  35.042  38.909  1.00  0.00     0.200 A 
ATOM     70  F   UNL A   1      37.638  33.449  39.717  1.00  0.00    -0.200 F 
ATOM     71  F   UNL A   1      38.944  35.829  39.968  1.00  0.00    -0.200 F 
ENDBRANCH  41  61
BRANCH  44  72
ATOM     72  C   UNL A   1      40.786  27.845  28.447  1.00  0.00     0.064 A 
ATOM     73  C   UNL A   1      41.582  28.299  27.387  1.00  0.00     0.173 A 
ATOM     74  C   UNL A   1      40.162  26.595  28.308  1.00  0.00     0.173 A 
ATOM     75  F   UNL A   1      42.185  29.494  27.466  1.00  0.00    -0.203 F 
ATOM     76  C   UNL A   1      41.731  27.543  26.227  1.00  0.00     0.198 A 
ATOM     77  C   UNL A   1      40.338  25.827  27.161  1.00  0.00     0.198 A 
ATOM     78  F   UNL A   1      39.395  26.113  29.297  1.00  0.00    -0.203 F 
ATOM     79  F   UNL A   1      42.459  28.021  25.209  1.00  0.00    -0.200 F 
ATOM     80  C   UNL A   1      41.114  26.306  26.117  1.00  0.00     0.200 A 
ATOM     81  F   UNL A   1      39.757  24.623  27.068  1.00  0.00    -0.200 F 
ATOM     82  F   UNL A   1      41.263  25.576  25.002  1.00  0.00    -0.200 F 
ENDBRANCH  44  72
BRANCH  59  83
ATOM     83  C   UNL A   1      44.068  28.064  34.580  1.00  0.00     0.064 A 
ATOM     84  C   UNL A   1      43.857  26.862  35.273  1.00  0.00     0.173 A 
ATOM     85  C   UNL A   1      45.389  28.505  34.415  1.00  0.00     0.173 A 
ATOM     86  F   UNL A   1      42.611  26.407  35.472  1.00  0.00    -0.203 F 
ATOM     87  C   UNL A   1      44.925  26.149  35.810  1.00  0.00     0.198 A 
ATOM     88  C   UNL A   1      46.457  27.774  34.928  1.00  0.00     0.198 A 
ATOM     89  F   UNL A   1      45.643  29.645  33.756  1.00  0.00    -0.203 F 
ATOM     90  F   UNL A   1      44.697  25.036  36.519  1.00  0.00    -0.200 F 
ATOM     91  C   UNL A   1      46.224  26.603  35.633  1.00  0.00     0.200 A 
ATOM     92  F   UNL A   1      47.712  28.209  34.747  1.00  0.00    -0.200 F 
ATOM     93  F   UNL A   1      47.252  25.917  36.152  1.00  0.00    -0.200 F 
ENDBRANCH  59  83
ENDBRANCH  24  27
ENDBRANCH  15  17
ENDBRANCH  10  13
ENDBRANCH   7  10
ENDBRANCH   4   7
ENDBRANCH   1   4
BRANCH   1  94
ATOM     94  C   UNL A   1      32.887  29.092  24.943  1.00  0.00    -0.036 C 
ATOM     95  H   UNL A   1      32.793  28.102  25.339  1.00  0.00     0.028 H 
ATOM     96  H   UNL A   1      33.751  29.615  25.296  1.00  0.00     0.028 H 
BRANCH  94  97
ATOM     97  C   UNL A   1      33.052  28.979  23.429  1.00  0.00     0.018 C 
ATOM     98  H   UNL A   1      33.317  27.972  23.184  1.00  0.00     0.049 H 
ATOM     99  H   UNL A   1      33.816  29.664  23.126  1.00  0.00     0.049 H 
BRANCH  97 100
ATOM    100  N   UNL A   1      31.832  29.328  22.724  1.00  0.00    -0.352 N 
ATOM    101  C   UNL A   1      30.766  28.535  22.392  1.00  0.00     0.251 C 
ATOM    102  H   UNL A   1      31.761  30.270  22.445  1.00  0.00     0.163 HD
ATOM    103  O   UNL A   1      29.902  28.949  21.626  1.00  0.00    -0.269 OA
BRANCH 101 104
ATOM    104  C   UNL A   1      30.657  27.173  22.953  1.00  0.00     0.041 A 
ATOM    105  C   UNL A   1      29.685  26.926  23.922  1.00  0.00    -0.049 A 
ATOM    106  C   UNL A   1      31.547  26.165  22.561  1.00  0.00    -0.026 A 
ATOM    107  C   UNL A   1      29.575  25.651  24.465  1.00  0.00    -0.059 A 
ATOM    108  H   UNL A   1      29.053  27.680  24.232  1.00  0.00     0.063 H 
ATOM    109  C   UNL A   1      31.450  24.879  23.103  1.00  0.00     0.039 A 
ATOM    110  H   UNL A   1      32.281  26.372  21.866  1.00  0.00     0.065 H 
ATOM    111  C   UNL A   1      30.444  24.637  24.049  1.00  0.00    -0.039 A 
ATOM    112  H   UNL A   1      28.852  25.452  25.175  1.00  0.00     0.062 H 
ATOM    113  H   UNL A   1      30.342  23.690  24.448  1.00  0.00     0.064 H 
BRANCH 109 114
ATOM    114  N   UNL A   1      32.341  23.883  22.658  1.00  0.00    -0.356 N 
ATOM    115  H   UNL A   1      32.184  23.566  21.740  1.00  0.00     0.167 HD
BRANCH 114 116
ATOM    116  C   UNL A   1      33.417  23.272  23.322  1.00  0.00     0.039 A 
ATOM    117  C   UNL A   1      33.168  22.157  24.133  1.00  0.00    -0.032 A 
ATOM    118  C   UNL A   1      34.744  23.671  23.117  1.00  0.00    -0.032 A 
ATOM    119  C   UNL A   1      34.222  21.430  24.694  1.00  0.00     0.018 A 
ATOM    120  H   UNL A   1      32.195  21.868  24.317  1.00  0.00     0.065 H 
ATOM    121  C   UNL A   1      35.805  22.957  23.681  1.00  0.00     0.018 A 
ATOM    122  H   UNL A   1      34.941  24.505  22.542  1.00  0.00     0.065 H 
ATOM    123  C   UNL A   1      35.541  21.823  24.452  1.00  0.00     0.269 A 
ATOM    124  H   UNL A   1      34.026  20.606  25.283  1.00  0.00     0.070 H 
ATOM    125  H   UNL A   1      36.778  23.265  23.528  1.00  0.00     0.070 H 
BRANCH 123 126
ATOM    126  N   UNL A   1      36.633  21.035  24.972  1.00  0.00     0.062 N 
ATOM    127  O   UNL A   1      36.573  19.823  25.001  1.00  0.00    -0.258 OA
ATOM    128  O   UNL A   1      37.791  21.632  25.413  1.00  0.00    -0.258 OA
ENDBRANCH 123 126
ENDBRANCH 114 116
ENDBRANCH 109 114
ENDBRANCH 101 104
ENDBRANCH  97 100
ENDBRANCH  94  97
ENDBRANCH   1  94
TORSDOF 16
ENDMDL
MODEL 5
REMARK VINA RESULT:     -12.0      6.614     11.078
REMARK SMILES O=C(NCCCCCCNC(=O)c1cccc(Nc2ccc([N+](=O)[O-])cc2)c1)c1ccc(-c2c3nc(c(-c4c(F)c(F)c(F)c(F)c4F)c4ccc([nH]4)c(-c4c(F)c(F)c(F)c(F)c4F)c4nc(c(-c5c(F)c(F)c(F)c(F)c5F)c5ccc2[nH]5)C=C4)C=C3)cc1
REMARK SMILES IDX 7 1 6 4 5 7 4 10 3 13 1 14 2 15 29 17 30 18 91 19 31 20
REMARK SMILES IDX 90 22 32 24 33 27 34 28 84 29 35 30 89 31 83 32 85 33 36 34
REMARK SMILES IDX 88 35 82 37 81 39 37 41 69 44 49 45 68 46 50 47 53 48 67 49
REMARK SMILES IDX 86 50 51 51 52 53 66 55 87 56 54 59 38 61 39 62 47 63 40 64
REMARK SMILES IDX 41 65 45 66 48 67 42 68 43 69 46 70 44 71 70 72 71 73 79 74
REMARK SMILES IDX 72 75 73 76 77 77 80 78 74 79 75 80 78 81 76 82 55 83 56 84
REMARK SMILES IDX 64 85 57 86 58 87 62 88 65 89 59 90 60 91 63 92 61 93 8 94
REMARK SMILES IDX 9 97 10 100 11 101 12 103 13 104 14 105 28 106 15 107 17 109
REMARK SMILES IDX 16 111 18 114 19 116 20 117 27 118 21 119 26 121 22 123
REMARK SMILES IDX 23 126 24 127 25 128
REMARK H PARENT 7 2 7 3 6 5 6 6 5 8 5 9 4 11 4 12 3 16 30 21 91 23 31 25 90 26
REMARK H PARENT 89 36 83 38 85 40 88 42 82 43 50 52 53 54 86 57 51 58 87 60
REMARK H PARENT 8 95 8 96 9 98 9 99 10 102 14 108 28 110 15 112 16 113 18 115
REMARK H PARENT 20 120 27 122 21 124 26 125
REMARK Flexibility Score: inf
ROOT
ATOM      1  C   UNL A   1      39.745  22.147  26.472  1.00  0.00    -0.052 C 
ATOM      2  H   UNL A   1      38.972  21.410  26.408  1.00  0.00     0.027 H 
ATOM      3  H   UNL A   1      40.315  22.262  25.574  1.00  0.00     0.027 H 
ENDROOT
BRANCH   1   4
ATOM      4  C   UNL A   1      40.742  21.690  27.541  1.00  0.00    -0.052 C 
ATOM      5  H   UNL A   1      41.584  22.350  27.509  1.00  0.00     0.027 H 
ATOM      6  H   UNL A   1      40.210  21.714  28.468  1.00  0.00     0.027 H 
BRANCH   4   7
ATOM      7  C   UNL A   1      41.259  20.261  27.390  1.00  0.00    -0.036 C 
ATOM      8  H   UNL A   1      42.303  20.259  27.628  1.00  0.00     0.028 H 
ATOM      9  H   UNL A   1      40.671  19.659  28.052  1.00  0.00     0.028 H 
BRANCH   7  10
ATOM     10  C   UNL A   1      41.090  19.657  26.004  1.00  0.00     0.018 C 
ATOM     11  H   UNL A   1      40.269  18.969  26.029  1.00  0.00     0.049 H 
ATOM     12  H   UNL A   1      40.914  20.462  25.322  1.00  0.00     0.049 H 
BRANCH  10  13
ATOM     13  N   UNL A   1      42.273  18.948  25.545  1.00  0.00    -0.352 N 
ATOM     14  O   UNL A   1      44.374  18.725  24.742  1.00  0.00    -0.269 OA
ATOM     15  C   UNL A   1      43.520  19.445  25.251  1.00  0.00     0.251 C 
ATOM     16  H   UNL A   1      42.166  17.975  25.428  1.00  0.00     0.163 HD
BRANCH  15  17
ATOM     17  C   UNL A   1      43.823  20.867  25.525  1.00  0.00     0.039 A 
ATOM     18  C   UNL A   1      44.460  21.242  26.709  1.00  0.00    -0.049 A 
ATOM     19  C   UNL A   1      43.461  21.838  24.585  1.00  0.00    -0.049 A 
ATOM     20  C   UNL A   1      44.597  22.589  27.021  1.00  0.00    -0.053 A 
ATOM     21  H   UNL A   1      44.828  20.522  27.350  1.00  0.00     0.063 H 
ATOM     22  C   UNL A   1      43.686  23.190  24.861  1.00  0.00    -0.053 A 
ATOM     23  H   UNL A   1      43.028  21.556  23.692  1.00  0.00     0.063 H 
ATOM     24  C   UNL A   1      44.228  23.579  26.094  1.00  0.00    -0.014 A 
ATOM     25  H   UNL A   1      44.974  22.864  27.941  1.00  0.00     0.063 H 
ATOM     26  H   UNL A   1      43.451  23.905  24.154  1.00  0.00     0.063 H 
BRANCH  24  27
ATOM     27  C   UNL A   1      44.490  25.004  26.425  1.00  0.00     0.031 A 
ATOM     28  C   UNL A   1      43.414  25.889  26.988  1.00  0.00     0.074 A 
ATOM     29  C   UNL A   1      45.738  25.479  26.255  1.00  0.00     0.049 A 
ATOM     30  N   UNL A   1      43.495  27.139  27.373  1.00  0.00    -0.248 NA
ATOM     31  C   UNL A   1      42.074  25.304  27.134  1.00  0.00    -0.034 C 
ATOM     32  C   UNL A   1      46.858  24.716  25.696  1.00  0.00    -0.036 A 
ATOM     33  N   UNL A   1      46.285  26.700  26.552  1.00  0.00    -0.354 N 
ATOM     34  C   UNL A   1      42.221  27.490  27.801  1.00  0.00     0.074 A 
ATOM     35  C   UNL A   1      41.376  26.333  27.595  1.00  0.00    -0.034 C 
ATOM     36  H   UNL A   1      41.757  24.343  26.931  1.00  0.00     0.065 H 
ATOM     37  C   UNL A   1      47.967  25.468  25.737  1.00  0.00    -0.036 A 
ATOM     38  H   UNL A   1      46.802  23.754  25.329  1.00  0.00     0.065 H 
ATOM     39  C   UNL A   1      47.626  26.784  26.265  1.00  0.00     0.049 A 
ATOM     40  H   UNL A   1      45.768  27.445  26.933  1.00  0.00     0.167 HD
ATOM     41  C   UNL A   1      41.803  28.667  28.327  1.00  0.00     0.037 A 
ATOM     42  H   UNL A   1      40.360  26.312  27.783  1.00  0.00     0.065 H 
ATOM     43  H   UNL A   1      48.908  25.164  25.442  1.00  0.00     0.065 H 
ATOM     44  C   UNL A   1      48.486  27.809  26.399  1.00  0.00     0.037 A 
ATOM     45  C   UNL A   1      42.650  29.815  28.529  1.00  0.00     0.049 A 
ATOM     46  C   UNL A   1      47.988  29.105  26.971  1.00  0.00     0.074 A 
ATOM     47  C   UNL A   1      42.321  31.051  29.059  1.00  0.00    -0.036 A 
ATOM     48  N   UNL A   1      44.000  29.868  28.209  1.00  0.00    -0.354 N 
ATOM     49  N   UNL A   1      46.787  29.414  27.394  1.00  0.00    -0.248 NA
ATOM     50  C   UNL A   1      48.965  30.195  27.084  1.00  0.00    -0.034 C 
ATOM     51  C   UNL A   1      43.460  31.863  29.025  1.00  0.00    -0.036 A 
ATOM     52  H   UNL A   1      41.393  31.327  29.419  1.00  0.00     0.065 H 
ATOM     53  C   UNL A   1      44.512  31.119  28.519  1.00  0.00     0.049 A 
ATOM     54  H   UNL A   1      44.517  29.126  27.820  1.00  0.00     0.167 HD
ATOM     55  C   UNL A   1      46.864  30.726  27.834  1.00  0.00     0.074 A 
ATOM     56  C   UNL A   1      48.239  31.145  27.656  1.00  0.00    -0.034 C 
ATOM     57  H   UNL A   1      49.955  30.215  26.795  1.00  0.00     0.065 H 
ATOM     58  H   UNL A   1      43.507  32.849  29.326  1.00  0.00     0.065 H 
ATOM     59  C   UNL A   1      45.885  31.518  28.333  1.00  0.00     0.037 A 
ATOM     60  H   UNL A   1      48.608  32.067  27.938  1.00  0.00     0.065 H 
BRANCH  41  61
ATOM     61  C   UNL A   1      40.358  28.780  28.724  1.00  0.00     0.064 A 
ATOM     62  C   UNL A   1      39.938  28.530  30.038  1.00  0.00     0.173 A 
ATOM     63  C   UNL A   1      39.392  29.203  27.797  1.00  0.00     0.173 A 
ATOM     64  F   UNL A   1      40.818  28.114  30.961  1.00  0.00    -0.203 F 
ATOM     65  C   UNL A   1      38.603  28.682  30.406  1.00  0.00     0.198 A 
ATOM     66  C   UNL A   1      38.063  29.378  28.174  1.00  0.00     0.198 A 
ATOM     67  F   UNL A   1      39.741  29.463  26.528  1.00  0.00    -0.203 F 
ATOM     68  F   UNL A   1      38.218  28.402  31.659  1.00  0.00    -0.200 F 
ATOM     69  C   UNL A   1      37.669  29.113  29.476  1.00  0.00     0.200 A 
ATOM     70  F   UNL A   1      37.164  29.808  27.278  1.00  0.00    -0.200 F 
ATOM     71  F   UNL A   1      36.387  29.270  29.835  1.00  0.00    -0.200 F 
ENDBRANCH  41  61
BRANCH  44  72
ATOM     72  C   UNL A   1      49.900  27.648  25.973  1.00  0.00     0.064 A 
ATOM     73  C   UNL A   1      50.918  27.416  26.908  1.00  0.00     0.173 A 
ATOM     74  C   UNL A   1      50.261  27.721  24.619  1.00  0.00     0.173 A 
ATOM     75  F   UNL A   1      50.626  27.355  28.215  1.00  0.00    -0.203 F 
ATOM     76  C   UNL A   1      52.245  27.284  26.506  1.00  0.00     0.198 A 
ATOM     77  C   UNL A   1      51.583  27.556  24.216  1.00  0.00     0.198 A 
ATOM     78  F   UNL A   1      49.322  27.934  23.684  1.00  0.00    -0.203 F 
ATOM     79  F   UNL A   1      53.205  27.111  27.424  1.00  0.00    -0.200 F 
ATOM     80  C   UNL A   1      52.576  27.348  25.161  1.00  0.00     0.200 A 
ATOM     81  F   UNL A   1      51.894  27.599  22.913  1.00  0.00    -0.200 F 
ATOM     82  F   UNL A   1      53.852  27.215  24.774  1.00  0.00    -0.200 F 
ENDBRANCH  44  72
BRANCH  59  83
ATOM     83  C   UNL A   1      46.277  32.907  28.739  1.00  0.00     0.064 A 
ATOM     84  C   UNL A   1      46.720  33.194  30.040  1.00  0.00     0.173 A 
ATOM     85  C   UNL A   1      46.218  33.962  27.817  1.00  0.00     0.173 A 
ATOM     86  F   UNL A   1      46.777  32.223  30.963  1.00  0.00    -0.203 F 
ATOM     87  C   UNL A   1      47.055  34.493  30.410  1.00  0.00     0.198 A 
ATOM     88  C   UNL A   1      46.583  35.255  28.183  1.00  0.00     0.198 A 
ATOM     89  F   UNL A   1      45.806  33.739  26.560  1.00  0.00    -0.203 F 
ATOM     90  F   UNL A   1      47.419  34.756  31.672  1.00  0.00    -0.200 F 
ATOM     91  C   UNL A   1      46.991  35.521  29.480  1.00  0.00     0.200 A 
ATOM     92  F   UNL A   1      46.530  36.245  27.280  1.00  0.00    -0.200 F 
ATOM     93  F   UNL A   1      47.313  36.771  29.839  1.00  0.00    -0.200 F 
ENDBRANCH  59  83
ENDBRANCH  24  27
ENDBRANCH  15  17
ENDBRANCH  10  13
ENDBRANCH   7  10
ENDBRANCH   4   7
ENDBRANCH   1   4
BRANCH   1  94
ATOM     94  C   UNL A   1      39.079  23.505  26.718  1.00  0.00    -0.036 C 
ATOM     95  H   UNL A   1      39.682  24.259  26.254  1.00  0.00     0.028 H 
ATOM     96  H   UNL A   1      39.004  23.610  27.780  1.00  0.00     0.028 H 
BRANCH  94  97
ATOM     97  C   UNL A   1      37.657  23.642  26.178  1.00  0.00     0.018 C 
ATOM     98  H   UNL A   1      37.259  24.586  26.487  1.00  0.00     0.049 H 
ATOM     99  H   UNL A   1      37.075  22.832  26.565  1.00  0.00     0.049 H 
BRANCH  97 100
ATOM    100  N   UNL A   1      37.619  23.569  24.729  1.00  0.00    -0.352 N 
ATOM    101  C   UNL A   1      36.539  23.450  23.895  1.00  0.00     0.251 C 
ATOM    102  H   UNL A   1      38.495  23.610  24.282  1.00  0.00     0.163 HD
ATOM    103  O   UNL A   1      36.701  23.209  22.703  1.00  0.00    -0.269 OA
BRANCH 101 104
ATOM    104  C   UNL A   1      35.172  23.608  24.431  1.00  0.00     0.041 A 
ATOM    105  C   UNL A   1      34.827  24.817  25.035  1.00  0.00    -0.049 A 
ATOM    106  C   UNL A   1      34.259  22.547  24.385  1.00  0.00    -0.026 A 
ATOM    107  C   UNL A   1      33.546  24.978  25.552  1.00  0.00    -0.059 A 
ATOM    108  H   UNL A   1      35.514  25.584  25.097  1.00  0.00     0.063 H 
ATOM    109  C   UNL A   1      32.968  22.694  24.905  1.00  0.00     0.039 A 
ATOM    110  H   UNL A   1      34.539  21.649  23.963  1.00  0.00     0.065 H 
ATOM    111  C   UNL A   1      32.625  23.928  25.476  1.00  0.00    -0.039 A 
ATOM    112  H   UNL A   1      33.275  25.873  25.991  1.00  0.00     0.062 H 
ATOM    113  H   UNL A   1      31.672  24.066  25.848  1.00  0.00     0.064 H 
BRANCH 109 114
ATOM    114  N   UNL A   1      32.067  21.617  24.808  1.00  0.00    -0.356 N 
ATOM    115  H   UNL A   1      31.117  21.862  24.885  1.00  0.00     0.167 HD
BRANCH 114 116
ATOM    116  C   UNL A   1      32.315  20.247  24.619  1.00  0.00     0.039 A 
ATOM    117  C   UNL A   1      32.276  19.725  23.319  1.00  0.00    -0.032 A 
ATOM    118  C   UNL A   1      32.707  19.407  25.669  1.00  0.00    -0.032 A 
ATOM    119  C   UNL A   1      32.659  18.405  23.066  1.00  0.00     0.018 A 
ATOM    120  H   UNL A   1      31.962  20.322  22.539  1.00  0.00     0.065 H 
ATOM    121  C   UNL A   1      33.084  18.083  25.428  1.00  0.00     0.018 A 
ATOM    122  H   UNL A   1      32.718  19.772  26.634  1.00  0.00     0.065 H 
ATOM    123  C   UNL A   1      33.079  17.591  24.122  1.00  0.00     0.269 A 
ATOM    124  H   UNL A   1      32.633  18.033  22.104  1.00  0.00     0.070 H 
ATOM    125  H   UNL A   1      33.364  17.472  26.212  1.00  0.00     0.070 H 
BRANCH 123 126
ATOM    126  N   UNL A   1      33.540  16.249  23.856  1.00  0.00     0.062 N 
ATOM    127  O   UNL A   1      34.170  15.991  22.851  1.00  0.00    -0.258 OA
ATOM    128  O   UNL A   1      33.317  15.231  24.753  1.00  0.00    -0.258 OA
ENDBRANCH 123 126
ENDBRANCH 114 116
ENDBRANCH 109 114
ENDBRANCH 101 104
ENDBRANCH  97 100
ENDBRANCH  94  97
ENDBRANCH   1  94
TORSDOF 16
ENDMDL
MODEL 6
REMARK VINA RESULT:     -11.9      2.523      4.942
REMARK SMILES O=C(NCCCCCCNC(=O)c1cccc(Nc2ccc([N+](=O)[O-])cc2)c1)c1ccc(-c2c3nc(c(-c4c(F)c(F)c(F)c(F)c4F)c4ccc([nH]4)c(-c4c(F)c(F)c(F)c(F)c4F)c4nc(c(-c5c(F)c(F)c(F)c(F)c5F)c5ccc2[nH]5)C=C4)C=C3)cc1
REMARK SMILES IDX 7 1 6 4 5 7 4 10 3 13 1 14 2 15 29 17 30 18 91 19 31 20
REMARK SMILES IDX 90 22 32 24 33 27 34 28 84 29 35 30 89 31 83 32 85 33 36 34
REMARK SMILES IDX 88 35 82 37 81 39 37 41 69 44 49 45 68 46 50 47 53 48 67 49
REMARK SMILES IDX 86 50 51 51 52 53 66 55 87 56 54 59 38 61 39 62 47 63 40 64
REMARK SMILES IDX 41 65 45 66 48 67 42 68 43 69 46 70 44 71 70 72 71 73 79 74
REMARK SMILES IDX 72 75 73 76 77 77 80 78 74 79 75 80 78 81 76 82 55 83 56 84
REMARK SMILES IDX 64 85 57 86 58 87 62 88 65 89 59 90 60 91 63 92 61 93 8 94
REMARK SMILES IDX 9 97 10 100 11 101 12 103 13 104 14 105 28 106 15 107 17 109
REMARK SMILES IDX 16 111 18 114 19 116 20 117 27 118 21 119 26 121 22 123
REMARK SMILES IDX 23 126 24 127 25 128
REMARK H PARENT 7 2 7 3 6 5 6 6 5 8 5 9 4 11 4 12 3 16 30 21 91 23 31 25 90 26
REMARK H PARENT 89 36 83 38 85 40 88 42 82 43 50 52 53 54 86 57 51 58 87 60
REMARK H PARENT 8 95 8 96 9 98 9 99 10 102 14 108 28 110 15 112 16 113 18 115
REMARK H PARENT 20 120 27 122 21 124 26 125
REMARK Flexibility Score: inf
ROOT
ATOM      1  C   UNL A   1      31.008  30.047  24.660  1.00  0.00    -0.052 C 
ATOM      2  H   UNL A   1      31.524  30.653  23.945  1.00  0.00     0.027 H 
ATOM      3  H   UNL A   1      29.952  30.216  24.693  1.00  0.00     0.027 H 
ENDROOT
BRANCH   1   4
ATOM      4  C   UNL A   1      31.531  30.414  26.051  1.00  0.00    -0.052 C 
ATOM      5  H   UNL A   1      30.999  29.826  26.769  1.00  0.00     0.027 H 
ATOM      6  H   UNL A   1      32.583  30.221  26.029  1.00  0.00     0.027 H 
BRANCH   4   7
ATOM      7  C   UNL A   1      31.383  31.883  26.444  1.00  0.00    -0.036 C 
ATOM      8  H   UNL A   1      31.250  32.454  25.549  1.00  0.00     0.028 H 
ATOM      9  H   UNL A   1      30.545  31.932  27.107  1.00  0.00     0.028 H 
BRANCH   7  10
ATOM     10  C   UNL A   1      32.563  32.470  27.205  1.00  0.00     0.018 C 
ATOM     11  H   UNL A   1      32.693  31.916  28.113  1.00  0.00     0.049 H 
ATOM     12  H   UNL A   1      33.421  32.401  26.570  1.00  0.00     0.049 H 
BRANCH  10  13
ATOM     13  N   UNL A   1      32.381  33.872  27.542  1.00  0.00    -0.352 N 
ATOM     14  O   UNL A   1      32.697  35.780  28.711  1.00  0.00    -0.269 OA
ATOM     15  C   UNL A   1      33.070  34.640  28.450  1.00  0.00     0.251 C 
ATOM     16  H   UNL A   1      31.664  34.337  27.051  1.00  0.00     0.163 HD
BRANCH  15  17
ATOM     17  C   UNL A   1      34.252  34.075  29.137  1.00  0.00     0.039 A 
ATOM     18  C   UNL A   1      35.541  34.455  28.760  1.00  0.00    -0.049 A 
ATOM     19  C   UNL A   1      34.067  33.151  30.170  1.00  0.00    -0.049 A 
ATOM     20  C   UNL A   1      36.639  33.802  29.307  1.00  0.00    -0.053 A 
ATOM     21  H   UNL A   1      35.678  35.217  28.077  1.00  0.00     0.063 H 
ATOM     22  C   UNL A   1      35.177  32.564  30.785  1.00  0.00    -0.053 A 
ATOM     23  H   UNL A   1      33.113  32.903  30.477  1.00  0.00     0.063 H 
ATOM     24  C   UNL A   1      36.472  32.862  30.337  1.00  0.00    -0.014 A 
ATOM     25  H   UNL A   1      37.586  34.010  28.952  1.00  0.00     0.063 H 
ATOM     26  H   UNL A   1      35.043  31.908  31.571  1.00  0.00     0.063 H 
BRANCH  24  27
ATOM     27  C   UNL A   1      37.679  32.266  30.967  1.00  0.00     0.031 A 
ATOM     28  C   UNL A   1      38.121  32.662  32.347  1.00  0.00     0.074 A 
ATOM     29  C   UNL A   1      38.349  31.315  30.288  1.00  0.00     0.049 A 
ATOM     30  N   UNL A   1      39.121  32.200  33.055  1.00  0.00    -0.248 NA
ATOM     31  C   UNL A   1      37.347  33.714  33.022  1.00  0.00    -0.034 C 
ATOM     32  C   UNL A   1      38.023  30.865  28.932  1.00  0.00    -0.036 A 
ATOM     33  N   UNL A   1      39.422  30.540  30.645  1.00  0.00    -0.354 N 
ATOM     34  C   UNL A   1      39.102  32.905  34.251  1.00  0.00     0.074 A 
ATOM     35  C   UNL A   1      38.011  33.853  34.162  1.00  0.00    -0.034 C 
ATOM     36  H   UNL A   1      36.506  34.216  32.695  1.00  0.00     0.065 H 
ATOM     37  C   UNL A   1      38.845  29.862  28.591  1.00  0.00    -0.036 A 
ATOM     38  H   UNL A   1      37.280  31.258  28.334  1.00  0.00     0.065 H 
ATOM     39  C   UNL A   1      39.792  29.639  29.677  1.00  0.00     0.049 A 
ATOM     40  H   UNL A   1      39.882  30.622  31.511  1.00  0.00     0.167 HD
ATOM     41  C   UNL A   1      39.913  32.764  35.328  1.00  0.00     0.037 A 
ATOM     42  H   UNL A   1      37.780  34.547  34.891  1.00  0.00     0.065 H 
ATOM     43  H   UNL A   1      38.811  29.334  27.705  1.00  0.00     0.065 H 
ATOM     44  C   UNL A   1      40.792  28.740  29.657  1.00  0.00     0.037 A 
ATOM     45  C   UNL A   1      40.998  31.817  35.411  1.00  0.00     0.049 A 
ATOM     46  C   UNL A   1      41.684  28.619  30.859  1.00  0.00     0.074 A 
ATOM     47  C   UNL A   1      41.874  31.595  36.459  1.00  0.00    -0.036 A 
ATOM     48  N   UNL A   1      41.354  30.933  34.402  1.00  0.00    -0.354 N 
ATOM     49  N   UNL A   1      41.638  29.275  31.992  1.00  0.00    -0.248 NA
ATOM     50  C   UNL A   1      42.768  27.631  30.779  1.00  0.00    -0.034 C 
ATOM     51  C   UNL A   1      42.783  30.604  36.072  1.00  0.00    -0.036 A 
ATOM     52  H   UNL A   1      41.859  32.077  37.372  1.00  0.00     0.065 H 
ATOM     53  C   UNL A   1      42.445  30.174  34.800  1.00  0.00     0.049 A 
ATOM     54  H   UNL A   1      40.900  30.856  33.532  1.00  0.00     0.167 HD
ATOM     55  C   UNL A   1      42.674  28.774  32.765  1.00  0.00     0.074 A 
ATOM     56  C   UNL A   1      43.313  27.736  31.982  1.00  0.00    -0.034 C 
ATOM     57  H   UNL A   1      43.033  27.018  29.994  1.00  0.00     0.065 H 
ATOM     58  H   UNL A   1      43.572  30.255  36.638  1.00  0.00     0.065 H 
ATOM     59  C   UNL A   1      43.068  29.145  34.007  1.00  0.00     0.037 A 
ATOM     60  H   UNL A   1      44.094  27.152  32.319  1.00  0.00     0.065 H 
BRANCH  41  61
ATOM     61  C   UNL A   1      39.665  33.654  36.512  1.00  0.00     0.064 A 
ATOM     62  C   UNL A   1      38.810  33.267  37.554  1.00  0.00     0.173 A 
ATOM     63  C   UNL A   1      40.336  34.881  36.637  1.00  0.00     0.173 A 
ATOM     64  F   UNL A   1      38.136  32.110  37.479  1.00  0.00    -0.203 F 
ATOM     65  C   UNL A   1      38.622  34.082  38.668  1.00  0.00     0.198 A 
ATOM     66  C   UNL A   1      40.166  35.682  37.765  1.00  0.00     0.198 A 
ATOM     67  F   UNL A   1      41.172  35.297  35.673  1.00  0.00    -0.203 F 
ATOM     68  F   UNL A   1      37.772  33.707  39.634  1.00  0.00    -0.200 F 
ATOM     69  C   UNL A   1      39.306  35.283  38.776  1.00  0.00     0.200 A 
ATOM     70  F   UNL A   1      40.838  36.836  37.874  1.00  0.00    -0.200 F 
ATOM     71  F   UNL A   1      39.133  36.060  39.855  1.00  0.00    -0.200 F 
ENDBRANCH  41  61
BRANCH  44  72
ATOM     72  C   UNL A   1      41.004  27.897  28.452  1.00  0.00     0.064 A 
ATOM     73  C   UNL A   1      41.884  28.292  27.435  1.00  0.00     0.173 A 
ATOM     74  C   UNL A   1      40.331  26.676  28.296  1.00  0.00     0.173 A 
ATOM     75  F   UNL A   1      42.538  29.459  27.531  1.00  0.00    -0.203 F 
ATOM     76  C   UNL A   1      42.065  27.508  26.299  1.00  0.00     0.198 A 
ATOM     77  C   UNL A   1      40.538  25.877  27.175  1.00  0.00     0.198 A 
ATOM     78  F   UNL A   1      39.484  26.249  29.245  1.00  0.00    -0.203 F 
ATOM     79  F   UNL A   1      42.875  27.931  25.319  1.00  0.00    -0.200 F 
ATOM     80  C   UNL A   1      41.398  26.298  26.172  1.00  0.00     0.200 A 
ATOM     81  F   UNL A   1      39.907  24.700  27.067  1.00  0.00    -0.200 F 
ATOM     82  F   UNL A   1      41.578  25.541  25.081  1.00  0.00    -0.200 F 
ENDBRANCH  44  72
BRANCH  59  83
ATOM     83  C   UNL A   1      44.231  28.405  34.598  1.00  0.00     0.064 A 
ATOM     84  C   UNL A   1      45.548  28.865  34.445  1.00  0.00     0.173 A 
ATOM     85  C   UNL A   1      44.026  27.227  35.330  1.00  0.00     0.173 A 
ATOM     86  F   UNL A   1      45.797  29.977  33.738  1.00  0.00    -0.203 F 
ATOM     87  C   UNL A   1      46.620  28.153  34.976  1.00  0.00     0.198 A 
ATOM     88  C   UNL A   1      45.099  26.534  35.886  1.00  0.00     0.198 A 
ATOM     89  F   UNL A   1      42.786  26.749  35.509  1.00  0.00    -0.203 F 
ATOM     90  F   UNL A   1      47.873  28.578  34.768  1.00  0.00    -0.200 F 
ATOM     91  C   UNL A   1      46.394  26.991  35.699  1.00  0.00     0.200 A 
ATOM     92  F   UNL A   1      44.877  25.416  36.593  1.00  0.00    -0.200 F 
ATOM     93  F   UNL A   1      47.427  26.306  36.208  1.00  0.00    -0.200 F 
ENDBRANCH  59  83
ENDBRANCH  24  27
ENDBRANCH  15  17
ENDBRANCH  10  13
ENDBRANCH   7  10
ENDBRANCH   4   7
ENDBRANCH   1   4
BRANCH   1  94
ATOM     94  C   UNL A   1      31.181  28.582  24.247  1.00  0.00    -0.036 C 
ATOM     95  H   UNL A   1      30.818  28.476  23.245  1.00  0.00     0.028 H 
ATOM     96  H   UNL A   1      30.635  28.006  24.963  1.00  0.00     0.028 H 
BRANCH  94  97
ATOM     97  C   UNL A   1      32.615  28.057  24.287  1.00  0.00     0.018 C 
ATOM     98  H   UNL A   1      32.648  27.189  24.910  1.00  0.00     0.049 H 
ATOM     99  H   UNL A   1      33.242  28.833  24.671  1.00  0.00     0.049 H 
BRANCH  97 100
ATOM    100  N   UNL A   1      33.098  27.704  22.964  1.00  0.00    -0.352 N 
ATOM    101  C   UNL A   1      33.148  26.476  22.360  1.00  0.00     0.251 C 
ATOM    102  H   UNL A   1      33.438  28.455  22.425  1.00  0.00     0.163 HD
ATOM    103  O   UNL A   1      33.766  26.329  21.310  1.00  0.00    -0.269 OA
BRANCH 101 104
ATOM    104  C   UNL A   1      32.463  25.322  22.974  1.00  0.00     0.041 A 
ATOM    105  C   UNL A   1      31.073  25.246  22.884  1.00  0.00    -0.049 A 
ATOM    106  C   UNL A   1      33.187  24.353  23.681  1.00  0.00    -0.026 A 
ATOM    107  C   UNL A   1      30.412  24.170  23.465  1.00  0.00    -0.059 A 
ATOM    108  H   UNL A   1      30.541  25.980  22.392  1.00  0.00     0.063 H 
ATOM    109  C   UNL A   1      32.533  23.267  24.274  1.00  0.00     0.039 A 
ATOM    110  H   UNL A   1      34.211  24.440  23.765  1.00  0.00     0.065 H 
ATOM    111  C   UNL A   1      31.139  23.186  24.144  1.00  0.00    -0.039 A 
ATOM    112  H   UNL A   1      29.384  24.096  23.396  1.00  0.00     0.062 H 
ATOM    113  H   UNL A   1      30.639  22.383  24.556  1.00  0.00     0.064 H 
BRANCH 109 114
ATOM    114  N   UNL A   1      33.299  22.295  24.945  1.00  0.00    -0.356 N 
ATOM    115  H   UNL A   1      33.702  22.596  25.791  1.00  0.00     0.167 HD
BRANCH 114 116
ATOM    116  C   UNL A   1      33.577  20.964  24.594  1.00  0.00     0.039 A 
ATOM    117  C   UNL A   1      34.817  20.415  24.945  1.00  0.00    -0.032 A 
ATOM    118  C   UNL A   1      32.617  20.132  24.002  1.00  0.00    -0.032 A 
ATOM    119  C   UNL A   1      35.081  19.057  24.748  1.00  0.00     0.018 A 
ATOM    120  H   UNL A   1      35.545  21.021  25.355  1.00  0.00     0.065 H 
ATOM    121  C   UNL A   1      32.874  18.774  23.792  1.00  0.00     0.018 A 
ATOM    122  H   UNL A   1      31.708  20.528  23.717  1.00  0.00     0.065 H 
ATOM    123  C   UNL A   1      34.100  18.235  24.186  1.00  0.00     0.269 A 
ATOM    124  H   UNL A   1      35.996  18.663  25.017  1.00  0.00     0.070 H 
ATOM    125  H   UNL A   1      32.161  18.174  23.349  1.00  0.00     0.070 H 
BRANCH 123 126
ATOM    126  N   UNL A   1      34.343  16.819  24.044  1.00  0.00     0.062 N 
ATOM    127  O   UNL A   1      34.016  16.226  23.037  1.00  0.00    -0.258 OA
ATOM    128  O   UNL A   1      34.990  16.108  25.028  1.00  0.00    -0.258 OA
ENDBRANCH 123 126
ENDBRANCH 114 116
ENDBRANCH 109 114
ENDBRANCH 101 104
ENDBRANCH  97 100
ENDBRANCH  94  97
ENDBRANCH   1  94
TORSDOF 16
ENDMDL
MODEL 7
REMARK VINA RESULT:     -11.8      4.409      9.416
REMARK SMILES O=C(NCCCCCCNC(=O)c1cccc(Nc2ccc([N+](=O)[O-])cc2)c1)c1ccc(-c2c3nc(c(-c4c(F)c(F)c(F)c(F)c4F)c4ccc([nH]4)c(-c4c(F)c(F)c(F)c(F)c4F)c4nc(c(-c5c(F)c(F)c(F)c(F)c5F)c5ccc2[nH]5)C=C4)C=C3)cc1
REMARK SMILES IDX 7 1 6 4 5 7 4 10 3 13 1 14 2 15 29 17 30 18 91 19 31 20
REMARK SMILES IDX 90 22 32 24 33 27 34 28 84 29 35 30 89 31 83 32 85 33 36 34
REMARK SMILES IDX 88 35 82 37 81 39 37 41 69 44 49 45 68 46 50 47 53 48 67 49
REMARK SMILES IDX 86 50 51 51 52 53 66 55 87 56 54 59 38 61 39 62 47 63 40 64
REMARK SMILES IDX 41 65 45 66 48 67 42 68 43 69 46 70 44 71 70 72 71 73 79 74
REMARK SMILES IDX 72 75 73 76 77 77 80 78 74 79 75 80 78 81 76 82 55 83 56 84
REMARK SMILES IDX 64 85 57 86 58 87 62 88 65 89 59 90 60 91 63 92 61 93 8 94
REMARK SMILES IDX 9 97 10 100 11 101 12 103 13 104 14 105 28 106 15 107 17 109
REMARK SMILES IDX 16 111 18 114 19 116 20 117 27 118 21 119 26 121 22 123
REMARK SMILES IDX 23 126 24 127 25 128
REMARK H PARENT 7 2 7 3 6 5 6 6 5 8 5 9 4 11 4 12 3 16 30 21 91 23 31 25 90 26
REMARK H PARENT 89 36 83 38 85 40 88 42 82 43 50 52 53 54 86 57 51 58 87 60
REMARK H PARENT 8 95 8 96 9 98 9 99 10 102 14 108 28 110 15 112 16 113 18 115
REMARK H PARENT 20 120 27 122 21 124 26 125
REMARK Flexibility Score: inf
ROOT
ATOM      1  C   UNL A   1      37.139  33.161  31.324  1.00  0.00    -0.052 C 
ATOM      2  H   UNL A   1      37.533  32.982  30.345  1.00  0.00     0.027 H 
ATOM      3  H   UNL A   1      37.156  32.304  31.964  1.00  0.00     0.027 H 
ENDROOT
BRANCH   1   4
ATOM      4  C   UNL A   1      35.663  33.540  31.175  1.00  0.00    -0.052 C 
ATOM      5  H   UNL A   1      35.271  33.727  32.153  1.00  0.00     0.027 H 
ATOM      6  H   UNL A   1      35.643  34.394  30.532  1.00  0.00     0.027 H 
BRANCH   4   7
ATOM      7  C   UNL A   1      34.779  32.490  30.506  1.00  0.00    -0.036 C 
ATOM      8  H   UNL A   1      35.137  31.523  30.792  1.00  0.00     0.028 H 
ATOM      9  H   UNL A   1      33.780  32.688  30.835  1.00  0.00     0.028 H 
BRANCH   7  10
ATOM     10  C   UNL A   1      34.745  32.549  28.986  1.00  0.00     0.018 C 
ATOM     11  H   UNL A   1      34.270  33.462  28.690  1.00  0.00     0.049 H 
ATOM     12  H   UNL A   1      35.756  32.496  28.640  1.00  0.00     0.049 H 
BRANCH  10  13
ATOM     13  N   UNL A   1      34.022  31.438  28.390  1.00  0.00    -0.352 N 
ATOM     14  O   UNL A   1      33.774  29.445  27.354  1.00  0.00    -0.269 OA
ATOM     15  C   UNL A   1      34.502  30.222  27.963  1.00  0.00     0.251 C 
ATOM     16  H   UNL A   1      33.053  31.574  28.276  1.00  0.00     0.163 HD
BRANCH  15  17
ATOM     17  C   UNL A   1      35.916  29.866  28.215  1.00  0.00     0.039 A 
ATOM     18  C   UNL A   1      36.304  29.326  29.442  1.00  0.00    -0.049 A 
ATOM     19  C   UNL A   1      36.865  30.078  27.210  1.00  0.00    -0.049 A 
ATOM     20  C   UNL A   1      37.653  29.142  29.718  1.00  0.00    -0.053 A 
ATOM     21  H   UNL A   1      35.591  29.065  30.142  1.00  0.00     0.063 H 
ATOM     22  C   UNL A   1      38.213  29.803  27.458  1.00  0.00    -0.053 A 
ATOM     23  H   UNL A   1      36.571  30.438  26.288  1.00  0.00     0.063 H 
ATOM     24  C   UNL A   1      38.622  29.361  28.725  1.00  0.00    -0.014 A 
ATOM     25  H   UNL A   1      37.945  28.842  30.661  1.00  0.00     0.063 H 
ATOM     26  H   UNL A   1      38.910  29.926  26.707  1.00  0.00     0.063 H 
BRANCH  24  27
ATOM     27  C   UNL A   1      40.043  29.051  29.029  1.00  0.00     0.031 A 
ATOM     28  C   UNL A   1      40.893  29.983  29.846  1.00  0.00     0.074 A 
ATOM     29  C   UNL A   1      40.547  27.880  28.595  1.00  0.00     0.049 A 
ATOM     30  N   UNL A   1      42.134  29.834  30.239  1.00  0.00    -0.248 NA
ATOM     31  C   UNL A   1      40.278  31.247  30.274  1.00  0.00    -0.034 C 
ATOM     32  C   UNL A   1      39.821  26.906  27.776  1.00  0.00    -0.036 A 
ATOM     33  N   UNL A   1      41.771  27.296  28.796  1.00  0.00    -0.354 N 
ATOM     34  C   UNL A   1      42.449  30.982  30.953  1.00  0.00     0.074 A 
ATOM     35  C   UNL A   1      41.282  31.837  30.911  1.00  0.00    -0.034 C 
ATOM     36  H   UNL A   1      39.316  31.589  30.120  1.00  0.00     0.065 H 
ATOM     37  C   UNL A   1      40.593  25.826  27.587  1.00  0.00    -0.036 A 
ATOM     38  H   UNL A   1      38.867  27.031  27.403  1.00  0.00     0.065 H 
ATOM     39  C   UNL A   1      41.888  26.056  28.216  1.00  0.00     0.049 A 
ATOM     40  H   UNL A   1      42.496  27.724  29.306  1.00  0.00     0.167 HD
ATOM     41  C   UNL A   1      43.604  31.287  31.594  1.00  0.00     0.037 A 
ATOM     42  H   UNL A   1      41.236  32.783  31.322  1.00  0.00     0.065 H 
ATOM     43  H   UNL A   1      40.315  24.972  27.078  1.00  0.00     0.065 H 
ATOM     44  C   UNL A   1      42.926  25.202  28.183  1.00  0.00     0.037 A 
ATOM     45  C   UNL A   1      44.763  30.430  31.633  1.00  0.00     0.049 A 
ATOM     46  C   UNL A   1      44.198  25.576  28.889  1.00  0.00     0.074 A 
ATOM     47  C   UNL A   1      45.979  30.648  32.259  1.00  0.00    -0.036 A 
ATOM     48  N   UNL A   1      44.850  29.189  31.018  1.00  0.00    -0.354 N 
ATOM     49  N   UNL A   1      44.472  26.654  29.581  1.00  0.00    -0.248 NA
ATOM     50  C   UNL A   1      45.303  24.613  28.810  1.00  0.00    -0.034 C 
ATOM     51  C   UNL A   1      46.814  29.556  31.993  1.00  0.00    -0.036 A 
ATOM     52  H   UNL A   1      46.228  31.473  32.827  1.00  0.00     0.065 H 
ATOM     53  C   UNL A   1      46.103  28.637  31.240  1.00  0.00     0.049 A 
ATOM     54  H   UNL A   1      44.129  28.763  30.501  1.00  0.00     0.167 HD
ATOM     55  C   UNL A   1      45.774  26.496  30.030  1.00  0.00     0.074 A 
ATOM     56  C   UNL A   1      46.224  25.203  29.558  1.00  0.00    -0.034 C 
ATOM     57  H   UNL A   1      45.350  23.714  28.305  1.00  0.00     0.065 H 
ATOM     58  H   UNL A   1      47.793  29.456  32.303  1.00  0.00     0.065 H 
ATOM     59  C   UNL A   1      46.534  27.348  30.761  1.00  0.00     0.037 A 
ATOM     60  H   UNL A   1      47.145  24.792  29.777  1.00  0.00     0.065 H 
BRANCH  41  61
ATOM     61  C   UNL A   1      43.679  32.605  32.311  1.00  0.00     0.064 A 
ATOM     62  C   UNL A   1      43.972  33.795  31.627  1.00  0.00     0.173 A 
ATOM     63  C   UNL A   1      43.396  32.691  33.683  1.00  0.00     0.173 A 
ATOM     64  F   UNL A   1      44.259  33.767  30.318  1.00  0.00    -0.203 F 
ATOM     65  C   UNL A   1      43.995  35.018  32.294  1.00  0.00     0.198 A 
ATOM     66  C   UNL A   1      43.396  33.919  34.341  1.00  0.00     0.198 A 
ATOM     67  F   UNL A   1      43.104  31.584  34.384  1.00  0.00    -0.203 F 
ATOM     68  F   UNL A   1      44.312  36.136  31.628  1.00  0.00    -0.200 F 
ATOM     69  C   UNL A   1      43.699  35.079  33.647  1.00  0.00     0.200 A 
ATOM     70  F   UNL A   1      43.096  33.978  35.646  1.00  0.00    -0.200 F 
ATOM     71  F   UNL A   1      43.710  36.259  34.284  1.00  0.00    -0.200 F 
ENDBRANCH  41  61
BRANCH  44  72
ATOM     72  C   UNL A   1      42.804  23.919  27.443  1.00  0.00     0.064 A 
ATOM     73  C   UNL A   1      42.301  22.768  28.065  1.00  0.00     0.173 A 
ATOM     74  C   UNL A   1      43.186  23.820  26.097  1.00  0.00     0.173 A 
ATOM     75  F   UNL A   1      41.938  22.808  29.355  1.00  0.00    -0.203 F 
ATOM     76  C   UNL A   1      42.205  21.563  27.374  1.00  0.00     0.198 A 
ATOM     77  C   UNL A   1      43.059  22.623  25.398  1.00  0.00     0.198 A 
ATOM     78  F   UNL A   1      43.667  24.895  25.454  1.00  0.00    -0.203 F 
ATOM     79  F   UNL A   1      41.766  20.466  28.005  1.00  0.00    -0.200 F 
ATOM     80  C   UNL A   1      42.578  21.493  26.040  1.00  0.00     0.200 A 
ATOM     81  F   UNL A   1      43.402  22.566  24.104  1.00  0.00    -0.200 F 
ATOM     82  F   UNL A   1      42.479  20.334  25.374  1.00  0.00    -0.200 F 
ENDBRANCH  44  72
BRANCH  59  83
ATOM     83  C   UNL A   1      47.920  26.892  31.108  1.00  0.00     0.064 A 
ATOM     84  C   UNL A   1      49.018  27.195  30.289  1.00  0.00     0.173 A 
ATOM     85  C   UNL A   1      48.154  26.150  32.275  1.00  0.00     0.173 A 
ATOM     86  F   UNL A   1      48.843  27.886  29.153  1.00  0.00    -0.203 F 
ATOM     87  C   UNL A   1      50.295  26.742  30.609  1.00  0.00     0.198 A 
ATOM     88  C   UNL A   1      49.437  25.725  32.607  1.00  0.00     0.198 A 
ATOM     89  F   UNL A   1      47.138  25.839  33.093  1.00  0.00    -0.203 F 
ATOM     90  F   UNL A   1      51.320  26.993  29.784  1.00  0.00    -0.200 F 
ATOM     91  C   UNL A   1      50.504  26.012  31.770  1.00  0.00     0.200 A 
ATOM     92  F   UNL A   1      49.638  25.028  33.735  1.00  0.00    -0.200 F 
ATOM     93  F   UNL A   1      51.733  25.576  32.077  1.00  0.00    -0.200 F 
ENDBRANCH  59  83
ENDBRANCH  24  27
ENDBRANCH  15  17
ENDBRANCH  10  13
ENDBRANCH   7  10
ENDBRANCH   4   7
ENDBRANCH   1   4
BRANCH   1  94
ATOM     94  C   UNL A   1      38.031  34.205  32.005  1.00  0.00    -0.036 C 
ATOM     95  H   UNL A   1      37.396  34.895  32.522  1.00  0.00     0.028 H 
ATOM     96  H   UNL A   1      38.609  34.655  31.226  1.00  0.00     0.028 H 
BRANCH  94  97
ATOM     97  C   UNL A   1      39.037  33.648  33.010  1.00  0.00     0.018 C 
ATOM     98  H   UNL A   1      39.785  34.390  33.198  1.00  0.00     0.049 H 
ATOM     99  H   UNL A   1      39.468  32.763  32.593  1.00  0.00     0.049 H 
BRANCH  97 100
ATOM    100  N   UNL A   1      38.405  33.289  34.267  1.00  0.00    -0.352 N 
ATOM    101  C   UNL A   1      38.114  32.048  34.767  1.00  0.00     0.251 C 
ATOM    102  H   UNL A   1      38.150  34.047  34.842  1.00  0.00     0.163 HD
ATOM    103  O   UNL A   1      37.403  31.933  35.761  1.00  0.00    -0.269 OA
BRANCH 101 104
ATOM    104  C   UNL A   1      38.650  30.842  34.106  1.00  0.00     0.041 A 
ATOM    105  C   UNL A   1      37.796  30.083  33.306  1.00  0.00    -0.049 A 
ATOM    106  C   UNL A   1      39.974  30.437  34.323  1.00  0.00    -0.026 A 
ATOM    107  C   UNL A   1      38.285  28.939  32.684  1.00  0.00    -0.059 A 
ATOM    108  H   UNL A   1      36.813  30.366  33.177  1.00  0.00     0.063 H 
ATOM    109  C   UNL A   1      40.477  29.286  33.706  1.00  0.00     0.039 A 
ATOM    110  H   UNL A   1      40.584  30.992  34.941  1.00  0.00     0.065 H 
ATOM    111  C   UNL A   1      39.616  28.554  32.876  1.00  0.00    -0.039 A 
ATOM    112  H   UNL A   1      37.666  28.375  32.080  1.00  0.00     0.062 H 
ATOM    113  H   UNL A   1      39.971  27.712  32.395  1.00  0.00     0.064 H 
BRANCH 109 114
ATOM    114  N   UNL A   1      41.822  28.931  33.919  1.00  0.00    -0.356 N 
ATOM    115  H   UNL A   1      42.449  29.689  33.969  1.00  0.00     0.167 HD
BRANCH 114 116
ATOM    116  C   UNL A   1      42.408  27.663  34.072  1.00  0.00     0.039 A 
ATOM    117  C   UNL A   1      41.926  26.810  35.073  1.00  0.00    -0.032 A 
ATOM    118  C   UNL A   1      43.383  27.181  33.189  1.00  0.00    -0.032 A 
ATOM    119  C   UNL A   1      42.376  25.490  35.166  1.00  0.00     0.018 A 
ATOM    120  H   UNL A   1      41.229  27.160  35.748  1.00  0.00     0.065 H 
ATOM    121  C   UNL A   1      43.847  25.865  33.280  1.00  0.00     0.018 A 
ATOM    122  H   UNL A   1      43.765  27.805  32.463  1.00  0.00     0.065 H 
ATOM    123  C   UNL A   1      43.324  25.015  34.257  1.00  0.00     0.269 A 
ATOM    124  H   UNL A   1      42.008  24.869  35.903  1.00  0.00     0.070 H 
ATOM    125  H   UNL A   1      44.570  25.524  32.628  1.00  0.00     0.070 H 
BRANCH 123 126
ATOM    126  N   UNL A   1      43.741  23.634  34.307  1.00  0.00     0.062 N 
ATOM    127  O   UNL A   1      44.089  23.048  33.303  1.00  0.00    -0.258 OA
ATOM    128  O   UNL A   1      43.795  22.953  35.501  1.00  0.00    -0.258 OA
ENDBRANCH 123 126
ENDBRANCH 114 116
ENDBRANCH 109 114
ENDBRANCH 101 104
ENDBRANCH  97 100
ENDBRANCH  94  97
ENDBRANCH   1  94
TORSDOF 16
ENDMDL
MODEL 8
REMARK VINA RESULT:     -11.8      1.712      8.374
REMARK SMILES O=C(NCCCCCCNC(=O)c1cccc(Nc2ccc([N+](=O)[O-])cc2)c1)c1ccc(-c2c3nc(c(-c4c(F)c(F)c(F)c(F)c4F)c4ccc([nH]4)c(-c4c(F)c(F)c(F)c(F)c4F)c4nc(c(-c5c(F)c(F)c(F)c(F)c5F)c5ccc2[nH]5)C=C4)C=C3)cc1
REMARK SMILES IDX 7 1 6 4 5 7 4 10 3 13 1 14 2 15 29 17 30 18 91 19 31 20
REMARK SMILES IDX 90 22 32 24 33 27 34 28 84 29 35 30 89 31 83 32 85 33 36 34
REMARK SMILES IDX 88 35 82 37 81 39 37 41 69 44 49 45 68 46 50 47 53 48 67 49
REMARK SMILES IDX 86 50 51 51 52 53 66 55 87 56 54 59 38 61 39 62 47 63 40 64
REMARK SMILES IDX 41 65 45 66 48 67 42 68 43 69 46 70 44 71 70 72 71 73 79 74
REMARK SMILES IDX 72 75 73 76 77 77 80 78 74 79 75 80 78 81 76 82 55 83 56 84
REMARK SMILES IDX 64 85 57 86 58 87 62 88 65 89 59 90 60 91 63 92 61 93 8 94
REMARK SMILES IDX 9 97 10 100 11 101 12 103 13 104 14 105 28 106 15 107 17 109
REMARK SMILES IDX 16 111 18 114 19 116 20 117 27 118 21 119 26 121 22 123
REMARK SMILES IDX 23 126 24 127 25 128
REMARK H PARENT 7 2 7 3 6 5 6 6 5 8 5 9 4 11 4 12 3 16 30 21 91 23 31 25 90 26
REMARK H PARENT 89 36 83 38 85 40 88 42 82 43 50 52 53 54 86 57 51 58 87 60
REMARK H PARENT 8 95 8 96 9 98 9 99 10 102 14 108 28 110 15 112 16 113 18 115
REMARK H PARENT 20 120 27 122 21 124 26 125
REMARK Flexibility Score: inf
ROOT
ATOM      1  C   UNL A   1      32.887  30.173  25.835  1.00  0.00    -0.052 C 
ATOM      2  H   UNL A   1      33.317  30.061  26.809  1.00  0.00     0.027 H 
ATOM      3  H   UNL A   1      33.369  30.910  25.228  1.00  0.00     0.027 H 
ENDROOT
BRANCH   1   4
ATOM      4  C   UNL A   1      31.445  30.658  26.011  1.00  0.00    -0.052 C 
ATOM      5  H   UNL A   1      30.961  30.604  25.058  1.00  0.00     0.027 H 
ATOM      6  H   UNL A   1      31.010  30.021  26.753  1.00  0.00     0.027 H 
BRANCH   4   7
ATOM      7  C   UNL A   1      31.290  32.083  26.538  1.00  0.00    -0.036 C 
ATOM      8  H   UNL A   1      30.951  32.700  25.732  1.00  0.00     0.028 H 
ATOM      9  H   UNL A   1      30.596  32.027  27.351  1.00  0.00     0.028 H 
BRANCH   7  10
ATOM     10  C   UNL A   1      32.559  32.703  27.104  1.00  0.00     0.018 C 
ATOM     11  H   UNL A   1      32.869  32.130  27.954  1.00  0.00     0.049 H 
ATOM     12  H   UNL A   1      33.294  32.695  26.328  1.00  0.00     0.049 H 
BRANCH  10  13
ATOM     13  N   UNL A   1      32.379  34.085  27.519  1.00  0.00    -0.352 N 
ATOM     14  O   UNL A   1      32.671  35.915  28.813  1.00  0.00    -0.269 OA
ATOM     15  C   UNL A   1      33.042  34.788  28.497  1.00  0.00     0.251 C 
ATOM     16  H   UNL A   1      31.686  34.588  27.031  1.00  0.00     0.163 HD
BRANCH  15  17
ATOM     17  C   UNL A   1      34.192  34.168  29.191  1.00  0.00     0.039 A 
ATOM     18  C   UNL A   1      35.499  34.452  28.793  1.00  0.00    -0.049 A 
ATOM     19  C   UNL A   1      33.957  33.288  30.252  1.00  0.00    -0.049 A 
ATOM     20  C   UNL A   1      36.558  33.746  29.350  1.00  0.00    -0.053 A 
ATOM     21  H   UNL A   1      35.679  35.184  28.087  1.00  0.00     0.063 H 
ATOM     22  C   UNL A   1      35.033  32.647  30.875  1.00  0.00    -0.053 A 
ATOM     23  H   UNL A   1      32.993  33.110  30.573  1.00  0.00     0.063 H 
ATOM     24  C   UNL A   1      36.340  32.848  30.409  1.00  0.00    -0.014 A 
ATOM     25  H   UNL A   1      37.512  33.882  28.982  1.00  0.00     0.063 H 
ATOM     26  H   UNL A   1      34.864  32.025  31.681  1.00  0.00     0.063 H 
BRANCH  24  27
ATOM     27  C   UNL A   1      37.512  32.194  31.046  1.00  0.00     0.031 A 
ATOM     28  C   UNL A   1      38.309  31.140  30.330  1.00  0.00     0.074 A 
ATOM     29  C   UNL A   1      37.881  32.603  32.275  1.00  0.00     0.049 A 
ATOM     30  N   UNL A   1      39.385  30.509  30.729  1.00  0.00    -0.248 NA
ATOM     31  C   UNL A   1      37.839  30.737  28.997  1.00  0.00    -0.034 C 
ATOM     32  C   UNL A   1      37.170  33.604  33.075  1.00  0.00    -0.036 A 
ATOM     33  N   UNL A   1      38.950  32.253  33.058  1.00  0.00    -0.354 N 
ATOM     34  C   UNL A   1      39.718  29.633  29.704  1.00  0.00     0.074 A 
ATOM     35  C   UNL A   1      38.708  29.787  28.677  1.00  0.00    -0.034 C 
ATOM     36  H   UNL A   1      37.040  31.097  28.451  1.00  0.00     0.065 H 
ATOM     37  C   UNL A   1      37.848  33.823  34.210  1.00  0.00    -0.036 A 
ATOM     38  H   UNL A   1      36.288  34.067  32.807  1.00  0.00     0.065 H 
ATOM     39  C   UNL A   1      39.005  32.937  34.248  1.00  0.00     0.049 A 
ATOM     40  H   UNL A   1      39.615  31.576  32.793  1.00  0.00     0.167 HD
ATOM     41  C   UNL A   1      40.774  28.789  29.624  1.00  0.00     0.037 A 
ATOM     42  H   UNL A   1      38.670  29.230  27.808  1.00  0.00     0.065 H 
ATOM     43  H   UNL A   1      37.592  34.509  34.939  1.00  0.00     0.065 H 
ATOM     44  C   UNL A   1      39.881  32.852  35.265  1.00  0.00     0.037 A 
ATOM     45  C   UNL A   1      41.776  28.641  30.651  1.00  0.00     0.049 A 
ATOM     46  C   UNL A   1      41.032  31.894  35.154  1.00  0.00     0.074 A 
ATOM     47  C   UNL A   1      42.888  27.815  30.662  1.00  0.00    -0.036 A 
ATOM     48  N   UNL A   1      41.787  29.338  31.851  1.00  0.00    -0.354 N 
ATOM     49  N   UNL A   1      41.347  31.091  34.168  1.00  0.00    -0.248 NA
ATOM     50  C   UNL A   1      41.951  31.833  36.297  1.00  0.00    -0.034 C 
ATOM     51  C   UNL A   1      43.550  27.984  31.884  1.00  0.00    -0.036 A 
ATOM     52  H   UNL A   1      43.179  27.182  29.900  1.00  0.00     0.065 H 
ATOM     53  C   UNL A   1      42.879  28.950  32.614  1.00  0.00     0.049 A 
ATOM     54  H   UNL A   1      41.119  30.009  32.121  1.00  0.00     0.167 HD
ATOM     55  C   UNL A   1      42.504  30.438  34.564  1.00  0.00     0.074 A 
ATOM     56  C   UNL A   1      42.853  30.962  35.868  1.00  0.00    -0.034 C 
ATOM     57  H   UNL A   1      41.906  32.335  37.197  1.00  0.00     0.065 H 
ATOM     58  H   UNL A   1      44.394  27.474  32.188  1.00  0.00     0.065 H 
ATOM     59  C   UNL A   1      43.210  29.483  33.912  1.00  0.00     0.037 A 
ATOM     60  H   UNL A   1      43.697  30.692  36.396  1.00  0.00     0.065 H 
BRANCH  41  61
ATOM     61  C   UNL A   1      40.908  27.951  28.385  1.00  0.00     0.064 A 
ATOM     62  C   UNL A   1      41.639  28.398  27.274  1.00  0.00     0.173 A 
ATOM     63  C   UNL A   1      40.353  26.663  28.328  1.00  0.00     0.173 A 
ATOM     64  F   UNL A   1      42.181  29.625  27.272  1.00  0.00    -0.203 F 
ATOM     65  C   UNL A   1      41.794  27.594  26.146  1.00  0.00     0.198 A 
ATOM     66  C   UNL A   1      40.532  25.852  27.209  1.00  0.00     0.198 A 
ATOM     67  F   UNL A   1      39.651  26.183  29.366  1.00  0.00    -0.203 F 
ATOM     68  F   UNL A   1      42.466  28.057  25.083  1.00  0.00    -0.200 F 
ATOM     69  C   UNL A   1      41.248  26.320  26.119  1.00  0.00     0.200 A 
ATOM     70  F   UNL A   1      40.015  24.616  27.190  1.00  0.00    -0.200 F 
ATOM     71  F   UNL A   1      41.409  25.544  25.038  1.00  0.00    -0.200 F 
ENDBRANCH  41  61
BRANCH  44  72
ATOM     72  C   UNL A   1      39.690  33.691  36.476  1.00  0.00     0.064 A 
ATOM     73  C   UNL A   1      38.920  33.241  37.556  1.00  0.00     0.173 A 
ATOM     74  C   UNL A   1      40.279  34.960  36.577  1.00  0.00     0.173 A 
ATOM     75  F   UNL A   1      38.323  32.041  37.500  1.00  0.00    -0.203 F 
ATOM     76  C   UNL A   1      38.728  34.038  38.682  1.00  0.00     0.198 A 
ATOM     77  C   UNL A   1      40.114  35.742  37.717  1.00  0.00     0.198 A 
ATOM     78  F   UNL A   1      41.032  35.434  35.573  1.00  0.00    -0.203 F 
ATOM     79  F   UNL A   1      37.947  33.604  39.681  1.00  0.00    -0.200 F 
ATOM     80  C   UNL A   1      39.330  35.285  38.765  1.00  0.00     0.200 A 
ATOM     81  F   UNL A   1      40.714  36.937  37.800  1.00  0.00    -0.200 F 
ATOM     82  F   UNL A   1      39.150  36.048  39.851  1.00  0.00    -0.200 F 
ENDBRANCH  44  72
BRANCH  59  83
ATOM     83  C   UNL A   1      44.440  28.965  34.595  1.00  0.00     0.064 A 
ATOM     84  C   UNL A   1      44.393  27.849  35.444  1.00  0.00     0.173 A 
ATOM     85  C   UNL A   1      45.681  29.586  34.393  1.00  0.00     0.173 A 
ATOM     86  F   UNL A   1      43.227  27.231  35.683  1.00  0.00    -0.203 F 
ATOM     87  C   UNL A   1      45.538  27.395  36.093  1.00  0.00     0.198 A 
ATOM     88  C   UNL A   1      46.830  29.111  35.020  1.00  0.00     0.198 A 
ATOM     89  F   UNL A   1      45.780  30.653  33.586  1.00  0.00    -0.203 F 
ATOM     90  F   UNL A   1      45.460  26.365  36.945  1.00  0.00    -0.200 F 
ATOM     91  C   UNL A   1      46.756  28.024  35.877  1.00  0.00     0.200 A 
ATOM     92  F   UNL A   1      48.008  29.714  34.802  1.00  0.00    -0.200 F 
ATOM     93  F   UNL A   1      47.857  27.587  36.503  1.00  0.00    -0.200 F 
ENDBRANCH  59  83
ENDBRANCH  24  27
ENDBRANCH  15  17
ENDBRANCH  10  13
ENDBRANCH   7  10
ENDBRANCH   4   7
ENDBRANCH   1   4
BRANCH   1  94
ATOM     94  C   UNL A   1      33.059  28.845  25.091  1.00  0.00    -0.036 C 
ATOM     95  H   UNL A   1      32.163  28.273  25.223  1.00  0.00     0.028 H 
ATOM     96  H   UNL A   1      33.928  28.382  25.507  1.00  0.00     0.028 H 
BRANCH  94  97
ATOM     97  C   UNL A   1      33.322  28.966  23.591  1.00  0.00     0.018 C 
ATOM     98  H   UNL A   1      33.570  28.001  23.204  1.00  0.00     0.049 H 
ATOM     99  H   UNL A   1      34.126  29.658  23.450  1.00  0.00     0.049 H 
BRANCH  97 100
ATOM    100  N   UNL A   1      32.164  29.474  22.878  1.00  0.00    -0.352 N 
ATOM    101  C   UNL A   1      31.039  28.808  22.467  1.00  0.00     0.251 C 
ATOM    102  H   UNL A   1      32.190  30.434  22.659  1.00  0.00     0.163 HD
ATOM    103  O   UNL A   1      30.243  29.350  21.707  1.00  0.00    -0.269 OA
BRANCH 101 104
ATOM    104  C   UNL A   1      30.784  27.432  22.935  1.00  0.00     0.041 A 
ATOM    105  C   UNL A   1      29.821  27.229  23.923  1.00  0.00    -0.049 A 
ATOM    106  C   UNL A   1      31.533  26.357  22.436  1.00  0.00    -0.026 A 
ATOM    107  C   UNL A   1      29.576  25.940  24.380  1.00  0.00    -0.059 A 
ATOM    108  H   UNL A   1      29.297  28.028  24.312  1.00  0.00     0.063 H 
ATOM    109  C   UNL A   1      31.298  25.054  22.891  1.00  0.00     0.039 A 
ATOM    110  H   UNL A   1      32.262  26.527  21.728  1.00  0.00     0.065 H 
ATOM    111  C   UNL A   1      30.302  24.864  23.859  1.00  0.00    -0.039 A 
ATOM    112  H   UNL A   1      28.857  25.776  25.103  1.00  0.00     0.062 H 
ATOM    113  H   UNL A   1      30.099  23.909  24.194  1.00  0.00     0.064 H 
BRANCH 109 114
ATOM    114  N   UNL A   1      32.046  23.996  22.340  1.00  0.00    -0.356 N 
ATOM    115  H   UNL A   1      31.821  23.768  21.410  1.00  0.00     0.167 HD
BRANCH 114 116
ATOM    116  C   UNL A   1      33.064  23.216  22.914  1.00  0.00     0.039 A 
ATOM    117  C   UNL A   1      34.367  23.729  22.960  1.00  0.00    -0.032 A 
ATOM    118  C   UNL A   1      32.802  21.990  23.540  1.00  0.00    -0.032 A 
ATOM    119  C   UNL A   1      35.378  23.055  23.650  1.00  0.00     0.018 A 
ATOM    120  H   UNL A   1      34.582  24.616  22.480  1.00  0.00     0.065 H 
ATOM    121  C   UNL A   1      33.808  21.303  24.225  1.00  0.00     0.018 A 
ATOM    122  H   UNL A   1      31.853  21.589  23.494  1.00  0.00     0.065 H 
ATOM    123  C   UNL A   1      35.091  21.849  24.296  1.00  0.00     0.269 A 
ATOM    124  H   UNL A   1      36.332  23.446  23.683  1.00  0.00     0.070 H 
ATOM    125  H   UNL A   1      33.603  20.397  24.676  1.00  0.00     0.070 H 
BRANCH 123 126
ATOM    126  N   UNL A   1      36.115  21.184  25.067  1.00  0.00     0.062 N 
ATOM    127  O   UNL A   1      36.227  19.976  25.048  1.00  0.00    -0.258 OA
ATOM    128  O   UNL A   1      37.020  21.903  25.813  1.00  0.00    -0.258 OA
ENDBRANCH 123 126
ENDBRANCH 114 116
ENDBRANCH 109 114
ENDBRANCH 101 104
ENDBRANCH  97 100
ENDBRANCH  94  97
ENDBRANCH   1  94
TORSDOF 16
ENDMDL
MODEL 9
REMARK VINA RESULT:     -11.8      6.512     11.967
REMARK SMILES O=C(NCCCCCCNC(=O)c1cccc(Nc2ccc([N+](=O)[O-])cc2)c1)c1ccc(-c2c3nc(c(-c4c(F)c(F)c(F)c(F)c4F)c4ccc([nH]4)c(-c4c(F)c(F)c(F)c(F)c4F)c4nc(c(-c5c(F)c(F)c(F)c(F)c5F)c5ccc2[nH]5)C=C4)C=C3)cc1
REMARK SMILES IDX 7 1 6 4 5 7 4 10 3 13 1 14 2 15 29 17 30 18 91 19 31 20
REMARK SMILES IDX 90 22 32 24 33 27 34 28 84 29 35 30 89 31 83 32 85 33 36 34
REMARK SMILES IDX 88 35 82 37 81 39 37 41 69 44 49 45 68 46 50 47 53 48 67 49
REMARK SMILES IDX 86 50 51 51 52 53 66 55 87 56 54 59 38 61 39 62 47 63 40 64
REMARK SMILES IDX 41 65 45 66 48 67 42 68 43 69 46 70 44 71 70 72 71 73 79 74
REMARK SMILES IDX 72 75 73 76 77 77 80 78 74 79 75 80 78 81 76 82 55 83 56 84
REMARK SMILES IDX 64 85 57 86 58 87 62 88 65 89 59 90 60 91 63 92 61 93 8 94
REMARK SMILES IDX 9 97 10 100 11 101 12 103 13 104 14 105 28 106 15 107 17 109
REMARK SMILES IDX 16 111 18 114 19 116 20 117 27 118 21 119 26 121 22 123
REMARK SMILES IDX 23 126 24 127 25 128
REMARK H PARENT 7 2 7 3 6 5 6 6 5 8 5 9 4 11 4 12 3 16 30 21 91 23 31 25 90 26
REMARK H PARENT 89 36 83 38 85 40 88 42 82 43 50 52 53 54 86 57 51 58 87 60
REMARK H PARENT 8 95 8 96 9 98 9 99 10 102 14 108 28 110 15 112 16 113 18 115
REMARK H PARENT 20 120 27 122 21 124 26 125
REMARK Flexibility Score: inf
ROOT
ATOM      1  C   UNL A   1      39.865  23.283  26.369  1.00  0.00    -0.052 C 
ATOM      2  H   UNL A   1      39.980  23.082  25.324  1.00  0.00     0.027 H 
ATOM      3  H   UNL A   1      40.599  23.952  26.767  1.00  0.00     0.027 H 
ENDROOT
BRANCH   1   4
ATOM      4  C   UNL A   1      40.052  21.965  27.124  1.00  0.00    -0.052 C 
ATOM      5  H   UNL A   1      40.958  22.034  27.689  1.00  0.00     0.027 H 
ATOM      6  H   UNL A   1      39.175  21.845  27.726  1.00  0.00     0.027 H 
BRANCH   4   7
ATOM      7  C   UNL A   1      40.136  20.713  26.253  1.00  0.00    -0.036 C 
ATOM      8  H   UNL A   1      39.141  20.353  26.092  1.00  0.00     0.028 H 
ATOM      9  H   UNL A   1      40.631  21.009  25.352  1.00  0.00     0.028 H 
BRANCH   7  10
ATOM     10  C   UNL A   1      40.960  19.575  26.836  1.00  0.00     0.018 C 
ATOM     11  H   UNL A   1      41.428  19.918  27.736  1.00  0.00     0.049 H 
ATOM     12  H   UNL A   1      40.295  18.758  27.020  1.00  0.00     0.049 H 
BRANCH  10  13
ATOM     13  N   UNL A   1      41.993  19.099  25.931  1.00  0.00    -0.352 N 
ATOM     14  O   UNL A   1      43.754  19.268  24.524  1.00  0.00    -0.269 OA
ATOM     15  C   UNL A   1      43.048  19.789  25.383  1.00  0.00     0.251 C 
ATOM     16  H   UNL A   1      41.928  18.150  25.674  1.00  0.00     0.163 HD
BRANCH  15  17
ATOM     17  C   UNL A   1      43.315  21.179  25.812  1.00  0.00     0.039 A 
ATOM     18  C   UNL A   1      43.214  22.234  24.905  1.00  0.00    -0.049 A 
ATOM     19  C   UNL A   1      43.673  21.428  27.141  1.00  0.00    -0.049 A 
ATOM     20  C   UNL A   1      43.615  23.510  25.283  1.00  0.00    -0.053 A 
ATOM     21  H   UNL A   1      42.841  22.068  23.956  1.00  0.00     0.063 H 
ATOM     22  C   UNL A   1      43.988  22.730  27.544  1.00  0.00    -0.053 A 
ATOM     23  H   UNL A   1      43.707  20.654  27.822  1.00  0.00     0.063 H 
ATOM     24  C   UNL A   1      43.991  23.777  26.610  1.00  0.00    -0.014 A 
ATOM     25  H   UNL A   1      43.638  24.267  24.582  1.00  0.00     0.063 H 
ATOM     26  H   UNL A   1      44.218  22.921  28.531  1.00  0.00     0.063 H 
BRANCH  24  27
ATOM     27  C   UNL A   1      44.311  25.175  26.997  1.00  0.00     0.031 A 
ATOM     28  C   UNL A   1      45.688  25.746  26.807  1.00  0.00     0.074 A 
ATOM     29  C   UNL A   1      43.319  25.947  27.481  1.00  0.00     0.049 A 
ATOM     30  N   UNL A   1      46.116  26.960  27.048  1.00  0.00    -0.248 NA
ATOM     31  C   UNL A   1      46.722  24.841  26.285  1.00  0.00    -0.034 C 
ATOM     32  C   UNL A   1      41.948  25.493  27.727  1.00  0.00    -0.036 A 
ATOM     33  N   UNL A   1      43.297  27.272  27.830  1.00  0.00    -0.354 N 
ATOM     34  C   UNL A   1      47.464  26.965  26.714  1.00  0.00     0.074 A 
ATOM     35  C   UNL A   1      47.794  25.622  26.286  1.00  0.00    -0.034 C 
ATOM     36  H   UNL A   1      46.637  23.854  25.993  1.00  0.00     0.065 H 
ATOM     37  C   UNL A   1      41.207  26.532  28.139  1.00  0.00    -0.036 A 
ATOM     38  H   UNL A   1      41.606  24.528  27.604  1.00  0.00     0.065 H 
ATOM     39  C   UNL A   1      42.062  27.708  28.245  1.00  0.00     0.049 A 
ATOM     40  H   UNL A   1      44.089  27.855  27.787  1.00  0.00     0.167 HD
ATOM     41  C   UNL A   1      48.339  27.999  26.751  1.00  0.00     0.037 A 
ATOM     42  H   UNL A   1      48.742  25.312  26.017  1.00  0.00     0.065 H 
ATOM     43  H   UNL A   1      40.197  26.503  28.346  1.00  0.00     0.065 H 
ATOM     44  C   UNL A   1      41.663  28.918  28.676  1.00  0.00     0.037 A 
ATOM     45  C   UNL A   1      48.003  29.334  27.178  1.00  0.00     0.049 A 
ATOM     46  C   UNL A   1      42.661  30.039  28.721  1.00  0.00     0.074 A 
ATOM     47  C   UNL A   1      48.819  30.451  27.248  1.00  0.00    -0.036 A 
ATOM     48  N   UNL A   1      46.746  29.734  27.610  1.00  0.00    -0.354 N 
ATOM     49  N   UNL A   1      43.926  30.034  28.379  1.00  0.00    -0.248 NA
ATOM     50  C   UNL A   1      42.175  31.335  29.212  1.00  0.00    -0.034 C 
ATOM     51  C   UNL A   1      48.066  31.516  27.755  1.00  0.00    -0.036 A 
ATOM     52  H   UNL A   1      49.813  30.493  26.971  1.00  0.00     0.065 H 
ATOM     53  C   UNL A   1      46.769  31.076  27.958  1.00  0.00     0.049 A 
ATOM     54  H   UNL A   1      45.955  29.150  27.660  1.00  0.00     0.167 HD
ATOM     55  C   UNL A   1      44.385  31.323  28.600  1.00  0.00     0.074 A 
ATOM     56  C   UNL A   1      43.254  32.092  29.076  1.00  0.00    -0.034 C 
ATOM     57  H   UNL A   1      41.241  31.588  29.568  1.00  0.00     0.065 H 
ATOM     58  H   UNL A   1      48.418  32.467  27.947  1.00  0.00     0.065 H 
ATOM     59  C   UNL A   1      45.632  31.825  28.432  1.00  0.00     0.037 A 
ATOM     60  H   UNL A   1      43.284  33.103  29.284  1.00  0.00     0.065 H 
BRANCH  41  61
ATOM     61  C   UNL A   1      49.753  27.733  26.319  1.00  0.00     0.064 A 
ATOM     62  C   UNL A   1      50.776  27.511  27.254  1.00  0.00     0.173 A 
ATOM     63  C   UNL A   1      50.080  27.640  24.957  1.00  0.00     0.173 A 
ATOM     64  F   UNL A   1      50.520  27.599  28.568  1.00  0.00    -0.203 F 
ATOM     65  C   UNL A   1      52.074  27.222  26.841  1.00  0.00     0.198 A 
ATOM     66  C   UNL A   1      51.374  27.325  24.549  1.00  0.00     0.198 A 
ATOM     67  F   UNL A   1      49.139  27.836  24.021  1.00  0.00    -0.203 F 
ATOM     68  F   UNL A   1      53.042  27.048  27.752  1.00  0.00    -0.200 F 
ATOM     69  C   UNL A   1      52.370  27.121  25.490  1.00  0.00     0.200 A 
ATOM     70  F   UNL A   1      51.655  27.215  23.243  1.00  0.00    -0.200 F 
ATOM     71  F   UNL A   1      53.618  26.831  25.096  1.00  0.00    -0.200 F 
ENDBRANCH  41  61
BRANCH  44  72
ATOM     72  C   UNL A   1      40.256  29.120  29.109  1.00  0.00     0.064 A 
ATOM     73  C   UNL A   1      39.907  29.113  30.466  1.00  0.00     0.173 A 
ATOM     74  C   UNL A   1      39.233  29.328  28.172  1.00  0.00     0.173 A 
ATOM     75  F   UNL A   1      40.846  28.902  31.399  1.00  0.00    -0.203 F 
ATOM     76  C   UNL A   1      38.584  29.285  30.867  1.00  0.00     0.198 A 
ATOM     77  C   UNL A   1      37.917  29.532  28.575  1.00  0.00     0.198 A 
ATOM     78  F   UNL A   1      39.518  29.351  26.861  1.00  0.00    -0.203 F 
ATOM     79  F   UNL A   1      38.268  29.226  32.168  1.00  0.00    -0.200 F 
ATOM     80  C   UNL A   1      37.591  29.501  29.922  1.00  0.00     0.200 A 
ATOM     81  F   UNL A   1      36.966  29.761  27.660  1.00  0.00    -0.200 F 
ATOM     82  F   UNL A   1      36.320  29.672  30.309  1.00  0.00    -0.200 F 
ENDBRANCH  44  72
BRANCH  59  83
ATOM     83  C   UNL A   1      45.826  33.278  28.748  1.00  0.00     0.064 A 
ATOM     84  C   UNL A   1      45.653  34.271  27.771  1.00  0.00     0.173 A 
ATOM     85  C   UNL A   1      46.181  33.684  30.043  1.00  0.00     0.173 A 
ATOM     86  F   UNL A   1      45.332  33.932  26.514  1.00  0.00    -0.203 F 
ATOM     87  C   UNL A   1      45.863  35.614  28.071  1.00  0.00     0.198 A 
ATOM     88  C   UNL A   1      46.360  35.031  30.347  1.00  0.00     0.198 A 
ATOM     89  F   UNL A   1      46.353  32.774  31.013  1.00  0.00    -0.203 F 
ATOM     90  F   UNL A   1      45.750  36.539  27.110  1.00  0.00    -0.200 F 
ATOM     91  C   UNL A   1      46.211  35.992  29.360  1.00  0.00     0.200 A 
ATOM     92  F   UNL A   1      46.687  35.396  31.595  1.00  0.00    -0.200 F 
ATOM     93  F   UNL A   1      46.414  37.286  29.647  1.00  0.00    -0.200 F 
ENDBRANCH  59  83
ENDBRANCH  24  27
ENDBRANCH  15  17
ENDBRANCH  10  13
ENDBRANCH   7  10
ENDBRANCH   4   7
ENDBRANCH   1   4
BRANCH   1  94
ATOM     94  C   UNL A   1      38.516  23.981  26.566  1.00  0.00    -0.036 C 
ATOM     95  H   UNL A   1      38.585  24.961  26.141  1.00  0.00     0.028 H 
ATOM     96  H   UNL A   1      38.335  23.983  27.621  1.00  0.00     0.028 H 
BRANCH  94  97
ATOM     97  C   UNL A   1      37.317  23.277  25.933  1.00  0.00     0.018 C 
ATOM     98  H   UNL A   1      36.421  23.767  26.251  1.00  0.00     0.049 H 
ATOM     99  H   UNL A   1      37.330  22.254  26.246  1.00  0.00     0.049 H 
BRANCH  97 100
ATOM    100  N   UNL A   1      37.378  23.303  24.484  1.00  0.00    -0.352 N 
ATOM    101  C   UNL A   1      36.383  23.079  23.570  1.00  0.00     0.251 C 
ATOM    102  H   UNL A   1      38.262  23.512  24.102  1.00  0.00     0.163 HD
ATOM    103  O   UNL A   1      36.652  22.952  22.380  1.00  0.00    -0.269 OA
BRANCH 101 104
ATOM    104  C   UNL A   1      34.979  22.985  24.017  1.00  0.00     0.041 A 
ATOM    105  C   UNL A   1      34.422  24.065  24.702  1.00  0.00    -0.049 A 
ATOM    106  C   UNL A   1      34.239  21.814  23.807  1.00  0.00    -0.026 A 
ATOM    107  C   UNL A   1      33.104  23.988  25.137  1.00  0.00    -0.059 A 
ATOM    108  H   UNL A   1      34.982  24.912  24.884  1.00  0.00     0.063 H 
ATOM    109  C   UNL A   1      32.912  21.722  24.244  1.00  0.00     0.039 A 
ATOM    110  H   UNL A   1      34.675  21.013  23.326  1.00  0.00     0.065 H 
ATOM    111  C   UNL A   1      32.356  22.830  24.899  1.00  0.00    -0.039 A 
ATOM    112  H   UNL A   1      32.676  24.785  25.635  1.00  0.00     0.062 H 
ATOM    113  H   UNL A   1      31.373  22.791  25.212  1.00  0.00     0.064 H 
BRANCH 109 114
ATOM    114  N   UNL A   1      32.190  20.542  23.983  1.00  0.00    -0.356 N 
ATOM    115  H   UNL A   1      31.327  20.675  23.530  1.00  0.00     0.167 HD
BRANCH 114 116
ATOM    116  C   UNL A   1      32.511  19.205  24.270  1.00  0.00     0.039 A 
ATOM    117  C   UNL A   1      32.902  18.362  23.222  1.00  0.00    -0.032 A 
ATOM    118  C   UNL A   1      32.558  18.714  25.581  1.00  0.00    -0.032 A 
ATOM    119  C   UNL A   1      33.371  17.071  23.478  1.00  0.00     0.018 A 
ATOM    120  H   UNL A   1      32.846  18.699  22.248  1.00  0.00     0.065 H 
ATOM    121  C   UNL A   1      33.016  17.420  25.848  1.00  0.00     0.018 A 
ATOM    122  H   UNL A   1      32.250  19.315  26.360  1.00  0.00     0.065 H 
ATOM    123  C   UNL A   1      33.443  16.608  24.795  1.00  0.00     0.269 A 
ATOM    124  H   UNL A   1      33.663  16.461  22.698  1.00  0.00     0.070 H 
ATOM    125  H   UNL A   1      33.040  17.068  26.818  1.00  0.00     0.070 H 
BRANCH 123 126
ATOM    126  N   UNL A   1      33.990  15.301  25.070  1.00  0.00     0.062 N 
ATOM    127  O   UNL A   1      35.189  15.112  25.072  1.00  0.00    -0.258 OA
ATOM    128  O   UNL A   1      33.171  14.240  25.378  1.00  0.00    -0.258 OA
ENDBRANCH 123 126
ENDBRANCH 114 116
ENDBRANCH 109 114
ENDBRANCH 101 104
ENDBRANCH  97 100
ENDBRANCH  94  97
ENDBRANCH   1  94
TORSDOF 16
ENDMDL
MODEL 10
REMARK VINA RESULT:     -11.6      6.066     11.436
REMARK SMILES O=C(NCCCCCCNC(=O)c1cccc(Nc2ccc([N+](=O)[O-])cc2)c1)c1ccc(-c2c3nc(c(-c4c(F)c(F)c(F)c(F)c4F)c4ccc([nH]4)c(-c4c(F)c(F)c(F)c(F)c4F)c4nc(c(-c5c(F)c(F)c(F)c(F)c5F)c5ccc2[nH]5)C=C4)C=C3)cc1
REMARK SMILES IDX 7 1 6 4 5 7 4 10 3 13 1 14 2 15 29 17 30 18 91 19 31 20
REMARK SMILES IDX 90 22 32 24 33 27 34 28 84 29 35 30 89 31 83 32 85 33 36 34
REMARK SMILES IDX 88 35 82 37 81 39 37 41 69 44 49 45 68 46 50 47 53 48 67 49
REMARK SMILES IDX 86 50 51 51 52 53 66 55 87 56 54 59 38 61 39 62 47 63 40 64
REMARK SMILES IDX 41 65 45 66 48 67 42 68 43 69 46 70 44 71 70 72 71 73 79 74
REMARK SMILES IDX 72 75 73 76 77 77 80 78 74 79 75 80 78 81 76 82 55 83 56 84
REMARK SMILES IDX 64 85 57 86 58 87 62 88 65 89 59 90 60 91 63 92 61 93 8 94
REMARK SMILES IDX 9 97 10 100 11 101 12 103 13 104 14 105 28 106 15 107 17 109
REMARK SMILES IDX 16 111 18 114 19 116 20 117 27 118 21 119 26 121 22 123
REMARK SMILES IDX 23 126 24 127 25 128
REMARK H PARENT 7 2 7 3 6 5 6 6 5 8 5 9 4 11 4 12 3 16 30 21 91 23 31 25 90 26
REMARK H PARENT 89 36 83 38 85 40 88 42 82 43 50 52 53 54 86 57 51 58 87 60
REMARK H PARENT 8 95 8 96 9 98 9 99 10 102 14 108 28 110 15 112 16 113 18 115
REMARK H PARENT 20 120 27 122 21 124 26 125
REMARK Flexibility Score: inf
ROOT
ATOM      1  C   UNL A   1      40.641  22.308  26.268  1.00  0.00    -0.052 C 
ATOM      2  H   UNL A   1      40.705  22.046  25.233  1.00  0.00     0.027 H 
ATOM      3  H   UNL A   1      41.356  23.041  26.579  1.00  0.00     0.027 H 
ENDROOT
BRANCH   1   4
ATOM      4  C   UNL A   1      40.949  21.053  27.090  1.00  0.00    -0.052 C 
ATOM      5  H   UNL A   1      41.808  21.258  27.694  1.00  0.00     0.027 H 
ATOM      6  H   UNL A   1      40.064  20.847  27.654  1.00  0.00     0.027 H 
BRANCH   4   7
ATOM      7  C   UNL A   1      41.234  19.790  26.280  1.00  0.00    -0.036 C 
ATOM      8  H   UNL A   1      40.464  19.079  26.492  1.00  0.00     0.028 H 
ATOM      9  H   UNL A   1      41.263  20.093  25.254  1.00  0.00     0.028 H 
BRANCH   7  10
ATOM     10  C   UNL A   1      42.576  19.131  26.565  1.00  0.00     0.018 C 
ATOM     11  H   UNL A   1      43.174  19.807  27.140  1.00  0.00     0.049 H 
ATOM     12  H   UNL A   1      42.381  18.222  27.095  1.00  0.00     0.049 H 
BRANCH  10  13
ATOM     13  N   UNL A   1      43.305  18.782  25.357  1.00  0.00    -0.352 N 
ATOM     14  O   UNL A   1      44.528  19.156  23.494  1.00  0.00    -0.269 OA
ATOM     15  C   UNL A   1      44.092  19.579  24.560  1.00  0.00     0.251 C 
ATOM     16  H   UNL A   1      43.225  17.843  25.069  1.00  0.00     0.163 HD
BRANCH  15  17
ATOM     17  C   UNL A   1      44.388  20.966  24.980  1.00  0.00     0.039 A 
ATOM     18  C   UNL A   1      45.145  21.215  26.125  1.00  0.00    -0.049 A 
ATOM     19  C   UNL A   1      43.897  22.032  24.218  1.00  0.00    -0.049 A 
ATOM     20  C   UNL A   1      45.283  22.517  26.591  1.00  0.00    -0.053 A 
ATOM     21  H   UNL A   1      45.601  20.435  26.625  1.00  0.00     0.063 H 
ATOM     22  C   UNL A   1      44.118  23.347  24.639  1.00  0.00    -0.053 A 
ATOM     23  H   UNL A   1      43.373  21.848  23.348  1.00  0.00     0.063 H 
ATOM     24  C   UNL A   1      44.787  23.599  25.846  1.00  0.00    -0.014 A 
ATOM     25  H   UNL A   1      45.755  22.689  27.493  1.00  0.00     0.063 H 
ATOM     26  H   UNL A   1      43.787  24.134  24.060  1.00  0.00     0.063 H 
BRANCH  24  27
ATOM     27  C   UNL A   1      45.048  24.981  26.326  1.00  0.00     0.031 A 
ATOM     28  C   UNL A   1      46.404  25.615  26.194  1.00  0.00     0.074 A 
ATOM     29  C   UNL A   1      44.021  25.681  26.843  1.00  0.00     0.049 A 
ATOM     30  N   UNL A   1      46.781  26.826  26.518  1.00  0.00    -0.248 NA
ATOM     31  C   UNL A   1      47.479  24.784  25.631  1.00  0.00    -0.034 C 
ATOM     32  C   UNL A   1      42.665  25.161  27.040  1.00  0.00    -0.036 A 
ATOM     33  N   UNL A   1      43.943  26.980  27.276  1.00  0.00    -0.354 N 
ATOM     34  C   UNL A   1      48.132  26.903  26.206  1.00  0.00     0.074 A 
ATOM     35  C   UNL A   1      48.520  25.604  25.698  1.00  0.00    -0.034 C 
ATOM     36  H   UNL A   1      47.436  23.816  25.275  1.00  0.00     0.065 H 
ATOM     37  C   UNL A   1      41.880  26.143  27.506  1.00  0.00    -0.036 A 
ATOM     38  H   UNL A   1      42.362  24.193  26.850  1.00  0.00     0.065 H 
ATOM     39  C   UNL A   1      42.687  27.341  27.699  1.00  0.00     0.049 A 
ATOM     40  H   UNL A   1      44.712  27.593  27.283  1.00  0.00     0.167 HD
ATOM     41  C   UNL A   1      48.966  27.965  26.322  1.00  0.00     0.037 A 
ATOM     42  H   UNL A   1      49.482  25.348  25.424  1.00  0.00     0.065 H 
ATOM     43  H   UNL A   1      40.868  26.062  27.696  1.00  0.00     0.065 H 
ATOM     44  C   UNL A   1      42.236  28.504  28.202  1.00  0.00     0.037 A 
ATOM     45  C   UNL A   1      48.574  29.257  26.828  1.00  0.00     0.049 A 
ATOM     46  C   UNL A   1      43.189  29.657  28.333  1.00  0.00     0.074 A 
ATOM     47  C   UNL A   1      49.344  30.397  26.981  1.00  0.00    -0.036 A 
ATOM     48  N   UNL A   1      47.296  29.579  27.266  1.00  0.00    -0.354 N 
ATOM     49  N   UNL A   1      44.457  29.722  28.010  1.00  0.00    -0.248 NA
ATOM     50  C   UNL A   1      42.647  30.899  28.898  1.00  0.00    -0.034 C 
ATOM     51  C   UNL A   1      48.544  31.397  27.545  1.00  0.00    -0.036 A 
ATOM     52  H   UNL A   1      50.339  30.493  26.723  1.00  0.00     0.065 H 
ATOM     53  C   UNL A   1      47.263  30.896  27.699  1.00  0.00     0.049 A 
ATOM     54  H   UNL A   1      46.528  28.964  27.267  1.00  0.00     0.167 HD
ATOM     55  C   UNL A   1      44.863  31.011  28.320  1.00  0.00     0.074 A 
ATOM     56  C   UNL A   1      43.697  31.704  28.827  1.00  0.00    -0.034 C 
ATOM     57  H   UNL A   1      41.699  31.093  29.256  1.00  0.00     0.065 H 
ATOM     58  H   UNL A   1      48.857  32.346  27.803  1.00  0.00     0.065 H 
ATOM     59  C   UNL A   1      46.092  31.569  28.204  1.00  0.00     0.037 A 
ATOM     60  H   UNL A   1      43.685  32.700  29.100  1.00  0.00     0.065 H 
BRANCH  41  61
ATOM     61  C   UNL A   1      50.395  27.782  25.895  1.00  0.00     0.064 A 
ATOM     62  C   UNL A   1      50.772  27.856  24.546  1.00  0.00     0.173 A 
ATOM     63  C   UNL A   1      51.408  27.591  26.849  1.00  0.00     0.173 A 
ATOM     64  F   UNL A   1      49.843  28.026  23.594  1.00  0.00    -0.203 F 
ATOM     65  C   UNL A   1      52.106  27.729  24.166  1.00  0.00     0.198 A 
ATOM     66  C   UNL A   1      52.744  27.489  26.467  1.00  0.00     0.198 A 
ATOM     67  F   UNL A   1      51.103  27.519  28.154  1.00  0.00    -0.203 F 
ATOM     68  F   UNL A   1      52.438  27.767  22.869  1.00  0.00    -0.200 F 
ATOM     69  C   UNL A   1      53.091  27.554  25.127  1.00  0.00     0.200 A 
ATOM     70  F   UNL A   1      53.695  27.334  27.398  1.00  0.00    -0.200 F 
ATOM     71  F   UNL A   1      54.375  27.444  24.760  1.00  0.00    -0.200 F 
ENDBRANCH  41  61
BRANCH  44  72
ATOM     72  C   UNL A   1      40.817  28.625  28.625  1.00  0.00     0.064 A 
ATOM     73  C   UNL A   1      40.425  28.337  29.939  1.00  0.00     0.173 A 
ATOM     74  C   UNL A   1      39.824  29.035  27.722  1.00  0.00     0.173 A 
ATOM     75  F   UNL A   1      41.335  27.926  30.835  1.00  0.00    -0.203 F 
ATOM     76  C   UNL A   1      39.091  28.433  30.328  1.00  0.00     0.198 A 
ATOM     77  C   UNL A   1      38.497  29.163  28.121  1.00  0.00     0.198 A 
ATOM     78  F   UNL A   1      40.150  29.330  26.454  1.00  0.00    -0.203 F 
ATOM     79  F   UNL A   1      38.735  28.106  31.577  1.00  0.00    -0.200 F 
ATOM     80  C   UNL A   1      38.129  28.852  29.421  1.00  0.00     0.200 A 
ATOM     81  F   UNL A   1      37.575  29.587  27.246  1.00  0.00    -0.200 F 
ATOM     82  F   UNL A   1      36.847  28.951  29.797  1.00  0.00    -0.200 F 
ENDBRANCH  44  72
BRANCH  59  83
ATOM     83  C   UNL A   1      46.225  33.006  28.614  1.00  0.00     0.064 A 
ATOM     84  C   UNL A   1      46.022  34.052  27.701  1.00  0.00     0.173 A 
ATOM     85  C   UNL A   1      46.553  33.340  29.936  1.00  0.00     0.173 A 
ATOM     86  F   UNL A   1      45.724  33.783  26.422  1.00  0.00    -0.203 F 
ATOM     87  C   UNL A   1      46.175  35.380  28.090  1.00  0.00     0.198 A 
ATOM     88  C   UNL A   1      46.676  34.670  30.329  1.00  0.00     0.198 A 
ATOM     89  F   UNL A   1      46.752  32.377  30.848  1.00  0.00    -0.203 F 
ATOM     90  F   UNL A   1      46.034  36.360  27.189  1.00  0.00    -0.200 F 
ATOM     91  C   UNL A   1      46.497  35.687  29.404  1.00  0.00     0.200 A 
ATOM     92  F   UNL A   1      46.977  34.966  31.601  1.00  0.00    -0.200 F 
ATOM     93  F   UNL A   1      46.646  36.966  29.776  1.00  0.00    -0.200 F 
ENDBRANCH  59  83
ENDBRANCH  24  27
ENDBRANCH  15  17
ENDBRANCH  10  13
ENDBRANCH   7  10
ENDBRANCH   4   7
ENDBRANCH   1   4
BRANCH   1  94
ATOM     94  C   UNL A   1      39.266  22.942  26.508  1.00  0.00    -0.036 C 
ATOM     95  H   UNL A   1      39.271  23.919  26.070  1.00  0.00     0.028 H 
ATOM     96  H   UNL A   1      39.123  22.948  27.568  1.00  0.00     0.028 H 
BRANCH  94  97
ATOM     97  C   UNL A   1      38.082  22.172  25.926  1.00  0.00     0.018 C 
ATOM     98  H   UNL A   1      37.218  22.360  26.528  1.00  0.00     0.049 H 
ATOM     99  H   UNL A   1      38.331  21.132  25.924  1.00  0.00     0.049 H 
BRANCH  97 100
ATOM    100  N   UNL A   1      37.798  22.568  24.559  1.00  0.00    -0.352 N 
ATOM    101  C   UNL A   1      36.590  22.814  23.962  1.00  0.00     0.251 C 
ATOM    102  H   UNL A   1      38.586  22.677  23.979  1.00  0.00     0.163 HD
ATOM    103  O   UNL A   1      36.519  22.952  22.745  1.00  0.00    -0.269 OA
BRANCH 101 104
ATOM    104  C   UNL A   1      35.366  22.907  24.782  1.00  0.00     0.041 A 
ATOM    105  C   UNL A   1      34.766  21.727  25.223  1.00  0.00    -0.049 A 
ATOM    106  C   UNL A   1      34.788  24.151  25.066  1.00  0.00    -0.026 A 
ATOM    107  C   UNL A   1      33.608  21.798  25.989  1.00  0.00    -0.059 A 
ATOM    108  H   UNL A   1      35.176  20.812  24.982  1.00  0.00     0.063 H 
ATOM    109  C   UNL A   1      33.621  24.236  25.833  1.00  0.00     0.039 A 
ATOM    110  H   UNL A   1      35.227  25.013  24.707  1.00  0.00     0.065 H 
ATOM    111  C   UNL A   1      33.050  23.043  26.298  1.00  0.00    -0.039 A 
ATOM    112  H   UNL A   1      33.161  20.932  26.331  1.00  0.00     0.062 H 
ATOM    113  H   UNL A   1      32.200  23.083  26.883  1.00  0.00     0.064 H 
BRANCH 109 114
ATOM    114  N   UNL A   1      33.090  25.506  26.127  1.00  0.00    -0.356 N 
ATOM    115  H   UNL A   1      33.431  25.918  26.953  1.00  0.00     0.167 HD
BRANCH 114 116
ATOM    116  C   UNL A   1      32.148  26.276  25.423  1.00  0.00     0.039 A 
ATOM    117  C   UNL A   1      32.605  27.267  24.544  1.00  0.00    -0.032 A 
ATOM    118  C   UNL A   1      30.774  26.016  25.488  1.00  0.00    -0.032 A 
ATOM    119  C   UNL A   1      31.714  27.954  23.716  1.00  0.00     0.018 A 
ATOM    120  H   UNL A   1      33.611  27.490  24.505  1.00  0.00     0.065 H 
ATOM    121  C   UNL A   1      29.872  26.705  24.671  1.00  0.00     0.018 A 
ATOM    122  H   UNL A   1      30.421  25.307  26.149  1.00  0.00     0.065 H 
ATOM    123  C   UNL A   1      30.349  27.659  23.769  1.00  0.00     0.269 A 
ATOM    124  H   UNL A   1      32.062  28.676  23.066  1.00  0.00     0.070 H 
ATOM    125  H   UNL A   1      28.861  26.508  24.733  1.00  0.00     0.070 H 
BRANCH 123 126
ATOM    126  N   UNL A   1      29.433  28.318  22.868  1.00  0.00     0.062 N 
ATOM    127  O   UNL A   1      28.234  28.263  23.044  1.00  0.00    -0.258 OA
ATOM    128  O   UNL A   1      29.895  29.061  21.807  1.00  0.00    -0.258 OA
ENDBRANCH 123 126
ENDBRANCH 114 116
ENDBRANCH 109 114
ENDBRANCH 101 104
ENDBRANCH  97 100
ENDBRANCH  94  97
ENDBRANCH   1  94
TORSDOF 16
ENDMDL
