MODEL 1
REMARK VINA RESULT:      -9.1      0.000      0.000
REMARK SMILES C[C@@H](C(=O)NCCCCCCNC(=O)c1ccc(-c2c3nc(c(-c4c(F)c(F)c(F)c(F)c4F)c4ccc([nH]4)c(-c4c(F)c(F)c(F)c(F)c4F)c4nc(c(-c5c(F)c(F)c(F)c(F)c5F)c5ccc2[nH]5)C=C4)C=C3)cc1)c1ccc(C[C@@H]2CCC[C@@H]2O)cc1F
REMARK SMILES IDX 7 1 6 4 5 7 3 8 4 9 2 11 1 13 78 17 79 18 90 19 80 20 89 22
REMARK SMILES IDX 91 23 81 24 82 27 83 30 84 31 87 32 85 34 86 37 88 43 8 45
REMARK SMILES IDX 9 48 10 51 11 54 12 57 13 58 14 60 15 61 16 62 77 63 17 64
REMARK SMILES IDX 76 66 18 68 19 71 20 72 70 73 21 74 75 75 69 76 71 77 22 78
REMARK SMILES IDX 74 79 68 81 67 83 23 85 55 88 35 89 54 90 36 91 39 92 53 93
REMARK SMILES IDX 72 94 37 95 38 97 52 99 73 100 40 103 24 105 25 106 33 107
REMARK SMILES IDX 26 108 27 109 31 110 34 111 28 112 29 113 32 114 30 115
REMARK SMILES IDX 56 116 57 117 65 118 58 119 59 120 63 121 66 122 60 123
REMARK SMILES IDX 61 124 64 125 62 126 41 127 42 128 50 129 43 130 44 131
REMARK SMILES IDX 48 132 51 133 45 134 46 135 49 136 47 137
REMARK H PARENT 7 2 7 3 6 5 6 6 5 10 2 12 1 14 1 15 1 16 79 21 80 25 89 26
REMARK H PARENT 82 28 82 29 83 33 84 35 84 36 87 38 85 39 85 40 86 41 86 42
REMARK H PARENT 88 44 8 46 8 47 9 49 9 50 10 52 10 53 11 55 11 56 12 59 16 65
REMARK H PARENT 77 67 17 69 76 70 75 80 69 82 71 84 74 86 68 87 36 96 39 98
REMARK H PARENT 72 101 37 102 73 104
REMARK Flexibility Score: inf
ROOT
ATOM      1  C   UNL A   1      37.579  32.846  30.724  1.00  0.00    -0.036 C 
ATOM      2  H   UNL A   1      37.070  31.912  30.839  1.00  0.00     0.028 H 
ATOM      3  H   UNL A   1      38.587  32.809  31.079  1.00  0.00     0.028 H 
ENDROOT
BRANCH   1   4
ATOM      4  C   UNL A   1      36.849  33.897  31.564  1.00  0.00     0.017 C 
ATOM      5  H   UNL A   1      36.417  34.629  30.914  1.00  0.00     0.049 H 
ATOM      6  H   UNL A   1      36.083  33.416  32.136  1.00  0.00     0.049 H 
BRANCH   4   7
ATOM      7  N   UNL A   1      37.772  34.548  32.468  1.00  0.00    -0.356 N 
ATOM      8  C   UNL A   1      37.982  34.348  33.801  1.00  0.00     0.227 C 
ATOM      9  O   UNL A   1      38.714  35.158  34.373  1.00  0.00    -0.274 OA
ATOM     10  H   UNL A   1      38.334  35.244  32.059  1.00  0.00     0.163 HD
BRANCH   8  11
ATOM     11  C   UNL A   1      37.382  33.117  34.493  1.00  0.00     0.063 C 
ATOM     12  H   UNL A   1      36.451  32.911  34.006  1.00  0.00     0.045 H 
BRANCH  11  13
ATOM     13  C   UNL A   1      37.028  33.369  35.964  1.00  0.00    -0.049 C 
ATOM     14  H   UNL A   1      36.381  34.217  36.035  1.00  0.00     0.024 H 
ATOM     15  H   UNL A   1      37.924  33.555  36.520  1.00  0.00     0.024 H 
ATOM     16  H   UNL A   1      36.533  32.508  36.364  1.00  0.00     0.024 H 
ENDBRANCH  11  13
BRANCH  11  17
ATOM     17  C   UNL A   1      38.279  31.901  34.317  1.00  0.00    -0.000 A 
ATOM     18  C   UNL A   1      39.542  31.876  34.927  1.00  0.00    -0.055 A 
ATOM     19  C   UNL A   1      37.877  30.775  33.590  1.00  0.00     0.127 A 
ATOM     20  C   UNL A   1      40.401  30.789  34.740  1.00  0.00    -0.059 A 
ATOM     21  H   UNL A   1      39.840  32.667  35.517  1.00  0.00     0.063 H 
ATOM     22  C   UNL A   1      38.738  29.704  33.382  1.00  0.00    -0.023 A 
ATOM     23  F   UNL A   1      36.656  30.716  33.042  1.00  0.00    -0.207 F 
ATOM     24  C   UNL A   1      40.029  29.718  33.921  1.00  0.00    -0.045 A 
ATOM     25  H   UNL A   1      41.319  30.777  35.213  1.00  0.00     0.063 H 
ATOM     26  H   UNL A   1      38.424  28.894  32.825  1.00  0.00     0.066 H 
BRANCH  24  27
ATOM     27  C   UNL A   1      40.995  28.611  33.582  1.00  0.00    -0.022 C 
ATOM     28  H   UNL A   1      41.540  28.916  32.712  1.00  0.00     0.032 H 
ATOM     29  H   UNL A   1      40.384  27.743  33.457  1.00  0.00     0.032 H 
BRANCH  27  30
ATOM     30  C   UNL A   1      42.031  28.215  34.660  1.00  0.00    -0.011 C 
ATOM     31  C   UNL A   1      43.492  28.467  34.270  1.00  0.00    -0.048 C 
ATOM     32  C   UNL A   1      42.055  26.753  35.120  1.00  0.00     0.057 C 
ATOM     33  H   UNL A   1      41.674  28.854  35.440  1.00  0.00     0.033 H 
ATOM     34  C   UNL A   1      44.079  27.116  33.849  1.00  0.00    -0.050 C 
ATOM     35  H   UNL A   1      44.034  28.860  35.105  1.00  0.00     0.027 H 
ATOM     36  H   UNL A   1      43.559  29.178  33.474  1.00  0.00     0.027 H 
ATOM     37  C   UNL A   1      43.032  26.059  34.182  1.00  0.00    -0.027 C 
ATOM     38  H   UNL A   1      42.364  26.676  36.142  1.00  0.00     0.060 H 
ATOM     39  H   UNL A   1      44.983  26.923  34.389  1.00  0.00     0.027 H 
ATOM     40  H   UNL A   1      44.315  27.109  32.806  1.00  0.00     0.027 H 
ATOM     41  H   UNL A   1      43.487  25.220  34.665  1.00  0.00     0.029 H 
ATOM     42  H   UNL A   1      42.549  25.682  33.305  1.00  0.00     0.029 H 
BRANCH  32  43
ATOM     43  O   UNL A   1      40.778  26.149  35.129  1.00  0.00    -0.393 OA
ATOM     44  H   UNL A   1      40.095  26.838  35.139  1.00  0.00     0.210 HD
ENDBRANCH  32  43
ENDBRANCH  27  30
ENDBRANCH  24  27
ENDBRANCH  11  17
ENDBRANCH   8  11
ENDBRANCH   4   7
ENDBRANCH   1   4
BRANCH   1  45
ATOM     45  C   UNL A   1      37.642  33.182  29.229  1.00  0.00    -0.052 C 
ATOM     46  H   UNL A   1      37.620  32.263  28.680  1.00  0.00     0.027 H 
ATOM     47  H   UNL A   1      38.542  33.742  29.085  1.00  0.00     0.027 H 
BRANCH  45  48
ATOM     48  C   UNL A   1      36.502  34.067  28.715  1.00  0.00    -0.052 C 
ATOM     49  H   UNL A   1      36.902  34.730  27.977  1.00  0.00     0.027 H 
ATOM     50  H   UNL A   1      36.106  34.574  29.571  1.00  0.00     0.027 H 
BRANCH  48  51
ATOM     51  C   UNL A   1      35.331  33.309  28.087  1.00  0.00    -0.036 C 
ATOM     52  H   UNL A   1      35.712  32.703  27.292  1.00  0.00     0.028 H 
ATOM     53  H   UNL A   1      34.633  34.048  27.752  1.00  0.00     0.028 H 
BRANCH  51  54
ATOM     54  C   UNL A   1      34.572  32.403  29.052  1.00  0.00     0.018 C 
ATOM     55  H   UNL A   1      33.800  32.974  29.524  1.00  0.00     0.049 H 
ATOM     56  H   UNL A   1      35.271  32.027  29.770  1.00  0.00     0.049 H 
BRANCH  54  57
ATOM     57  N   UNL A   1      33.968  31.266  28.376  1.00  0.00    -0.352 N 
ATOM     58  C   UNL A   1      34.561  30.124  27.905  1.00  0.00     0.251 C 
ATOM     59  H   UNL A   1      32.995  31.324  28.239  1.00  0.00     0.163 HD
ATOM     60  O   UNL A   1      33.928  29.347  27.191  1.00  0.00    -0.269 OA
BRANCH  58  61
ATOM     61  C   UNL A   1      35.972  29.831  28.234  1.00  0.00     0.039 A 
ATOM     62  C   UNL A   1      36.278  29.328  29.501  1.00  0.00    -0.049 A 
ATOM     63  C   UNL A   1      36.991  30.072  27.307  1.00  0.00    -0.049 A 
ATOM     64  C   UNL A   1      37.600  29.020  29.822  1.00  0.00    -0.053 A 
ATOM     65  H   UNL A   1      35.528  29.184  30.196  1.00  0.00     0.063 H 
ATOM     66  C   UNL A   1      38.300  29.703  27.605  1.00  0.00    -0.053 A 
ATOM     67  H   UNL A   1      36.773  30.522  26.405  1.00  0.00     0.063 H 
ATOM     68  C   UNL A   1      38.619  29.182  28.869  1.00  0.00    -0.014 A 
ATOM     69  H   UNL A   1      37.832  28.672  30.767  1.00  0.00     0.063 H 
ATOM     70  H   UNL A   1      39.039  29.813  26.893  1.00  0.00     0.063 H 
BRANCH  68  71
ATOM     71  C   UNL A   1      40.025  28.826  29.182  1.00  0.00     0.031 A 
ATOM     72  C   UNL A   1      40.890  29.780  29.957  1.00  0.00     0.074 A 
ATOM     73  C   UNL A   1      40.538  27.670  28.723  1.00  0.00     0.049 A 
ATOM     74  N   UNL A   1      42.154  29.676  30.283  1.00  0.00    -0.248 NA
ATOM     75  C   UNL A   1      40.257  31.031  30.405  1.00  0.00    -0.034 C 
ATOM     76  C   UNL A   1      39.812  26.681  27.922  1.00  0.00    -0.036 A 
ATOM     77  N   UNL A   1      41.794  27.132  28.856  1.00  0.00    -0.354 N 
ATOM     78  C   UNL A   1      42.469  30.849  30.955  1.00  0.00     0.074 A 
ATOM     79  C   UNL A   1      41.279  31.673  30.949  1.00  0.00    -0.034 C 
ATOM     80  H   UNL A   1      39.273  31.329  30.317  1.00  0.00     0.065 H 
ATOM     81  C   UNL A   1      40.627  25.649  27.654  1.00  0.00    -0.036 A 
ATOM     82  H   UNL A   1      38.832  26.766  27.612  1.00  0.00     0.065 H 
ATOM     83  C   UNL A   1      41.940  25.915  28.237  1.00  0.00     0.049 A 
ATOM     84  H   UNL A   1      42.521  27.577  29.350  1.00  0.00     0.167 HD
ATOM     85  C   UNL A   1      43.636  31.197  31.546  1.00  0.00     0.037 A 
ATOM     86  H   UNL A   1      41.235  32.636  31.318  1.00  0.00     0.065 H 
ATOM     87  H   UNL A   1      40.368  24.803  27.124  1.00  0.00     0.065 H 
ATOM     88  C   UNL A   1      43.013  25.107  28.147  1.00  0.00     0.037 A 
ATOM     89  C   UNL A   1      44.809  30.362  31.577  1.00  0.00     0.049 A 
ATOM     90  C   UNL A   1      44.298  25.516  28.817  1.00  0.00     0.074 A 
ATOM     91  C   UNL A   1      46.022  30.598  32.201  1.00  0.00    -0.036 A 
ATOM     92  N   UNL A   1      44.914  29.126  30.955  1.00  0.00    -0.354 N 
ATOM     93  N   UNL A   1      44.565  26.598  29.507  1.00  0.00    -0.248 NA
ATOM     94  C   UNL A   1      45.429  24.585  28.699  1.00  0.00    -0.034 C 
ATOM     95  C   UNL A   1      46.873  29.523  31.924  1.00  0.00    -0.036 A 
ATOM     96  H   UNL A   1      46.257  31.424  32.773  1.00  0.00     0.065 H 
ATOM     97  C   UNL A   1      46.176  28.596  31.165  1.00  0.00     0.049 A 
ATOM     98  H   UNL A   1      44.196  28.690  30.441  1.00  0.00     0.167 HD
ATOM     99  C   UNL A   1      45.880  26.465  29.931  1.00  0.00     0.074 A 
ATOM    100  C   UNL A   1      46.353  25.191  29.431  1.00  0.00    -0.034 C 
ATOM    101  H   UNL A   1      45.488  23.693  28.183  1.00  0.00     0.065 H 
ATOM    102  H   UNL A   1      47.855  29.436  32.231  1.00  0.00     0.065 H 
ATOM    103  C   UNL A   1      46.627  27.321  30.669  1.00  0.00     0.037 A 
ATOM    104  H   UNL A   1      47.291  24.804  29.619  1.00  0.00     0.065 H 
BRANCH  85 105
ATOM    105  C   UNL A   1      43.702  32.540  32.213  1.00  0.00     0.064 A 
ATOM    106  C   UNL A   1      43.901  33.718  31.476  1.00  0.00     0.173 A 
ATOM    107  C   UNL A   1      43.534  32.656  33.601  1.00  0.00     0.173 A 
ATOM    108  F   UNL A   1      44.079  33.661  30.148  1.00  0.00    -0.203 F 
ATOM    109  C   UNL A   1      43.960  34.957  32.108  1.00  0.00     0.198 A 
ATOM    110  C   UNL A   1      43.564  33.901  34.226  1.00  0.00     0.198 A 
ATOM    111  F   UNL A   1      43.334  31.563  34.353  1.00  0.00    -0.203 F 
ATOM    112  F   UNL A   1      44.203  36.062  31.389  1.00  0.00    -0.200 F 
ATOM    113  C   UNL A   1      43.786  35.048  33.480  1.00  0.00     0.200 A 
ATOM    114  F   UNL A   1      43.383  33.989  35.551  1.00  0.00    -0.200 F 
ATOM    115  F   UNL A   1      43.839  36.243  34.085  1.00  0.00    -0.200 F 
ENDBRANCH  85 105
BRANCH  88 116
ATOM    116  C   UNL A   1      42.910  23.813  27.425  1.00  0.00     0.064 A 
ATOM    117  C   UNL A   1      43.301  23.708  26.083  1.00  0.00     0.173 A 
ATOM    118  C   UNL A   1      42.417  22.662  28.055  1.00  0.00     0.173 A 
ATOM    119  F   UNL A   1      43.758  24.788  25.433  1.00  0.00    -0.203 F 
ATOM    120  C   UNL A   1      43.185  22.504  25.392  1.00  0.00     0.198 A 
ATOM    121  C   UNL A   1      42.326  21.451  27.371  1.00  0.00     0.198 A 
ATOM    122  F   UNL A   1      42.034  22.709  29.339  1.00  0.00    -0.203 F 
ATOM    123  F   UNL A   1      43.525  22.441  24.097  1.00  0.00    -0.200 F 
ATOM    124  C   UNL A   1      42.702  21.376  26.038  1.00  0.00     0.200 A 
ATOM    125  F   UNL A   1      41.872  20.360  28.001  1.00  0.00    -0.200 F 
ATOM    126  F   UNL A   1      42.594  20.217  25.374  1.00  0.00    -0.200 F 
ENDBRANCH  88 116
BRANCH 103 127
ATOM    127  C   UNL A   1      48.024  26.892  31.012  1.00  0.00     0.064 A 
ATOM    128  C   UNL A   1      48.292  26.080  32.123  1.00  0.00     0.173 A 
ATOM    129  C   UNL A   1      49.102  27.269  30.196  1.00  0.00     0.173 A 
ATOM    130  F   UNL A   1      47.298  25.706  32.943  1.00  0.00    -0.203 F 
ATOM    131  C   UNL A   1      49.593  25.684  32.422  1.00  0.00     0.198 A 
ATOM    132  C   UNL A   1      50.397  26.848  30.481  1.00  0.00     0.198 A 
ATOM    133  F   UNL A   1      48.896  28.040  29.117  1.00  0.00    -0.203 F 
ATOM    134  F   UNL A   1      49.834  24.949  33.516  1.00  0.00    -0.200 F 
ATOM    135  C   UNL A   1      50.643  26.062  31.597  1.00  0.00     0.200 A 
ATOM    136  F   UNL A   1      51.408  27.205  29.676  1.00  0.00    -0.200 F 
ATOM    137  F   UNL A   1      51.894  25.676  31.882  1.00  0.00    -0.200 F 
ENDBRANCH 103 127
ENDBRANCH  68  71
ENDBRANCH  58  61
ENDBRANCH  54  57
ENDBRANCH  51  54
ENDBRANCH  48  51
ENDBRANCH  45  48
ENDBRANCH   1  45
TORSDOF 18
ENDMDL
MODEL 2
REMARK VINA RESULT:      -8.8      4.311      8.383
REMARK SMILES C[C@@H](C(=O)NCCCCCCNC(=O)c1ccc(-c2c3nc(c(-c4c(F)c(F)c(F)c(F)c4F)c4ccc([nH]4)c(-c4c(F)c(F)c(F)c(F)c4F)c4nc(c(-c5c(F)c(F)c(F)c(F)c5F)c5ccc2[nH]5)C=C4)C=C3)cc1)c1ccc(C[C@@H]2CCC[C@@H]2O)cc1F
REMARK SMILES IDX 7 1 6 4 5 7 3 8 4 9 2 11 1 13 78 17 79 18 90 19 80 20 89 22
REMARK SMILES IDX 91 23 81 24 82 27 83 30 84 31 87 32 85 34 86 37 88 43 8 45
REMARK SMILES IDX 9 48 10 51 11 54 12 57 13 58 14 60 15 61 16 62 77 63 17 64
REMARK SMILES IDX 76 66 18 68 19 71 20 72 70 73 21 74 75 75 69 76 71 77 22 78
REMARK SMILES IDX 74 79 68 81 67 83 23 85 55 88 35 89 54 90 36 91 39 92 53 93
REMARK SMILES IDX 72 94 37 95 38 97 52 99 73 100 40 103 24 105 25 106 33 107
REMARK SMILES IDX 26 108 27 109 31 110 34 111 28 112 29 113 32 114 30 115
REMARK SMILES IDX 56 116 57 117 65 118 58 119 59 120 63 121 66 122 60 123
REMARK SMILES IDX 61 124 64 125 62 126 41 127 42 128 50 129 43 130 44 131
REMARK SMILES IDX 48 132 51 133 45 134 46 135 49 136 47 137
REMARK H PARENT 7 2 7 3 6 5 6 6 5 10 2 12 1 14 1 15 1 16 79 21 80 25 89 26
REMARK H PARENT 82 28 82 29 83 33 84 35 84 36 87 38 85 39 85 40 86 41 86 42
REMARK H PARENT 88 44 8 46 8 47 9 49 9 50 10 52 10 53 11 55 11 56 12 59 16 65
REMARK H PARENT 77 67 17 69 76 70 75 80 69 82 71 84 74 86 68 87 36 96 39 98
REMARK H PARENT 72 101 37 102 73 104
REMARK Flexibility Score: inf
ROOT
ATOM      1  C   UNL A   1      34.435  32.254  29.047  1.00  0.00    -0.036 C 
ATOM      2  H   UNL A   1      34.736  31.633  29.865  1.00  0.00     0.028 H 
ATOM      3  H   UNL A   1      33.390  32.480  29.067  1.00  0.00     0.028 H 
ENDROOT
BRANCH   1   4
ATOM      4  C   UNL A   1      34.702  31.497  27.744  1.00  0.00     0.017 C 
ATOM      5  H   UNL A   1      34.154  31.960  26.949  1.00  0.00     0.049 H 
ATOM      6  H   UNL A   1      35.751  31.527  27.533  1.00  0.00     0.049 H 
BRANCH   4   7
ATOM      7  N   UNL A   1      34.287  30.117  27.869  1.00  0.00    -0.356 N 
ATOM      8  C   UNL A   1      33.354  29.413  27.165  1.00  0.00     0.227 C 
ATOM      9  O   UNL A   1      33.074  28.290  27.588  1.00  0.00    -0.274 OA
ATOM     10  H   UNL A   1      34.748  29.607  28.573  1.00  0.00     0.163 HD
BRANCH   8  11
ATOM     11  C   UNL A   1      32.770  30.000  25.874  1.00  0.00     0.063 C 
ATOM     12  H   UNL A   1      33.517  30.645  25.460  1.00  0.00     0.045 H 
BRANCH  11  13
ATOM     13  C   UNL A   1      31.548  30.893  26.119  1.00  0.00    -0.049 C 
ATOM     14  H   UNL A   1      31.801  31.911  25.909  1.00  0.00     0.024 H 
ATOM     15  H   UNL A   1      31.241  30.806  27.141  1.00  0.00     0.024 H 
ATOM     16  H   UNL A   1      30.747  30.586  25.479  1.00  0.00     0.024 H 
ENDBRANCH  11  13
BRANCH  11  17
ATOM     17  C   UNL A   1      32.486  28.904  24.856  1.00  0.00    -0.000 A 
ATOM     18  C   UNL A   1      31.176  28.428  24.697  1.00  0.00    -0.055 A 
ATOM     19  C   UNL A   1      33.485  28.368  24.038  1.00  0.00     0.127 A 
ATOM     20  C   UNL A   1      30.900  27.390  23.802  1.00  0.00    -0.059 A 
ATOM     21  H   UNL A   1      30.410  28.847  25.245  1.00  0.00     0.063 H 
ATOM     22  C   UNL A   1      33.219  27.318  23.166  1.00  0.00    -0.023 A 
ATOM     23  F   UNL A   1      34.741  28.831  24.100  1.00  0.00    -0.207 F 
ATOM     24  C   UNL A   1      31.928  26.788  23.069  1.00  0.00    -0.045 A 
ATOM     25  H   UNL A   1      29.928  27.065  23.681  1.00  0.00     0.063 H 
ATOM     26  H   UNL A   1      33.979  26.927  22.587  1.00  0.00     0.066 H 
BRANCH  24  27
ATOM     27  C   UNL A   1      31.680  25.569  22.217  1.00  0.00    -0.022 C 
ATOM     28  H   UNL A   1      32.333  25.632  21.371  1.00  0.00     0.032 H 
ATOM     29  H   UNL A   1      30.636  25.602  21.991  1.00  0.00     0.032 H 
BRANCH  27  30
ATOM     30  C   UNL A   1      31.902  24.185  22.870  1.00  0.00    -0.011 C 
ATOM     31  C   UNL A   1      32.217  24.227  24.370  1.00  0.00    -0.048 C 
ATOM     32  C   UNL A   1      33.030  23.309  22.315  1.00  0.00     0.057 C 
ATOM     33  H   UNL A   1      30.945  23.766  22.640  1.00  0.00     0.033 H 
ATOM     34  C   UNL A   1      33.731  24.038  24.511  1.00  0.00    -0.050 C 
ATOM     35  H   UNL A   1      31.699  23.440  24.878  1.00  0.00     0.027 H 
ATOM     36  H   UNL A   1      31.906  25.155  24.802  1.00  0.00     0.027 H 
ATOM     37  C   UNL A   1      34.261  23.690  23.125  1.00  0.00    -0.027 C 
ATOM     38  H   UNL A   1      32.796  22.269  22.416  1.00  0.00     0.060 H 
ATOM     39  H   UNL A   1      33.940  23.243  25.197  1.00  0.00     0.027 H 
ATOM     40  H   UNL A   1      34.195  24.924  24.889  1.00  0.00     0.027 H 
ATOM     41  H   UNL A   1      34.944  22.868  23.181  1.00  0.00     0.029 H 
ATOM     42  H   UNL A   1      34.797  24.503  22.684  1.00  0.00     0.029 H 
BRANCH  32  43
ATOM     43  O   UNL A   1      33.220  23.458  20.923  1.00  0.00    -0.393 OA
ATOM     44  H   UNL A   1      32.458  23.922  20.541  1.00  0.00     0.210 HD
ENDBRANCH  32  43
ENDBRANCH  27  30
ENDBRANCH  24  27
ENDBRANCH  11  17
ENDBRANCH   8  11
ENDBRANCH   4   7
ENDBRANCH   1   4
BRANCH   1  45
ATOM     45  C   UNL A   1      35.183  33.590  29.152  1.00  0.00    -0.052 C 
ATOM     46  H   UNL A   1      36.203  33.423  28.872  1.00  0.00     0.027 H 
ATOM     47  H   UNL A   1      35.069  33.918  30.164  1.00  0.00     0.027 H 
BRANCH  45  48
ATOM     48  C   UNL A   1      34.628  34.714  28.273  1.00  0.00    -0.052 C 
ATOM     49  H   UNL A   1      34.475  34.323  27.289  1.00  0.00     0.027 H 
ATOM     50  H   UNL A   1      35.348  35.505  28.307  1.00  0.00     0.027 H 
BRANCH  48  51
ATOM     51  C   UNL A   1      33.306  35.316  28.755  1.00  0.00    -0.036 C 
ATOM     52  H   UNL A   1      32.718  34.531  29.183  1.00  0.00     0.028 H 
ATOM     53  H   UNL A   1      32.846  35.765  27.899  1.00  0.00     0.028 H 
BRANCH  51  54
ATOM     54  C   UNL A   1      33.456  36.421  29.796  1.00  0.00     0.018 C 
ATOM     55  H   UNL A   1      33.345  37.368  29.312  1.00  0.00     0.049 H 
ATOM     56  H   UNL A   1      34.424  36.324  30.242  1.00  0.00     0.049 H 
BRANCH  54  57
ATOM     57  N   UNL A   1      32.463  36.315  30.853  1.00  0.00    -0.352 N 
ATOM     58  C   UNL A   1      32.499  35.574  32.005  1.00  0.00     0.251 C 
ATOM     59  H   UNL A   1      31.649  36.854  30.723  1.00  0.00     0.163 HD
ATOM     60  O   UNL A   1      31.490  35.458  32.699  1.00  0.00    -0.269 OA
BRANCH  58  61
ATOM     61  C   UNL A   1      33.746  34.891  32.408  1.00  0.00     0.039 A 
ATOM     62  C   UNL A   1      33.680  33.563  32.836  1.00  0.00    -0.049 A 
ATOM     63  C   UNL A   1      34.972  35.563  32.386  1.00  0.00    -0.049 A 
ATOM     64  C   UNL A   1      34.850  32.892  33.196  1.00  0.00    -0.053 A 
ATOM     65  H   UNL A   1      32.769  33.079  32.885  1.00  0.00     0.063 H 
ATOM     66  C   UNL A   1      36.146  34.874  32.681  1.00  0.00    -0.053 A 
ATOM     67  H   UNL A   1      35.008  36.567  32.151  1.00  0.00     0.063 H 
ATOM     68  C   UNL A   1      36.095  33.535  33.098  1.00  0.00    -0.014 A 
ATOM     69  H   UNL A   1      34.800  31.919  33.536  1.00  0.00     0.063 H 
ATOM     70  H   UNL A   1      37.057  35.351  32.594  1.00  0.00     0.063 H 
BRANCH  68  71
ATOM     71  C   UNL A   1      37.352  32.826  33.443  1.00  0.00     0.031 A 
ATOM     72  C   UNL A   1      38.059  33.127  34.734  1.00  0.00     0.074 A 
ATOM     73  C   UNL A   1      37.885  31.951  32.569  1.00  0.00     0.049 A 
ATOM     74  N   UNL A   1      39.192  32.655  35.190  1.00  0.00    -0.248 NA
ATOM     75  C   UNL A   1      37.419  34.111  35.623  1.00  0.00    -0.034 C 
ATOM     76  C   UNL A   1      37.317  31.606  31.264  1.00  0.00    -0.036 A 
ATOM     77  N   UNL A   1      39.030  31.196  32.643  1.00  0.00    -0.354 N 
ATOM     78  C   UNL A   1      39.408  33.294  36.403  1.00  0.00     0.074 A 
ATOM     79  C   UNL A   1      38.315  34.224  36.591  1.00  0.00    -0.034 C 
ATOM     80  H   UNL A   1      36.510  34.588  35.517  1.00  0.00     0.065 H 
ATOM     81  C   UNL A   1      38.102  30.693  30.671  1.00  0.00    -0.036 A 
ATOM     82  H   UNL A   1      36.452  32.003  30.865  1.00  0.00     0.065 H 
ATOM     83  C   UNL A   1      39.244  30.412  31.537  1.00  0.00     0.049 A 
ATOM     84  H   UNL A   1      39.639  31.216  33.417  1.00  0.00     0.167 HD
ATOM     85  C   UNL A   1      40.412  33.105  37.291  1.00  0.00     0.037 A 
ATOM     86  H   UNL A   1      38.244  34.889  37.378  1.00  0.00     0.065 H 
ATOM     87  H   UNL A   1      37.927  30.260  29.752  1.00  0.00     0.065 H 
ATOM     88  C   UNL A   1      40.249  29.562  31.254  1.00  0.00     0.037 A 
ATOM     89  C   UNL A   1      41.482  32.158  37.114  1.00  0.00     0.049 A 
ATOM     90  C   UNL A   1      41.351  29.367  32.260  1.00  0.00     0.074 A 
ATOM     91  C   UNL A   1      42.514  31.849  37.983  1.00  0.00    -0.036 A 
ATOM     92  N   UNL A   1      41.655  31.365  35.989  1.00  0.00    -0.354 N 
ATOM     93  N   UNL A   1      41.510  29.928  33.435  1.00  0.00    -0.248 NA
ATOM     94  C   UNL A   1      42.411  28.414  31.902  1.00  0.00    -0.034 C 
ATOM     95  C   UNL A   1      43.334  30.897  37.366  1.00  0.00    -0.036 A 
ATOM     96  H   UNL A   1      42.655  32.250  38.923  1.00  0.00     0.065 H 
ATOM     97  C   UNL A   1      42.788  30.580  36.133  1.00  0.00     0.049 A 
ATOM     98  H   UNL A   1      41.060  31.361  35.204  1.00  0.00     0.167 HD
ATOM     99  C   UNL A   1      42.666  29.376  33.968  1.00  0.00     0.074 A 
ATOM    100  C   UNL A   1      43.162  28.425  32.994  1.00  0.00    -0.034 C 
ATOM    101  H   UNL A   1      42.537  27.877  31.031  1.00  0.00     0.065 H 
ATOM    102  H   UNL A   1      44.201  30.499  37.763  1.00  0.00     0.065 H 
ATOM    103  C   UNL A   1      43.262  29.632  35.158  1.00  0.00     0.037 A 
ATOM    104  H   UNL A   1      43.996  27.834  33.132  1.00  0.00     0.065 H 
BRANCH  85 105
ATOM    105  C   UNL A   1      40.399  33.939  38.539  1.00  0.00     0.064 A 
ATOM    106  C   UNL A   1      41.105  35.149  38.623  1.00  0.00     0.173 A 
ATOM    107  C   UNL A   1      39.648  33.540  39.655  1.00  0.00     0.173 A 
ATOM    108  F   UNL A   1      41.849  35.569  37.588  1.00  0.00    -0.203 F 
ATOM    109  C   UNL A   1      41.085  35.912  39.787  1.00  0.00     0.198 A 
ATOM    110  C   UNL A   1      39.606  34.322  40.808  1.00  0.00     0.198 A 
ATOM    111  F   UNL A   1      38.949  32.396  39.627  1.00  0.00    -0.203 F 
ATOM    112  F   UNL A   1      41.810  37.037  39.861  1.00  0.00    -0.200 F 
ATOM    113  C   UNL A   1      40.331  35.501  40.875  1.00  0.00     0.200 A 
ATOM    114  F   UNL A   1      38.867  33.930  41.855  1.00  0.00    -0.200 F 
ATOM    115  F   UNL A   1      40.310  36.240  41.994  1.00  0.00    -0.200 F 
ENDBRANCH  85 105
BRANCH  88 116
ATOM    116  C   UNL A   1      40.242  28.804  29.977  1.00  0.00     0.064 A 
ATOM    117  C   UNL A   1      40.905  29.299  28.845  1.00  0.00     0.173 A 
ATOM    118  C   UNL A   1      39.574  27.577  29.858  1.00  0.00     0.173 A 
ATOM    119  F   UNL A   1      41.541  30.479  28.906  1.00  0.00    -0.203 F 
ATOM    120  C   UNL A   1      40.884  28.606  27.637  1.00  0.00     0.198 A 
ATOM    121  C   UNL A   1      39.575  26.871  28.656  1.00  0.00     0.198 A 
ATOM    122  F   UNL A   1      38.928  27.059  30.912  1.00  0.00    -0.203 F 
ATOM    123  F   UNL A   1      41.489  29.123  26.559  1.00  0.00    -0.200 F 
ATOM    124  C   UNL A   1      40.223  27.391  27.545  1.00  0.00     0.200 A 
ATOM    125  F   UNL A   1      38.947  25.692  28.575  1.00  0.00    -0.200 F 
ATOM    126  F   UNL A   1      40.205  26.722  26.385  1.00  0.00    -0.200 F 
ENDBRANCH  88 116
BRANCH 103 127
ATOM    127  C   UNL A   1      44.497  28.847  35.489  1.00  0.00     0.064 A 
ATOM    128  C   UNL A   1      45.775  29.302  35.134  1.00  0.00     0.173 A 
ATOM    129  C   UNL A   1      44.402  27.642  36.201  1.00  0.00     0.173 A 
ATOM    130  F   UNL A   1      45.918  30.440  34.438  1.00  0.00    -0.203 F 
ATOM    131  C   UNL A   1      46.911  28.565  35.456  1.00  0.00     0.198 A 
ATOM    132  C   UNL A   1      45.541  26.922  36.547  1.00  0.00     0.198 A 
ATOM    133  F   UNL A   1      43.202  27.167  36.570  1.00  0.00    -0.203 F 
ATOM    134  F   UNL A   1      48.120  28.993  35.065  1.00  0.00    -0.200 F 
ATOM    135  C   UNL A   1      46.794  27.380  36.168  1.00  0.00     0.200 A 
ATOM    136  F   UNL A   1      45.426  25.784  37.245  1.00  0.00    -0.200 F 
ATOM    137  F   UNL A   1      47.889  26.674  36.482  1.00  0.00    -0.200 F 
ENDBRANCH 103 127
ENDBRANCH  68  71
ENDBRANCH  58  61
ENDBRANCH  54  57
ENDBRANCH  51  54
ENDBRANCH  48  51
ENDBRANCH  45  48
ENDBRANCH   1  45
TORSDOF 18
ENDMDL
MODEL 3
REMARK VINA RESULT:      -8.8      3.146     10.202
REMARK SMILES C[C@@H](C(=O)NCCCCCCNC(=O)c1ccc(-c2c3nc(c(-c4c(F)c(F)c(F)c(F)c4F)c4ccc([nH]4)c(-c4c(F)c(F)c(F)c(F)c4F)c4nc(c(-c5c(F)c(F)c(F)c(F)c5F)c5ccc2[nH]5)C=C4)C=C3)cc1)c1ccc(C[C@@H]2CCC[C@@H]2O)cc1F
REMARK SMILES IDX 7 1 6 4 5 7 3 8 4 9 2 11 1 13 78 17 79 18 90 19 80 20 89 22
REMARK SMILES IDX 91 23 81 24 82 27 83 30 84 31 87 32 85 34 86 37 88 43 8 45
REMARK SMILES IDX 9 48 10 51 11 54 12 57 13 58 14 60 15 61 16 62 77 63 17 64
REMARK SMILES IDX 76 66 18 68 19 71 20 72 70 73 21 74 75 75 69 76 71 77 22 78
REMARK SMILES IDX 74 79 68 81 67 83 23 85 55 88 35 89 54 90 36 91 39 92 53 93
REMARK SMILES IDX 72 94 37 95 38 97 52 99 73 100 40 103 24 105 25 106 33 107
REMARK SMILES IDX 26 108 27 109 31 110 34 111 28 112 29 113 32 114 30 115
REMARK SMILES IDX 56 116 57 117 65 118 58 119 59 120 63 121 66 122 60 123
REMARK SMILES IDX 61 124 64 125 62 126 41 127 42 128 50 129 43 130 44 131
REMARK SMILES IDX 48 132 51 133 45 134 46 135 49 136 47 137
REMARK H PARENT 7 2 7 3 6 5 6 6 5 10 2 12 1 14 1 15 1 16 79 21 80 25 89 26
REMARK H PARENT 82 28 82 29 83 33 84 35 84 36 87 38 85 39 85 40 86 41 86 42
REMARK H PARENT 88 44 8 46 8 47 9 49 9 50 10 52 10 53 11 55 11 56 12 59 16 65
REMARK H PARENT 77 67 17 69 76 70 75 80 69 82 71 84 74 86 68 87 36 96 39 98
REMARK H PARENT 72 101 37 102 73 104
REMARK Flexibility Score: inf
ROOT
ATOM      1  C   UNL A   1      43.700  23.915  27.634  1.00  0.00    -0.036 C 
ATOM      2  H   UNL A   1      42.844  24.193  27.056  1.00  0.00     0.028 H 
ATOM      3  H   UNL A   1      44.134  24.746  28.148  1.00  0.00     0.028 H 
ENDROOT
BRANCH   1   4
ATOM      4  C   UNL A   1      44.768  23.371  26.683  1.00  0.00     0.017 C 
ATOM      5  H   UNL A   1      44.680  22.306  26.625  1.00  0.00     0.049 H 
ATOM      6  H   UNL A   1      44.625  23.804  25.715  1.00  0.00     0.049 H 
BRANCH   4   7
ATOM      7  N   UNL A   1      46.089  23.715  27.161  1.00  0.00    -0.356 N 
ATOM      8  C   UNL A   1      47.059  24.482  26.585  1.00  0.00     0.227 C 
ATOM      9  O   UNL A   1      48.164  24.478  27.130  1.00  0.00    -0.274 OA
ATOM     10  H   UNL A   1      46.327  23.335  28.037  1.00  0.00     0.163 HD
BRANCH   8  11
ATOM     11  C   UNL A   1      46.721  25.352  25.367  1.00  0.00     0.063 C 
ATOM     12  H   UNL A   1      45.984  24.822  24.802  1.00  0.00     0.045 H 
BRANCH  11  13
ATOM     13  C   UNL A   1      47.909  25.541  24.416  1.00  0.00    -0.049 C 
ATOM     14  H   UNL A   1      48.813  25.252  24.911  1.00  0.00     0.024 H 
ATOM     15  H   UNL A   1      47.975  26.569  24.125  1.00  0.00     0.024 H 
ATOM     16  H   UNL A   1      47.770  24.933  23.546  1.00  0.00     0.024 H 
ENDBRANCH  11  13
BRANCH  11  17
ATOM     17  C   UNL A   1      46.113  26.680  25.797  1.00  0.00    -0.000 A 
ATOM     18  C   UNL A   1      46.931  27.664  26.373  1.00  0.00    -0.055 A 
ATOM     19  C   UNL A   1      44.760  26.977  25.608  1.00  0.00     0.127 A 
ATOM     20  C   UNL A   1      46.385  28.871  26.818  1.00  0.00    -0.059 A 
ATOM     21  H   UNL A   1      47.943  27.494  26.470  1.00  0.00     0.063 H 
ATOM     22  C   UNL A   1      44.209  28.166  26.072  1.00  0.00    -0.023 A 
ATOM     23  F   UNL A   1      43.946  26.102  25.003  1.00  0.00    -0.207 F 
ATOM     24  C   UNL A   1      45.010  29.111  26.722  1.00  0.00    -0.045 A 
ATOM     25  H   UNL A   1      47.004  29.593  27.220  1.00  0.00     0.063 H 
ATOM     26  H   UNL A   1      43.203  28.353  25.937  1.00  0.00     0.066 H 
BRANCH  24  27
ATOM     27  C   UNL A   1      44.379  30.337  27.332  1.00  0.00    -0.022 C 
ATOM     28  H   UNL A   1      44.044  30.070  28.314  1.00  0.00     0.032 H 
ATOM     29  H   UNL A   1      43.608  30.617  26.647  1.00  0.00     0.032 H 
BRANCH  27  30
ATOM     30  C   UNL A   1      45.263  31.599  27.472  1.00  0.00    -0.011 C 
ATOM     31  C   UNL A   1      45.177  32.294  28.836  1.00  0.00    -0.048 C 
ATOM     32  C   UNL A   1      45.017  32.752  26.493  1.00  0.00     0.057 C 
ATOM     33  H   UNL A   1      46.206  31.132  27.282  1.00  0.00     0.033 H 
ATOM     34  C   UNL A   1      44.256  33.505  28.661  1.00  0.00    -0.050 C 
ATOM     35  H   UNL A   1      46.150  32.613  29.148  1.00  0.00     0.027 H 
ATOM     36  H   UNL A   1      44.797  31.629  29.582  1.00  0.00     0.027 H 
ATOM     37  C   UNL A   1      43.971  33.627  27.168  1.00  0.00    -0.027 C 
ATOM     38  H   UNL A   1      45.920  33.292  26.299  1.00  0.00     0.060 H 
ATOM     39  H   UNL A   1      44.740  34.390  29.017  1.00  0.00     0.027 H 
ATOM     40  H   UNL A   1      43.350  33.382  29.216  1.00  0.00     0.027 H 
ATOM     41  H   UNL A   1      44.069  34.644  26.850  1.00  0.00     0.029 H 
ATOM     42  H   UNL A   1      42.974  33.325  26.924  1.00  0.00     0.029 H 
BRANCH  32  43
ATOM     43  O   UNL A   1      44.624  32.318  25.207  1.00  0.00    -0.393 OA
ATOM     44  H   UNL A   1      45.170  32.759  24.537  1.00  0.00     0.210 HD
ENDBRANCH  32  43
ENDBRANCH  27  30
ENDBRANCH  24  27
ENDBRANCH  11  17
ENDBRANCH   8  11
ENDBRANCH   4   7
ENDBRANCH   1   4
BRANCH   1  45
ATOM     45  C   UNL A   1      43.254  22.910  28.705  1.00  0.00    -0.052 C 
ATOM     46  H   UNL A   1      43.547  23.291  29.661  1.00  0.00     0.027 H 
ATOM     47  H   UNL A   1      43.722  21.980  28.457  1.00  0.00     0.027 H 
BRANCH  45  48
ATOM     48  C   UNL A   1      41.748  22.632  28.746  1.00  0.00    -0.052 C 
ATOM     49  H   UNL A   1      41.235  23.554  28.569  1.00  0.00     0.027 H 
ATOM     50  H   UNL A   1      41.546  22.214  29.710  1.00  0.00     0.027 H 
BRANCH  48  51
ATOM     51  C   UNL A   1      41.254  21.609  27.721  1.00  0.00    -0.036 C 
ATOM     52  H   UNL A   1      40.252  21.334  27.979  1.00  0.00     0.028 H 
ATOM     53  H   UNL A   1      41.937  20.786  27.759  1.00  0.00     0.028 H 
BRANCH  51  54
ATOM     54  C   UNL A   1      41.253  22.106  26.279  1.00  0.00     0.018 C 
ATOM     55  H   UNL A   1      41.738  21.378  25.663  1.00  0.00     0.049 H 
ATOM     56  H   UNL A   1      41.772  23.042  26.253  1.00  0.00     0.049 H 
BRANCH  54  57
ATOM     57  N   UNL A   1      39.907  22.326  25.776  1.00  0.00    -0.352 N 
ATOM     58  C   UNL A   1      39.028  23.336  26.066  1.00  0.00     0.251 C 
ATOM     59  H   UNL A   1      39.582  21.653  25.134  1.00  0.00     0.163 HD
ATOM     60  O   UNL A   1      37.858  23.265  25.691  1.00  0.00    -0.269 OA
BRANCH  58  61
ATOM     61  C   UNL A   1      39.475  24.506  26.850  1.00  0.00     0.039 A 
ATOM     62  C   UNL A   1      40.307  25.448  26.239  1.00  0.00    -0.049 A 
ATOM     63  C   UNL A   1      39.096  24.663  28.186  1.00  0.00    -0.049 A 
ATOM     64  C   UNL A   1      40.720  26.573  26.953  1.00  0.00    -0.053 A 
ATOM     65  H   UNL A   1      40.615  25.312  25.263  1.00  0.00     0.063 H 
ATOM     66  C   UNL A   1      39.454  25.819  28.876  1.00  0.00    -0.053 A 
ATOM     67  H   UNL A   1      38.553  23.926  28.660  1.00  0.00     0.063 H 
ATOM     68  C   UNL A   1      40.277  26.780  28.270  1.00  0.00    -0.014 A 
ATOM     69  H   UNL A   1      41.355  27.258  26.512  1.00  0.00     0.063 H 
ATOM     70  H   UNL A   1      39.112  25.968  29.839  1.00  0.00     0.063 H 
BRANCH  68  71
ATOM     71  C   UNL A   1      40.677  27.989  29.031  1.00  0.00     0.031 A 
ATOM     72  C   UNL A   1      42.070  28.106  29.584  1.00  0.00     0.074 A 
ATOM     73  C   UNL A   1      39.771  28.956  29.271  1.00  0.00     0.049 A 
ATOM     74  N   UNL A   1      42.593  29.055  30.319  1.00  0.00    -0.248 NA
ATOM     75  C   UNL A   1      42.991  26.996  29.293  1.00  0.00    -0.034 C 
ATOM     76  C   UNL A   1      38.376  28.938  28.826  1.00  0.00    -0.036 A 
ATOM     77  N   UNL A   1      39.885  30.140  29.957  1.00  0.00    -0.354 N 
ATOM     78  C   UNL A   1      43.893  28.649  30.591  1.00  0.00     0.074 A 
ATOM     79  C   UNL A   1      44.064  27.346  29.985  1.00  0.00    -0.034 C 
ATOM     80  H   UNL A   1      42.839  26.163  28.704  1.00  0.00     0.065 H 
ATOM     81  C   UNL A   1      37.771  30.066  29.230  1.00  0.00    -0.036 A 
ATOM     82  H   UNL A   1      37.930  28.178  28.289  1.00  0.00     0.065 H 
ATOM     83  C   UNL A   1      38.725  30.872  29.988  1.00  0.00     0.049 A 
ATOM     84  H   UNL A   1      40.722  30.436  30.385  1.00  0.00     0.167 HD
ATOM     85  C   UNL A   1      44.862  29.313  31.263  1.00  0.00     0.037 A 
ATOM     86  H   UNL A   1      44.912  26.766  30.080  1.00  0.00     0.065 H 
ATOM     87  H   UNL A   1      36.792  30.323  29.035  1.00  0.00     0.065 H 
ATOM     88  C   UNL A   1      38.459  32.059  30.566  1.00  0.00     0.037 A 
ATOM     89  C   UNL A   1      44.697  30.622  31.839  1.00  0.00     0.049 A 
ATOM     90  C   UNL A   1      39.556  32.778  31.304  1.00  0.00     0.074 A 
ATOM     91  C   UNL A   1      45.636  31.405  32.488  1.00  0.00    -0.036 A 
ATOM     92  N   UNL A   1      43.511  31.343  31.834  1.00  0.00    -0.354 N 
ATOM     93  N   UNL A   1      40.800  32.415  31.497  1.00  0.00    -0.248 NA
ATOM     94  C   UNL A   1      39.210  34.077  31.897  1.00  0.00    -0.034 C 
ATOM     95  C   UNL A   1      45.008  32.582  32.910  1.00  0.00    -0.036 A 
ATOM     96  H   UNL A   1      46.628  31.163  32.635  1.00  0.00     0.065 H 
ATOM     97  C   UNL A   1      43.690  32.553  32.484  1.00  0.00     0.049 A 
ATOM     98  H   UNL A   1      42.668  31.038  31.427  1.00  0.00     0.167 HD
ATOM     99  C   UNL A   1      41.394  33.450  32.206  1.00  0.00     0.074 A 
ATOM    100  C   UNL A   1      40.376  34.462  32.398  1.00  0.00    -0.034 C 
ATOM    101  H   UNL A   1      38.300  34.563  31.919  1.00  0.00     0.065 H 
ATOM    102  H   UNL A   1      45.452  33.344  33.449  1.00  0.00     0.065 H 
ATOM    103  C   UNL A   1      42.668  33.553  32.657  1.00  0.00     0.037 A 
ATOM    104  H   UNL A   1      40.537  35.368  32.866  1.00  0.00     0.065 H 
BRANCH  85 105
ATOM    105  C   UNL A   1      46.193  28.634  31.409  1.00  0.00     0.064 A 
ATOM    106  C   UNL A   1      46.405  27.628  32.364  1.00  0.00     0.173 A 
ATOM    107  C   UNL A   1      47.262  28.971  30.564  1.00  0.00     0.173 A 
ATOM    108  F   UNL A   1      45.419  27.277  33.204  1.00  0.00    -0.203 F 
ATOM    109  C   UNL A   1      47.645  27.008  32.489  1.00  0.00     0.198 A 
ATOM    110  C   UNL A   1      48.492  28.327  30.673  1.00  0.00     0.198 A 
ATOM    111  F   UNL A   1      47.112  29.921  29.629  1.00  0.00    -0.203 F 
ATOM    112  F   UNL A   1      47.837  26.087  33.443  1.00  0.00    -0.200 F 
ATOM    113  C   UNL A   1      48.684  27.353  31.640  1.00  0.00     0.200 A 
ATOM    114  F   UNL A   1      49.493  28.653  29.843  1.00  0.00    -0.200 F 
ATOM    115  F   UNL A   1      49.876  26.750  31.759  1.00  0.00    -0.200 F 
ENDBRANCH  85 105
BRANCH  88 116
ATOM    116  C   UNL A   1      37.106  32.659  30.439  1.00  0.00     0.064 A 
ATOM    117  C   UNL A   1      36.775  33.453  29.332  1.00  0.00     0.173 A 
ATOM    118  C   UNL A   1      36.122  32.458  31.417  1.00  0.00     0.173 A 
ATOM    119  F   UNL A   1      37.691  33.691  28.381  1.00  0.00    -0.203 F 
ATOM    120  C   UNL A   1      35.517  34.039  29.217  1.00  0.00     0.198 A 
ATOM    121  C   UNL A   1      34.855  33.023  31.289  1.00  0.00     0.198 A 
ATOM    122  F   UNL A   1      36.388  31.703  32.493  1.00  0.00    -0.203 F 
ATOM    123  F   UNL A   1      35.241  34.829  28.170  1.00  0.00    -0.200 F 
ATOM    124  C   UNL A   1      34.556  33.819  30.193  1.00  0.00     0.200 A 
ATOM    125  F   UNL A   1      33.925  32.798  32.226  1.00  0.00    -0.200 F 
ATOM    126  F   UNL A   1      33.345  34.380  30.081  1.00  0.00    -0.200 F 
ENDBRANCH  88 116
BRANCH 103 127
ATOM    127  C   UNL A   1      43.043  34.820  33.369  1.00  0.00     0.064 A 
ATOM    128  C   UNL A   1      43.456  35.963  32.670  1.00  0.00     0.173 A 
ATOM    129  C   UNL A   1      42.953  34.900  34.767  1.00  0.00     0.173 A 
ATOM    130  F   UNL A   1      43.573  35.932  31.334  1.00  0.00    -0.203 F 
ATOM    131  C   UNL A   1      43.792  37.132  33.347  1.00  0.00     0.198 A 
ATOM    132  C   UNL A   1      43.262  36.078  35.439  1.00  0.00     0.198 A 
ATOM    133  F   UNL A   1      42.557  33.835  35.482  1.00  0.00    -0.203 F 
ATOM    134  F   UNL A   1      44.231  38.198  32.663  1.00  0.00    -0.200 F 
ATOM    135  C   UNL A   1      43.688  37.191  34.729  1.00  0.00     0.200 A 
ATOM    136  F   UNL A   1      43.150  36.137  36.773  1.00  0.00    -0.200 F 
ATOM    137  F   UNL A   1      44.007  38.319  35.379  1.00  0.00    -0.200 F 
ENDBRANCH 103 127
ENDBRANCH  68  71
ENDBRANCH  58  61
ENDBRANCH  54  57
ENDBRANCH  51  54
ENDBRANCH  48  51
ENDBRANCH  45  48
ENDBRANCH   1  45
TORSDOF 18
ENDMDL
MODEL 4
REMARK VINA RESULT:      -8.8      2.428      3.919
REMARK SMILES C[C@@H](C(=O)NCCCCCCNC(=O)c1ccc(-c2c3nc(c(-c4c(F)c(F)c(F)c(F)c4F)c4ccc([nH]4)c(-c4c(F)c(F)c(F)c(F)c4F)c4nc(c(-c5c(F)c(F)c(F)c(F)c5F)c5ccc2[nH]5)C=C4)C=C3)cc1)c1ccc(C[C@@H]2CCC[C@@H]2O)cc1F
REMARK SMILES IDX 7 1 6 4 5 7 3 8 4 9 2 11 1 13 78 17 79 18 90 19 80 20 89 22
REMARK SMILES IDX 91 23 81 24 82 27 83 30 84 31 87 32 85 34 86 37 88 43 8 45
REMARK SMILES IDX 9 48 10 51 11 54 12 57 13 58 14 60 15 61 16 62 77 63 17 64
REMARK SMILES IDX 76 66 18 68 19 71 20 72 70 73 21 74 75 75 69 76 71 77 22 78
REMARK SMILES IDX 74 79 68 81 67 83 23 85 55 88 35 89 54 90 36 91 39 92 53 93
REMARK SMILES IDX 72 94 37 95 38 97 52 99 73 100 40 103 24 105 25 106 33 107
REMARK SMILES IDX 26 108 27 109 31 110 34 111 28 112 29 113 32 114 30 115
REMARK SMILES IDX 56 116 57 117 65 118 58 119 59 120 63 121 66 122 60 123
REMARK SMILES IDX 61 124 64 125 62 126 41 127 42 128 50 129 43 130 44 131
REMARK SMILES IDX 48 132 51 133 45 134 46 135 49 136 47 137
REMARK H PARENT 7 2 7 3 6 5 6 6 5 10 2 12 1 14 1 15 1 16 79 21 80 25 89 26
REMARK H PARENT 82 28 82 29 83 33 84 35 84 36 87 38 85 39 85 40 86 41 86 42
REMARK H PARENT 88 44 8 46 8 47 9 49 9 50 10 52 10 53 11 55 11 56 12 59 16 65
REMARK H PARENT 77 67 17 69 76 70 75 80 69 82 71 84 74 86 68 87 36 96 39 98
REMARK H PARENT 72 101 37 102 73 104
REMARK Flexibility Score: inf
ROOT
ATOM      1  C   UNL A   1      35.827  33.443  34.218  1.00  0.00    -0.036 C 
ATOM      2  H   UNL A   1      35.365  32.741  34.880  1.00  0.00     0.028 H 
ATOM      3  H   UNL A   1      35.785  33.131  33.196  1.00  0.00     0.028 H 
ENDROOT
BRANCH   1   4
ATOM      4  C   UNL A   1      37.307  33.554  34.590  1.00  0.00     0.017 C 
ATOM      5  H   UNL A   1      37.897  33.540  33.697  1.00  0.00     0.049 H 
ATOM      6  H   UNL A   1      37.465  34.471  35.120  1.00  0.00     0.049 H 
BRANCH   4   7
ATOM      7  N   UNL A   1      37.697  32.449  35.437  1.00  0.00    -0.356 N 
ATOM      8  C   UNL A   1      38.053  31.173  35.108  1.00  0.00     0.227 C 
ATOM      9  O   UNL A   1      38.179  30.376  36.039  1.00  0.00    -0.274 OA
ATOM     10  H   UNL A   1      37.706  32.646  36.401  1.00  0.00     0.163 HD
BRANCH   8  11
ATOM     11  C   UNL A   1      38.350  30.817  33.645  1.00  0.00     0.063 C 
ATOM     12  H   UNL A   1      38.640  31.724  33.158  1.00  0.00     0.045 H 
BRANCH  11  13
ATOM     13  C   UNL A   1      37.113  30.322  32.886  1.00  0.00    -0.049 C 
ATOM     14  H   UNL A   1      36.444  31.140  32.719  1.00  0.00     0.024 H 
ATOM     15  H   UNL A   1      36.617  29.568  33.462  1.00  0.00     0.024 H 
ATOM     16  H   UNL A   1      37.413  29.910  31.944  1.00  0.00     0.024 H 
ENDBRANCH  11  13
BRANCH  11  17
ATOM     17  C   UNL A   1      39.513  29.842  33.546  1.00  0.00    -0.000 A 
ATOM     18  C   UNL A   1      39.342  28.621  32.876  1.00  0.00    -0.055 A 
ATOM     19  C   UNL A   1      40.776  30.129  34.074  1.00  0.00     0.127 A 
ATOM     20  C   UNL A   1      40.382  27.691  32.814  1.00  0.00    -0.059 A 
ATOM     21  H   UNL A   1      38.438  28.409  32.426  1.00  0.00     0.063 H 
ATOM     22  C   UNL A   1      41.805  29.196  34.036  1.00  0.00    -0.023 A 
ATOM     23  F   UNL A   1      41.017  31.307  34.666  1.00  0.00    -0.207 F 
ATOM     24  C   UNL A   1      41.606  27.946  33.441  1.00  0.00    -0.045 A 
ATOM     25  H   UNL A   1      40.246  26.806  32.298  1.00  0.00     0.063 H 
ATOM     26  H   UNL A   1      42.723  29.427  34.450  1.00  0.00     0.066 H 
BRANCH  24  27
ATOM     27  C   UNL A   1      42.687  26.897  33.519  1.00  0.00    -0.022 C 
ATOM     28  H   UNL A   1      43.564  27.308  33.062  1.00  0.00     0.032 H 
ATOM     29  H   UNL A   1      42.274  26.042  33.028  1.00  0.00     0.032 H 
BRANCH  27  30
ATOM     30  C   UNL A   1      43.090  26.392  34.924  1.00  0.00    -0.011 C 
ATOM     31  C   UNL A   1      44.401  25.598  34.969  1.00  0.00    -0.048 C 
ATOM     32  C   UNL A   1      42.112  25.465  35.654  1.00  0.00     0.057 C 
ATOM     33  H   UNL A   1      43.144  27.345  35.406  1.00  0.00     0.033 H 
ATOM     34  C   UNL A   1      44.021  24.116  35.035  1.00  0.00    -0.050 C 
ATOM     35  H   UNL A   1      44.968  25.873  35.834  1.00  0.00     0.027 H 
ATOM     36  H   UNL A   1      45.002  25.801  34.107  1.00  0.00     0.027 H 
ATOM     37  C   UNL A   1      42.510  24.058  35.230  1.00  0.00    -0.027 C 
ATOM     38  H   UNL A   1      42.179  25.593  36.714  1.00  0.00     0.060 H 
ATOM     39  H   UNL A   1      44.517  23.646  35.859  1.00  0.00     0.027 H 
ATOM     40  H   UNL A   1      44.314  23.604  34.143  1.00  0.00     0.027 H 
ATOM     41  H   UNL A   1      42.257  23.350  35.991  1.00  0.00     0.029 H 
ATOM     42  H   UNL A   1      42.002  23.747  34.341  1.00  0.00     0.029 H 
BRANCH  32  43
ATOM     43  O   UNL A   1      40.757  25.758  35.384  1.00  0.00    -0.393 OA
ATOM     44  H   UNL A   1      40.667  26.698  35.164  1.00  0.00     0.210 HD
ENDBRANCH  32  43
ENDBRANCH  27  30
ENDBRANCH  24  27
ENDBRANCH  11  17
ENDBRANCH   8  11
ENDBRANCH   4   7
ENDBRANCH   1   4
BRANCH   1  45
ATOM     45  C   UNL A   1      35.063  34.771  34.311  1.00  0.00    -0.052 C 
ATOM     46  H   UNL A   1      35.547  35.383  35.044  1.00  0.00     0.027 H 
ATOM     47  H   UNL A   1      34.055  34.520  34.565  1.00  0.00     0.027 H 
BRANCH  45  48
ATOM     48  C   UNL A   1      34.989  35.568  33.004  1.00  0.00    -0.052 C 
ATOM     49  H   UNL A   1      35.606  35.078  32.280  1.00  0.00     0.027 H 
ATOM     50  H   UNL A   1      35.317  36.560  33.238  1.00  0.00     0.027 H 
BRANCH  48  51
ATOM     51  C   UNL A   1      33.584  35.708  32.415  1.00  0.00    -0.036 C 
ATOM     52  H   UNL A   1      32.976  36.236  33.120  1.00  0.00     0.028 H 
ATOM     53  H   UNL A   1      33.235  34.715  32.222  1.00  0.00     0.028 H 
BRANCH  51  54
ATOM     54  C   UNL A   1      33.526  36.454  31.085  1.00  0.00     0.018 C 
ATOM     55  H   UNL A   1      34.525  36.616  30.737  1.00  0.00     0.049 H 
ATOM     56  H   UNL A   1      33.017  37.381  31.249  1.00  0.00     0.049 H 
BRANCH  54  57
ATOM     57  N   UNL A   1      32.791  35.713  30.073  1.00  0.00    -0.352 N 
ATOM     58  C   UNL A   1      33.217  34.689  29.268  1.00  0.00     0.251 C 
ATOM     59  H   UNL A   1      31.852  35.985  29.949  1.00  0.00     0.163 HD
ATOM     60  O   UNL A   1      32.514  34.302  28.335  1.00  0.00    -0.269 OA
BRANCH  58  61
ATOM     61  C   UNL A   1      34.533  34.060  29.504  1.00  0.00     0.039 A 
ATOM     62  C   UNL A   1      35.628  34.480  28.744  1.00  0.00    -0.049 A 
ATOM     63  C   UNL A   1      34.684  33.045  30.453  1.00  0.00    -0.049 A 
ATOM     64  C   UNL A   1      36.884  33.917  28.969  1.00  0.00    -0.053 A 
ATOM     65  H   UNL A   1      35.507  35.206  28.019  1.00  0.00     0.063 H 
ATOM     66  C   UNL A   1      35.950  32.531  30.723  1.00  0.00    -0.053 A 
ATOM     67  H   UNL A   1      33.860  32.677  30.953  1.00  0.00     0.063 H 
ATOM     68  C   UNL A   1      37.061  32.956  29.977  1.00  0.00    -0.014 A 
ATOM     69  H   UNL A   1      37.689  34.208  28.391  1.00  0.00     0.063 H 
ATOM     70  H   UNL A   1      36.072  31.834  31.475  1.00  0.00     0.063 H 
BRANCH  68  71
ATOM     71  C   UNL A   1      38.397  32.372  30.254  1.00  0.00     0.031 A 
ATOM     72  C   UNL A   1      39.395  33.133  31.082  1.00  0.00     0.074 A 
ATOM     73  C   UNL A   1      38.730  31.184  29.717  1.00  0.00     0.049 A 
ATOM     74  N   UNL A   1      40.628  32.818  31.390  1.00  0.00    -0.248 NA
ATOM     75  C   UNL A   1      38.956  34.433  31.614  1.00  0.00    -0.034 C 
ATOM     76  C   UNL A   1      37.865  30.370  28.861  1.00  0.00    -0.036 A 
ATOM     77  N   UNL A   1      39.890  30.455  29.805  1.00  0.00    -0.354 N 
ATOM     78  C   UNL A   1      41.116  33.885  32.133  1.00  0.00     0.074 A 
ATOM     79  C   UNL A   1      40.064  34.877  32.189  1.00  0.00    -0.034 C 
ATOM     80  H   UNL A   1      38.029  34.881  31.554  1.00  0.00     0.065 H 
ATOM     81  C   UNL A   1      38.515  29.246  28.521  1.00  0.00    -0.036 A 
ATOM     82  H   UNL A   1      36.908  30.622  28.565  1.00  0.00     0.065 H 
ATOM     83  C   UNL A   1      39.852  29.274  29.107  1.00  0.00     0.049 A 
ATOM     84  H   UNL A   1      40.675  30.753  30.320  1.00  0.00     0.167 HD
ATOM     85  C   UNL A   1      42.321  34.014  32.735  1.00  0.00     0.037 A 
ATOM     86  H   UNL A   1      40.164  35.810  32.620  1.00  0.00     0.065 H 
ATOM     87  H   UNL A   1      38.132  28.485  27.940  1.00  0.00     0.065 H 
ATOM     88  C   UNL A   1      40.791  28.321  28.957  1.00  0.00     0.037 A 
ATOM     89  C   UNL A   1      43.354  33.012  32.702  1.00  0.00     0.049 A 
ATOM     90  C   UNL A   1      42.122  28.487  29.641  1.00  0.00     0.074 A 
ATOM     91  C   UNL A   1      44.588  33.022  33.330  1.00  0.00    -0.036 A 
ATOM     92  N   UNL A   1      43.272  31.817  32.002  1.00  0.00    -0.354 N 
ATOM     93  N   UNL A   1      42.548  29.469  30.396  1.00  0.00    -0.248 NA
ATOM     94  C   UNL A   1      43.099  27.406  29.454  1.00  0.00    -0.034 C 
ATOM     95  C   UNL A   1      45.268  31.851  32.977  1.00  0.00    -0.036 A 
ATOM     96  H   UNL A   1      44.944  33.764  33.951  1.00  0.00     0.065 H 
ATOM     97  C   UNL A   1      44.440  31.090  32.166  1.00  0.00     0.049 A 
ATOM     98  H   UNL A   1      42.497  31.528  31.466  1.00  0.00     0.167 HD
ATOM     99  C   UNL A   1      43.827  29.113  30.800  1.00  0.00     0.074 A 
ATOM    100  C   UNL A   1      44.104  27.817  30.215  1.00  0.00    -0.034 C 
ATOM    101  H   UNL A   1      43.025  26.551  28.881  1.00  0.00     0.065 H 
ATOM    102  H   UNL A   1      46.225  31.597  33.270  1.00  0.00     0.065 H 
ATOM    103  C   UNL A   1      44.695  29.797  31.585  1.00  0.00     0.037 A 
ATOM    104  H   UNL A   1      44.973  27.283  30.371  1.00  0.00     0.065 H 
BRANCH  85 105
ATOM    105  C   UNL A   1      42.587  35.286  33.486  1.00  0.00     0.064 A 
ATOM    106  C   UNL A   1      42.251  35.425  34.841  1.00  0.00     0.173 A 
ATOM    107  C   UNL A   1      43.214  36.370  32.851  1.00  0.00     0.173 A 
ATOM    108  F   UNL A   1      41.640  34.423  35.490  1.00  0.00    -0.203 F 
ATOM    109  C   UNL A   1      42.503  36.612  35.524  1.00  0.00     0.198 A 
ATOM    110  C   UNL A   1      43.491  37.545  33.547  1.00  0.00     0.198 A 
ATOM    111  F   UNL A   1      43.562  36.289  31.559  1.00  0.00    -0.203 F 
ATOM    112  F   UNL A   1      42.125  36.738  36.804  1.00  0.00    -0.200 F 
ATOM    113  C   UNL A   1      43.127  37.667  34.879  1.00  0.00     0.200 A 
ATOM    114  F   UNL A   1      44.106  38.561  32.925  1.00  0.00    -0.200 F 
ATOM    115  F   UNL A   1      43.373  38.808  35.540  1.00  0.00    -0.200 F 
ENDBRANCH  85 105
BRANCH  88 116
ATOM    116  C   UNL A   1      40.495  27.107  28.154  1.00  0.00     0.064 A 
ATOM    117  C   UNL A   1      41.080  26.920  26.894  1.00  0.00     0.173 A 
ATOM    118  C   UNL A   1      39.623  26.114  28.624  1.00  0.00     0.173 A 
ATOM    119  F   UNL A   1      41.904  27.853  26.394  1.00  0.00    -0.203 F 
ATOM    120  C   UNL A   1      40.789  25.796  26.125  1.00  0.00     0.198 A 
ATOM    121  C   UNL A   1      39.352  24.977  27.865  1.00  0.00     0.198 A 
ATOM    122  F   UNL A   1      39.041  26.244  29.825  1.00  0.00    -0.203 F 
ATOM    123  F   UNL A   1      41.327  25.663  24.905  1.00  0.00    -0.200 F 
ATOM    124  C   UNL A   1      39.929  24.823  26.613  1.00  0.00     0.200 A 
ATOM    125  F   UNL A   1      38.533  24.033  28.346  1.00  0.00    -0.200 F 
ATOM    126  F   UNL A   1      39.652  23.740  25.876  1.00  0.00    -0.200 F 
ENDBRANCH  88 116
BRANCH 103 127
ATOM    127  C   UNL A   1      46.010  29.141  31.888  1.00  0.00     0.064 A 
ATOM    128  C   UNL A   1      46.255  28.516  33.119  1.00  0.00     0.173 A 
ATOM    129  C   UNL A   1      47.025  29.108  30.919  1.00  0.00     0.173 A 
ATOM    130  F   UNL A   1      45.322  28.535  34.084  1.00  0.00    -0.203 F 
ATOM    131  C   UNL A   1      47.478  27.905  33.380  1.00  0.00     0.198 A 
ATOM    132  C   UNL A   1      48.236  28.471  31.172  1.00  0.00     0.198 A 
ATOM    133  F   UNL A   1      46.837  29.685  29.723  1.00  0.00    -0.203 F 
ATOM    134  F   UNL A   1      47.709  27.356  34.580  1.00  0.00    -0.200 F 
ATOM    135  C   UNL A   1      48.464  27.877  32.404  1.00  0.00     0.200 A 
ATOM    136  F   UNL A   1      49.183  28.434  30.225  1.00  0.00    -0.200 F 
ATOM    137  F   UNL A   1      49.639  27.284  32.655  1.00  0.00    -0.200 F 
ENDBRANCH 103 127
ENDBRANCH  68  71
ENDBRANCH  58  61
ENDBRANCH  54  57
ENDBRANCH  51  54
ENDBRANCH  48  51
ENDBRANCH  45  48
ENDBRANCH   1  45
TORSDOF 18
ENDMDL
MODEL 5
REMARK VINA RESULT:      -8.8      2.583      8.139
REMARK SMILES C[C@@H](C(=O)NCCCCCCNC(=O)c1ccc(-c2c3nc(c(-c4c(F)c(F)c(F)c(F)c4F)c4ccc([nH]4)c(-c4c(F)c(F)c(F)c(F)c4F)c4nc(c(-c5c(F)c(F)c(F)c(F)c5F)c5ccc2[nH]5)C=C4)C=C3)cc1)c1ccc(C[C@@H]2CCC[C@@H]2O)cc1F
REMARK SMILES IDX 7 1 6 4 5 7 3 8 4 9 2 11 1 13 78 17 79 18 90 19 80 20 89 22
REMARK SMILES IDX 91 23 81 24 82 27 83 30 84 31 87 32 85 34 86 37 88 43 8 45
REMARK SMILES IDX 9 48 10 51 11 54 12 57 13 58 14 60 15 61 16 62 77 63 17 64
REMARK SMILES IDX 76 66 18 68 19 71 20 72 70 73 21 74 75 75 69 76 71 77 22 78
REMARK SMILES IDX 74 79 68 81 67 83 23 85 55 88 35 89 54 90 36 91 39 92 53 93
REMARK SMILES IDX 72 94 37 95 38 97 52 99 73 100 40 103 24 105 25 106 33 107
REMARK SMILES IDX 26 108 27 109 31 110 34 111 28 112 29 113 32 114 30 115
REMARK SMILES IDX 56 116 57 117 65 118 58 119 59 120 63 121 66 122 60 123
REMARK SMILES IDX 61 124 64 125 62 126 41 127 42 128 50 129 43 130 44 131
REMARK SMILES IDX 48 132 51 133 45 134 46 135 49 136 47 137
REMARK H PARENT 7 2 7 3 6 5 6 6 5 10 2 12 1 14 1 15 1 16 79 21 80 25 89 26
REMARK H PARENT 82 28 82 29 83 33 84 35 84 36 87 38 85 39 85 40 86 41 86 42
REMARK H PARENT 88 44 8 46 8 47 9 49 9 50 10 52 10 53 11 55 11 56 12 59 16 65
REMARK H PARENT 77 67 17 69 76 70 75 80 69 82 71 84 74 86 68 87 36 96 39 98
REMARK H PARENT 72 101 37 102 73 104
REMARK Flexibility Score: inf
ROOT
ATOM      1  C   UNL A   1      36.173  33.359  34.281  1.00  0.00    -0.036 C 
ATOM      2  H   UNL A   1      35.689  32.474  34.639  1.00  0.00     0.028 H 
ATOM      3  H   UNL A   1      36.466  33.280  33.256  1.00  0.00     0.028 H 
ENDROOT
BRANCH   1   4
ATOM      4  C   UNL A   1      37.451  33.571  35.095  1.00  0.00     0.017 C 
ATOM      5  H   UNL A   1      38.259  33.794  34.430  1.00  0.00     0.049 H 
ATOM      6  H   UNL A   1      37.300  34.384  35.774  1.00  0.00     0.049 H 
BRANCH   4   7
ATOM      7  N   UNL A   1      37.769  32.380  35.852  1.00  0.00    -0.356 N 
ATOM      8  C   UNL A   1      38.106  31.130  35.421  1.00  0.00     0.227 C 
ATOM      9  O   UNL A   1      38.165  30.247  36.278  1.00  0.00    -0.274 OA
ATOM     10  H   UNL A   1      37.737  32.487  36.829  1.00  0.00     0.163 HD
BRANCH   8  11
ATOM     11  C   UNL A   1      38.464  30.902  33.947  1.00  0.00     0.063 C 
ATOM     12  H   UNL A   1      38.794  31.842  33.558  1.00  0.00     0.045 H 
BRANCH  11  13
ATOM     13  C   UNL A   1      37.254  30.506  33.090  1.00  0.00    -0.049 C 
ATOM     14  H   UNL A   1      37.296  29.459  32.875  1.00  0.00     0.024 H 
ATOM     15  H   UNL A   1      37.268  31.059  32.174  1.00  0.00     0.024 H 
ATOM     16  H   UNL A   1      36.352  30.724  33.624  1.00  0.00     0.024 H 
ENDBRANCH  11  13
BRANCH  11  17
ATOM     17  C   UNL A   1      39.612  29.913  33.810  1.00  0.00    -0.000 A 
ATOM     18  C   UNL A   1      39.458  28.777  33.001  1.00  0.00    -0.055 A 
ATOM     19  C   UNL A   1      40.846  30.109  34.440  1.00  0.00     0.127 A 
ATOM     20  C   UNL A   1      40.483  27.832  32.899  1.00  0.00    -0.059 A 
ATOM     21  H   UNL A   1      38.580  28.638  32.478  1.00  0.00     0.063 H 
ATOM     22  C   UNL A   1      41.857  29.159  34.361  1.00  0.00    -0.023 A 
ATOM     23  F   UNL A   1      41.072  31.209  35.171  1.00  0.00    -0.207 F 
ATOM     24  C   UNL A   1      41.670  27.986  33.622  1.00  0.00    -0.045 A 
ATOM     25  H   UNL A   1      40.361  27.012  32.283  1.00  0.00     0.063 H 
ATOM     26  H   UNL A   1      42.751  29.319  34.852  1.00  0.00     0.066 H 
BRANCH  24  27
ATOM     27  C   UNL A   1      42.724  26.907  33.648  1.00  0.00    -0.022 C 
ATOM     28  H   UNL A   1      43.608  27.313  33.201  1.00  0.00     0.032 H 
ATOM     29  H   UNL A   1      42.284  26.084  33.127  1.00  0.00     0.032 H 
BRANCH  27  30
ATOM     30  C   UNL A   1      43.124  26.336  35.029  1.00  0.00    -0.011 C 
ATOM     31  C   UNL A   1      44.409  25.498  35.028  1.00  0.00    -0.048 C 
ATOM     32  C   UNL A   1      42.123  25.414  35.734  1.00  0.00     0.057 C 
ATOM     33  H   UNL A   1      43.214  27.267  35.546  1.00  0.00     0.033 H 
ATOM     34  C   UNL A   1      43.980  24.028  35.043  1.00  0.00    -0.050 C 
ATOM     35  H   UNL A   1      44.993  25.720  35.897  1.00  0.00     0.027 H 
ATOM     36  H   UNL A   1      45.007  25.714  34.168  1.00  0.00     0.027 H 
ATOM     37  C   UNL A   1      42.471  24.012  35.252  1.00  0.00    -0.027 C 
ATOM     38  H   UNL A   1      42.205  25.498  36.797  1.00  0.00     0.060 H 
ATOM     39  H   UNL A   1      44.469  23.510  35.842  1.00  0.00     0.027 H 
ATOM     40  H   UNL A   1      44.247  23.541  34.128  1.00  0.00     0.027 H 
ATOM     41  H   UNL A   1      42.202  23.283  35.988  1.00  0.00     0.029 H 
ATOM     42  H   UNL A   1      41.944  23.752  34.358  1.00  0.00     0.029 H 
BRANCH  32  43
ATOM     43  O   UNL A   1      40.776  25.760  35.490  1.00  0.00    -0.393 OA
ATOM     44  H   UNL A   1      40.223  25.440  36.220  1.00  0.00     0.210 HD
ENDBRANCH  32  43
ENDBRANCH  27  30
ENDBRANCH  24  27
ENDBRANCH  11  17
ENDBRANCH   8  11
ENDBRANCH   4   7
ENDBRANCH   1   4
BRANCH   1  45
ATOM     45  C   UNL A   1      35.179  34.524  34.373  1.00  0.00    -0.052 C 
ATOM     46  H   UNL A   1      35.518  35.191  35.139  1.00  0.00     0.027 H 
ATOM     47  H   UNL A   1      34.224  34.089  34.582  1.00  0.00     0.027 H 
BRANCH  45  48
ATOM     48  C   UNL A   1      35.007  35.332  33.083  1.00  0.00    -0.052 C 
ATOM     49  H   UNL A   1      35.629  34.894  32.331  1.00  0.00     0.027 H 
ATOM     50  H   UNL A   1      35.276  36.340  33.322  1.00  0.00     0.027 H 
BRANCH  48  51
ATOM     51  C   UNL A   1      33.576  35.386  32.544  1.00  0.00    -0.036 C 
ATOM     52  H   UNL A   1      32.943  35.780  33.311  1.00  0.00     0.028 H 
ATOM     53  H   UNL A   1      33.319  34.387  32.261  1.00  0.00     0.028 H 
BRANCH  51  54
ATOM     54  C   UNL A   1      33.401  36.247  31.296  1.00  0.00     0.018 C 
ATOM     55  H   UNL A   1      34.365  36.575  30.966  1.00  0.00     0.049 H 
ATOM     56  H   UNL A   1      32.776  37.077  31.553  1.00  0.00     0.049 H 
BRANCH  54  57
ATOM     57  N   UNL A   1      32.757  35.519  30.215  1.00  0.00    -0.352 N 
ATOM     58  C   UNL A   1      33.279  34.568  29.379  1.00  0.00     0.251 C 
ATOM     59  H   UNL A   1      31.809  35.742  30.062  1.00  0.00     0.163 HD
ATOM     60  O   UNL A   1      32.642  34.190  28.396  1.00  0.00    -0.269 OA
BRANCH  58  61
ATOM     61  C   UNL A   1      34.620  34.006  29.642  1.00  0.00     0.039 A 
ATOM     62  C   UNL A   1      35.724  34.559  28.988  1.00  0.00    -0.049 A 
ATOM     63  C   UNL A   1      34.787  32.924  30.512  1.00  0.00    -0.049 A 
ATOM     64  C   UNL A   1      37.002  34.059  29.242  1.00  0.00    -0.053 A 
ATOM     65  H   UNL A   1      35.594  35.334  28.319  1.00  0.00     0.063 H 
ATOM     66  C   UNL A   1      36.068  32.470  30.816  1.00  0.00    -0.053 A 
ATOM     67  H   UNL A   1      33.963  32.463  30.929  1.00  0.00     0.063 H 
ATOM     68  C   UNL A   1      37.187  33.027  30.177  1.00  0.00    -0.014 A 
ATOM     69  H   UNL A   1      37.815  34.450  28.741  1.00  0.00     0.063 H 
ATOM     70  H   UNL A   1      36.195  31.721  31.514  1.00  0.00     0.063 H 
BRANCH  68  71
ATOM     71  C   UNL A   1      38.542  32.509  30.486  1.00  0.00     0.031 A 
ATOM     72  C   UNL A   1      39.010  31.212  29.885  1.00  0.00     0.074 A 
ATOM     73  C   UNL A   1      39.330  33.176  31.350  1.00  0.00     0.049 A 
ATOM     74  N   UNL A   1      40.133  30.568  30.074  1.00  0.00    -0.248 NA
ATOM     75  C   UNL A   1      38.078  30.537  28.968  1.00  0.00    -0.034 C 
ATOM     76  C   UNL A   1      38.973  34.421  32.032  1.00  0.00    -0.036 A 
ATOM     77  N   UNL A   1      40.594  32.897  31.808  1.00  0.00    -0.354 N 
ATOM     78  C   UNL A   1      40.037  29.409  29.317  1.00  0.00     0.074 A 
ATOM     79  C   UNL A   1      38.726  29.413  28.704  1.00  0.00    -0.034 C 
ATOM     80  H   UNL A   1      37.160  30.857  28.621  1.00  0.00     0.065 H 
ATOM     81  C   UNL A   1      40.001  34.810  32.804  1.00  0.00    -0.036 A 
ATOM     82  H   UNL A   1      38.074  34.919  31.936  1.00  0.00     0.065 H 
ATOM     83  C   UNL A   1      41.075  33.826  32.696  1.00  0.00     0.049 A 
ATOM     84  H   UNL A   1      41.106  32.104  31.526  1.00  0.00     0.167 HD
ATOM     85  C   UNL A   1      40.966  28.442  29.129  1.00  0.00     0.037 A 
ATOM     86  H   UNL A   1      38.346  28.639  28.136  1.00  0.00     0.065 H 
ATOM     87  H   UNL A   1      40.027  35.664  33.380  1.00  0.00     0.065 H 
ATOM     88  C   UNL A   1      42.251  33.879  33.350  1.00  0.00     0.037 A 
ATOM     89  C   UNL A   1      42.280  28.456  29.717  1.00  0.00     0.049 A 
ATOM     90  C   UNL A   1      43.268  32.793  33.121  1.00  0.00     0.074 A 
ATOM     91  C   UNL A   1      43.315  27.554  29.542  1.00  0.00    -0.036 A 
ATOM     92  N   UNL A   1      42.740  29.426  30.596  1.00  0.00    -0.354 N 
ATOM     93  N   UNL A   1      43.191  31.736  32.350  1.00  0.00    -0.248 NA
ATOM     94  C   UNL A   1      44.538  32.914  33.849  1.00  0.00    -0.034 C 
ATOM     95  C   UNL A   1      44.387  27.957  30.345  1.00  0.00    -0.036 A 
ATOM     96  H   UNL A   1      43.299  26.728  28.924  1.00  0.00     0.065 H 
ATOM     97  C   UNL A   1      44.037  29.135  30.986  1.00  0.00     0.049 A 
ATOM     98  H   UNL A   1      42.221  30.207  30.898  1.00  0.00     0.167 HD
ATOM     99  C   UNL A   1      44.410  31.083  32.475  1.00  0.00     0.074 A 
ATOM    100  C   UNL A   1      45.213  31.871  33.387  1.00  0.00    -0.034 C 
ATOM    101  H   UNL A   1      44.830  33.625  34.538  1.00  0.00     0.065 H 
ATOM    102  H   UNL A   1      45.287  27.460  30.444  1.00  0.00     0.065 H 
ATOM    103  C   UNL A   1      44.826  29.935  31.887  1.00  0.00     0.037 A 
ATOM    104  H   UNL A   1      46.187  31.647  33.646  1.00  0.00     0.065 H 
BRANCH  85 105
ATOM    105  C   UNL A   1      40.593  27.286  28.247  1.00  0.00     0.064 A 
ATOM    106  C   UNL A   1      41.142  27.132  26.965  1.00  0.00     0.173 A 
ATOM    107  C   UNL A   1      39.700  26.303  28.700  1.00  0.00     0.173 A 
ATOM    108  F   UNL A   1      41.992  28.050  26.480  1.00  0.00    -0.203 F 
ATOM    109  C   UNL A   1      40.786  26.055  26.157  1.00  0.00     0.198 A 
ATOM    110  C   UNL A   1      39.370  25.211  27.900  1.00  0.00     0.198 A 
ATOM    111  F   UNL A   1      39.151  26.397  29.920  1.00  0.00    -0.203 F 
ATOM    112  F   UNL A   1      41.284  25.959  24.917  1.00  0.00    -0.200 F 
ATOM    113  C   UNL A   1      39.906  25.093  26.627  1.00  0.00     0.200 A 
ATOM    114  F   UNL A   1      38.528  24.275  28.361  1.00  0.00    -0.200 F 
ATOM    115  F   UNL A   1      39.569  24.055  25.850  1.00  0.00    -0.200 F 
ENDBRANCH  85 105
BRANCH  88 116
ATOM    116  C   UNL A   1      42.545  35.017  34.257  1.00  0.00     0.064 A 
ATOM    117  C   UNL A   1      43.078  36.214  33.757  1.00  0.00     0.173 A 
ATOM    118  C   UNL A   1      42.305  34.935  35.636  1.00  0.00     0.173 A 
ATOM    119  F   UNL A   1      43.344  36.331  32.447  1.00  0.00    -0.203 F 
ATOM    120  C   UNL A   1      43.379  37.278  34.604  1.00  0.00     0.198 A 
ATOM    121  C   UNL A   1      42.582  36.010  36.479  1.00  0.00     0.198 A 
ATOM    122  F   UNL A   1      41.792  33.814  36.164  1.00  0.00    -0.203 F 
ATOM    123  F   UNL A   1      43.928  38.394  34.105  1.00  0.00    -0.200 F 
ATOM    124  C   UNL A   1      43.126  37.177  35.963  1.00  0.00     0.200 A 
ATOM    125  F   UNL A   1      42.323  35.914  37.790  1.00  0.00    -0.200 F 
ATOM    126  F   UNL A   1      43.411  38.201  36.778  1.00  0.00    -0.200 F 
ENDBRANCH  88 116
BRANCH 103 127
ATOM    127  C   UNL A   1      46.225  29.482  32.183  1.00  0.00     0.064 A 
ATOM    128  C   UNL A   1      47.293  29.778  31.323  1.00  0.00     0.173 A 
ATOM    129  C   UNL A   1      46.506  28.771  33.360  1.00  0.00     0.173 A 
ATOM    130  F   UNL A   1      47.073  30.442  30.178  1.00  0.00    -0.203 F 
ATOM    131  C   UNL A   1      48.586  29.357  31.617  1.00  0.00     0.198 A 
ATOM    132  C   UNL A   1      47.804  28.375  33.665  1.00  0.00     0.198 A 
ATOM    133  F   UNL A   1      45.521  28.468  34.218  1.00  0.00    -0.203 F 
ATOM    134  F   UNL A   1      49.583  29.609  30.758  1.00  0.00    -0.200 F 
ATOM    135  C   UNL A   1      48.842  28.662  32.791  1.00  0.00     0.200 A 
ATOM    136  F   UNL A   1      48.052  27.715  34.805  1.00  0.00    -0.200 F 
ATOM    137  F   UNL A   1      50.088  28.261  33.076  1.00  0.00    -0.200 F 
ENDBRANCH 103 127
ENDBRANCH  68  71
ENDBRANCH  58  61
ENDBRANCH  54  57
ENDBRANCH  51  54
ENDBRANCH  48  51
ENDBRANCH  45  48
ENDBRANCH   1  45
TORSDOF 18
ENDMDL
MODEL 6
REMARK VINA RESULT:      -8.4      4.322      8.378
REMARK SMILES C[C@@H](C(=O)NCCCCCCNC(=O)c1ccc(-c2c3nc(c(-c4c(F)c(F)c(F)c(F)c4F)c4ccc([nH]4)c(-c4c(F)c(F)c(F)c(F)c4F)c4nc(c(-c5c(F)c(F)c(F)c(F)c5F)c5ccc2[nH]5)C=C4)C=C3)cc1)c1ccc(C[C@@H]2CCC[C@@H]2O)cc1F
REMARK SMILES IDX 7 1 6 4 5 7 3 8 4 9 2 11 1 13 78 17 79 18 90 19 80 20 89 22
REMARK SMILES IDX 91 23 81 24 82 27 83 30 84 31 87 32 85 34 86 37 88 43 8 45
REMARK SMILES IDX 9 48 10 51 11 54 12 57 13 58 14 60 15 61 16 62 77 63 17 64
REMARK SMILES IDX 76 66 18 68 19 71 20 72 70 73 21 74 75 75 69 76 71 77 22 78
REMARK SMILES IDX 74 79 68 81 67 83 23 85 55 88 35 89 54 90 36 91 39 92 53 93
REMARK SMILES IDX 72 94 37 95 38 97 52 99 73 100 40 103 24 105 25 106 33 107
REMARK SMILES IDX 26 108 27 109 31 110 34 111 28 112 29 113 32 114 30 115
REMARK SMILES IDX 56 116 57 117 65 118 58 119 59 120 63 121 66 122 60 123
REMARK SMILES IDX 61 124 64 125 62 126 41 127 42 128 50 129 43 130 44 131
REMARK SMILES IDX 48 132 51 133 45 134 46 135 49 136 47 137
REMARK H PARENT 7 2 7 3 6 5 6 6 5 10 2 12 1 14 1 15 1 16 79 21 80 25 89 26
REMARK H PARENT 82 28 82 29 83 33 84 35 84 36 87 38 85 39 85 40 86 41 86 42
REMARK H PARENT 88 44 8 46 8 47 9 49 9 50 10 52 10 53 11 55 11 56 12 59 16 65
REMARK H PARENT 77 67 17 69 76 70 75 80 69 82 71 84 74 86 68 87 36 96 39 98
REMARK H PARENT 72 101 37 102 73 104
REMARK Flexibility Score: inf
ROOT
ATOM      1  C   UNL A   1      35.217  32.756  28.217  1.00  0.00    -0.036 C 
ATOM      2  H   UNL A   1      35.610  33.013  27.255  1.00  0.00     0.028 H 
ATOM      3  H   UNL A   1      35.921  32.216  28.816  1.00  0.00     0.028 H 
ENDROOT
BRANCH   1   4
ATOM      4  C   UNL A   1      34.009  31.839  28.014  1.00  0.00     0.017 C 
ATOM      5  H   UNL A   1      33.413  31.838  28.903  1.00  0.00     0.049 H 
ATOM      6  H   UNL A   1      33.433  32.199  27.187  1.00  0.00     0.049 H 
BRANCH   4   7
ATOM      7  N   UNL A   1      34.444  30.489  27.730  1.00  0.00    -0.356 N 
ATOM      8  C   UNL A   1      33.935  29.566  26.864  1.00  0.00     0.227 C 
ATOM      9  O   UNL A   1      34.394  28.425  26.938  1.00  0.00    -0.274 OA
ATOM     10  H   UNL A   1      35.228  30.188  28.243  1.00  0.00     0.163 HD
BRANCH   8  11
ATOM     11  C   UNL A   1      32.901  29.994  25.814  1.00  0.00     0.063 C 
ATOM     12  H   UNL A   1      33.385  30.699  25.171  1.00  0.00     0.045 H 
BRANCH  11  13
ATOM     13  C   UNL A   1      31.707  30.743  26.418  1.00  0.00    -0.049 C 
ATOM     14  H   UNL A   1      31.751  31.774  26.134  1.00  0.00     0.024 H 
ATOM     15  H   UNL A   1      31.739  30.666  27.486  1.00  0.00     0.024 H 
ATOM     16  H   UNL A   1      30.796  30.313  26.058  1.00  0.00     0.024 H 
ENDBRANCH  11  13
BRANCH  11  17
ATOM     17  C   UNL A   1      32.465  28.810  24.963  1.00  0.00    -0.000 A 
ATOM     18  C   UNL A   1      31.372  28.028  25.368  1.00  0.00    -0.055 A 
ATOM     19  C   UNL A   1      33.097  28.483  23.759  1.00  0.00     0.127 A 
ATOM     20  C   UNL A   1      30.985  26.909  24.627  1.00  0.00    -0.059 A 
ATOM     21  H   UNL A   1      30.851  28.283  26.221  1.00  0.00     0.063 H 
ATOM     22  C   UNL A   1      32.730  27.356  23.033  1.00  0.00    -0.023 A 
ATOM     23  F   UNL A   1      34.103  29.233  23.290  1.00  0.00    -0.207 F 
ATOM     24  C   UNL A   1      31.694  26.530  23.483  1.00  0.00    -0.045 A 
ATOM     25  H   UNL A   1      30.165  26.357  24.927  1.00  0.00     0.063 H 
ATOM     26  H   UNL A   1      33.225  27.126  22.157  1.00  0.00     0.066 H 
BRANCH  24  27
ATOM     27  C   UNL A   1      31.391  25.244  22.756  1.00  0.00    -0.022 C 
ATOM     28  H   UNL A   1      31.723  25.361  21.745  1.00  0.00     0.032 H 
ATOM     29  H   UNL A   1      30.338  25.103  22.878  1.00  0.00     0.032 H 
BRANCH  27  30
ATOM     30  C   UNL A   1      32.031  23.947  23.306  1.00  0.00    -0.011 C 
ATOM     31  C   UNL A   1      32.484  24.025  24.768  1.00  0.00    -0.048 C 
ATOM     32  C   UNL A   1      33.280  23.414  22.596  1.00  0.00     0.057 C 
ATOM     33  H   UNL A   1      31.195  23.299  23.145  1.00  0.00     0.033 H 
ATOM     34  C   UNL A   1      34.001  24.235  24.753  1.00  0.00    -0.050 C 
ATOM     35  H   UNL A   1      32.243  23.115  25.278  1.00  0.00     0.027 H 
ATOM     36  H   UNL A   1      31.992  24.826  25.280  1.00  0.00     0.027 H 
ATOM     37  C   UNL A   1      34.451  24.080  23.305  1.00  0.00    -0.027 C 
ATOM     38  H   UNL A   1      33.334  22.347  22.660  1.00  0.00     0.060 H 
ATOM     39  H   UNL A   1      34.480  23.503  25.368  1.00  0.00     0.027 H 
ATOM     40  H   UNL A   1      34.259  25.201  25.134  1.00  0.00     0.027 H 
ATOM     41  H   UNL A   1      35.325  23.465  23.247  1.00  0.00     0.029 H 
ATOM     42  H   UNL A   1      34.709  25.019  22.861  1.00  0.00     0.029 H 
BRANCH  32  43
ATOM     43  O   UNL A   1      33.274  23.649  21.203  1.00  0.00    -0.393 OA
ATOM     44  H   UNL A   1      33.717  22.915  20.750  1.00  0.00     0.210 HD
ENDBRANCH  32  43
ENDBRANCH  27  30
ENDBRANCH  24  27
ENDBRANCH  11  17
ENDBRANCH   8  11
ENDBRANCH   4   7
ENDBRANCH   1   4
BRANCH   1  45
ATOM     45  C   UNL A   1      34.891  34.053  28.970  1.00  0.00    -0.052 C 
ATOM     46  H   UNL A   1      35.536  34.823  28.601  1.00  0.00     0.027 H 
ATOM     47  H   UNL A   1      35.033  33.840  30.008  1.00  0.00     0.027 H 
BRANCH  45  48
ATOM     48  C   UNL A   1      33.445  34.538  28.827  1.00  0.00    -0.052 C 
ATOM     49  H   UNL A   1      32.891  34.186  29.672  1.00  0.00     0.027 H 
ATOM     50  H   UNL A   1      33.088  34.150  27.896  1.00  0.00     0.027 H 
BRANCH  48  51
ATOM     51  C   UNL A   1      33.280  36.057  28.750  1.00  0.00    -0.036 C 
ATOM     52  H   UNL A   1      32.281  36.270  28.431  1.00  0.00     0.028 H 
ATOM     53  H   UNL A   1      34.022  36.410  28.065  1.00  0.00     0.028 H 
BRANCH  51  54
ATOM     54  C   UNL A   1      33.525  36.788  30.066  1.00  0.00     0.018 C 
ATOM     55  H   UNL A   1      33.574  37.839  29.873  1.00  0.00     0.049 H 
ATOM     56  H   UNL A   1      34.443  36.426  30.479  1.00  0.00     0.049 H 
BRANCH  54  57
ATOM     57  N   UNL A   1      32.470  36.538  31.036  1.00  0.00    -0.352 N 
ATOM     58  C   UNL A   1      32.454  35.668  32.094  1.00  0.00     0.251 C 
ATOM     59  H   UNL A   1      31.651  37.072  30.915  1.00  0.00     0.163 HD
ATOM     60  O   UNL A   1      31.406  35.451  32.702  1.00  0.00    -0.269 OA
BRANCH  58  61
ATOM     61  C   UNL A   1      33.692  34.970  32.498  1.00  0.00     0.039 A 
ATOM     62  C   UNL A   1      33.617  33.627  32.875  1.00  0.00    -0.049 A 
ATOM     63  C   UNL A   1      34.919  35.641  32.527  1.00  0.00    -0.049 A 
ATOM     64  C   UNL A   1      34.778  32.942  33.234  1.00  0.00    -0.053 A 
ATOM     65  H   UNL A   1      32.705  33.143  32.886  1.00  0.00     0.063 H 
ATOM     66  C   UNL A   1      36.085  34.941  32.822  1.00  0.00    -0.053 A 
ATOM     67  H   UNL A   1      34.959  36.653  32.331  1.00  0.00     0.063 H 
ATOM     68  C   UNL A   1      36.025  33.586  33.188  1.00  0.00    -0.014 A 
ATOM     69  H   UNL A   1      34.721  31.957  33.538  1.00  0.00     0.063 H 
ATOM     70  H   UNL A   1      36.998  35.419  32.772  1.00  0.00     0.063 H 
BRANCH  68  71
ATOM     71  C   UNL A   1      37.275  32.864  33.532  1.00  0.00     0.031 A 
ATOM     72  C   UNL A   1      37.989  33.164  34.820  1.00  0.00     0.074 A 
ATOM     73  C   UNL A   1      37.794  31.978  32.662  1.00  0.00     0.049 A 
ATOM     74  N   UNL A   1      39.118  32.680  35.274  1.00  0.00    -0.248 NA
ATOM     75  C   UNL A   1      37.364  34.160  35.704  1.00  0.00    -0.034 C 
ATOM     76  C   UNL A   1      37.218  31.633  31.361  1.00  0.00    -0.036 A 
ATOM     77  N   UNL A   1      38.930  31.210  32.736  1.00  0.00    -0.354 N 
ATOM     78  C   UNL A   1      39.345  33.323  36.483  1.00  0.00     0.074 A 
ATOM     79  C   UNL A   1      38.264  34.268  36.670  1.00  0.00    -0.034 C 
ATOM     80  H   UNL A   1      36.461  34.648  35.599  1.00  0.00     0.065 H 
ATOM     81  C   UNL A   1      37.990  30.707  30.770  1.00  0.00    -0.036 A 
ATOM     82  H   UNL A   1      36.357  32.038  30.961  1.00  0.00     0.065 H 
ATOM     83  C   UNL A   1      39.130  30.416  31.634  1.00  0.00     0.049 A 
ATOM     84  H   UNL A   1      39.541  31.226  33.508  1.00  0.00     0.167 HD
ATOM     85  C   UNL A   1      40.350  33.127  37.370  1.00  0.00     0.037 A 
ATOM     86  H   UNL A   1      38.204  34.938  37.453  1.00  0.00     0.065 H 
ATOM     87  H   UNL A   1      37.806  30.271  29.854  1.00  0.00     0.065 H 
ATOM     88  C   UNL A   1      40.124  29.553  31.353  1.00  0.00     0.037 A 
ATOM     89  C   UNL A   1      41.407  32.166  37.195  1.00  0.00     0.049 A 
ATOM     90  C   UNL A   1      41.227  29.350  32.357  1.00  0.00     0.074 A 
ATOM     91  C   UNL A   1      42.438  31.848  38.062  1.00  0.00    -0.036 A 
ATOM     92  N   UNL A   1      41.567  31.364  36.073  1.00  0.00    -0.354 N 
ATOM     93  N   UNL A   1      41.396  29.915  33.527  1.00  0.00    -0.248 NA
ATOM     94  C   UNL A   1      42.274  28.382  32.001  1.00  0.00    -0.034 C 
ATOM     95  C   UNL A   1      43.245  30.883  37.448  1.00  0.00    -0.036 A 
ATOM     96  H   UNL A   1      42.586  32.253  38.999  1.00  0.00     0.065 H 
ATOM     97  C   UNL A   1      42.690  30.566  36.218  1.00  0.00     0.049 A 
ATOM     98  H   UNL A   1      40.970  31.363  35.290  1.00  0.00     0.167 HD
ATOM     99  C   UNL A   1      42.547  29.351  34.060  1.00  0.00     0.074 A 
ATOM    100  C   UNL A   1      43.029  28.390  33.090  1.00  0.00    -0.034 C 
ATOM    101  H   UNL A   1      42.391  27.838  31.131  1.00  0.00     0.065 H 
ATOM    102  H   UNL A   1      44.107  30.477  37.844  1.00  0.00     0.065 H 
ATOM    103  C   UNL A   1      43.150  29.607  35.247  1.00  0.00     0.037 A 
ATOM    104  H   UNL A   1      43.856  27.789  33.229  1.00  0.00     0.065 H 
BRANCH  85 105
ATOM    105  C   UNL A   1      40.351  33.968  38.613  1.00  0.00     0.064 A 
ATOM    106  C   UNL A   1      39.668  33.568  39.772  1.00  0.00     0.173 A 
ATOM    107  C   UNL A   1      41.067  35.174  38.657  1.00  0.00     0.173 A 
ATOM    108  F   UNL A   1      38.958  32.430  39.778  1.00  0.00    -0.203 F 
ATOM    109  C   UNL A   1      39.677  34.359  40.918  1.00  0.00     0.198 A 
ATOM    110  C   UNL A   1      41.098  35.947  39.815  1.00  0.00     0.198 A 
ATOM    111  F   UNL A   1      41.743  35.600  37.579  1.00  0.00    -0.203 F 
ATOM    112  F   UNL A   1      38.975  33.981  41.995  1.00  0.00    -0.200 F 
ATOM    113  C   UNL A   1      40.396  35.544  40.940  1.00  0.00     0.200 A 
ATOM    114  F   UNL A   1      41.804  37.086  39.839  1.00  0.00    -0.200 F 
ATOM    115  F   UNL A   1      40.407  36.302  42.046  1.00  0.00    -0.200 F 
ENDBRANCH  85 105
BRANCH  88 116
ATOM    116  C   UNL A   1      40.104  28.788  30.080  1.00  0.00     0.064 A 
ATOM    117  C   UNL A   1      40.700  29.307  28.921  1.00  0.00     0.173 A 
ATOM    118  C   UNL A   1      39.489  27.531  29.991  1.00  0.00     0.173 A 
ATOM    119  F   UNL A   1      41.282  30.515  28.953  1.00  0.00    -0.203 F 
ATOM    120  C   UNL A   1      40.665  28.607  27.718  1.00  0.00     0.198 A 
ATOM    121  C   UNL A   1      39.477  26.819  28.793  1.00  0.00     0.198 A 
ATOM    122  F   UNL A   1      38.909  26.989  31.072  1.00  0.00    -0.203 F 
ATOM    123  F   UNL A   1      41.204  29.145  26.616  1.00  0.00    -0.200 F 
ATOM    124  C   UNL A   1      40.058  27.361  27.656  1.00  0.00     0.200 A 
ATOM    125  F   UNL A   1      38.903  25.611  28.740  1.00  0.00    -0.200 F 
ATOM    126  F   UNL A   1      40.028  26.686  26.500  1.00  0.00    -0.200 F 
ENDBRANCH  88 116
BRANCH 103 127
ATOM    127  C   UNL A   1      44.376  28.809  35.579  1.00  0.00     0.064 A 
ATOM    128  C   UNL A   1      44.298  27.588  36.265  1.00  0.00     0.173 A 
ATOM    129  C   UNL A   1      45.644  29.255  35.173  1.00  0.00     0.173 A 
ATOM    130  F   UNL A   1      43.111  27.127  36.688  1.00  0.00    -0.203 F 
ATOM    131  C   UNL A   1      45.445  26.857  36.557  1.00  0.00     0.198 A 
ATOM    132  C   UNL A   1      46.786  28.508  35.441  1.00  0.00     0.198 A 
ATOM    133  F   UNL A   1      45.772  30.413  34.508  1.00  0.00    -0.203 F 
ATOM    134  F   UNL A   1      45.352  25.717  37.256  1.00  0.00    -0.200 F 
ATOM    135  C   UNL A   1      46.687  27.313  36.139  1.00  0.00     0.200 A 
ATOM    136  F   UNL A   1      47.983  28.944  35.027  1.00  0.00    -0.200 F 
ATOM    137  F   UNL A   1      47.790  26.606  36.416  1.00  0.00    -0.200 F 
ENDBRANCH 103 127
ENDBRANCH  68  71
ENDBRANCH  58  61
ENDBRANCH  54  57
ENDBRANCH  51  54
ENDBRANCH  48  51
ENDBRANCH  45  48
ENDBRANCH   1  45
TORSDOF 18
ENDMDL
MODEL 7
REMARK VINA RESULT:      -8.3      3.185      9.450
REMARK SMILES C[C@@H](C(=O)NCCCCCCNC(=O)c1ccc(-c2c3nc(c(-c4c(F)c(F)c(F)c(F)c4F)c4ccc([nH]4)c(-c4c(F)c(F)c(F)c(F)c4F)c4nc(c(-c5c(F)c(F)c(F)c(F)c5F)c5ccc2[nH]5)C=C4)C=C3)cc1)c1ccc(C[C@@H]2CCC[C@@H]2O)cc1F
REMARK SMILES IDX 7 1 6 4 5 7 3 8 4 9 2 11 1 13 78 17 79 18 90 19 80 20 89 22
REMARK SMILES IDX 91 23 81 24 82 27 83 30 84 31 87 32 85 34 86 37 88 43 8 45
REMARK SMILES IDX 9 48 10 51 11 54 12 57 13 58 14 60 15 61 16 62 77 63 17 64
REMARK SMILES IDX 76 66 18 68 19 71 20 72 70 73 21 74 75 75 69 76 71 77 22 78
REMARK SMILES IDX 74 79 68 81 67 83 23 85 55 88 35 89 54 90 36 91 39 92 53 93
REMARK SMILES IDX 72 94 37 95 38 97 52 99 73 100 40 103 24 105 25 106 33 107
REMARK SMILES IDX 26 108 27 109 31 110 34 111 28 112 29 113 32 114 30 115
REMARK SMILES IDX 56 116 57 117 65 118 58 119 59 120 63 121 66 122 60 123
REMARK SMILES IDX 61 124 64 125 62 126 41 127 42 128 50 129 43 130 44 131
REMARK SMILES IDX 48 132 51 133 45 134 46 135 49 136 47 137
REMARK H PARENT 7 2 7 3 6 5 6 6 5 10 2 12 1 14 1 15 1 16 79 21 80 25 89 26
REMARK H PARENT 82 28 82 29 83 33 84 35 84 36 87 38 85 39 85 40 86 41 86 42
REMARK H PARENT 88 44 8 46 8 47 9 49 9 50 10 52 10 53 11 55 11 56 12 59 16 65
REMARK H PARENT 77 67 17 69 76 70 75 80 69 82 71 84 74 86 68 87 36 96 39 98
REMARK H PARENT 72 101 37 102 73 104
REMARK Flexibility Score: inf
ROOT
ATOM      1  C   UNL A   1      43.205  23.525  25.250  1.00  0.00    -0.036 C 
ATOM      2  H   UNL A   1      42.887  22.535  24.997  1.00  0.00     0.028 H 
ATOM      3  H   UNL A   1      42.633  24.279  24.752  1.00  0.00     0.028 H 
ENDROOT
BRANCH   1   4
ATOM      4  C   UNL A   1      44.657  23.695  24.798  1.00  0.00     0.017 C 
ATOM      5  H   UNL A   1      45.007  22.774  24.382  1.00  0.00     0.049 H 
ATOM      6  H   UNL A   1      44.704  24.471  24.062  1.00  0.00     0.049 H 
BRANCH   4   7
ATOM      7  N   UNL A   1      45.494  24.061  25.919  1.00  0.00    -0.356 N 
ATOM      8  C   UNL A   1      46.397  25.076  26.047  1.00  0.00     0.227 C 
ATOM      9  O   UNL A   1      47.103  25.064  27.056  1.00  0.00    -0.274 OA
ATOM     10  H   UNL A   1      45.399  23.488  26.713  1.00  0.00     0.163 HD
BRANCH   8  11
ATOM     11  C   UNL A   1      46.438  26.197  25.000  1.00  0.00     0.063 C 
ATOM     12  H   UNL A   1      45.827  25.880  24.182  1.00  0.00     0.045 H 
BRANCH  11  13
ATOM     13  C   UNL A   1      47.836  26.415  24.408  1.00  0.00    -0.049 C 
ATOM     14  H   UNL A   1      48.059  27.461  24.395  1.00  0.00     0.024 H 
ATOM     15  H   UNL A   1      47.864  26.032  23.409  1.00  0.00     0.024 H 
ATOM     16  H   UNL A   1      48.561  25.903  25.007  1.00  0.00     0.024 H 
ENDBRANCH  11  13
BRANCH  11  17
ATOM     17  C   UNL A   1      45.842  27.483  25.555  1.00  0.00    -0.000 A 
ATOM     18  C   UNL A   1      46.691  28.533  25.939  1.00  0.00    -0.055 A 
ATOM     19  C   UNL A   1      44.462  27.679  25.668  1.00  0.00     0.127 A 
ATOM     20  C   UNL A   1      46.168  29.704  26.494  1.00  0.00    -0.059 A 
ATOM     21  H   UNL A   1      47.710  28.438  25.810  1.00  0.00     0.063 H 
ATOM     22  C   UNL A   1      43.940  28.832  26.244  1.00  0.00    -0.023 A 
ATOM     23  F   UNL A   1      43.602  26.738  25.255  1.00  0.00    -0.207 F 
ATOM     24  C   UNL A   1      44.792  29.842  26.703  1.00  0.00    -0.045 A 
ATOM     25  H   UNL A   1      46.805  30.475  26.751  1.00  0.00     0.063 H 
ATOM     26  H   UNL A   1      42.918  28.943  26.333  1.00  0.00     0.066 H 
BRANCH  24  27
ATOM     27  C   UNL A   1      44.221  31.028  27.438  1.00  0.00    -0.022 C 
ATOM     28  H   UNL A   1      44.066  30.730  28.455  1.00  0.00     0.032 H 
ATOM     29  H   UNL A   1      43.335  31.284  26.897  1.00  0.00     0.032 H 
BRANCH  27  30
ATOM     30  C   UNL A   1      45.062  32.326  27.460  1.00  0.00    -0.011 C 
ATOM     31  C   UNL A   1      44.860  33.201  28.703  1.00  0.00    -0.048 C 
ATOM     32  C   UNL A   1      44.862  33.322  26.312  1.00  0.00     0.057 C 
ATOM     33  H   UNL A   1      46.027  31.868  27.404  1.00  0.00     0.033 H 
ATOM     34  C   UNL A   1      43.927  34.344  28.294  1.00  0.00    -0.050 C 
ATOM     35  H   UNL A   1      45.800  33.593  29.034  1.00  0.00     0.027 H 
ATOM     36  H   UNL A   1      44.441  32.633  29.507  1.00  0.00     0.027 H 
ATOM     37  C   UNL A   1      43.749  34.248  26.783  1.00  0.00    -0.027 C 
ATOM     38  H   UNL A   1      45.765  33.860  26.108  1.00  0.00     0.060 H 
ATOM     39  H   UNL A   1      44.362  35.286  28.555  1.00  0.00     0.027 H 
ATOM     40  H   UNL A   1      42.985  34.270  28.797  1.00  0.00     0.027 H 
ATOM     41  H   UNL A   1      43.847  35.213  26.332  1.00  0.00     0.029 H 
ATOM     42  H   UNL A   1      42.781  33.881  26.515  1.00  0.00     0.029 H 
BRANCH  32  43
ATOM     43  O   UNL A   1      44.576  32.701  25.077  1.00  0.00    -0.393 OA
ATOM     44  H   UNL A   1      43.638  32.827  24.862  1.00  0.00     0.210 HD
ENDBRANCH  32  43
ENDBRANCH  27  30
ENDBRANCH  24  27
ENDBRANCH  11  17
ENDBRANCH   8  11
ENDBRANCH   4   7
ENDBRANCH   1   4
BRANCH   1  45
ATOM     45  C   UNL A   1      42.997  23.729  26.757  1.00  0.00    -0.052 C 
ATOM     46  H   UNL A   1      42.289  24.520  26.891  1.00  0.00     0.027 H 
ATOM     47  H   UNL A   1      43.962  23.948  27.165  1.00  0.00     0.027 H 
BRANCH  45  48
ATOM     48  C   UNL A   1      42.482  22.499  27.512  1.00  0.00    -0.052 C 
ATOM     49  H   UNL A   1      42.017  22.834  28.415  1.00  0.00     0.027 H 
ATOM     50  H   UNL A   1      43.333  21.873  27.681  1.00  0.00     0.027 H 
BRANCH  48  51
ATOM     51  C   UNL A   1      41.469  21.649  26.742  1.00  0.00    -0.036 C 
ATOM     52  H   UNL A   1      41.777  20.626  26.803  1.00  0.00     0.028 H 
ATOM     53  H   UNL A   1      41.457  22.024  25.740  1.00  0.00     0.028 H 
BRANCH  51  54
ATOM     54  C   UNL A   1      40.038  21.747  27.259  1.00  0.00     0.018 C 
ATOM     55  H   UNL A   1      40.018  22.412  28.097  1.00  0.00     0.049 H 
ATOM     56  H   UNL A   1      39.720  20.764  27.537  1.00  0.00     0.049 H 
BRANCH  54  57
ATOM     57  N   UNL A   1      39.122  22.244  26.244  1.00  0.00    -0.352 N 
ATOM     58  C   UNL A   1      38.634  23.511  26.064  1.00  0.00     0.251 C 
ATOM     59  H   UNL A   1      38.809  21.573  25.594  1.00  0.00     0.163 HD
ATOM     60  O   UNL A   1      37.720  23.715  25.264  1.00  0.00    -0.269 OA
BRANCH  58  61
ATOM     61  C   UNL A   1      39.188  24.637  26.844  1.00  0.00     0.039 A 
ATOM     62  C   UNL A   1      40.025  25.554  26.203  1.00  0.00    -0.049 A 
ATOM     63  C   UNL A   1      38.902  24.777  28.205  1.00  0.00    -0.049 A 
ATOM     64  C   UNL A   1      40.538  26.638  26.915  1.00  0.00    -0.053 A 
ATOM     65  H   UNL A   1      40.263  25.429  25.206  1.00  0.00     0.063 H 
ATOM     66  C   UNL A   1      39.360  25.895  28.898  1.00  0.00    -0.053 A 
ATOM     67  H   UNL A   1      38.354  24.054  28.696  1.00  0.00     0.063 H 
ATOM     68  C   UNL A   1      40.190  26.832  28.262  1.00  0.00    -0.014 A 
ATOM     69  H   UNL A   1      41.178  27.303  26.450  1.00  0.00     0.063 H 
ATOM     70  H   UNL A   1      39.088  26.035  29.884  1.00  0.00     0.063 H 
BRANCH  68  71
ATOM     71  C   UNL A   1      40.697  27.999  29.025  1.00  0.00     0.031 A 
ATOM     72  C   UNL A   1      39.778  29.142  29.353  1.00  0.00     0.074 A 
ATOM     73  C   UNL A   1      41.996  28.054  29.374  1.00  0.00     0.049 A 
ATOM     74  N   UNL A   1      40.043  30.271  29.962  1.00  0.00    -0.248 NA
ATOM     75  C   UNL A   1      38.379  29.010  28.917  1.00  0.00    -0.034 C 
ATOM     76  C   UNL A   1      42.997  27.029  29.074  1.00  0.00    -0.036 A 
ATOM     77  N   UNL A   1      42.701  29.019  30.051  1.00  0.00    -0.354 N 
ATOM     78  C   UNL A   1      38.854  30.986  29.966  1.00  0.00     0.074 A 
ATOM     79  C   UNL A   1      37.877  30.188  29.257  1.00  0.00    -0.034 C 
ATOM     80  H   UNL A   1      37.911  28.209  28.465  1.00  0.00     0.065 H 
ATOM     81  C   UNL A   1      44.180  27.407  29.584  1.00  0.00    -0.036 A 
ATOM     82  H   UNL A   1      42.821  26.155  28.553  1.00  0.00     0.065 H 
ATOM     83  C   UNL A   1      44.029  28.714  30.218  1.00  0.00     0.049 A 
ATOM     84  H   UNL A   1      42.292  29.849  30.386  1.00  0.00     0.167 HD
ATOM     85  C   UNL A   1      38.592  32.189  30.532  1.00  0.00     0.037 A 
ATOM     86  H   UNL A   1      36.916  30.497  29.042  1.00  0.00     0.065 H 
ATOM     87  H   UNL A   1      45.054  26.862  29.536  1.00  0.00     0.065 H 
ATOM     88  C   UNL A   1      45.014  29.412  30.814  1.00  0.00     0.037 A 
ATOM     89  C   UNL A   1      39.558  32.967  31.262  1.00  0.00     0.049 A 
ATOM     90  C   UNL A   1      44.696  30.744  31.438  1.00  0.00     0.074 A 
ATOM     91  C   UNL A   1      39.377  34.169  31.924  1.00  0.00    -0.036 A 
ATOM     92  N   UNL A   1      40.891  32.616  31.428  1.00  0.00    -0.354 N 
ATOM     93  N   UNL A   1      43.552  31.381  31.494  1.00  0.00    -0.248 NA
ATOM     94  C   UNL A   1      45.809  31.450  32.089  1.00  0.00    -0.034 C 
ATOM     95  C   UNL A   1      40.609  34.565  32.456  1.00  0.00    -0.036 A 
ATOM     96  H   UNL A   1      38.487  34.683  32.011  1.00  0.00     0.065 H 
ATOM     97  C   UNL A   1      41.548  33.588  32.166  1.00  0.00     0.049 A 
ATOM     98  H   UNL A   1      41.308  31.797  31.074  1.00  0.00     0.167 HD
ATOM     99  C   UNL A   1      43.798  32.544  32.209  1.00  0.00     0.074 A 
ATOM    100  C   UNL A   1      45.198  32.520  32.579  1.00  0.00    -0.034 C 
ATOM    101  H   UNL A   1      46.804  31.184  32.149  1.00  0.00     0.065 H 
ATOM    102  H   UNL A   1      40.789  35.439  32.977  1.00  0.00     0.065 H 
ATOM    103  C   UNL A   1      42.940  33.543  32.533  1.00  0.00     0.037 A 
ATOM    104  H   UNL A   1      45.661  33.244  33.149  1.00  0.00     0.065 H 
BRANCH  85 105
ATOM    105  C   UNL A   1      37.203  32.736  30.385  1.00  0.00     0.064 A 
ATOM    106  C   UNL A   1      36.821  33.481  29.259  1.00  0.00     0.173 A 
ATOM    107  C   UNL A   1      36.231  32.487  31.367  1.00  0.00     0.173 A 
ATOM    108  F   UNL A   1      37.715  33.757  28.298  1.00  0.00    -0.203 F 
ATOM    109  C   UNL A   1      35.528  33.984  29.136  1.00  0.00     0.198 A 
ATOM    110  C   UNL A   1      34.931  32.966  31.226  1.00  0.00     0.198 A 
ATOM    111  F   UNL A   1      36.540  31.774  32.460  1.00  0.00    -0.203 F 
ATOM    112  F   UNL A   1      35.202  34.737  28.077  1.00  0.00    -0.200 F 
ATOM    113  C   UNL A   1      34.583  33.720  30.116  1.00  0.00     0.200 A 
ATOM    114  F   UNL A   1      34.015  32.700  32.167  1.00  0.00    -0.200 F 
ATOM    115  F   UNL A   1      33.338  34.201  29.994  1.00  0.00    -0.200 F 
ENDBRANCH  85 105
BRANCH  88 116
ATOM    116  C   UNL A   1      46.387  28.849  30.880  1.00  0.00     0.064 A 
ATOM    117  C   UNL A   1      46.698  27.823  31.784  1.00  0.00     0.173 A 
ATOM    118  C   UNL A   1      47.413  29.322  30.051  1.00  0.00     0.173 A 
ATOM    119  F   UNL A   1      45.754  27.352  32.613  1.00  0.00    -0.203 F 
ATOM    120  C   UNL A   1      47.988  27.305  31.869  1.00  0.00     0.198 A 
ATOM    121  C   UNL A   1      48.697  28.786  30.118  1.00  0.00     0.198 A 
ATOM    122  F   UNL A   1      47.166  30.299  29.166  1.00  0.00    -0.203 F 
ATOM    123  F   UNL A   1      48.269  26.355  32.772  1.00  0.00    -0.200 F 
ATOM    124  C   UNL A   1      48.985  27.784  31.033  1.00  0.00     0.200 A 
ATOM    125  F   UNL A   1      49.655  29.241  29.299  1.00  0.00    -0.200 F 
ATOM    126  F   UNL A   1      50.226  27.283  31.112  1.00  0.00    -0.200 F 
ENDBRANCH  88 116
BRANCH 103 127
ATOM    127  C   UNL A   1      43.483  34.673  33.356  1.00  0.00     0.064 A 
ATOM    128  C   UNL A   1      44.002  35.833  32.763  1.00  0.00     0.173 A 
ATOM    129  C   UNL A   1      43.451  34.609  34.758  1.00  0.00     0.173 A 
ATOM    130  F   UNL A   1      44.069  35.936  31.427  1.00  0.00    -0.203 F 
ATOM    131  C   UNL A   1      44.494  36.876  33.543  1.00  0.00     0.198 A 
ATOM    132  C   UNL A   1      43.917  35.664  35.535  1.00  0.00     0.198 A 
ATOM    133  F   UNL A   1      42.958  33.523  35.374  1.00  0.00    -0.203 F 
ATOM    134  F   UNL A   1      45.030  37.955  32.955  1.00  0.00    -0.200 F 
ATOM    135  C   UNL A   1      44.445  36.794  34.927  1.00  0.00     0.200 A 
ATOM    136  F   UNL A   1      43.858  35.589  36.871  1.00  0.00    -0.200 F 
ATOM    137  F   UNL A   1      44.915  37.801  35.676  1.00  0.00    -0.200 F 
ENDBRANCH 103 127
ENDBRANCH  68  71
ENDBRANCH  58  61
ENDBRANCH  54  57
ENDBRANCH  51  54
ENDBRANCH  48  51
ENDBRANCH  45  48
ENDBRANCH   1  45
TORSDOF 18
ENDMDL
MODEL 8
REMARK VINA RESULT:      -8.3      4.305      8.062
REMARK SMILES C[C@@H](C(=O)NCCCCCCNC(=O)c1ccc(-c2c3nc(c(-c4c(F)c(F)c(F)c(F)c4F)c4ccc([nH]4)c(-c4c(F)c(F)c(F)c(F)c4F)c4nc(c(-c5c(F)c(F)c(F)c(F)c5F)c5ccc2[nH]5)C=C4)C=C3)cc1)c1ccc(C[C@@H]2CCC[C@@H]2O)cc1F
REMARK SMILES IDX 7 1 6 4 5 7 3 8 4 9 2 11 1 13 78 17 79 18 90 19 80 20 89 22
REMARK SMILES IDX 91 23 81 24 82 27 83 30 84 31 87 32 85 34 86 37 88 43 8 45
REMARK SMILES IDX 9 48 10 51 11 54 12 57 13 58 14 60 15 61 16 62 77 63 17 64
REMARK SMILES IDX 76 66 18 68 19 71 20 72 70 73 21 74 75 75 69 76 71 77 22 78
REMARK SMILES IDX 74 79 68 81 67 83 23 85 55 88 35 89 54 90 36 91 39 92 53 93
REMARK SMILES IDX 72 94 37 95 38 97 52 99 73 100 40 103 24 105 25 106 33 107
REMARK SMILES IDX 26 108 27 109 31 110 34 111 28 112 29 113 32 114 30 115
REMARK SMILES IDX 56 116 57 117 65 118 58 119 59 120 63 121 66 122 60 123
REMARK SMILES IDX 61 124 64 125 62 126 41 127 42 128 50 129 43 130 44 131
REMARK SMILES IDX 48 132 51 133 45 134 46 135 49 136 47 137
REMARK H PARENT 7 2 7 3 6 5 6 6 5 10 2 12 1 14 1 15 1 16 79 21 80 25 89 26
REMARK H PARENT 82 28 82 29 83 33 84 35 84 36 87 38 85 39 85 40 86 41 86 42
REMARK H PARENT 88 44 8 46 8 47 9 49 9 50 10 52 10 53 11 55 11 56 12 59 16 65
REMARK H PARENT 77 67 17 69 76 70 75 80 69 82 71 84 74 86 68 87 36 96 39 98
REMARK H PARENT 72 101 37 102 73 104
REMARK Flexibility Score: inf
ROOT
ATOM      1  C   UNL A   1      34.705  31.594  28.471  1.00  0.00    -0.036 C 
ATOM      2  H   UNL A   1      35.527  30.960  28.728  1.00  0.00     0.028 H 
ATOM      3  H   UNL A   1      34.008  31.709  29.274  1.00  0.00     0.028 H 
ENDROOT
BRANCH   1   4
ATOM      4  C   UNL A   1      33.944  30.948  27.310  1.00  0.00     0.017 C 
ATOM      5  H   UNL A   1      33.433  31.709  26.757  1.00  0.00     0.049 H 
ATOM      6  H   UNL A   1      34.642  30.440  26.677  1.00  0.00     0.049 H 
BRANCH   4   7
ATOM      7  N   UNL A   1      32.981  29.993  27.810  1.00  0.00    -0.356 N 
ATOM      8  C   UNL A   1      32.257  29.046  27.146  1.00  0.00     0.227 C 
ATOM      9  O   UNL A   1      31.377  28.471  27.788  1.00  0.00    -0.274 OA
ATOM     10  H   UNL A   1      32.821  30.032  28.780  1.00  0.00     0.163 HD
BRANCH   8  11
ATOM     11  C   UNL A   1      32.613  28.692  25.696  1.00  0.00     0.063 C 
ATOM     12  H   UNL A   1      33.572  29.122  25.498  1.00  0.00     0.045 H 
BRANCH  11  13
ATOM     13  C   UNL A   1      31.661  29.326  24.673  1.00  0.00    -0.049 C 
ATOM     14  H   UNL A   1      32.053  30.271  24.359  1.00  0.00     0.024 H 
ATOM     15  H   UNL A   1      30.699  29.469  25.121  1.00  0.00     0.024 H 
ATOM     16  H   UNL A   1      31.566  28.679  23.825  1.00  0.00     0.024 H 
ENDBRANCH  11  13
BRANCH  11  17
ATOM     17  C   UNL A   1      32.731  27.186  25.515  1.00  0.00    -0.000 A 
ATOM     18  C   UNL A   1      33.992  26.575  25.583  1.00  0.00    -0.055 A 
ATOM     19  C   UNL A   1      31.614  26.368  25.313  1.00  0.00     0.127 A 
ATOM     20  C   UNL A   1      34.129  25.200  25.373  1.00  0.00    -0.059 A 
ATOM     21  H   UNL A   1      34.826  27.146  25.790  1.00  0.00     0.063 H 
ATOM     22  C   UNL A   1      31.750  25.005  25.078  1.00  0.00    -0.023 A 
ATOM     23  F   UNL A   1      30.380  26.888  25.305  1.00  0.00    -0.207 F 
ATOM     24  C   UNL A   1      33.016  24.411  25.064  1.00  0.00    -0.045 A 
ATOM     25  H   UNL A   1      35.061  24.763  25.448  1.00  0.00     0.063 H 
ATOM     26  H   UNL A   1      30.911  24.426  24.913  1.00  0.00     0.066 H 
BRANCH  24  27
ATOM     27  C   UNL A   1      33.160  22.959  24.683  1.00  0.00    -0.022 C 
ATOM     28  H   UNL A   1      33.797  22.915  23.824  1.00  0.00     0.032 H 
ATOM     29  H   UNL A   1      32.159  22.617  24.527  1.00  0.00     0.032 H 
BRANCH  27  30
ATOM     30  C   UNL A   1      33.746  21.999  25.744  1.00  0.00    -0.011 C 
ATOM     31  C   UNL A   1      35.261  21.780  25.645  1.00  0.00    -0.048 C 
ATOM     32  C   UNL A   1      33.203  20.566  25.785  1.00  0.00     0.057 C 
ATOM     33  H   UNL A   1      33.443  22.546  26.612  1.00  0.00     0.033 H 
ATOM     34  C   UNL A   1      35.470  20.429  24.956  1.00  0.00    -0.050 C 
ATOM     35  H   UNL A   1      35.695  21.767  26.623  1.00  0.00     0.027 H 
ATOM     36  H   UNL A   1      35.726  22.569  25.092  1.00  0.00     0.027 H 
ATOM     37  C   UNL A   1      34.097  19.778  24.837  1.00  0.00    -0.027 C 
ATOM     38  H   UNL A   1      33.234  20.171  26.779  1.00  0.00     0.060 H 
ATOM     39  H   UNL A   1      36.120  19.813  25.543  1.00  0.00     0.027 H 
ATOM     40  H   UNL A   1      35.921  20.554  23.994  1.00  0.00     0.027 H 
ATOM     41  H   UNL A   1      34.142  18.750  25.131  1.00  0.00     0.029 H 
ATOM     42  H   UNL A   1      33.730  19.793  23.833  1.00  0.00     0.029 H 
BRANCH  32  43
ATOM     43  O   UNL A   1      31.834  20.478  25.450  1.00  0.00    -0.393 OA
ATOM     44  H   UNL A   1      31.716  19.823  24.744  1.00  0.00     0.210 HD
ENDBRANCH  32  43
ENDBRANCH  27  30
ENDBRANCH  24  27
ENDBRANCH  11  17
ENDBRANCH   8  11
ENDBRANCH   4   7
ENDBRANCH   1   4
BRANCH   1  45
ATOM     45  C   UNL A   1      35.253  32.992  28.151  1.00  0.00    -0.052 C 
ATOM     46  H   UNL A   1      35.957  32.898  27.350  1.00  0.00     0.027 H 
ATOM     47  H   UNL A   1      35.687  33.358  29.057  1.00  0.00     0.027 H 
BRANCH  45  48
ATOM     48  C   UNL A   1      34.197  34.022  27.735  1.00  0.00    -0.052 C 
ATOM     49  H   UNL A   1      33.633  33.610  26.925  1.00  0.00     0.027 H 
ATOM     50  H   UNL A   1      34.733  34.910  27.470  1.00  0.00     0.027 H 
BRANCH  48  51
ATOM     51  C   UNL A   1      33.219  34.423  28.841  1.00  0.00    -0.036 C 
ATOM     52  H   UNL A   1      33.388  33.788  29.684  1.00  0.00     0.028 H 
ATOM     53  H   UNL A   1      32.236  34.320  28.430  1.00  0.00     0.028 H 
BRANCH  51  54
ATOM     54  C   UNL A   1      33.345  35.871  29.303  1.00  0.00     0.018 C 
ATOM     55  H   UNL A   1      32.974  36.513  28.532  1.00  0.00     0.049 H 
ATOM     56  H   UNL A   1      34.379  36.064  29.504  1.00  0.00     0.049 H 
BRANCH  54  57
ATOM     57  N   UNL A   1      32.598  36.123  30.525  1.00  0.00    -0.352 N 
ATOM     58  C   UNL A   1      32.805  35.626  31.785  1.00  0.00     0.251 C 
ATOM     59  H   UNL A   1      31.835  36.740  30.433  1.00  0.00     0.163 HD
ATOM     60  O   UNL A   1      31.962  35.800  32.665  1.00  0.00    -0.269 OA
BRANCH  58  61
ATOM     61  C   UNL A   1      34.032  34.862  32.088  1.00  0.00     0.039 A 
ATOM     62  C   UNL A   1      35.248  35.544  32.173  1.00  0.00    -0.049 A 
ATOM     63  C   UNL A   1      33.989  33.475  32.265  1.00  0.00    -0.049 A 
ATOM     64  C   UNL A   1      36.415  34.844  32.484  1.00  0.00    -0.053 A 
ATOM     65  H   UNL A   1      35.283  36.562  32.007  1.00  0.00     0.063 H 
ATOM     66  C   UNL A   1      35.141  32.789  32.640  1.00  0.00    -0.053 A 
ATOM     67  H   UNL A   1      33.106  32.962  32.119  1.00  0.00     0.063 H 
ATOM     68  C   UNL A   1      36.367  33.465  32.744  1.00  0.00    -0.014 A 
ATOM     69  H   UNL A   1      37.319  35.342  32.522  1.00  0.00     0.063 H 
ATOM     70  H   UNL A   1      35.094  31.778  32.842  1.00  0.00     0.063 H 
BRANCH  68  71
ATOM     71  C   UNL A   1      37.592  32.712  33.111  1.00  0.00     0.031 A 
ATOM     72  C   UNL A   1      38.296  33.002  34.407  1.00  0.00     0.074 A 
ATOM     73  C   UNL A   1      38.099  31.806  32.254  1.00  0.00     0.049 A 
ATOM     74  N   UNL A   1      39.404  32.491  34.881  1.00  0.00    -0.248 NA
ATOM     75  C   UNL A   1      37.685  34.021  35.276  1.00  0.00    -0.034 C 
ATOM     76  C   UNL A   1      37.532  31.467  30.947  1.00  0.00    -0.036 A 
ATOM     77  N   UNL A   1      39.212  31.008  32.350  1.00  0.00    -0.354 N 
ATOM     78  C   UNL A   1      39.631  33.136  36.089  1.00  0.00     0.074 A 
ATOM     79  C   UNL A   1      38.574  34.110  36.253  1.00  0.00    -0.034 C 
ATOM     80  H   UNL A   1      36.797  34.531  35.154  1.00  0.00     0.065 H 
ATOM     81  C   UNL A   1      38.287  30.517  30.374  1.00  0.00    -0.036 A 
ATOM     82  H   UNL A   1      36.688  31.893  30.533  1.00  0.00     0.065 H 
ATOM     83  C   UNL A   1      39.407  30.202  31.257  1.00  0.00     0.049 A 
ATOM     84  H   UNL A   1      39.813  31.014  33.131  1.00  0.00     0.167 HD
ATOM     85  C   UNL A   1      40.618  32.919  36.991  1.00  0.00     0.037 A 
ATOM     86  H   UNL A   1      38.521  34.788  37.031  1.00  0.00     0.065 H 
ATOM     87  H   UNL A   1      38.105  30.079  29.458  1.00  0.00     0.065 H 
ATOM     88  C   UNL A   1      40.382  29.310  30.995  1.00  0.00     0.037 A 
ATOM     89  C   UNL A   1      41.651  31.928  36.838  1.00  0.00     0.049 A 
ATOM     90  C   UNL A   1      41.464  29.084  32.016  1.00  0.00     0.074 A 
ATOM     91  C   UNL A   1      42.661  31.590  37.721  1.00  0.00    -0.036 A 
ATOM     92  N   UNL A   1      41.805  31.115  35.724  1.00  0.00    -0.354 N 
ATOM     93  N   UNL A   1      41.631  29.653  33.185  1.00  0.00    -0.248 NA
ATOM     94  C   UNL A   1      42.489  28.086  31.682  1.00  0.00    -0.034 C 
ATOM     95  C   UNL A   1      43.449  30.599  37.126  1.00  0.00    -0.036 A 
ATOM     96  H   UNL A   1      42.806  31.997  38.658  1.00  0.00     0.065 H 
ATOM     97  C   UNL A   1      42.905  30.288  35.890  1.00  0.00     0.049 A 
ATOM     98  H   UNL A   1      41.219  31.124  34.932  1.00  0.00     0.167 HD
ATOM     99  C   UNL A   1      42.759  29.062  33.739  1.00  0.00     0.074 A 
ATOM    100  C   UNL A   1      43.228  28.081  32.782  1.00  0.00    -0.034 C 
ATOM    101  H   UNL A   1      42.604  27.533  30.818  1.00  0.00     0.065 H 
ATOM    102  H   UNL A   1      44.295  30.172  37.537  1.00  0.00     0.065 H 
ATOM    103  C   UNL A   1      43.352  29.310  34.932  1.00  0.00     0.037 A 
ATOM    104  H   UNL A   1      44.037  27.459  32.937  1.00  0.00     0.065 H 
BRANCH  85 105
ATOM    105  C   UNL A   1      40.624  33.768  38.228  1.00  0.00     0.064 A 
ATOM    106  C   UNL A   1      41.418  34.921  38.325  1.00  0.00     0.173 A 
ATOM    107  C   UNL A   1      39.803  33.444  39.319  1.00  0.00     0.173 A 
ATOM    108  F   UNL A   1      42.229  35.268  37.315  1.00  0.00    -0.203 F 
ATOM    109  C   UNL A   1      41.415  35.699  39.480  1.00  0.00     0.198 A 
ATOM    110  C   UNL A   1      39.780  34.242  40.461  1.00  0.00     0.198 A 
ATOM    111  F   UNL A   1      39.019  32.357  39.277  1.00  0.00    -0.203 F 
ATOM    112  F   UNL A   1      42.221  36.766  39.569  1.00  0.00    -0.200 F 
ATOM    113  C   UNL A   1      40.592  35.362  40.543  1.00  0.00     0.200 A 
ATOM    114  F   UNL A   1      38.975  33.922  41.484  1.00  0.00    -0.200 F 
ATOM    115  F   UNL A   1      40.587  36.116  41.653  1.00  0.00    -0.200 F 
ENDBRANCH  85 105
BRANCH  88 116
ATOM    116  C   UNL A   1      40.359  28.537  29.727  1.00  0.00     0.064 A 
ATOM    117  C   UNL A   1      39.626  27.345  29.627  1.00  0.00     0.173 A 
ATOM    118  C   UNL A   1      41.067  28.966  28.596  1.00  0.00     0.173 A 
ATOM    119  F   UNL A   1      38.950  26.884  30.690  1.00  0.00    -0.203 F 
ATOM    120  C   UNL A   1      39.619  26.602  28.449  1.00  0.00     0.198 A 
ATOM    121  C   UNL A   1      41.037  28.236  27.409  1.00  0.00     0.198 A 
ATOM    122  F   UNL A   1      41.779  30.101  28.639  1.00  0.00    -0.203 F 
ATOM    123  F   UNL A   1      38.946  25.445  28.393  1.00  0.00    -0.200 F 
ATOM    124  C   UNL A   1      40.320  27.051  27.340  1.00  0.00     0.200 A 
ATOM    125  F   UNL A   1      41.705  28.679  26.336  1.00  0.00    -0.200 F 
ATOM    126  F   UNL A   1      40.310  26.338  26.205  1.00  0.00    -0.200 F 
ENDBRANCH  88 116
BRANCH 103 127
ATOM    127  C   UNL A   1      44.551  28.481  35.287  1.00  0.00     0.064 A 
ATOM    128  C   UNL A   1      45.853  28.897  34.970  1.00  0.00     0.173 A 
ATOM    129  C   UNL A   1      44.398  27.273  35.983  1.00  0.00     0.173 A 
ATOM    130  F   UNL A   1      46.051  30.037  34.291  1.00  0.00    -0.203 F 
ATOM    131  C   UNL A   1      46.955  28.120  35.314  1.00  0.00     0.198 A 
ATOM    132  C   UNL A   1      45.503  26.512  36.351  1.00  0.00     0.198 A 
ATOM    133  F   UNL A   1      43.174  26.835  36.315  1.00  0.00    -0.203 F 
ATOM    134  F   UNL A   1      48.187  28.512  34.959  1.00  0.00    -0.200 F 
ATOM    135  C   UNL A   1      46.780  26.932  36.010  1.00  0.00     0.200 A 
ATOM    136  F   UNL A   1      45.333  25.371  37.033  1.00  0.00    -0.200 F 
ATOM    137  F   UNL A   1      47.842  26.187  36.345  1.00  0.00    -0.200 F 
ENDBRANCH 103 127
ENDBRANCH  68  71
ENDBRANCH  58  61
ENDBRANCH  54  57
ENDBRANCH  51  54
ENDBRANCH  48  51
ENDBRANCH  45  48
ENDBRANCH   1  45
TORSDOF 18
ENDMDL
MODEL 9
REMARK VINA RESULT:      -8.3      3.603     10.730
REMARK SMILES C[C@@H](C(=O)NCCCCCCNC(=O)c1ccc(-c2c3nc(c(-c4c(F)c(F)c(F)c(F)c4F)c4ccc([nH]4)c(-c4c(F)c(F)c(F)c(F)c4F)c4nc(c(-c5c(F)c(F)c(F)c(F)c5F)c5ccc2[nH]5)C=C4)C=C3)cc1)c1ccc(C[C@@H]2CCC[C@@H]2O)cc1F
REMARK SMILES IDX 7 1 6 4 5 7 3 8 4 9 2 11 1 13 78 17 79 18 90 19 80 20 89 22
REMARK SMILES IDX 91 23 81 24 82 27 83 30 84 31 87 32 85 34 86 37 88 43 8 45
REMARK SMILES IDX 9 48 10 51 11 54 12 57 13 58 14 60 15 61 16 62 77 63 17 64
REMARK SMILES IDX 76 66 18 68 19 71 20 72 70 73 21 74 75 75 69 76 71 77 22 78
REMARK SMILES IDX 74 79 68 81 67 83 23 85 55 88 35 89 54 90 36 91 39 92 53 93
REMARK SMILES IDX 72 94 37 95 38 97 52 99 73 100 40 103 24 105 25 106 33 107
REMARK SMILES IDX 26 108 27 109 31 110 34 111 28 112 29 113 32 114 30 115
REMARK SMILES IDX 56 116 57 117 65 118 58 119 59 120 63 121 66 122 60 123
REMARK SMILES IDX 61 124 64 125 62 126 41 127 42 128 50 129 43 130 44 131
REMARK SMILES IDX 48 132 51 133 45 134 46 135 49 136 47 137
REMARK H PARENT 7 2 7 3 6 5 6 6 5 10 2 12 1 14 1 15 1 16 79 21 80 25 89 26
REMARK H PARENT 82 28 82 29 83 33 84 35 84 36 87 38 85 39 85 40 86 41 86 42
REMARK H PARENT 88 44 8 46 8 47 9 49 9 50 10 52 10 53 11 55 11 56 12 59 16 65
REMARK H PARENT 77 67 17 69 76 70 75 80 69 82 71 84 74 86 68 87 36 96 39 98
REMARK H PARENT 72 101 37 102 73 104
REMARK Flexibility Score: inf
ROOT
ATOM      1  C   UNL A   1      43.744  23.373  29.206  1.00  0.00    -0.036 C 
ATOM      2  H   UNL A   1      43.657  24.128  29.960  1.00  0.00     0.028 H 
ATOM      3  H   UNL A   1      43.936  22.404  29.617  1.00  0.00     0.028 H 
ENDROOT
BRANCH   1   4
ATOM      4  C   UNL A   1      44.935  23.722  28.311  1.00  0.00     0.017 C 
ATOM      5  H   UNL A   1      44.673  24.547  27.682  1.00  0.00     0.049 H 
ATOM      6  H   UNL A   1      45.770  23.981  28.928  1.00  0.00     0.049 H 
BRANCH   4   7
ATOM      7  N   UNL A   1      45.293  22.589  27.486  1.00  0.00    -0.356 N 
ATOM      8  C   UNL A   1      45.032  22.343  26.170  1.00  0.00     0.227 C 
ATOM      9  O   UNL A   1      45.308  21.217  25.752  1.00  0.00    -0.274 OA
ATOM     10  H   UNL A   1      45.804  21.885  27.946  1.00  0.00     0.163 HD
BRANCH   8  11
ATOM     11  C   UNL A   1      44.496  23.468  25.275  1.00  0.00     0.063 C 
ATOM     12  H   UNL A   1      43.693  23.932  25.808  1.00  0.00     0.045 H 
BRANCH  11  13
ATOM     13  C   UNL A   1      43.878  22.953  23.969  1.00  0.00    -0.049 C 
ATOM     14  H   UNL A   1      44.302  23.482  23.141  1.00  0.00     0.024 H 
ATOM     15  H   UNL A   1      42.819  23.110  23.988  1.00  0.00     0.024 H 
ATOM     16  H   UNL A   1      44.081  21.907  23.866  1.00  0.00     0.024 H 
ENDBRANCH  11  13
BRANCH  11  17
ATOM     17  C   UNL A   1      45.563  24.525  25.029  1.00  0.00    -0.000 A 
ATOM     18  C   UNL A   1      46.839  24.134  24.595  1.00  0.00    -0.055 A 
ATOM     19  C   UNL A   1      45.312  25.891  25.186  1.00  0.00     0.127 A 
ATOM     20  C   UNL A   1      47.848  25.083  24.408  1.00  0.00    -0.059 A 
ATOM     21  H   UNL A   1      47.034  23.138  24.414  1.00  0.00     0.063 H 
ATOM     22  C   UNL A   1      46.320  26.835  25.026  1.00  0.00    -0.023 A 
ATOM     23  F   UNL A   1      44.093  26.326  25.534  1.00  0.00    -0.207 F 
ATOM     24  C   UNL A   1      47.614  26.436  24.675  1.00  0.00    -0.045 A 
ATOM     25  H   UNL A   1      48.775  24.782  24.068  1.00  0.00     0.063 H 
ATOM     26  H   UNL A   1      46.112  27.836  25.166  1.00  0.00     0.066 H 
BRANCH  24  27
ATOM     27  C   UNL A   1      48.726  27.453  24.628  1.00  0.00    -0.022 C 
ATOM     28  H   UNL A   1      48.796  27.896  25.601  1.00  0.00     0.032 H 
ATOM     29  H   UNL A   1      48.451  28.122  23.841  1.00  0.00     0.032 H 
BRANCH  27  30
ATOM     30  C   UNL A   1      50.137  26.949  24.245  1.00  0.00    -0.011 C 
ATOM     31  C   UNL A   1      51.067  26.680  25.435  1.00  0.00    -0.048 C 
ATOM     32  C   UNL A   1      50.994  27.849  23.347  1.00  0.00     0.057 C 
ATOM     33  H   UNL A   1      49.834  26.066  23.724  1.00  0.00     0.033 H 
ATOM     34  C   UNL A   1      52.012  27.881  25.540  1.00  0.00    -0.050 C 
ATOM     35  H   UNL A   1      51.627  25.784  25.269  1.00  0.00     0.027 H 
ATOM     36  H   UNL A   1      50.507  26.554  26.337  1.00  0.00     0.027 H 
ATOM     37  C   UNL A   1      51.768  28.742  24.306  1.00  0.00    -0.027 C 
ATOM     38  H   UNL A   1      51.649  27.267  22.732  1.00  0.00     0.060 H 
ATOM     39  H   UNL A   1      53.029  27.547  25.562  1.00  0.00     0.027 H 
ATOM     40  H   UNL A   1      51.831  28.434  26.437  1.00  0.00     0.027 H 
ATOM     41  H   UNL A   1      52.697  29.046  23.871  1.00  0.00     0.029 H 
ATOM     42  H   UNL A   1      51.234  29.638  24.541  1.00  0.00     0.029 H 
BRANCH  32  43
ATOM     43  O   UNL A   1      50.238  28.579  22.404  1.00  0.00    -0.393 OA
ATOM     44  H   UNL A   1      50.549  29.498  22.383  1.00  0.00     0.210 HD
ENDBRANCH  32  43
ENDBRANCH  27  30
ENDBRANCH  24  27
ENDBRANCH  11  17
ENDBRANCH   8  11
ENDBRANCH   4   7
ENDBRANCH   1   4
BRANCH   1  45
ATOM     45  C   UNL A   1      42.409  23.283  28.455  1.00  0.00    -0.052 C 
ATOM     46  H   UNL A   1      42.608  23.385  27.409  1.00  0.00     0.027 H 
ATOM     47  H   UNL A   1      41.791  24.063  28.848  1.00  0.00     0.027 H 
BRANCH  45  48
ATOM     48  C   UNL A   1      41.635  21.978  28.664  1.00  0.00    -0.052 C 
ATOM     49  H   UNL A   1      40.647  22.226  28.993  1.00  0.00     0.027 H 
ATOM     50  H   UNL A   1      42.190  21.411  29.382  1.00  0.00     0.027 H 
BRANCH  48  51
ATOM     51  C   UNL A   1      41.513  21.095  27.420  1.00  0.00    -0.036 C 
ATOM     52  H   UNL A   1      40.726  20.390  27.586  1.00  0.00     0.028 H 
ATOM     53  H   UNL A   1      42.468  20.631  27.282  1.00  0.00     0.028 H 
BRANCH  51  54
ATOM     54  C   UNL A   1      41.209  21.853  26.132  1.00  0.00     0.018 C 
ATOM     55  H   UNL A   1      41.735  21.388  25.325  1.00  0.00     0.049 H 
ATOM     56  H   UNL A   1      41.523  22.868  26.266  1.00  0.00     0.049 H 
BRANCH  54  57
ATOM     57  N   UNL A   1      39.788  21.862  25.824  1.00  0.00    -0.352 N 
ATOM     58  C   UNL A   1      38.842  22.806  26.126  1.00  0.00     0.251 C 
ATOM     59  H   UNL A   1      39.459  21.078  25.328  1.00  0.00     0.163 HD
ATOM     60  O   UNL A   1      37.648  22.565  25.951  1.00  0.00    -0.269 OA
BRANCH  58  61
ATOM     61  C   UNL A   1      39.250  24.113  26.682  1.00  0.00     0.039 A 
ATOM     62  C   UNL A   1      38.901  24.424  27.999  1.00  0.00    -0.049 A 
ATOM     63  C   UNL A   1      39.954  25.037  25.904  1.00  0.00    -0.049 A 
ATOM     64  C   UNL A   1      39.300  25.642  28.552  1.00  0.00    -0.053 A 
ATOM     65  H   UNL A   1      38.351  23.755  28.561  1.00  0.00     0.063 H 
ATOM     66  C   UNL A   1      40.408  26.222  26.477  1.00  0.00    -0.053 A 
ATOM     67  H   UNL A   1      40.137  24.841  24.908  1.00  0.00     0.063 H 
ATOM     68  C   UNL A   1      40.077  26.540  27.804  1.00  0.00    -0.014 A 
ATOM     69  H   UNL A   1      39.021  25.884  29.516  1.00  0.00     0.063 H 
ATOM     70  H   UNL A   1      40.990  26.871  25.923  1.00  0.00     0.063 H 
BRANCH  68  71
ATOM     71  C   UNL A   1      40.540  27.824  28.388  1.00  0.00     0.031 A 
ATOM     72  C   UNL A   1      41.991  28.019  28.726  1.00  0.00     0.074 A 
ATOM     73  C   UNL A   1      39.645  28.792  28.663  1.00  0.00     0.049 A 
ATOM     74  N   UNL A   1      42.581  29.043  29.289  1.00  0.00    -0.248 NA
ATOM     75  C   UNL A   1      42.898  26.903  28.411  1.00  0.00    -0.034 C 
ATOM     76  C   UNL A   1      38.204  28.705  28.422  1.00  0.00    -0.036 A 
ATOM     77  N   UNL A   1      39.816  30.038  29.214  1.00  0.00    -0.354 N 
ATOM     78  C   UNL A   1      43.918  28.689  29.412  1.00  0.00     0.074 A 
ATOM     79  C   UNL A   1      44.045  27.337  28.910  1.00  0.00    -0.034 C 
ATOM     80  H   UNL A   1      42.692  26.014  27.928  1.00  0.00     0.065 H 
ATOM     81  C   UNL A   1      37.625  29.856  28.801  1.00  0.00    -0.036 A 
ATOM     82  H   UNL A   1      37.712  27.890  28.025  1.00  0.00     0.065 H 
ATOM     83  C   UNL A   1      38.648  30.748  29.341  1.00  0.00     0.049 A 
ATOM     84  H   UNL A   1      40.694  30.389  29.491  1.00  0.00     0.167 HD
ATOM     85  C   UNL A   1      44.950  29.432  29.877  1.00  0.00     0.037 A 
ATOM     86  H   UNL A   1      44.916  26.784  28.938  1.00  0.00     0.065 H 
ATOM     87  H   UNL A   1      36.621  30.075  28.723  1.00  0.00     0.065 H 
ATOM     88  C   UNL A   1      38.428  31.979  29.838  1.00  0.00     0.037 A 
ATOM     89  C   UNL A   1      44.825  30.786  30.348  1.00  0.00     0.049 A 
ATOM     90  C   UNL A   1      39.593  32.786  30.345  1.00  0.00     0.074 A 
ATOM     91  C   UNL A   1      45.819  31.645  30.784  1.00  0.00    -0.036 A 
ATOM     92  N   UNL A   1      43.627  31.481  30.444  1.00  0.00    -0.354 N 
ATOM     93  N   UNL A   1      40.863  32.466  30.395  1.00  0.00    -0.248 NA
ATOM     94  C   UNL A   1      39.292  34.129  30.860  1.00  0.00    -0.034 C 
ATOM     95  C   UNL A   1      45.218  32.845  31.180  1.00  0.00    -0.036 A 
ATOM     96  H   UNL A   1      46.829  31.436  30.811  1.00  0.00     0.065 H 
ATOM     97  C   UNL A   1      43.855  32.751  30.949  1.00  0.00     0.049 A 
ATOM     98  H   UNL A   1      42.745  31.123  30.189  1.00  0.00     0.167 HD
ATOM     99  C   UNL A   1      41.516  33.575  30.915  1.00  0.00     0.074 A 
ATOM    100  C   UNL A   1      40.503  34.582  31.154  1.00  0.00    -0.034 C 
ATOM    101  H   UNL A   1      38.378  34.597  30.965  1.00  0.00     0.065 H 
ATOM    102  H   UNL A   1      45.707  33.662  31.579  1.00  0.00     0.065 H 
ATOM    103  C   UNL A   1      42.836  33.744  31.171  1.00  0.00     0.037 A 
ATOM    104  H   UNL A   1      40.698  35.530  31.509  1.00  0.00     0.065 H 
BRANCH  85 105
ATOM    105  C   UNL A   1      46.308  28.794  29.896  1.00  0.00     0.064 A 
ATOM    106  C   UNL A   1      46.780  28.101  31.022  1.00  0.00     0.173 A 
ATOM    107  C   UNL A   1      47.138  28.850  28.766  1.00  0.00     0.173 A 
ATOM    108  F   UNL A   1      46.031  28.029  32.132  1.00  0.00    -0.203 F 
ATOM    109  C   UNL A   1      48.043  27.516  31.026  1.00  0.00     0.198 A 
ATOM    110  C   UNL A   1      48.389  28.237  28.763  1.00  0.00     0.198 A 
ATOM    111  F   UNL A   1      46.734  29.494  27.660  1.00  0.00    -0.203 F 
ATOM    112  F   UNL A   1      48.492  26.905  32.131  1.00  0.00    -0.200 F 
ATOM    113  C   UNL A   1      48.843  27.579  29.896  1.00  0.00     0.200 A 
ATOM    114  F   UNL A   1      49.156  28.288  27.666  1.00  0.00    -0.200 F 
ATOM    115  F   UNL A   1      50.058  27.010  29.900  1.00  0.00    -0.200 F 
ENDBRANCH  85 105
BRANCH  88 116
ATOM    116  C   UNL A   1      37.052  32.540  29.849  1.00  0.00     0.064 A 
ATOM    117  C   UNL A   1      36.561  33.255  28.747  1.00  0.00     0.173 A 
ATOM    118  C   UNL A   1      36.205  32.378  30.953  1.00  0.00     0.173 A 
ATOM    119  F   UNL A   1      37.343  33.453  27.675  1.00  0.00    -0.203 F 
ATOM    120  C   UNL A   1      35.281  33.804  28.758  1.00  0.00     0.198 A 
ATOM    121  C   UNL A   1      34.915  32.905  30.953  1.00  0.00     0.198 A 
ATOM    122  F   UNL A   1      36.626  31.699  32.030  1.00  0.00    -0.203 F 
ATOM    123  F   UNL A   1      34.852  34.519  27.709  1.00  0.00    -0.200 F 
ATOM    124  C   UNL A   1      34.457  33.624  29.859  1.00  0.00     0.200 A 
ATOM    125  F   UNL A   1      34.117  32.719  32.013  1.00  0.00    -0.200 F 
ATOM    126  F   UNL A   1      33.225  34.149  29.868  1.00  0.00    -0.200 F 
ENDBRANCH  88 116
BRANCH 103 127
ATOM    127  C   UNL A   1      43.265  35.079  31.704  1.00  0.00     0.064 A 
ATOM    128  C   UNL A   1      43.715  36.101  30.855  1.00  0.00     0.173 A 
ATOM    129  C   UNL A   1      43.192  35.350  33.079  1.00  0.00     0.173 A 
ATOM    130  F   UNL A   1      43.819  35.885  29.535  1.00  0.00    -0.203 F 
ATOM    131  C   UNL A   1      44.102  37.336  31.366  1.00  0.00     0.198 A 
ATOM    132  C   UNL A   1      43.552  36.596  33.584  1.00  0.00     0.198 A 
ATOM    133  F   UNL A   1      42.762  34.408  33.932  1.00  0.00    -0.203 F 
ATOM    134  F   UNL A   1      44.575  38.282  30.543  1.00  0.00    -0.200 F 
ATOM    135  C   UNL A   1      44.013  37.585  32.728  1.00  0.00     0.200 A 
ATOM    136  F   UNL A   1      43.455  36.838  34.898  1.00  0.00    -0.200 F 
ATOM    137  F   UNL A   1      44.381  38.777  33.218  1.00  0.00    -0.200 F 
ENDBRANCH 103 127
ENDBRANCH  68  71
ENDBRANCH  58  61
ENDBRANCH  54  57
ENDBRANCH  51  54
ENDBRANCH  48  51
ENDBRANCH  45  48
ENDBRANCH   1  45
TORSDOF 18
ENDMDL
MODEL 10
REMARK VINA RESULT:      -8.2      0.923      7.389
REMARK SMILES C[C@@H](C(=O)NCCCCCCNC(=O)c1ccc(-c2c3nc(c(-c4c(F)c(F)c(F)c(F)c4F)c4ccc([nH]4)c(-c4c(F)c(F)c(F)c(F)c4F)c4nc(c(-c5c(F)c(F)c(F)c(F)c5F)c5ccc2[nH]5)C=C4)C=C3)cc1)c1ccc(C[C@@H]2CCC[C@@H]2O)cc1F
REMARK SMILES IDX 7 1 6 4 5 7 3 8 4 9 2 11 1 13 78 17 79 18 90 19 80 20 89 22
REMARK SMILES IDX 91 23 81 24 82 27 83 30 84 31 87 32 85 34 86 37 88 43 8 45
REMARK SMILES IDX 9 48 10 51 11 54 12 57 13 58 14 60 15 61 16 62 77 63 17 64
REMARK SMILES IDX 76 66 18 68 19 71 20 72 70 73 21 74 75 75 69 76 71 77 22 78
REMARK SMILES IDX 74 79 68 81 67 83 23 85 55 88 35 89 54 90 36 91 39 92 53 93
REMARK SMILES IDX 72 94 37 95 38 97 52 99 73 100 40 103 24 105 25 106 33 107
REMARK SMILES IDX 26 108 27 109 31 110 34 111 28 112 29 113 32 114 30 115
REMARK SMILES IDX 56 116 57 117 65 118 58 119 59 120 63 121 66 122 60 123
REMARK SMILES IDX 61 124 64 125 62 126 41 127 42 128 50 129 43 130 44 131
REMARK SMILES IDX 48 132 51 133 45 134 46 135 49 136 47 137
REMARK H PARENT 7 2 7 3 6 5 6 6 5 10 2 12 1 14 1 15 1 16 79 21 80 25 89 26
REMARK H PARENT 82 28 82 29 83 33 84 35 84 36 87 38 85 39 85 40 86 41 86 42
REMARK H PARENT 88 44 8 46 8 47 9 49 9 50 10 52 10 53 11 55 11 56 12 59 16 65
REMARK H PARENT 77 67 17 69 76 70 75 80 69 82 71 84 74 86 68 87 36 96 39 98
REMARK H PARENT 72 101 37 102 73 104
REMARK Flexibility Score: inf
ROOT
ATOM      1  C   UNL A   1      34.150  35.428  32.280  1.00  0.00    -0.036 C 
ATOM      2  H   UNL A   1      34.801  36.256  32.091  1.00  0.00     0.028 H 
ATOM      3  H   UNL A   1      33.325  35.692  32.907  1.00  0.00     0.028 H 
ENDROOT
BRANCH   1   4
ATOM      4  C   UNL A   1      34.946  34.351  33.021  1.00  0.00     0.017 C 
ATOM      5  H   UNL A   1      34.589  34.278  34.027  1.00  0.00     0.049 H 
ATOM      6  H   UNL A   1      34.816  33.415  32.518  1.00  0.00     0.049 H 
BRANCH   4   7
ATOM      7  N   UNL A   1      36.353  34.685  33.036  1.00  0.00    -0.356 N 
ATOM      8  C   UNL A   1      37.332  34.323  33.915  1.00  0.00     0.227 C 
ATOM      9  O   UNL A   1      38.421  34.885  33.791  1.00  0.00    -0.274 OA
ATOM     10  H   UNL A   1      36.650  35.265  32.299  1.00  0.00     0.163 HD
BRANCH   8  11
ATOM     11  C   UNL A   1      37.067  33.209  34.936  1.00  0.00     0.063 C 
ATOM     12  H   UNL A   1      36.042  32.923  34.824  1.00  0.00     0.045 H 
BRANCH  11  13
ATOM     13  C   UNL A   1      37.206  33.681  36.388  1.00  0.00    -0.049 C 
ATOM     14  H   UNL A   1      36.326  34.219  36.674  1.00  0.00     0.024 H 
ATOM     15  H   UNL A   1      38.060  34.321  36.476  1.00  0.00     0.024 H 
ATOM     16  H   UNL A   1      37.329  32.832  37.029  1.00  0.00     0.024 H 
ENDBRANCH  11  13
BRANCH  11  17
ATOM     17  C   UNL A   1      37.925  31.986  34.644  1.00  0.00    -0.000 A 
ATOM     18  C   UNL A   1      39.099  31.770  35.382  1.00  0.00    -0.055 A 
ATOM     19  C   UNL A   1      37.571  31.037  33.680  1.00  0.00     0.127 A 
ATOM     20  C   UNL A   1      39.926  30.680  35.100  1.00  0.00    -0.059 A 
ATOM     21  H   UNL A   1      39.354  32.423  36.140  1.00  0.00     0.063 H 
ATOM     22  C   UNL A   1      38.404  29.966  33.379  1.00  0.00    -0.023 A 
ATOM     23  F   UNL A   1      36.428  31.157  32.992  1.00  0.00    -0.207 F 
ATOM     24  C   UNL A   1      39.615  29.799  34.059  1.00  0.00    -0.045 A 
ATOM     25  H   UNL A   1      40.775  30.523  35.666  1.00  0.00     0.063 H 
ATOM     26  H   UNL A   1      38.128  29.290  32.650  1.00  0.00     0.066 H 
BRANCH  24  27
ATOM     27  C   UNL A   1      40.568  28.709  33.637  1.00  0.00    -0.022 C 
ATOM     28  H   UNL A   1      40.740  28.823  32.586  1.00  0.00     0.032 H 
ATOM     29  H   UNL A   1      40.086  27.799  33.925  1.00  0.00     0.032 H 
BRANCH  27  30
ATOM     30  C   UNL A   1      41.950  28.662  34.330  1.00  0.00    -0.011 C 
ATOM     31  C   UNL A   1      43.085  28.106  33.461  1.00  0.00    -0.048 C 
ATOM     32  C   UNL A   1      42.074  27.834  35.614  1.00  0.00     0.057 C 
ATOM     33  H   UNL A   1      42.037  29.707  34.540  1.00  0.00     0.033 H 
ATOM     34  C   UNL A   1      43.313  26.657  33.903  1.00  0.00    -0.050 C 
ATOM     35  H   UNL A   1      43.976  28.681  33.608  1.00  0.00     0.027 H 
ATOM     36  H   UNL A   1      42.832  28.154  32.423  1.00  0.00     0.027 H 
ATOM     37  C   UNL A   1      42.460  26.437  35.147  1.00  0.00    -0.027 C 
ATOM     38  H   UNL A   1      42.810  28.249  36.270  1.00  0.00     0.060 H 
ATOM     39  H   UNL A   1      44.347  26.501  34.132  1.00  0.00     0.027 H 
ATOM     40  H   UNL A   1      43.044  25.972  33.126  1.00  0.00     0.027 H 
ATOM     41  H   UNL A   1      43.023  25.930  35.903  1.00  0.00     0.029 H 
ATOM     42  H   UNL A   1      41.603  25.830  34.944  1.00  0.00     0.029 H 
BRANCH  32  43
ATOM     43  O   UNL A   1      40.902  27.846  36.402  1.00  0.00    -0.393 OA
ATOM     44  H   UNL A   1      40.532  26.950  36.443  1.00  0.00     0.210 HD
ENDBRANCH  32  43
ENDBRANCH  27  30
ENDBRANCH  24  27
ENDBRANCH  11  17
ENDBRANCH   8  11
ENDBRANCH   4   7
ENDBRANCH   1   4
BRANCH   1  45
ATOM     45  C   UNL A   1      33.565  34.957  30.943  1.00  0.00    -0.052 C 
ATOM     46  H   UNL A   1      33.084  35.792  30.477  1.00  0.00     0.027 H 
ATOM     47  H   UNL A   1      32.894  34.156  31.175  1.00  0.00     0.027 H 
BRANCH  45  48
ATOM     48  C   UNL A   1      34.586  34.386  29.954  1.00  0.00    -0.052 C 
ATOM     49  H   UNL A   1      35.565  34.614  30.318  1.00  0.00     0.027 H 
ATOM     50  H   UNL A   1      34.371  34.835  29.007  1.00  0.00     0.027 H 
BRANCH  48  51
ATOM     51  C   UNL A   1      34.499  32.873  29.741  1.00  0.00    -0.036 C 
ATOM     52  H   UNL A   1      33.561  32.534  30.128  1.00  0.00     0.028 H 
ATOM     53  H   UNL A   1      35.340  32.446  30.247  1.00  0.00     0.028 H 
BRANCH  51  54
ATOM     54  C   UNL A   1      34.600  32.432  28.284  1.00  0.00     0.018 C 
ATOM     55  H   UNL A   1      35.633  32.382  28.010  1.00  0.00     0.049 H 
ATOM     56  H   UNL A   1      34.073  33.146  27.686  1.00  0.00     0.049 H 
BRANCH  54  57
ATOM     57  N   UNL A   1      33.993  31.129  28.063  1.00  0.00    -0.352 N 
ATOM     58  C   UNL A   1      34.590  29.899  27.971  1.00  0.00     0.251 C 
ATOM     59  H   UNL A   1      33.013  31.131  27.967  1.00  0.00     0.163 HD
ATOM     60  O   UNL A   1      33.942  28.923  27.595  1.00  0.00    -0.269 OA
BRANCH  58  61
ATOM     61  C   UNL A   1      36.021  29.744  28.302  1.00  0.00     0.039 A 
ATOM     62  C   UNL A   1      36.376  29.361  29.599  1.00  0.00    -0.049 A 
ATOM     63  C   UNL A   1      37.012  29.995  27.347  1.00  0.00    -0.049 A 
ATOM     64  C   UNL A   1      37.721  29.183  29.925  1.00  0.00    -0.053 A 
ATOM     65  H   UNL A   1      35.645  29.210  30.312  1.00  0.00     0.063 H 
ATOM     66  C   UNL A   1      38.348  29.754  27.655  1.00  0.00    -0.053 A 
ATOM     67  H   UNL A   1      36.753  30.359  26.417  1.00  0.00     0.063 H 
ATOM     68  C   UNL A   1      38.716  29.354  28.949  1.00  0.00    -0.014 A 
ATOM     69  H   UNL A   1      37.986  28.925  30.889  1.00  0.00     0.063 H 
ATOM     70  H   UNL A   1      39.071  29.869  26.927  1.00  0.00     0.063 H 
BRANCH  68  71
ATOM     71  C   UNL A   1      40.149  29.135  29.269  1.00  0.00     0.031 A 
ATOM     72  C   UNL A   1      40.846  27.891  28.793  1.00  0.00     0.074 A 
ATOM     73  C   UNL A   1      40.806  30.028  30.032  1.00  0.00     0.049 A 
ATOM     74  N   UNL A   1      42.073  27.492  29.014  1.00  0.00    -0.248 NA
ATOM     75  C   UNL A   1      40.048  26.957  27.981  1.00  0.00    -0.034 C 
ATOM     76  C   UNL A   1      40.228  31.251  30.591  1.00  0.00    -0.036 A 
ATOM     77  N   UNL A   1      42.105  30.040  30.478  1.00  0.00    -0.354 N 
ATOM     78  C   UNL A   1      42.189  26.260  28.385  1.00  0.00     0.074 A 
ATOM     79  C   UNL A   1      40.894  25.952  27.817  1.00  0.00    -0.034 C 
ATOM     80  H   UNL A   1      39.083  27.060  27.632  1.00  0.00     0.065 H 
ATOM     81  C   UNL A   1      41.172  31.906  31.286  1.00  0.00    -0.036 A 
ATOM     82  H   UNL A   1      39.250  31.559  30.472  1.00  0.00     0.065 H 
ATOM     83  C   UNL A   1      42.412  31.135  31.247  1.00  0.00     0.049 A 
ATOM     84  H   UNL A   1      42.754  29.332  30.265  1.00  0.00     0.167 HD
ATOM     85  C   UNL A   1      43.281  25.468  28.271  1.00  0.00     0.037 A 
ATOM     86  H   UNL A   1      40.661  25.063  27.345  1.00  0.00     0.065 H 
ATOM     87  H   UNL A   1      41.043  32.809  31.767  1.00  0.00     0.065 H 
ATOM     88  C   UNL A   1      43.563  31.477  31.855  1.00  0.00     0.037 A 
ATOM     89  C   UNL A   1      44.575  25.792  28.813  1.00  0.00     0.049 A 
ATOM     90  C   UNL A   1      44.765  30.582  31.709  1.00  0.00     0.074 A 
ATOM     91  C   UNL A   1      45.760  25.085  28.701  1.00  0.00    -0.036 A 
ATOM     92  N   UNL A   1      44.854  26.920  29.570  1.00  0.00    -0.354 N 
ATOM     93  N   UNL A   1      44.880  29.451  31.056  1.00  0.00    -0.248 NA
ATOM     94  C   UNL A   1      45.997  31.016  32.380  1.00  0.00    -0.034 C 
ATOM     95  C   UNL A   1      46.746  25.766  29.423  1.00  0.00    -0.036 A 
ATOM     96  H   UNL A   1      45.894  24.208  28.174  1.00  0.00     0.065 H 
ATOM     97  C   UNL A   1      46.187  26.920  29.948  1.00  0.00     0.049 A 
ATOM     98  H   UNL A   1      44.200  27.619  29.805  1.00  0.00     0.167 HD
ATOM     99  C   UNL A   1      46.201  29.055  31.211  1.00  0.00     0.074 A 
ATOM    100  C   UNL A   1      46.852  30.073  32.010  1.00  0.00    -0.034 C 
ATOM    101  H   UNL A   1      46.157  31.840  32.982  1.00  0.00     0.065 H 
ATOM    102  H   UNL A   1      47.725  25.460  29.546  1.00  0.00     0.065 H 
ATOM    103  C   UNL A   1      46.820  27.947  30.734  1.00  0.00     0.037 A 
ATOM    104  H   UNL A   1      47.853  30.065  32.260  1.00  0.00     0.065 H 
BRANCH  85 105
ATOM    105  C   UNL A   1      43.124  24.174  27.528  1.00  0.00     0.064 A 
ATOM    106  C   UNL A   1      42.709  23.000  28.175  1.00  0.00     0.173 A 
ATOM    107  C   UNL A   1      43.363  24.112  26.146  1.00  0.00     0.173 A 
ATOM    108  F   UNL A   1      42.479  23.003  29.496  1.00  0.00    -0.203 F 
ATOM    109  C   UNL A   1      42.568  21.806  27.472  1.00  0.00     0.198 A 
ATOM    110  C   UNL A   1      43.193  22.922  25.442  1.00  0.00     0.198 A 
ATOM    111  F   UNL A   1      43.757  25.206  25.477  1.00  0.00    -0.203 F 
ATOM    112  F   UNL A   1      42.220  20.686  28.122  1.00  0.00    -0.200 F 
ATOM    113  C   UNL A   1      42.804  21.769  26.107  1.00  0.00     0.200 A 
ATOM    114  F   UNL A   1      43.409  22.891  24.120  1.00  0.00    -0.200 F 
ATOM    115  F   UNL A   1      42.664  20.619  25.432  1.00  0.00    -0.200 F 
ENDBRANCH  85 105
BRANCH  88 116
ATOM    116  C   UNL A   1      43.647  32.742  32.628  1.00  0.00     0.064 A 
ATOM    117  C   UNL A   1      43.976  33.949  31.994  1.00  0.00     0.173 A 
ATOM    118  C   UNL A   1      43.406  32.774  34.009  1.00  0.00     0.173 A 
ATOM    119  F   UNL A   1      44.235  33.964  30.678  1.00  0.00    -0.203 F 
ATOM    120  C   UNL A   1      44.080  35.136  32.715  1.00  0.00     0.198 A 
ATOM    121  C   UNL A   1      43.484  33.967  34.725  1.00  0.00     0.198 A 
ATOM    122  F   UNL A   1      43.084  31.647  34.661  1.00  0.00    -0.203 F 
ATOM    123  F   UNL A   1      44.438  36.267  32.092  1.00  0.00    -0.200 F 
ATOM    124  C   UNL A   1      43.829  35.145  34.079  1.00  0.00     0.200 A 
ATOM    125  F   UNL A   1      43.228  33.974  36.040  1.00  0.00    -0.200 F 
ATOM    126  F   UNL A   1      43.925  36.287  34.772  1.00  0.00    -0.200 F 
ENDBRANCH  88 116
BRANCH 103 127
ATOM    127  C   UNL A   1      48.283  27.798  31.032  1.00  0.00     0.064 A 
ATOM    128  C   UNL A   1      49.265  28.339  30.190  1.00  0.00     0.173 A 
ATOM    129  C   UNL A   1      48.706  27.134  32.194  1.00  0.00     0.173 A 
ATOM    130  F   UNL A   1      48.912  28.969  29.059  1.00  0.00    -0.203 F 
ATOM    131  C   UNL A   1      50.618  28.198  30.486  1.00  0.00     0.198 A 
ATOM    132  C   UNL A   1      50.058  27.019  32.502  1.00  0.00     0.198 A 
ATOM    133  F   UNL A   1      47.806  26.604  33.035  1.00  0.00    -0.203 F 
ATOM    134  F   UNL A   1      51.541  28.681  29.642  1.00  0.00    -0.200 F 
ATOM    135  C   UNL A   1      51.013  27.545  31.644  1.00  0.00     0.200 A 
ATOM    136  F   UNL A   1      50.437  26.398  33.627  1.00  0.00    -0.200 F 
ATOM    137  F   UNL A   1      52.315  27.414  31.931  1.00  0.00    -0.200 F 
ENDBRANCH 103 127
ENDBRANCH  68  71
ENDBRANCH  58  61
ENDBRANCH  54  57
ENDBRANCH  51  54
ENDBRANCH  48  51
ENDBRANCH  45  48
ENDBRANCH   1  45
TORSDOF 18
ENDMDL
