MODEL 1
REMARK VINA RESULT:     -12.4      0.000      0.000
REMARK SMILES O=C(NCCCCCCNC(=O)c1cccnc1Nc1cccc(C(F)(F)F)c1)c1ccc(-c2c3nc(c(-c4c(F)c(F)c(F)c(F)c4F)c4ccc([nH]4)c(-c4c(F)c(F)c(F)c(F)c4F)c4nc(c(-c5c(F)c(F)c(F)c(F)c5F)c5ccc2[nH]5)C=C4)C=C3)cc1
REMARK SMILES IDX 7 1 6 4 5 7 4 10 3 13 1 14 2 15 30 17 31 18 92 19 32 20
REMARK SMILES IDX 91 22 33 24 34 27 35 28 85 29 36 30 90 31 84 32 86 33 37 34
REMARK SMILES IDX 89 35 83 37 82 39 38 41 70 44 50 45 69 46 51 47 54 48 68 49
REMARK SMILES IDX 87 50 52 51 53 53 67 55 88 56 55 59 39 61 40 62 48 63 41 64
REMARK SMILES IDX 42 65 46 66 49 67 43 68 44 69 47 70 45 71 71 72 72 73 80 74
REMARK SMILES IDX 73 75 74 76 78 77 81 78 75 79 76 80 79 81 77 82 56 83 57 84
REMARK SMILES IDX 65 85 58 86 59 87 63 88 66 89 60 90 61 91 64 92 62 93 8 94
REMARK SMILES IDX 9 97 10 100 11 101 12 103 13 104 14 105 18 106 15 107 17 109
REMARK SMILES IDX 16 110 19 113 20 115 21 116 29 117 22 118 24 120 23 122
REMARK SMILES IDX 25 125 26 126 27 127 28 128
REMARK H PARENT 7 2 7 3 6 5 6 6 5 8 5 9 4 11 4 12 3 16 31 21 92 23 32 25 91 26
REMARK H PARENT 90 36 84 38 86 40 89 42 83 43 51 52 54 54 87 57 52 58 88 60
REMARK H PARENT 8 95 8 96 9 98 9 99 10 102 14 108 15 111 16 112 19 114 21 119
REMARK H PARENT 29 121 22 123 23 124
REMARK Flexibility Score: inf
ROOT
ATOM      1  C   UNL A   1      31.993  29.464  26.221  1.00  0.00    -0.052 C 
ATOM      2  H   UNL A   1      31.336  28.710  25.838  1.00  0.00     0.027 H 
ATOM      3  H   UNL A   1      32.024  29.502  27.289  1.00  0.00     0.027 H 
ENDROOT
BRANCH   1   4
ATOM      4  C   UNL A   1      31.468  30.828  25.762  1.00  0.00    -0.052 C 
ATOM      5  H   UNL A   1      32.143  31.213  25.027  1.00  0.00     0.027 H 
ATOM      6  H   UNL A   1      30.481  30.658  25.385  1.00  0.00     0.027 H 
BRANCH   4   7
ATOM      7  C   UNL A   1      31.329  31.872  26.869  1.00  0.00    -0.036 C 
ATOM      8  H   UNL A   1      30.619  32.607  26.550  1.00  0.00     0.028 H 
ATOM      9  H   UNL A   1      31.017  31.346  27.748  1.00  0.00     0.028 H 
BRANCH   7  10
ATOM     10  C   UNL A   1      32.625  32.584  27.225  1.00  0.00     0.018 C 
ATOM     11  H   UNL A   1      33.057  32.105  28.079  1.00  0.00     0.049 H 
ATOM     12  H   UNL A   1      33.274  32.530  26.376  1.00  0.00     0.049 H 
BRANCH  10  13
ATOM     13  N   UNL A   1      32.412  33.988  27.535  1.00  0.00    -0.352 N 
ATOM     14  O   UNL A   1      32.616  35.878  28.756  1.00  0.00    -0.269 OA
ATOM     15  C   UNL A   1      33.034  34.756  28.484  1.00  0.00     0.251 C 
ATOM     16  H   UNL A   1      31.731  34.448  26.991  1.00  0.00     0.163 HD
BRANCH  15  17
ATOM     17  C   UNL A   1      34.215  34.216  29.189  1.00  0.00     0.039 A 
ATOM     18  C   UNL A   1      34.050  33.418  30.324  1.00  0.00    -0.049 A 
ATOM     19  C   UNL A   1      35.493  34.496  28.700  1.00  0.00    -0.049 A 
ATOM     20  C   UNL A   1      35.164  32.986  31.031  1.00  0.00    -0.053 A 
ATOM     21  H   UNL A   1      33.104  33.150  30.636  1.00  0.00     0.063 H 
ATOM     22  C   UNL A   1      36.612  33.984  29.361  1.00  0.00    -0.053 A 
ATOM     23  H   UNL A   1      35.610  35.077  27.855  1.00  0.00     0.063 H 
ATOM     24  C   UNL A   1      36.454  33.226  30.533  1.00  0.00    -0.014 A 
ATOM     25  H   UNL A   1      35.043  32.487  31.928  1.00  0.00     0.063 H 
ATOM     26  H   UNL A   1      37.557  34.163  28.987  1.00  0.00     0.063 H 
BRANCH  24  27
ATOM     27  C   UNL A   1      37.608  32.544  31.165  1.00  0.00     0.031 A 
ATOM     28  C   UNL A   1      38.318  31.409  30.490  1.00  0.00     0.074 A 
ATOM     29  C   UNL A   1      37.996  32.971  32.383  1.00  0.00     0.049 A 
ATOM     30  N   UNL A   1      39.320  30.691  30.931  1.00  0.00    -0.248 NA
ATOM     31  C   UNL A   1      37.846  31.020  29.152  1.00  0.00    -0.034 C 
ATOM     32  C   UNL A   1      37.358  34.056  33.136  1.00  0.00    -0.036 A 
ATOM     33  N   UNL A   1      39.009  32.551  33.206  1.00  0.00    -0.354 N 
ATOM     34  C   UNL A   1      39.585  29.755  29.941  1.00  0.00     0.074 A 
ATOM     35  C   UNL A   1      38.633  29.986  28.876  1.00  0.00    -0.034 C 
ATOM     36  H   UNL A   1      37.097  31.440  28.578  1.00  0.00     0.065 H 
ATOM     37  C   UNL A   1      38.007  34.232  34.294  1.00  0.00    -0.036 A 
ATOM     38  H   UNL A   1      36.537  34.597  32.821  1.00  0.00     0.065 H 
ATOM     39  C   UNL A   1      39.055  33.226  34.402  1.00  0.00     0.049 A 
ATOM     40  H   UNL A   1      39.642  31.838  32.963  1.00  0.00     0.167 HD
ATOM     41  C   UNL A   1      40.541  28.796  29.933  1.00  0.00     0.037 A 
ATOM     42  H   UNL A   1      38.573  29.421  28.014  1.00  0.00     0.065 H 
ATOM     43  H   UNL A   1      37.798  34.961  34.994  1.00  0.00     0.065 H 
ATOM     44  C   UNL A   1      39.823  33.029  35.487  1.00  0.00     0.037 A 
ATOM     45  C   UNL A   1      41.494  28.593  30.997  1.00  0.00     0.049 A 
ATOM     46  C   UNL A   1      40.844  31.927  35.456  1.00  0.00     0.074 A 
ATOM     47  C   UNL A   1      42.551  27.700  31.045  1.00  0.00    -0.036 A 
ATOM     48  N   UNL A   1      41.494  29.277  32.203  1.00  0.00    -0.354 N 
ATOM     49  N   UNL A   1      41.139  31.102  34.481  1.00  0.00    -0.248 NA
ATOM     50  C   UNL A   1      41.632  31.721  36.678  1.00  0.00    -0.034 C 
ATOM     51  C   UNL A   1      43.145  27.794  32.306  1.00  0.00    -0.036 A 
ATOM     52  H   UNL A   1      42.848  27.072  30.281  1.00  0.00     0.065 H 
ATOM     53  C   UNL A   1      42.501  28.790  33.022  1.00  0.00     0.049 A 
ATOM     54  H   UNL A   1      40.873  30.002  32.443  1.00  0.00     0.167 HD
ATOM     55  C   UNL A   1      42.152  30.289  34.966  1.00  0.00     0.074 A 
ATOM     56  C   UNL A   1      42.445  30.742  36.309  1.00  0.00    -0.034 C 
ATOM     57  H   UNL A   1      41.570  32.210  37.584  1.00  0.00     0.065 H 
ATOM     58  H   UNL A   1      43.933  27.219  32.646  1.00  0.00     0.065 H 
ATOM     59  C   UNL A   1      42.775  29.250  34.358  1.00  0.00     0.037 A 
ATOM     60  H   UNL A   1      43.192  30.353  36.904  1.00  0.00     0.065 H 
BRANCH  41  61
ATOM     61  C   UNL A   1      40.611  27.863  28.759  1.00  0.00     0.064 A 
ATOM     62  C   UNL A   1      39.847  26.689  28.700  1.00  0.00     0.173 A 
ATOM     63  C   UNL A   1      41.367  28.214  27.629  1.00  0.00     0.173 A 
ATOM     64  F   UNL A   1      39.112  26.307  29.753  1.00  0.00    -0.203 F 
ATOM     65  C   UNL A   1      39.839  25.899  27.551  1.00  0.00     0.198 A 
ATOM     66  C   UNL A   1      41.338  27.435  26.475  1.00  0.00     0.198 A 
ATOM     67  F   UNL A   1      42.110  29.331  27.632  1.00  0.00    -0.203 F 
ATOM     68  F   UNL A   1      39.115  24.772  27.521  1.00  0.00    -0.200 F 
ATOM     69  C   UNL A   1      40.574  26.279  26.437  1.00  0.00     0.200 A 
ATOM     70  F   UNL A   1      42.035  27.812  25.395  1.00  0.00    -0.200 F 
ATOM     71  F   UNL A   1      40.543  25.531  25.326  1.00  0.00    -0.200 F 
ENDBRANCH  41  61
BRANCH  44  72
ATOM     72  C   UNL A   1      39.621  33.853  36.708  1.00  0.00     0.064 A 
ATOM     73  C   UNL A   1      38.808  33.409  37.758  1.00  0.00     0.173 A 
ATOM     74  C   UNL A   1      40.218  35.118  36.835  1.00  0.00     0.173 A 
ATOM     75  F   UNL A   1      38.202  32.216  37.677  1.00  0.00    -0.203 F 
ATOM     76  C   UNL A   1      38.568  34.213  38.870  1.00  0.00     0.198 A 
ATOM     77  C   UNL A   1      40.010  35.903  37.966  1.00  0.00     0.198 A 
ATOM     78  F   UNL A   1      41.012  35.589  35.862  1.00  0.00    -0.203 F 
ATOM     79  F   UNL A   1      37.732  33.792  39.829  1.00  0.00    -0.200 F 
ATOM     80  C   UNL A   1      39.174  35.456  38.976  1.00  0.00     0.200 A 
ATOM     81  F   UNL A   1      40.614  37.094  38.071  1.00  0.00    -0.200 F 
ATOM     82  F   UNL A   1      38.941  36.229  40.046  1.00  0.00    -0.200 F 
ENDBRANCH  44  72
BRANCH  59  83
ATOM     83  C   UNL A   1      43.840  28.543  35.142  1.00  0.00     0.064 A 
ATOM     84  C   UNL A   1      45.181  28.955  35.092  1.00  0.00     0.173 A 
ATOM     85  C   UNL A   1      43.515  27.465  35.980  1.00  0.00     0.173 A 
ATOM     86  F   UNL A   1      45.545  29.968  34.290  1.00  0.00    -0.203 F 
ATOM     87  C   UNL A   1      46.160  28.298  35.831  1.00  0.00     0.198 A 
ATOM     88  C   UNL A   1      44.491  26.834  36.744  1.00  0.00     0.198 A 
ATOM     89  F   UNL A   1      42.247  27.035  36.068  1.00  0.00    -0.203 F 
ATOM     90  F   UNL A   1      47.441  28.675  35.725  1.00  0.00    -0.200 F 
ATOM     91  C   UNL A   1      45.813  27.245  36.664  1.00  0.00     0.200 A 
ATOM     92  F   UNL A   1      44.153  25.825  37.560  1.00  0.00    -0.200 F 
ATOM     93  F   UNL A   1      46.755  26.620  37.382  1.00  0.00    -0.200 F 
ENDBRANCH  59  83
ENDBRANCH  24  27
ENDBRANCH  15  17
ENDBRANCH  10  13
ENDBRANCH   7  10
ENDBRANCH   4   7
ENDBRANCH   1   4
BRANCH   1  94
ATOM     94  C   UNL A   1      33.417  29.126  25.767  1.00  0.00    -0.036 C 
ATOM     95  H   UNL A   1      34.102  29.574  26.457  1.00  0.00     0.028 H 
ATOM     96  H   UNL A   1      33.516  29.505  24.772  1.00  0.00     0.028 H 
BRANCH  94  97
ATOM     97  C   UNL A   1      33.725  27.633  25.693  1.00  0.00     0.018 C 
ATOM     98  H   UNL A   1      34.727  27.466  26.027  1.00  0.00     0.049 H 
ATOM     99  H   UNL A   1      33.605  27.314  24.678  1.00  0.00     0.049 H 
BRANCH  97 100
ATOM    100  N   UNL A   1      32.817  26.862  26.524  1.00  0.00    -0.352 N 
ATOM    101  C   UNL A   1      32.131  25.719  26.202  1.00  0.00     0.255 C 
ATOM    102  H   UNL A   1      32.675  27.205  27.435  1.00  0.00     0.163 HD
ATOM    103  O   UNL A   1      31.179  25.356  26.888  1.00  0.00    -0.269 OA
BRANCH 101 104
ATOM    104  C   UNL A   1      32.524  24.931  25.022  1.00  0.00     0.082 A 
ATOM    105  C   UNL A   1      33.695  24.163  25.054  1.00  0.00    -0.044 A 
ATOM    106  C   UNL A   1      31.705  24.897  23.889  1.00  0.00     0.143 A 
ATOM    107  C   UNL A   1      34.073  23.449  23.926  1.00  0.00    -0.043 A 
ATOM    108  H   UNL A   1      34.273  24.129  25.909  1.00  0.00     0.063 H 
ATOM    109  N   UNL A   1      32.090  24.202  22.787  1.00  0.00    -0.238 NA
ATOM    110  C   UNL A   1      33.248  23.508  22.822  1.00  0.00     0.029 A 
ATOM    111  H   UNL A   1      34.943  22.892  23.913  1.00  0.00     0.064 H 
ATOM    112  H   UNL A   1      33.532  22.993  21.973  1.00  0.00     0.084 H 
BRANCH 106 113
ATOM    113  N   UNL A   1      30.522  25.666  23.823  1.00  0.00    -0.340 N 
ATOM    114  H   UNL A   1      29.697  25.241  24.155  1.00  0.00     0.168 HD
BRANCH 113 115
ATOM    115  C   UNL A   1      30.406  26.976  23.328  1.00  0.00     0.040 A 
ATOM    116  C   UNL A   1      31.544  27.654  22.885  1.00  0.00    -0.039 A 
ATOM    117  C   UNL A   1      29.184  27.660  23.363  1.00  0.00    -0.026 A 
ATOM    118  C   UNL A   1      31.449  28.964  22.411  1.00  0.00    -0.060 A 
ATOM    119  H   UNL A   1      32.462  27.184  22.908  1.00  0.00     0.064 H 
ATOM    120  C   UNL A   1      29.074  28.982  22.909  1.00  0.00     0.058 A 
ATOM    121  H   UNL A   1      28.348  27.180  23.731  1.00  0.00     0.065 H 
ATOM    122  C   UNL A   1      30.220  29.624  22.418  1.00  0.00    -0.050 A 
ATOM    123  H   UNL A   1      32.290  29.446  22.056  1.00  0.00     0.062 H 
ATOM    124  H   UNL A   1      30.152  30.589  22.060  1.00  0.00     0.063 H 
BRANCH 120 125
ATOM    125  C   UNL A   1      27.751  29.698  22.943  1.00  0.00     0.416 C 
ATOM    126  F   UNL A   1      27.409  30.216  21.729  1.00  0.00    -0.166 F 
ATOM    127  F   UNL A   1      26.721  28.879  23.299  1.00  0.00    -0.166 F 
ATOM    128  F   UNL A   1      27.710  30.746  23.814  1.00  0.00    -0.166 F 
ENDBRANCH 120 125
ENDBRANCH 113 115
ENDBRANCH 106 113
ENDBRANCH 101 104
ENDBRANCH  97 100
ENDBRANCH  94  97
ENDBRANCH   1  94
TORSDOF 16
ENDMDL
MODEL 2
REMARK VINA RESULT:     -12.2      0.884      7.441
REMARK SMILES O=C(NCCCCCCNC(=O)c1cccnc1Nc1cccc(C(F)(F)F)c1)c1ccc(-c2c3nc(c(-c4c(F)c(F)c(F)c(F)c4F)c4ccc([nH]4)c(-c4c(F)c(F)c(F)c(F)c4F)c4nc(c(-c5c(F)c(F)c(F)c(F)c5F)c5ccc2[nH]5)C=C4)C=C3)cc1
REMARK SMILES IDX 7 1 6 4 5 7 4 10 3 13 1 14 2 15 30 17 31 18 92 19 32 20
REMARK SMILES IDX 91 22 33 24 34 27 35 28 85 29 36 30 90 31 84 32 86 33 37 34
REMARK SMILES IDX 89 35 83 37 82 39 38 41 70 44 50 45 69 46 51 47 54 48 68 49
REMARK SMILES IDX 87 50 52 51 53 53 67 55 88 56 55 59 39 61 40 62 48 63 41 64
REMARK SMILES IDX 42 65 46 66 49 67 43 68 44 69 47 70 45 71 71 72 72 73 80 74
REMARK SMILES IDX 73 75 74 76 78 77 81 78 75 79 76 80 79 81 77 82 56 83 57 84
REMARK SMILES IDX 65 85 58 86 59 87 63 88 66 89 60 90 61 91 64 92 62 93 8 94
REMARK SMILES IDX 9 97 10 100 11 101 12 103 13 104 14 105 18 106 15 107 17 109
REMARK SMILES IDX 16 110 19 113 20 115 21 116 29 117 22 118 24 120 23 122
REMARK SMILES IDX 25 125 26 126 27 127 28 128
REMARK H PARENT 7 2 7 3 6 5 6 6 5 8 5 9 4 11 4 12 3 16 31 21 92 23 32 25 91 26
REMARK H PARENT 90 36 84 38 86 40 89 42 83 43 51 52 54 54 87 57 52 58 88 60
REMARK H PARENT 8 95 8 96 9 98 9 99 10 102 14 108 15 111 16 112 19 114 21 119
REMARK H PARENT 29 121 22 123 23 124
REMARK Flexibility Score: inf
ROOT
ATOM      1  C   UNL A   1      32.549  30.064  27.282  1.00  0.00    -0.052 C 
ATOM      2  H   UNL A   1      32.012  29.177  27.550  1.00  0.00     0.027 H 
ATOM      3  H   UNL A   1      32.752  30.708  28.111  1.00  0.00     0.027 H 
ENDROOT
BRANCH   1   4
ATOM      4  C   UNL A   1      31.675  30.874  26.319  1.00  0.00    -0.052 C 
ATOM      5  H   UNL A   1      32.112  30.814  25.345  1.00  0.00     0.027 H 
ATOM      6  H   UNL A   1      30.695  30.449  26.373  1.00  0.00     0.027 H 
BRANCH   4   7
ATOM      7  C   UNL A   1      31.519  32.352  26.676  1.00  0.00    -0.036 C 
ATOM      8  H   UNL A   1      31.307  32.893  25.779  1.00  0.00     0.028 H 
ATOM      9  H   UNL A   1      30.728  32.411  27.395  1.00  0.00     0.028 H 
BRANCH   7  10
ATOM     10  C   UNL A   1      32.746  32.972  27.328  1.00  0.00     0.018 C 
ATOM     11  H   UNL A   1      33.018  32.383  28.179  1.00  0.00     0.049 H 
ATOM     12  H   UNL A   1      33.530  32.993  26.600  1.00  0.00     0.049 H 
BRANCH  10  13
ATOM     13  N   UNL A   1      32.505  34.338  27.763  1.00  0.00    -0.352 N 
ATOM     14  O   UNL A   1      32.632  36.100  29.171  1.00  0.00    -0.269 OA
ATOM     15  C   UNL A   1      33.074  35.012  28.811  1.00  0.00     0.251 C 
ATOM     16  H   UNL A   1      31.846  34.845  27.234  1.00  0.00     0.163 HD
BRANCH  15  17
ATOM     17  C   UNL A   1      34.225  34.411  29.516  1.00  0.00     0.039 A 
ATOM     18  C   UNL A   1      34.037  33.760  30.738  1.00  0.00    -0.049 A 
ATOM     19  C   UNL A   1      35.495  34.486  28.941  1.00  0.00    -0.049 A 
ATOM     20  C   UNL A   1      35.135  33.275  31.436  1.00  0.00    -0.053 A 
ATOM     21  H   UNL A   1      33.086  33.639  31.120  1.00  0.00     0.063 H 
ATOM     22  C   UNL A   1      36.587  33.917  29.603  1.00  0.00    -0.053 A 
ATOM     23  H   UNL A   1      35.629  34.960  28.034  1.00  0.00     0.063 H 
ATOM     24  C   UNL A   1      36.412  33.308  30.856  1.00  0.00    -0.014 A 
ATOM     25  H   UNL A   1      35.010  32.888  32.386  1.00  0.00     0.063 H 
ATOM     26  H   UNL A   1      37.522  33.944  29.169  1.00  0.00     0.063 H 
BRANCH  24  27
ATOM     27  C   UNL A   1      37.517  32.562  31.505  1.00  0.00     0.031 A 
ATOM     28  C   UNL A   1      38.030  32.939  32.862  1.00  0.00     0.074 A 
ATOM     29  C   UNL A   1      38.059  31.532  30.826  1.00  0.00     0.049 A 
ATOM     30  N   UNL A   1      39.012  32.405  33.544  1.00  0.00    -0.248 NA
ATOM     31  C   UNL A   1      37.368  34.061  33.545  1.00  0.00    -0.034 C 
ATOM     32  C   UNL A   1      37.645  31.096  29.488  1.00  0.00    -0.036 A 
ATOM     33  N   UNL A   1      39.071  30.667  31.155  1.00  0.00    -0.354 N 
ATOM     34  C   UNL A   1      39.101  33.134  34.722  1.00  0.00     0.074 A 
ATOM     35  C   UNL A   1      38.080  34.158  34.662  1.00  0.00    -0.034 C 
ATOM     36  H   UNL A   1      36.561  34.626  33.236  1.00  0.00     0.065 H 
ATOM     37  C   UNL A   1      38.376  30.036  29.122  1.00  0.00    -0.036 A 
ATOM     38  H   UNL A   1      36.907  31.539  28.919  1.00  0.00     0.065 H 
ATOM     39  C   UNL A   1      39.361  29.764  30.161  1.00  0.00     0.049 A 
ATOM     40  H   UNL A   1      39.543  30.691  32.019  1.00  0.00     0.167 HD
ATOM     41  C   UNL A   1      39.960  32.953  35.753  1.00  0.00     0.037 A 
ATOM     42  H   UNL A   1      37.925  34.871  35.393  1.00  0.00     0.065 H 
ATOM     43  H   UNL A   1      38.261  29.500  28.247  1.00  0.00     0.065 H 
ATOM     44  C   UNL A   1      40.340  28.847  30.072  1.00  0.00     0.037 A 
ATOM     45  C   UNL A   1      40.958  31.914  35.803  1.00  0.00     0.049 A 
ATOM     46  C   UNL A   1      41.300  28.705  31.219  1.00  0.00     0.074 A 
ATOM     47  C   UNL A   1      41.822  31.601  36.839  1.00  0.00    -0.036 A 
ATOM     48  N   UNL A   1      41.240  31.034  34.769  1.00  0.00    -0.354 N 
ATOM     49  N   UNL A   1      41.321  29.347  32.362  1.00  0.00    -0.248 NA
ATOM     50  C   UNL A   1      42.378  27.721  31.062  1.00  0.00    -0.034 C 
ATOM     51  C   UNL A   1      42.672  30.580  36.406  1.00  0.00    -0.036 A 
ATOM     52  H   UNL A   1      41.835  32.045  37.771  1.00  0.00     0.065 H 
ATOM     53  C   UNL A   1      42.299  30.212  35.123  1.00  0.00     0.049 A 
ATOM     54  H   UNL A   1      40.760  30.997  33.910  1.00  0.00     0.167 HD
ATOM     55  C   UNL A   1      42.403  28.838  33.063  1.00  0.00     0.074 A 
ATOM     56  C   UNL A   1      42.992  27.809  32.232  1.00  0.00    -0.034 C 
ATOM     57  H   UNL A   1      42.598  27.119  30.253  1.00  0.00     0.065 H 
ATOM     58  H   UNL A   1      43.447  30.169  36.951  1.00  0.00     0.065 H 
ATOM     59  C   UNL A   1      42.876  29.198  34.281  1.00  0.00     0.037 A 
ATOM     60  H   UNL A   1      43.790  27.219  32.514  1.00  0.00     0.065 H 
BRANCH  41  61
ATOM     61  C   UNL A   1      39.894  33.900  36.915  1.00  0.00     0.064 A 
ATOM     62  C   UNL A   1      40.554  35.137  36.901  1.00  0.00     0.173 A 
ATOM     63  C   UNL A   1      39.062  33.613  38.009  1.00  0.00     0.173 A 
ATOM     64  F   UNL A   1      41.364  35.458  35.882  1.00  0.00    -0.203 F 
ATOM     65  C   UNL A   1      40.384  36.051  37.940  1.00  0.00     0.198 A 
ATOM     66  C   UNL A   1      38.875  34.537  39.034  1.00  0.00     0.198 A 
ATOM     67  F   UNL A   1      38.402  32.446  38.068  1.00  0.00    -0.203 F 
ATOM     68  F   UNL A   1      41.038  37.221  37.914  1.00  0.00    -0.200 F 
ATOM     69  C   UNL A   1      39.537  35.755  38.998  1.00  0.00     0.200 A 
ATOM     70  F   UNL A   1      38.043  34.257  40.046  1.00  0.00    -0.200 F 
ATOM     71  F   UNL A   1      39.355  36.647  39.982  1.00  0.00    -0.200 F 
ENDBRANCH  41  61
BRANCH  44  72
ATOM     72  C   UNL A   1      40.495  28.034  28.837  1.00  0.00     0.064 A 
ATOM     73  C   UNL A   1      41.278  28.481  27.765  1.00  0.00     0.173 A 
ATOM     74  C   UNL A   1      39.837  26.802  28.694  1.00  0.00     0.173 A 
ATOM     75  F   UNL A   1      41.913  29.660  27.847  1.00  0.00    -0.203 F 
ATOM     76  C   UNL A   1      41.367  27.747  26.585  1.00  0.00     0.198 A 
ATOM     77  C   UNL A   1      39.960  26.050  27.529  1.00  0.00     0.198 A 
ATOM     78  F   UNL A   1      39.080  26.322  29.692  1.00  0.00    -0.203 F 
ATOM     79  F   UNL A   1      42.068  28.231  25.551  1.00  0.00    -0.200 F 
ATOM     80  C   UNL A   1      40.713  26.530  26.469  1.00  0.00     0.200 A 
ATOM     81  F   UNL A   1      39.342  24.865  27.431  1.00  0.00    -0.200 F 
ATOM     82  F   UNL A   1      40.798  25.826  25.333  1.00  0.00    -0.200 F 
ENDBRANCH  44  72
BRANCH  59  83
ATOM     83  C   UNL A   1      44.083  28.465  34.786  1.00  0.00     0.064 A 
ATOM     84  C   UNL A   1      43.965  27.257  35.490  1.00  0.00     0.173 A 
ATOM     85  C   UNL A   1      45.374  28.955  34.534  1.00  0.00     0.173 A 
ATOM     86  F   UNL A   1      42.751  26.758  35.773  1.00  0.00    -0.203 F 
ATOM     87  C   UNL A   1      45.092  26.581  35.946  1.00  0.00     0.198 A 
ATOM     88  C   UNL A   1      46.500  28.258  34.961  1.00  0.00     0.198 A 
ATOM     89  F   UNL A   1      45.542  30.103  33.862  1.00  0.00    -0.203 F 
ATOM     90  F   UNL A   1      44.952  25.457  36.662  1.00  0.00    -0.200 F 
ATOM     91  C   UNL A   1      46.358  27.076  35.673  1.00  0.00     0.200 A 
ATOM     92  F   UNL A   1      47.723  28.730  34.684  1.00  0.00    -0.200 F 
ATOM     93  F   UNL A   1      47.443  26.418  36.103  1.00  0.00    -0.200 F 
ENDBRANCH  59  83
ENDBRANCH  24  27
ENDBRANCH  15  17
ENDBRANCH  10  13
ENDBRANCH   7  10
ENDBRANCH   4   7
ENDBRANCH   1   4
BRANCH   1  94
ATOM     94  C   UNL A   1      33.914  29.643  26.728  1.00  0.00    -0.036 C 
ATOM     95  H   UNL A   1      34.667  29.953  27.423  1.00  0.00     0.028 H 
ATOM     96  H   UNL A   1      34.010  30.109  25.771  1.00  0.00     0.028 H 
BRANCH  94  97
ATOM     97  C   UNL A   1      34.072  28.143  26.495  1.00  0.00     0.018 C 
ATOM     98  H   UNL A   1      34.890  27.783  27.082  1.00  0.00     0.049 H 
ATOM     99  H   UNL A   1      34.253  27.981  25.452  1.00  0.00     0.049 H 
BRANCH  97 100
ATOM    100  N   UNL A   1      32.870  27.419  26.868  1.00  0.00    -0.352 N 
ATOM    101  C   UNL A   1      32.036  26.683  26.066  1.00  0.00     0.255 C 
ATOM    102  H   UNL A   1      32.622  27.462  27.818  1.00  0.00     0.163 HD
ATOM    103  O   UNL A   1      30.909  26.387  26.452  1.00  0.00    -0.269 OA
BRANCH 101 104
ATOM    104  C   UNL A   1      32.484  26.260  24.728  1.00  0.00     0.082 A 
ATOM    105  C   UNL A   1      33.097  25.011  24.560  1.00  0.00    -0.044 A 
ATOM    106  C   UNL A   1      32.248  27.071  23.613  1.00  0.00     0.143 A 
ATOM    107  C   UNL A   1      33.544  24.635  23.301  1.00  0.00    -0.043 A 
ATOM    108  H   UNL A   1      33.216  24.377  25.366  1.00  0.00     0.063 H 
ATOM    109  N   UNL A   1      32.698  26.696  22.388  1.00  0.00    -0.238 NA
ATOM    110  C   UNL A   1      33.331  25.510  22.257  1.00  0.00     0.029 A 
ATOM    111  H   UNL A   1      34.019  23.730  23.153  1.00  0.00     0.064 H 
ATOM    112  H   UNL A   1      33.677  25.244  21.320  1.00  0.00     0.084 H 
BRANCH 106 113
ATOM    113  N   UNL A   1      31.638  28.337  23.750  1.00  0.00    -0.340 N 
ATOM    114  H   UNL A   1      32.225  29.087  24.001  1.00  0.00     0.168 HD
BRANCH 113 115
ATOM    115  C   UNL A   1      30.276  28.631  23.566  1.00  0.00     0.040 A 
ATOM    116  C   UNL A   1      29.367  27.595  23.336  1.00  0.00    -0.039 A 
ATOM    117  C   UNL A   1      29.820  29.953  23.506  1.00  0.00    -0.026 A 
ATOM    118  C   UNL A   1      28.015  27.870  23.129  1.00  0.00    -0.060 A 
ATOM    119  H   UNL A   1      29.699  26.617  23.319  1.00  0.00     0.064 H 
ATOM    120  C   UNL A   1      28.468  30.250  23.280  1.00  0.00     0.058 A 
ATOM    121  H   UNL A   1      30.493  30.725  23.630  1.00  0.00     0.065 H 
ATOM    122  C   UNL A   1      27.566  29.191  23.106  1.00  0.00    -0.050 A 
ATOM    123  H   UNL A   1      27.346  27.096  22.993  1.00  0.00     0.062 H 
ATOM    124  H   UNL A   1      26.564  29.391  22.960  1.00  0.00     0.063 H 
BRANCH 120 125
ATOM    125  C   UNL A   1      27.993  31.677  23.229  1.00  0.00     0.416 C 
ATOM    126  F   UNL A   1      27.657  32.068  21.968  1.00  0.00    -0.166 F 
ATOM    127  F   UNL A   1      26.881  31.885  23.989  1.00  0.00    -0.166 F 
ATOM    128  F   UNL A   1      28.914  32.584  23.662  1.00  0.00    -0.166 F 
ENDBRANCH 120 125
ENDBRANCH 113 115
ENDBRANCH 106 113
ENDBRANCH 101 104
ENDBRANCH  97 100
ENDBRANCH  94  97
ENDBRANCH   1  94
TORSDOF 16
ENDMDL
MODEL 3
REMARK VINA RESULT:     -12.2      6.046     11.450
REMARK SMILES O=C(NCCCCCCNC(=O)c1cccnc1Nc1cccc(C(F)(F)F)c1)c1ccc(-c2c3nc(c(-c4c(F)c(F)c(F)c(F)c4F)c4ccc([nH]4)c(-c4c(F)c(F)c(F)c(F)c4F)c4nc(c(-c5c(F)c(F)c(F)c(F)c5F)c5ccc2[nH]5)C=C4)C=C3)cc1
REMARK SMILES IDX 7 1 6 4 5 7 4 10 3 13 1 14 2 15 30 17 31 18 92 19 32 20
REMARK SMILES IDX 91 22 33 24 34 27 35 28 85 29 36 30 90 31 84 32 86 33 37 34
REMARK SMILES IDX 89 35 83 37 82 39 38 41 70 44 50 45 69 46 51 47 54 48 68 49
REMARK SMILES IDX 87 50 52 51 53 53 67 55 88 56 55 59 39 61 40 62 48 63 41 64
REMARK SMILES IDX 42 65 46 66 49 67 43 68 44 69 47 70 45 71 71 72 72 73 80 74
REMARK SMILES IDX 73 75 74 76 78 77 81 78 75 79 76 80 79 81 77 82 56 83 57 84
REMARK SMILES IDX 65 85 58 86 59 87 63 88 66 89 60 90 61 91 64 92 62 93 8 94
REMARK SMILES IDX 9 97 10 100 11 101 12 103 13 104 14 105 18 106 15 107 17 109
REMARK SMILES IDX 16 110 19 113 20 115 21 116 29 117 22 118 24 120 23 122
REMARK SMILES IDX 25 125 26 126 27 127 28 128
REMARK H PARENT 7 2 7 3 6 5 6 6 5 8 5 9 4 11 4 12 3 16 31 21 92 23 32 25 91 26
REMARK H PARENT 90 36 84 38 86 40 89 42 83 43 51 52 54 54 87 57 52 58 88 60
REMARK H PARENT 8 95 8 96 9 98 9 99 10 102 14 108 15 111 16 112 19 114 21 119
REMARK H PARENT 29 121 22 123 23 124
REMARK Flexibility Score: inf
ROOT
ATOM      1  C   UNL A   1      36.057  21.539  24.345  1.00  0.00    -0.052 C 
ATOM      2  H   UNL A   1      35.043  21.672  24.660  1.00  0.00     0.027 H 
ATOM      3  H   UNL A   1      36.162  21.396  23.290  1.00  0.00     0.027 H 
ENDROOT
BRANCH   1   4
ATOM      4  C   UNL A   1      36.594  20.263  25.001  1.00  0.00    -0.052 C 
ATOM      5  H   UNL A   1      36.529  20.383  26.062  1.00  0.00     0.027 H 
ATOM      6  H   UNL A   1      35.996  19.459  24.626  1.00  0.00     0.027 H 
BRANCH   4   7
ATOM      7  C   UNL A   1      38.041  19.918  24.653  1.00  0.00    -0.036 C 
ATOM      8  H   UNL A   1      38.095  18.870  24.444  1.00  0.00     0.028 H 
ATOM      9  H   UNL A   1      38.306  20.524  23.811  1.00  0.00     0.028 H 
BRANCH   7  10
ATOM     10  C   UNL A   1      39.044  20.238  25.751  1.00  0.00     0.018 C 
ATOM     11  H   UNL A   1      39.552  21.145  25.500  1.00  0.00     0.049 H 
ATOM     12  H   UNL A   1      38.505  20.334  26.670  1.00  0.00     0.049 H 
BRANCH  10  13
ATOM     13  N   UNL A   1      40.028  19.181  25.920  1.00  0.00    -0.352 N 
ATOM     14  O   UNL A   1      42.109  18.315  26.062  1.00  0.00    -0.269 OA
ATOM     15  C   UNL A   1      41.378  19.299  26.126  1.00  0.00     0.251 C 
ATOM     16  H   UNL A   1      39.678  18.262  25.882  1.00  0.00     0.163 HD
BRANCH  15  17
ATOM     17  C   UNL A   1      41.950  20.629  26.419  1.00  0.00     0.039 A 
ATOM     18  C   UNL A   1      42.251  21.508  25.375  1.00  0.00    -0.049 A 
ATOM     19  C   UNL A   1      42.171  21.003  27.746  1.00  0.00    -0.049 A 
ATOM     20  C   UNL A   1      42.869  22.720  25.651  1.00  0.00    -0.053 A 
ATOM     21  H   UNL A   1      42.014  21.258  24.403  1.00  0.00     0.063 H 
ATOM     22  C   UNL A   1      42.709  22.262  28.027  1.00  0.00    -0.053 A 
ATOM     23  H   UNL A   1      41.938  20.355  28.515  1.00  0.00     0.063 H 
ATOM     24  C   UNL A   1      43.062  23.128  26.980  1.00  0.00    -0.014 A 
ATOM     25  H   UNL A   1      43.188  23.324  24.876  1.00  0.00     0.063 H 
ATOM     26  H   UNL A   1      42.847  22.555  29.007  1.00  0.00     0.063 H 
BRANCH  24  27
ATOM     27  C   UNL A   1      43.488  24.522  27.250  1.00  0.00     0.031 A 
ATOM     28  C   UNL A   1      42.527  25.554  27.757  1.00  0.00     0.074 A 
ATOM     29  C   UNL A   1      44.776  24.840  27.012  1.00  0.00     0.049 A 
ATOM     30  N   UNL A   1      42.742  26.822  28.007  1.00  0.00    -0.248 NA
ATOM     31  C   UNL A   1      41.145  25.120  28.013  1.00  0.00    -0.034 C 
ATOM     32  C   UNL A   1      45.789  23.912  26.497  1.00  0.00    -0.036 A 
ATOM     33  N   UNL A   1      45.458  26.019  27.163  1.00  0.00    -0.354 N 
ATOM     34  C   UNL A   1      41.526  27.341  28.427  1.00  0.00     0.074 A 
ATOM     35  C   UNL A   1      40.569  26.255  28.391  1.00  0.00    -0.034 C 
ATOM     36  H   UNL A   1      40.731  24.178  27.922  1.00  0.00     0.065 H 
ATOM     37  C   UNL A   1      46.963  24.548  26.399  1.00  0.00    -0.036 A 
ATOM     38  H   UNL A   1      45.622  22.924  26.250  1.00  0.00     0.065 H 
ATOM     39  C   UNL A   1      46.772  25.945  26.767  1.00  0.00     0.049 A 
ATOM     40  H   UNL A   1      45.046  26.839  27.520  1.00  0.00     0.167 HD
ATOM     41  C   UNL A   1      41.246  28.609  28.808  1.00  0.00     0.037 A 
ATOM     42  H   UNL A   1      39.568  26.351  28.627  1.00  0.00     0.065 H 
ATOM     43  H   UNL A   1      47.857  24.119  26.109  1.00  0.00     0.065 H 
ATOM     44  C   UNL A   1      47.709  26.903  26.667  1.00  0.00     0.037 A 
ATOM     45  C   UNL A   1      42.218  29.674  28.857  1.00  0.00     0.049 A 
ATOM     46  C   UNL A   1      47.349  28.307  27.059  1.00  0.00     0.074 A 
ATOM     47  C   UNL A   1      42.049  30.973  29.306  1.00  0.00    -0.036 A 
ATOM     48  N   UNL A   1      43.532  29.569  28.426  1.00  0.00    -0.354 N 
ATOM     49  N   UNL A   1      46.216  28.767  27.533  1.00  0.00    -0.248 NA
ATOM     50  C   UNL A   1      48.391  29.328  26.894  1.00  0.00    -0.034 C 
ATOM     51  C   UNL A   1      43.238  31.671  29.080  1.00  0.00    -0.036 A 
ATOM     52  H   UNL A   1      41.192  31.358  29.733  1.00  0.00     0.065 H 
ATOM     53  C   UNL A   1      44.169  30.793  28.550  1.00  0.00     0.049 A 
ATOM     54  H   UNL A   1      43.951  28.746  28.083  1.00  0.00     0.167 HD
ATOM     55  C   UNL A   1      46.412  30.125  27.733  1.00  0.00     0.074 A 
ATOM     56  C   UNL A   1      47.783  30.408  27.363  1.00  0.00    -0.034 C 
ATOM     57  H   UNL A   1      49.345  29.230  26.514  1.00  0.00     0.065 H 
ATOM     58  H   UNL A   1      43.395  32.673  29.276  1.00  0.00     0.065 H 
ATOM     59  C   UNL A   1      45.533  31.057  28.171  1.00  0.00     0.037 A 
ATOM     60  H   UNL A   1      48.231  31.333  27.453  1.00  0.00     0.065 H 
BRANCH  41  61
ATOM     61  C   UNL A   1      39.834  28.950  29.187  1.00  0.00     0.064 A 
ATOM     62  C   UNL A   1      38.893  29.370  28.236  1.00  0.00     0.173 A 
ATOM     63  C   UNL A   1      39.389  28.738  30.502  1.00  0.00     0.173 A 
ATOM     64  F   UNL A   1      39.267  29.591  26.968  1.00  0.00    -0.203 F 
ATOM     65  C   UNL A   1      37.559  29.568  28.589  1.00  0.00     0.198 A 
ATOM     66  C   UNL A   1      38.051  28.913  30.846  1.00  0.00     0.198 A 
ATOM     67  F   UNL A   1      40.248  28.329  31.448  1.00  0.00    -0.203 F 
ATOM     68  F   UNL A   1      36.680  29.985  27.667  1.00  0.00    -0.200 F 
ATOM     69  C   UNL A   1      37.137  29.328  29.889  1.00  0.00     0.200 A 
ATOM     70  F   UNL A   1      37.643  28.665  32.097  1.00  0.00    -0.200 F 
ATOM     71  F   UNL A   1      35.849  29.493  30.218  1.00  0.00    -0.200 F 
ENDBRANCH  41  61
BRANCH  44  72
ATOM     72  C   UNL A   1      49.056  26.579  26.125  1.00  0.00     0.064 A 
ATOM     73  C   UNL A   1      50.046  26.005  26.933  1.00  0.00     0.173 A 
ATOM     74  C   UNL A   1      49.387  26.865  24.791  1.00  0.00     0.173 A 
ATOM     75  F   UNL A   1      49.784  25.729  28.219  1.00  0.00    -0.203 F 
ATOM     76  C   UNL A   1      51.326  25.764  26.439  1.00  0.00     0.198 A 
ATOM     77  C   UNL A   1      50.655  26.586  24.287  1.00  0.00     0.198 A 
ATOM     78  F   UNL A   1      48.474  27.407  23.972  1.00  0.00    -0.203 F 
ATOM     79  F   UNL A   1      52.274  25.278  27.251  1.00  0.00    -0.200 F 
ATOM     80  C   UNL A   1      51.628  26.049  25.115  1.00  0.00     0.200 A 
ATOM     81  F   UNL A   1      50.934  26.844  23.003  1.00  0.00    -0.200 F 
ATOM     82  F   UNL A   1      52.860  25.819  24.642  1.00  0.00    -0.200 F 
ENDBRANCH  44  72
BRANCH  59  83
ATOM     83  C   UNL A   1      46.034  32.467  28.281  1.00  0.00     0.064 A 
ATOM     84  C   UNL A   1      46.668  32.929  29.444  1.00  0.00     0.173 A 
ATOM     85  C   UNL A   1      45.911  33.356  27.202  1.00  0.00     0.173 A 
ATOM     86  F   UNL A   1      46.792  32.123  30.511  1.00  0.00    -0.203 F 
ATOM     87  C   UNL A   1      47.138  34.236  29.532  1.00  0.00     0.198 A 
ATOM     88  C   UNL A   1      46.414  34.651  27.281  1.00  0.00     0.198 A 
ATOM     89  F   UNL A   1      45.317  32.962  26.066  1.00  0.00    -0.203 F 
ATOM     90  F   UNL A   1      47.693  34.671  30.672  1.00  0.00    -0.200 F 
ATOM     91  C   UNL A   1      47.019  35.092  28.448  1.00  0.00     0.200 A 
ATOM     92  F   UNL A   1      46.311  35.473  26.228  1.00  0.00    -0.200 F 
ATOM     93  F   UNL A   1      47.482  36.347  28.531  1.00  0.00    -0.200 F 
ENDBRANCH  59  83
ENDBRANCH  24  27
ENDBRANCH  15  17
ENDBRANCH  10  13
ENDBRANCH   7  10
ENDBRANCH   4   7
ENDBRANCH   1   4
BRANCH   1  94
ATOM     94  C   UNL A   1      36.829  22.820  24.678  1.00  0.00    -0.036 C 
ATOM     95  H   UNL A   1      36.936  23.389  23.778  1.00  0.00     0.028 H 
ATOM     96  H   UNL A   1      37.765  22.511  25.092  1.00  0.00     0.028 H 
BRANCH  94  97
ATOM     97  C   UNL A   1      36.166  23.709  25.727  1.00  0.00     0.018 C 
ATOM     98  H   UNL A   1      35.426  24.317  25.251  1.00  0.00     0.049 H 
ATOM     99  H   UNL A   1      36.922  24.316  26.181  1.00  0.00     0.049 H 
BRANCH  97 100
ATOM    100  N   UNL A   1      35.530  22.919  26.766  1.00  0.00    -0.352 N 
ATOM    101  C   UNL A   1      34.225  22.953  27.183  1.00  0.00     0.255 C 
ATOM    102  H   UNL A   1      36.112  22.277  27.232  1.00  0.00     0.163 HD
ATOM    103  O   UNL A   1      33.906  22.457  28.260  1.00  0.00    -0.269 OA
BRANCH 101 104
ATOM    104  C   UNL A   1      33.200  23.600  26.345  1.00  0.00     0.082 A 
ATOM    105  C   UNL A   1      33.250  24.983  26.126  1.00  0.00    -0.044 A 
ATOM    106  C   UNL A   1      32.210  22.835  25.720  1.00  0.00     0.143 A 
ATOM    107  C   UNL A   1      32.262  25.589  25.362  1.00  0.00    -0.043 A 
ATOM    108  H   UNL A   1      34.015  25.547  26.529  1.00  0.00     0.063 H 
ATOM    109  N   UNL A   1      31.243  23.440  24.982  1.00  0.00    -0.238 NA
ATOM    110  C   UNL A   1      31.282  24.781  24.824  1.00  0.00     0.029 A 
ATOM    111  H   UNL A   1      32.261  26.609  25.202  1.00  0.00     0.064 H 
ATOM    112  H   UNL A   1      30.534  25.227  24.269  1.00  0.00     0.084 H 
BRANCH 106 113
ATOM    113  N   UNL A   1      32.129  21.441  25.927  1.00  0.00    -0.340 N 
ATOM    114  H   UNL A   1      31.836  21.141  26.818  1.00  0.00     0.168 HD
BRANCH 113 115
ATOM    115  C   UNL A   1      32.428  20.440  24.987  1.00  0.00     0.040 A 
ATOM    116  C   UNL A   1      32.153  20.654  23.634  1.00  0.00    -0.039 A 
ATOM    117  C   UNL A   1      32.903  19.185  25.388  1.00  0.00    -0.026 A 
ATOM    118  C   UNL A   1      32.423  19.662  22.690  1.00  0.00    -0.060 A 
ATOM    119  H   UNL A   1      31.747  21.553  23.330  1.00  0.00     0.064 H 
ATOM    120  C   UNL A   1      33.161  18.170  24.456  1.00  0.00     0.058 A 
ATOM    121  H   UNL A   1      33.066  19.004  26.391  1.00  0.00     0.065 H 
ATOM    122  C   UNL A   1      32.929  18.428  23.097  1.00  0.00    -0.050 A 
ATOM    123  H   UNL A   1      32.247  19.841  21.688  1.00  0.00     0.062 H 
ATOM    124  H   UNL A   1      33.135  17.699  22.396  1.00  0.00     0.063 H 
BRANCH 120 125
ATOM    125  C   UNL A   1      33.683  16.831  24.903  1.00  0.00     0.416 C 
ATOM    126  F   UNL A   1      33.342  15.828  24.045  1.00  0.00    -0.166 F 
ATOM    127  F   UNL A   1      35.043  16.800  24.986  1.00  0.00    -0.166 F 
ATOM    128  F   UNL A   1      33.226  16.438  26.126  1.00  0.00    -0.166 F 
ENDBRANCH 120 125
ENDBRANCH 113 115
ENDBRANCH 106 113
ENDBRANCH 101 104
ENDBRANCH  97 100
ENDBRANCH  94  97
ENDBRANCH   1  94
TORSDOF 16
ENDMDL
MODEL 4
REMARK VINA RESULT:     -12.0      2.367      3.540
REMARK SMILES O=C(NCCCCCCNC(=O)c1cccnc1Nc1cccc(C(F)(F)F)c1)c1ccc(-c2c3nc(c(-c4c(F)c(F)c(F)c(F)c4F)c4ccc([nH]4)c(-c4c(F)c(F)c(F)c(F)c4F)c4nc(c(-c5c(F)c(F)c(F)c(F)c5F)c5ccc2[nH]5)C=C4)C=C3)cc1
REMARK SMILES IDX 7 1 6 4 5 7 4 10 3 13 1 14 2 15 30 17 31 18 92 19 32 20
REMARK SMILES IDX 91 22 33 24 34 27 35 28 85 29 36 30 90 31 84 32 86 33 37 34
REMARK SMILES IDX 89 35 83 37 82 39 38 41 70 44 50 45 69 46 51 47 54 48 68 49
REMARK SMILES IDX 87 50 52 51 53 53 67 55 88 56 55 59 39 61 40 62 48 63 41 64
REMARK SMILES IDX 42 65 46 66 49 67 43 68 44 69 47 70 45 71 71 72 72 73 80 74
REMARK SMILES IDX 73 75 74 76 78 77 81 78 75 79 76 80 79 81 77 82 56 83 57 84
REMARK SMILES IDX 65 85 58 86 59 87 63 88 66 89 60 90 61 91 64 92 62 93 8 94
REMARK SMILES IDX 9 97 10 100 11 101 12 103 13 104 14 105 18 106 15 107 17 109
REMARK SMILES IDX 16 110 19 113 20 115 21 116 29 117 22 118 24 120 23 122
REMARK SMILES IDX 25 125 26 126 27 127 28 128
REMARK H PARENT 7 2 7 3 6 5 6 6 5 8 5 9 4 11 4 12 3 16 31 21 92 23 32 25 91 26
REMARK H PARENT 90 36 84 38 86 40 89 42 83 43 51 52 54 54 87 57 52 58 88 60
REMARK H PARENT 8 95 8 96 9 98 9 99 10 102 14 108 15 111 16 112 19 114 21 119
REMARK H PARENT 29 121 22 123 23 124
REMARK Flexibility Score: inf
ROOT
ATOM      1  C   UNL A   1      32.329  29.811  27.253  1.00  0.00    -0.052 C 
ATOM      2  H   UNL A   1      31.756  28.908  27.299  1.00  0.00     0.027 H 
ATOM      3  H   UNL A   1      32.307  30.379  28.158  1.00  0.00     0.027 H 
ENDROOT
BRANCH   1   4
ATOM      4  C   UNL A   1      31.714  30.708  26.173  1.00  0.00    -0.052 C 
ATOM      5  H   UNL A   1      32.363  30.696  25.323  1.00  0.00     0.027 H 
ATOM      6  H   UNL A   1      30.742  30.309  25.971  1.00  0.00     0.027 H 
BRANCH   4   7
ATOM      7  C   UNL A   1      31.501  32.163  26.587  1.00  0.00    -0.036 C 
ATOM      8  H   UNL A   1      31.273  32.731  25.710  1.00  0.00     0.028 H 
ATOM      9  H   UNL A   1      30.705  32.164  27.303  1.00  0.00     0.028 H 
BRANCH   7  10
ATOM     10  C   UNL A   1      32.701  32.802  27.270  1.00  0.00     0.018 C 
ATOM     11  H   UNL A   1      32.923  32.252  28.161  1.00  0.00     0.049 H 
ATOM     12  H   UNL A   1      33.521  32.780  26.583  1.00  0.00     0.049 H 
BRANCH  10  13
ATOM     13  N   UNL A   1      32.454  34.189  27.627  1.00  0.00    -0.352 N 
ATOM     14  O   UNL A   1      32.587  36.033  28.926  1.00  0.00    -0.269 OA
ATOM     15  C   UNL A   1      33.033  34.929  28.625  1.00  0.00     0.251 C 
ATOM     16  H   UNL A   1      31.785  34.659  27.078  1.00  0.00     0.163 HD
BRANCH  15  17
ATOM     17  C   UNL A   1      34.198  34.380  29.347  1.00  0.00     0.039 A 
ATOM     18  C   UNL A   1      34.016  33.665  30.534  1.00  0.00    -0.049 A 
ATOM     19  C   UNL A   1      35.480  34.567  28.824  1.00  0.00    -0.049 A 
ATOM     20  C   UNL A   1      35.120  33.228  31.253  1.00  0.00    -0.053 A 
ATOM     21  H   UNL A   1      33.063  33.463  30.875  1.00  0.00     0.063 H 
ATOM     22  C   UNL A   1      36.585  34.046  29.502  1.00  0.00    -0.053 A 
ATOM     23  H   UNL A   1      35.610  35.087  27.942  1.00  0.00     0.063 H 
ATOM     24  C   UNL A   1      36.411  33.374  30.722  1.00  0.00    -0.014 A 
ATOM     25  H   UNL A   1      34.991  32.794  32.181  1.00  0.00     0.063 H 
ATOM     26  H   UNL A   1      37.531  34.157  29.105  1.00  0.00     0.063 H 
BRANCH  24  27
ATOM     27  C   UNL A   1      37.543  32.680  31.382  1.00  0.00     0.031 A 
ATOM     28  C   UNL A   1      38.232  31.513  30.741  1.00  0.00     0.074 A 
ATOM     29  C   UNL A   1      37.929  33.126  32.593  1.00  0.00     0.049 A 
ATOM     30  N   UNL A   1      39.212  30.782  31.209  1.00  0.00    -0.248 NA
ATOM     31  C   UNL A   1      37.763  31.103  29.408  1.00  0.00    -0.034 C 
ATOM     32  C   UNL A   1      37.310  34.244  33.314  1.00  0.00    -0.036 A 
ATOM     33  N   UNL A   1      38.924  32.703  33.436  1.00  0.00    -0.354 N 
ATOM     34  C   UNL A   1      39.464  29.817  30.244  1.00  0.00     0.074 A 
ATOM     35  C   UNL A   1      38.528  30.045  29.165  1.00  0.00    -0.034 C 
ATOM     36  H   UNL A   1      37.031  31.527  28.817  1.00  0.00     0.065 H 
ATOM     37  C   UNL A   1      37.951  34.432  34.474  1.00  0.00    -0.036 A 
ATOM     38  H   UNL A   1      36.505  34.797  32.979  1.00  0.00     0.065 H 
ATOM     39  C   UNL A   1      38.974  33.404  34.616  1.00  0.00     0.049 A 
ATOM     40  H   UNL A   1      39.542  31.969  33.217  1.00  0.00     0.167 HD
ATOM     41  C   UNL A   1      40.397  28.836  30.269  1.00  0.00     0.037 A 
ATOM     42  H   UNL A   1      38.463  29.461  28.315  1.00  0.00     0.065 H 
ATOM     43  H   UNL A   1      37.754  35.183  35.155  1.00  0.00     0.065 H 
ATOM     44  C   UNL A   1      39.728  33.215  35.714  1.00  0.00     0.037 A 
ATOM     45  C   UNL A   1      41.335  28.636  31.346  1.00  0.00     0.049 A 
ATOM     46  C   UNL A   1      40.722  32.089  35.719  1.00  0.00     0.074 A 
ATOM     47  C   UNL A   1      42.370  27.719  31.426  1.00  0.00    -0.036 A 
ATOM     48  N   UNL A   1      41.340  29.348  32.536  1.00  0.00    -0.354 N 
ATOM     49  N   UNL A   1      41.007  31.235  34.766  1.00  0.00    -0.248 NA
ATOM     50  C   UNL A   1      41.493  31.893  36.953  1.00  0.00    -0.034 C 
ATOM     51  C   UNL A   1      42.954  27.830  32.690  1.00  0.00    -0.036 A 
ATOM     52  H   UNL A   1      42.659  27.067  30.680  1.00  0.00     0.065 H 
ATOM     53  C   UNL A   1      42.327  28.857  33.376  1.00  0.00     0.049 A 
ATOM     54  H   UNL A   1      40.734  30.093  32.752  1.00  0.00     0.167 HD
ATOM     55  C   UNL A   1      41.995  30.409  35.280  1.00  0.00     0.074 A 
ATOM     56  C   UNL A   1      42.287  30.888  36.615  1.00  0.00    -0.034 C 
ATOM     57  H   UNL A   1      41.434  32.406  37.847  1.00  0.00     0.065 H 
ATOM     58  H   UNL A   1      43.725  27.244  33.052  1.00  0.00     0.065 H 
ATOM     59  C   UNL A   1      42.599  29.342  34.704  1.00  0.00     0.037 A 
ATOM     60  H   UNL A   1      43.018  30.495  37.227  1.00  0.00     0.065 H 
BRANCH  41  61
ATOM     61  C   UNL A   1      40.457  27.874  29.118  1.00  0.00     0.064 A 
ATOM     62  C   UNL A   1      39.667  26.716  29.079  1.00  0.00     0.173 A 
ATOM     63  C   UNL A   1      41.229  28.181  27.986  1.00  0.00     0.173 A 
ATOM     64  F   UNL A   1      38.915  26.375  30.135  1.00  0.00    -0.203 F 
ATOM     65  C   UNL A   1      39.651  25.899  27.949  1.00  0.00     0.198 A 
ATOM     66  C   UNL A   1      41.192  27.376  26.850  1.00  0.00     0.198 A 
ATOM     67  F   UNL A   1      41.996  29.281  27.969  1.00  0.00    -0.203 F 
ATOM     68  F   UNL A   1      38.902  24.788  27.940  1.00  0.00    -0.200 F 
ATOM     69  C   UNL A   1      40.404  26.236  26.833  1.00  0.00     0.200 A 
ATOM     70  F   UNL A   1      41.907  27.712  25.768  1.00  0.00    -0.200 F 
ATOM     71  F   UNL A   1      40.365  25.463  25.739  1.00  0.00    -0.200 F 
ENDBRANCH  41  61
BRANCH  44  72
ATOM     72  C   UNL A   1      39.533  34.073  36.913  1.00  0.00     0.064 A 
ATOM     73  C   UNL A   1      40.201  35.297  37.047  1.00  0.00     0.173 A 
ATOM     74  C   UNL A   1      38.694  33.669  37.963  1.00  0.00     0.173 A 
ATOM     75  F   UNL A   1      41.027  35.718  36.078  1.00  0.00    -0.203 F 
ATOM     76  C   UNL A   1      40.066  36.065  38.201  1.00  0.00     0.198 A 
ATOM     77  C   UNL A   1      38.529  34.458  39.099  1.00  0.00     0.198 A 
ATOM     78  F   UNL A   1      38.025  32.509  37.883  1.00  0.00    -0.203 F 
ATOM     79  F   UNL A   1      40.769  37.199  38.333  1.00  0.00    -0.200 F 
ATOM     80  C   UNL A   1      39.227  35.648  39.224  1.00  0.00     0.200 A 
ATOM     81  F   UNL A   1      37.701  34.059  40.073  1.00  0.00    -0.200 F 
ATOM     82  F   UNL A   1      39.100  36.387  40.334  1.00  0.00    -0.200 F 
ENDBRANCH  44  72
BRANCH  59  83
ATOM     83  C   UNL A   1      43.640  28.629  35.515  1.00  0.00     0.064 A 
ATOM     84  C   UNL A   1      45.000  28.960  35.413  1.00  0.00     0.173 A 
ATOM     85  C   UNL A   1      43.273  27.630  36.429  1.00  0.00     0.173 A 
ATOM     86  F   UNL A   1      45.403  29.895  34.539  1.00  0.00    -0.203 F 
ATOM     87  C   UNL A   1      45.956  28.299  36.178  1.00  0.00     0.198 A 
ATOM     88  C   UNL A   1      44.229  26.995  37.217  1.00  0.00     0.198 A 
ATOM     89  F   UNL A   1      41.986  27.279  36.568  1.00  0.00    -0.203 F 
ATOM     90  F   UNL A   1      47.254  28.595  36.025  1.00  0.00    -0.200 F 
ATOM     91  C   UNL A   1      45.569  27.324  37.085  1.00  0.00     0.200 A 
ATOM     92  F   UNL A   1      43.852  26.064  38.104  1.00  0.00    -0.200 F 
ATOM     93  F   UNL A   1      46.490  26.696  37.828  1.00  0.00    -0.200 F 
ENDBRANCH  59  83
ENDBRANCH  24  27
ENDBRANCH  15  17
ENDBRANCH  10  13
ENDBRANCH   7  10
ENDBRANCH   4   7
ENDBRANCH   1   4
BRANCH   1  94
ATOM     94  C   UNL A   1      33.797  29.430  27.027  1.00  0.00    -0.036 C 
ATOM     95  H   UNL A   1      34.164  28.972  27.921  1.00  0.00     0.028 H 
ATOM     96  H   UNL A   1      34.310  30.335  26.778  1.00  0.00     0.028 H 
BRANCH  94  97
ATOM     97  C   UNL A   1      34.034  28.467  25.867  1.00  0.00     0.018 C 
ATOM     98  H   UNL A   1      35.069  28.492  25.599  1.00  0.00     0.049 H 
ATOM     99  H   UNL A   1      33.420  28.773  25.044  1.00  0.00     0.049 H 
BRANCH  97 100
ATOM    100  N   UNL A   1      33.672  27.107  26.224  1.00  0.00    -0.352 N 
ATOM    101  C   UNL A   1      32.635  26.348  25.747  1.00  0.00     0.255 C 
ATOM    102  H   UNL A   1      34.246  26.674  26.896  1.00  0.00     0.163 HD
ATOM    103  O   UNL A   1      32.273  25.344  26.354  1.00  0.00    -0.269 OA
BRANCH 101 104
ATOM    104  C   UNL A   1      31.939  26.745  24.511  1.00  0.00     0.082 A 
ATOM    105  C   UNL A   1      30.861  27.638  24.574  1.00  0.00    -0.044 A 
ATOM    106  C   UNL A   1      32.383  26.281  23.269  1.00  0.00     0.143 A 
ATOM    107  C   UNL A   1      30.192  27.981  23.407  1.00  0.00    -0.043 A 
ATOM    108  H   UNL A   1      30.567  28.037  25.479  1.00  0.00     0.063 H 
ATOM    109  N   UNL A   1      31.714  26.616  22.135  1.00  0.00    -0.238 NA
ATOM    110  C   UNL A   1      30.647  27.440  22.223  1.00  0.00     0.029 A 
ATOM    111  H   UNL A   1      29.380  28.619  23.426  1.00  0.00     0.064 H 
ATOM    112  H   UNL A   1      30.143  27.677  21.353  1.00  0.00     0.084 H 
BRANCH 106 113
ATOM    113  N   UNL A   1      33.462  25.375  23.173  1.00  0.00    -0.340 N 
ATOM    114  H   UNL A   1      34.340  25.753  22.934  1.00  0.00     0.168 HD
BRANCH 113 115
ATOM    115  C   UNL A   1      33.405  23.986  23.384  1.00  0.00     0.040 A 
ATOM    116  C   UNL A   1      32.253  23.278  23.034  1.00  0.00    -0.039 A 
ATOM    117  C   UNL A   1      34.443  23.308  24.034  1.00  0.00    -0.026 A 
ATOM    118  C   UNL A   1      32.171  21.902  23.258  1.00  0.00    -0.060 A 
ATOM    119  H   UNL A   1      31.456  23.775  22.608  1.00  0.00     0.064 H 
ATOM    120  C   UNL A   1      34.370  21.930  24.285  1.00  0.00     0.058 A 
ATOM    121  H   UNL A   1      35.278  23.833  24.336  1.00  0.00     0.065 H 
ATOM    122  C   UNL A   1      33.226  21.230  23.875  1.00  0.00    -0.050 A 
ATOM    123  H   UNL A   1      31.329  21.382  22.967  1.00  0.00     0.062 H 
ATOM    124  H   UNL A   1      33.166  20.212  24.032  1.00  0.00     0.063 H 
BRANCH 120 125
ATOM    125  C   UNL A   1      35.500  21.214  24.975  1.00  0.00     0.416 C 
ATOM    126  F   UNL A   1      35.445  21.342  26.331  1.00  0.00    -0.166 F 
ATOM    127  F   UNL A   1      35.497  19.873  24.729  1.00  0.00    -0.166 F 
ATOM    128  F   UNL A   1      36.738  21.655  24.614  1.00  0.00    -0.166 F 
ENDBRANCH 120 125
ENDBRANCH 113 115
ENDBRANCH 106 113
ENDBRANCH 101 104
ENDBRANCH  97 100
ENDBRANCH  94  97
ENDBRANCH   1  94
TORSDOF 16
ENDMDL
MODEL 5
REMARK VINA RESULT:     -12.0      6.013     11.424
REMARK SMILES O=C(NCCCCCCNC(=O)c1cccnc1Nc1cccc(C(F)(F)F)c1)c1ccc(-c2c3nc(c(-c4c(F)c(F)c(F)c(F)c4F)c4ccc([nH]4)c(-c4c(F)c(F)c(F)c(F)c4F)c4nc(c(-c5c(F)c(F)c(F)c(F)c5F)c5ccc2[nH]5)C=C4)C=C3)cc1
REMARK SMILES IDX 7 1 6 4 5 7 4 10 3 13 1 14 2 15 30 17 31 18 92 19 32 20
REMARK SMILES IDX 91 22 33 24 34 27 35 28 85 29 36 30 90 31 84 32 86 33 37 34
REMARK SMILES IDX 89 35 83 37 82 39 38 41 70 44 50 45 69 46 51 47 54 48 68 49
REMARK SMILES IDX 87 50 52 51 53 53 67 55 88 56 55 59 39 61 40 62 48 63 41 64
REMARK SMILES IDX 42 65 46 66 49 67 43 68 44 69 47 70 45 71 71 72 72 73 80 74
REMARK SMILES IDX 73 75 74 76 78 77 81 78 75 79 76 80 79 81 77 82 56 83 57 84
REMARK SMILES IDX 65 85 58 86 59 87 63 88 66 89 60 90 61 91 64 92 62 93 8 94
REMARK SMILES IDX 9 97 10 100 11 101 12 103 13 104 14 105 18 106 15 107 17 109
REMARK SMILES IDX 16 110 19 113 20 115 21 116 29 117 22 118 24 120 23 122
REMARK SMILES IDX 25 125 26 126 27 127 28 128
REMARK H PARENT 7 2 7 3 6 5 6 6 5 8 5 9 4 11 4 12 3 16 31 21 92 23 32 25 91 26
REMARK H PARENT 90 36 84 38 86 40 89 42 83 43 51 52 54 54 87 57 52 58 88 60
REMARK H PARENT 8 95 8 96 9 98 9 99 10 102 14 108 15 111 16 112 19 114 21 119
REMARK H PARENT 29 121 22 123 23 124
REMARK Flexibility Score: inf
ROOT
ATOM      1  C   UNL A   1      36.975  22.016  24.214  1.00  0.00    -0.052 C 
ATOM      2  H   UNL A   1      36.212  22.074  23.466  1.00  0.00     0.027 H 
ATOM      3  H   UNL A   1      37.965  21.961  23.814  1.00  0.00     0.027 H 
ENDROOT
BRANCH   1   4
ATOM      4  C   UNL A   1      36.765  20.722  25.007  1.00  0.00    -0.052 C 
ATOM      5  H   UNL A   1      36.558  20.985  26.023  1.00  0.00     0.027 H 
ATOM      6  H   UNL A   1      35.959  20.206  24.529  1.00  0.00     0.027 H 
BRANCH   4   7
ATOM      7  C   UNL A   1      37.953  19.760  25.000  1.00  0.00    -0.036 C 
ATOM      8  H   UNL A   1      37.617  18.811  25.361  1.00  0.00     0.028 H 
ATOM      9  H   UNL A   1      38.308  19.721  23.991  1.00  0.00     0.028 H 
BRANCH   7  10
ATOM     10  C   UNL A   1      39.126  20.208  25.857  1.00  0.00     0.018 C 
ATOM     11  H   UNL A   1      39.554  21.088  25.424  1.00  0.00     0.049 H 
ATOM     12  H   UNL A   1      38.760  20.398  26.845  1.00  0.00     0.049 H 
BRANCH  10  13
ATOM     13  N   UNL A   1      40.156  19.187  25.954  1.00  0.00    -0.352 N 
ATOM     14  O   UNL A   1      42.273  18.398  25.981  1.00  0.00    -0.269 OA
ATOM     15  C   UNL A   1      41.509  19.351  26.105  1.00  0.00     0.251 C 
ATOM     16  H   UNL A   1      39.840  18.255  25.905  1.00  0.00     0.163 HD
BRANCH  15  17
ATOM     17  C   UNL A   1      42.043  20.694  26.410  1.00  0.00     0.039 A 
ATOM     18  C   UNL A   1      42.292  21.602  25.377  1.00  0.00    -0.049 A 
ATOM     19  C   UNL A   1      42.280  21.052  27.739  1.00  0.00    -0.049 A 
ATOM     20  C   UNL A   1      42.875  22.828  25.662  1.00  0.00    -0.053 A 
ATOM     21  H   UNL A   1      42.042  21.360  24.405  1.00  0.00     0.063 H 
ATOM     22  C   UNL A   1      42.782  22.322  28.032  1.00  0.00    -0.053 A 
ATOM     23  H   UNL A   1      42.086  20.382  28.500  1.00  0.00     0.063 H 
ATOM     24  C   UNL A   1      43.084  23.218  26.994  1.00  0.00    -0.014 A 
ATOM     25  H   UNL A   1      43.157  23.456  24.892  1.00  0.00     0.063 H 
ATOM     26  H   UNL A   1      42.931  22.602  29.014  1.00  0.00     0.063 H 
BRANCH  24  27
ATOM     27  C   UNL A   1      43.469  24.621  27.281  1.00  0.00     0.031 A 
ATOM     28  C   UNL A   1      42.481  25.616  27.811  1.00  0.00     0.074 A 
ATOM     29  C   UNL A   1      44.744  24.981  27.037  1.00  0.00     0.049 A 
ATOM     30  N   UNL A   1      42.659  26.885  28.077  1.00  0.00    -0.248 NA
ATOM     31  C   UNL A   1      41.115  25.136  28.072  1.00  0.00    -0.034 C 
ATOM     32  C   UNL A   1      45.781  24.093  26.500  1.00  0.00    -0.036 A 
ATOM     33  N   UNL A   1      45.391  26.179  27.199  1.00  0.00    -0.354 N 
ATOM     34  C   UNL A   1      41.431  27.361  28.515  1.00  0.00     0.074 A 
ATOM     35  C   UNL A   1      40.508  26.247  28.471  1.00  0.00    -0.034 C 
ATOM     36  H   UNL A   1      40.730  24.183  27.970  1.00  0.00     0.065 H 
ATOM     37  C   UNL A   1      46.934  24.766  26.401  1.00  0.00    -0.036 A 
ATOM     38  H   UNL A   1      45.642  23.104  26.240  1.00  0.00     0.065 H 
ATOM     39  C   UNL A   1      46.703  26.151  26.792  1.00  0.00     0.049 A 
ATOM     40  H   UNL A   1      44.958  26.981  27.572  1.00  0.00     0.167 HD
ATOM     41  C   UNL A   1      41.116  28.615  28.917  1.00  0.00     0.037 A 
ATOM     42  H   UNL A   1      39.507  26.308  28.717  1.00  0.00     0.065 H 
ATOM     43  H   UNL A   1      47.838  24.369  26.099  1.00  0.00     0.065 H 
ATOM     44  C   UNL A   1      47.610  27.138  26.698  1.00  0.00     0.037 A 
ATOM     45  C   UNL A   1      42.056  29.708  28.973  1.00  0.00     0.049 A 
ATOM     46  C   UNL A   1      47.210  28.525  27.114  1.00  0.00     0.074 A 
ATOM     47  C   UNL A   1      41.850  30.994  29.442  1.00  0.00    -0.036 A 
ATOM     48  N   UNL A   1      43.368  29.649  28.530  1.00  0.00    -0.354 N 
ATOM     49  N   UNL A   1      46.068  28.943  27.604  1.00  0.00    -0.248 NA
ATOM     50  C   UNL A   1      48.219  29.580  26.955  1.00  0.00    -0.034 C 
ATOM     51  C   UNL A   1      43.016  31.732  29.217  1.00  0.00    -0.036 A 
ATOM     52  H   UNL A   1      40.986  31.347  29.882  1.00  0.00     0.065 H 
ATOM     53  C   UNL A   1      43.968  30.891  28.666  1.00  0.00     0.049 A 
ATOM     54  H   UNL A   1      43.809  28.845  28.171  1.00  0.00     0.167 HD
ATOM     55  C   UNL A   1      46.224  30.304  27.821  1.00  0.00     0.074 A 
ATOM     56  C   UNL A   1      47.582  30.634  27.445  1.00  0.00    -0.034 C 
ATOM     57  H   UNL A   1      49.172  29.517  26.566  1.00  0.00     0.065 H 
ATOM     58  H   UNL A   1      43.144  32.735  29.427  1.00  0.00     0.065 H 
ATOM     59  C   UNL A   1      45.320  31.202  28.281  1.00  0.00     0.037 A 
ATOM     60  H   UNL A   1      48.002  31.571  27.544  1.00  0.00     0.065 H 
BRANCH  41  61
ATOM     61  C   UNL A   1      39.698  28.906  29.312  1.00  0.00     0.064 A 
ATOM     62  C   UNL A   1      39.255  28.769  30.636  1.00  0.00     0.173 A 
ATOM     63  C   UNL A   1      38.803  29.442  28.373  1.00  0.00     0.173 A 
ATOM     64  F   UNL A   1      40.069  28.258  31.571  1.00  0.00    -0.203 F 
ATOM     65  C   UNL A   1      37.968  29.157  31.003  1.00  0.00     0.198 A 
ATOM     66  C   UNL A   1      37.525  29.851  28.748  1.00  0.00     0.198 A 
ATOM     67  F   UNL A   1      39.179  29.600  27.095  1.00  0.00    -0.203 F 
ATOM     68  F   UNL A   1      37.560  29.002  32.270  1.00  0.00    -0.200 F 
ATOM     69  C   UNL A   1      37.109  29.708  30.062  1.00  0.00     0.200 A 
ATOM     70  F   UNL A   1      36.704  30.398  27.841  1.00  0.00    -0.200 F 
ATOM     71  F   UNL A   1      35.881  30.104  30.424  1.00  0.00    -0.200 F 
ENDBRANCH  41  61
BRANCH  44  72
ATOM     72  C   UNL A   1      48.961  26.864  26.141  1.00  0.00     0.064 A 
ATOM     73  C   UNL A   1      49.232  27.030  24.777  1.00  0.00     0.173 A 
ATOM     74  C   UNL A   1      50.002  26.402  26.961  1.00  0.00     0.173 A 
ATOM     75  F   UNL A   1      48.265  27.454  23.949  1.00  0.00    -0.203 F 
ATOM     76  C   UNL A   1      50.480  26.710  24.248  1.00  0.00     0.198 A 
ATOM     77  C   UNL A   1      51.262  26.120  26.437  1.00  0.00     0.198 A 
ATOM     78  F   UNL A   1      49.800  26.232  28.276  1.00  0.00    -0.203 F 
ATOM     79  F   UNL A   1      50.692  26.814  22.929  1.00  0.00    -0.200 F 
ATOM     80  C   UNL A   1      51.495  26.260  25.079  1.00  0.00     0.200 A 
ATOM     81  F   UNL A   1      52.244  25.705  27.248  1.00  0.00    -0.200 F 
ATOM     82  F   UNL A   1      52.694  25.950  24.568  1.00  0.00    -0.200 F 
ENDBRANCH  44  72
BRANCH  59  83
ATOM     83  C   UNL A   1      45.779  32.625  28.407  1.00  0.00     0.064 A 
ATOM     84  C   UNL A   1      45.600  33.547  27.365  1.00  0.00     0.173 A 
ATOM     85  C   UNL A   1      46.371  33.082  29.594  1.00  0.00     0.173 A 
ATOM     86  F   UNL A   1      45.057  33.153  26.202  1.00  0.00    -0.203 F 
ATOM     87  C   UNL A   1      46.021  34.867  27.497  1.00  0.00     0.198 A 
ATOM     88  C   UNL A   1      46.758  34.411  29.736  1.00  0.00     0.198 A 
ATOM     89  F   UNL A   1      46.560  32.242  30.623  1.00  0.00    -0.203 F 
ATOM     90  F   UNL A   1      45.888  35.716  26.468  1.00  0.00    -0.200 F 
ATOM     91  C   UNL A   1      46.590  35.300  28.685  1.00  0.00     0.200 A 
ATOM     92  F   UNL A   1      47.295  34.832  30.889  1.00  0.00    -0.200 F 
ATOM     93  F   UNL A   1      46.984  36.574  28.814  1.00  0.00    -0.200 F 
ENDBRANCH  59  83
ENDBRANCH  24  27
ENDBRANCH  15  17
ENDBRANCH  10  13
ENDBRANCH   7  10
ENDBRANCH   4   7
ENDBRANCH   1   4
BRANCH   1  94
ATOM     94  C   UNL A   1      36.925  23.305  25.043  1.00  0.00    -0.036 C 
ATOM     95  H   UNL A   1      37.721  23.942  24.718  1.00  0.00     0.028 H 
ATOM     96  H   UNL A   1      37.016  23.010  26.067  1.00  0.00     0.028 H 
BRANCH  94  97
ATOM     97  C   UNL A   1      35.617  24.084  24.932  1.00  0.00     0.018 C 
ATOM     98  H   UNL A   1      35.796  25.104  25.196  1.00  0.00     0.049 H 
ATOM     99  H   UNL A   1      34.903  23.638  25.593  1.00  0.00     0.049 H 
BRANCH  97 100
ATOM    100  N   UNL A   1      35.083  24.033  23.582  1.00  0.00    -0.352 N 
ATOM    101  C   UNL A   1      33.814  23.706  23.181  1.00  0.00     0.255 C 
ATOM    102  H   UNL A   1      35.714  24.263  22.863  1.00  0.00     0.163 HD
ATOM    103  O   UNL A   1      33.592  23.411  22.009  1.00  0.00    -0.269 OA
BRANCH 101 104
ATOM    104  C   UNL A   1      32.712  23.690  24.158  1.00  0.00     0.082 A 
ATOM    105  C   UNL A   1      31.836  24.780  24.239  1.00  0.00    -0.044 A 
ATOM    106  C   UNL A   1      32.500  22.568  24.967  1.00  0.00     0.143 A 
ATOM    107  C   UNL A   1      30.820  24.769  25.185  1.00  0.00    -0.043 A 
ATOM    108  H   UNL A   1      31.944  25.584  23.601  1.00  0.00     0.063 H 
ATOM    109  N   UNL A   1      31.509  22.573  25.895  1.00  0.00    -0.238 NA
ATOM    110  C   UNL A   1      30.705  23.655  25.990  1.00  0.00     0.029 A 
ATOM    111  H   UNL A   1      30.173  25.568  25.282  1.00  0.00     0.064 H 
ATOM    112  H   UNL A   1      29.962  23.647  26.708  1.00  0.00     0.084 H 
BRANCH 106 113
ATOM    113  N   UNL A   1      33.370  21.457  24.913  1.00  0.00    -0.340 N 
ATOM    114  H   UNL A   1      34.227  21.541  25.392  1.00  0.00     0.168 HD
BRANCH 113 115
ATOM    115  C   UNL A   1      33.133  20.245  24.243  1.00  0.00     0.040 A 
ATOM    116  C   UNL A   1      32.413  20.243  23.046  1.00  0.00    -0.039 A 
ATOM    117  C   UNL A   1      33.518  19.020  24.801  1.00  0.00    -0.026 A 
ATOM    118  C   UNL A   1      32.150  19.045  22.379  1.00  0.00    -0.060 A 
ATOM    119  H   UNL A   1      32.072  21.133  22.652  1.00  0.00     0.064 H 
ATOM    120  C   UNL A   1      33.245  17.806  24.155  1.00  0.00     0.058 A 
ATOM    121  H   UNL A   1      34.011  19.011  25.708  1.00  0.00     0.065 H 
ATOM    122  C   UNL A   1      32.568  17.832  22.928  1.00  0.00    -0.050 A 
ATOM    123  H   UNL A   1      31.645  19.056  21.479  1.00  0.00     0.062 H 
ATOM    124  H   UNL A   1      32.379  16.949  22.428  1.00  0.00     0.063 H 
BRANCH 120 125
ATOM    125  C   UNL A   1      33.675  16.498  24.764  1.00  0.00     0.416 C 
ATOM    126  F   UNL A   1      32.909  15.452  24.343  1.00  0.00    -0.166 F 
ATOM    127  F   UNL A   1      34.958  16.168  24.443  1.00  0.00    -0.166 F 
ATOM    128  F   UNL A   1      33.614  16.473  26.126  1.00  0.00    -0.166 F 
ENDBRANCH 120 125
ENDBRANCH 113 115
ENDBRANCH 106 113
ENDBRANCH 101 104
ENDBRANCH  97 100
ENDBRANCH  94  97
ENDBRANCH   1  94
TORSDOF 16
ENDMDL
MODEL 6
REMARK VINA RESULT:     -11.9      3.858      9.549
REMARK SMILES O=C(NCCCCCCNC(=O)c1cccnc1Nc1cccc(C(F)(F)F)c1)c1ccc(-c2c3nc(c(-c4c(F)c(F)c(F)c(F)c4F)c4ccc([nH]4)c(-c4c(F)c(F)c(F)c(F)c4F)c4nc(c(-c5c(F)c(F)c(F)c(F)c5F)c5ccc2[nH]5)C=C4)C=C3)cc1
REMARK SMILES IDX 7 1 6 4 5 7 4 10 3 13 1 14 2 15 30 17 31 18 92 19 32 20
REMARK SMILES IDX 91 22 33 24 34 27 35 28 85 29 36 30 90 31 84 32 86 33 37 34
REMARK SMILES IDX 89 35 83 37 82 39 38 41 70 44 50 45 69 46 51 47 54 48 68 49
REMARK SMILES IDX 87 50 52 51 53 53 67 55 88 56 55 59 39 61 40 62 48 63 41 64
REMARK SMILES IDX 42 65 46 66 49 67 43 68 44 69 47 70 45 71 71 72 72 73 80 74
REMARK SMILES IDX 73 75 74 76 78 77 81 78 75 79 76 80 79 81 77 82 56 83 57 84
REMARK SMILES IDX 65 85 58 86 59 87 63 88 66 89 60 90 61 91 64 92 62 93 8 94
REMARK SMILES IDX 9 97 10 100 11 101 12 103 13 104 14 105 18 106 15 107 17 109
REMARK SMILES IDX 16 110 19 113 20 115 21 116 29 117 22 118 24 120 23 122
REMARK SMILES IDX 25 125 26 126 27 127 28 128
REMARK H PARENT 7 2 7 3 6 5 6 6 5 8 5 9 4 11 4 12 3 16 31 21 92 23 32 25 91 26
REMARK H PARENT 90 36 84 38 86 40 89 42 83 43 51 52 54 54 87 57 52 58 88 60
REMARK H PARENT 8 95 8 96 9 98 9 99 10 102 14 108 15 111 16 112 19 114 21 119
REMARK H PARENT 29 121 22 123 23 124
REMARK Flexibility Score: inf
ROOT
ATOM      1  C   UNL A   1      39.316  21.798  26.108  1.00  0.00    -0.052 C 
ATOM      2  H   UNL A   1      38.425  21.225  26.261  1.00  0.00     0.027 H 
ATOM      3  H   UNL A   1      39.640  21.822  25.089  1.00  0.00     0.027 H 
ENDROOT
BRANCH   1   4
ATOM      4  C   UNL A   1      40.449  21.133  26.897  1.00  0.00    -0.052 C 
ATOM      5  H   UNL A   1      40.651  21.736  27.757  1.00  0.00     0.027 H 
ATOM      6  H   UNL A   1      40.107  20.148  27.139  1.00  0.00     0.027 H 
BRANCH   4   7
ATOM      7  C   UNL A   1      41.756  20.955  26.126  1.00  0.00    -0.036 C 
ATOM      8  H   UNL A   1      42.038  19.925  26.179  1.00  0.00     0.028 H 
ATOM      9  H   UNL A   1      41.567  21.284  25.125  1.00  0.00     0.028 H 
BRANCH   7  10
ATOM     10  C   UNL A   1      42.911  21.794  26.649  1.00  0.00     0.018 C 
ATOM     11  H   UNL A   1      42.527  22.522  27.333  1.00  0.00     0.049 H 
ATOM     12  H   UNL A   1      43.606  21.136  27.128  1.00  0.00     0.049 H 
BRANCH  10  13
ATOM     13  N   UNL A   1      43.616  22.484  25.581  1.00  0.00    -0.352 N 
ATOM     14  O   UNL A   1      44.182  24.258  24.302  1.00  0.00    -0.269 OA
ATOM     15  C   UNL A   1      43.709  23.832  25.352  1.00  0.00     0.251 C 
ATOM     16  H   UNL A   1      44.088  21.906  24.938  1.00  0.00     0.163 HD
BRANCH  15  17
ATOM     17  C   UNL A   1      43.226  24.773  26.382  1.00  0.00     0.039 A 
ATOM     18  C   UNL A   1      42.233  24.378  27.284  1.00  0.00    -0.049 A 
ATOM     19  C   UNL A   1      43.780  26.053  26.457  1.00  0.00    -0.049 A 
ATOM     20  C   UNL A   1      41.722  25.295  28.192  1.00  0.00    -0.053 A 
ATOM     21  H   UNL A   1      41.883  23.408  27.275  1.00  0.00     0.063 H 
ATOM     22  C   UNL A   1      43.328  26.946  27.432  1.00  0.00    -0.053 A 
ATOM     23  H   UNL A   1      44.520  26.338  25.796  1.00  0.00     0.063 H 
ATOM     24  C   UNL A   1      42.294  26.572  28.305  1.00  0.00    -0.014 A 
ATOM     25  H   UNL A   1      40.917  25.037  28.786  1.00  0.00     0.063 H 
ATOM     26  H   UNL A   1      43.754  27.882  27.510  1.00  0.00     0.063 H 
BRANCH  24  27
ATOM     27  C   UNL A   1      41.903  27.437  29.444  1.00  0.00     0.031 A 
ATOM     28  C   UNL A   1      42.633  27.394  30.752  1.00  0.00     0.074 A 
ATOM     29  C   UNL A   1      40.853  28.263  29.269  1.00  0.00     0.049 A 
ATOM     30  N   UNL A   1      42.387  28.064  31.850  1.00  0.00    -0.248 NA
ATOM     31  C   UNL A   1      43.782  26.482  30.853  1.00  0.00    -0.034 C 
ATOM     32  C   UNL A   1      40.060  28.366  28.039  1.00  0.00    -0.036 A 
ATOM     33  N   UNL A   1      40.264  29.167  30.115  1.00  0.00    -0.354 N 
ATOM     34  C   UNL A   1      43.332  27.643  32.775  1.00  0.00     0.074 A 
ATOM     35  C   UNL A   1      44.153  26.649  32.117  1.00  0.00    -0.034 C 
ATOM     36  H   UNL A   1      44.193  25.870  30.129  1.00  0.00     0.065 H 
ATOM     37  C   UNL A   1      39.109  29.295  28.201  1.00  0.00    -0.036 A 
ATOM     38  H   UNL A   1      40.212  27.809  27.183  1.00  0.00     0.065 H 
ATOM     39  C   UNL A   1      39.173  29.797  29.568  1.00  0.00     0.049 A 
ATOM     40  H   UNL A   1      40.593  29.348  31.026  1.00  0.00     0.167 HD
ATOM     41  C   UNL A   1      43.490  28.056  34.055  1.00  0.00     0.037 A 
ATOM     42  H   UNL A   1      44.927  26.138  32.571  1.00  0.00     0.065 H 
ATOM     43  H   UNL A   1      38.441  29.604  27.477  1.00  0.00     0.065 H 
ATOM     44  C   UNL A   1      38.291  30.651  30.116  1.00  0.00     0.037 A 
ATOM     45  C   UNL A   1      42.672  29.062  34.688  1.00  0.00     0.049 A 
ATOM     46  C   UNL A   1      38.475  31.053  31.551  1.00  0.00     0.074 A 
ATOM     47  C   UNL A   1      42.806  29.606  35.955  1.00  0.00    -0.036 A 
ATOM     48  N   UNL A   1      41.562  29.660  34.112  1.00  0.00    -0.354 N 
ATOM     49  N   UNL A   1      39.422  30.709  32.390  1.00  0.00    -0.248 NA
ATOM     50  C   UNL A   1      37.465  31.954  32.121  1.00  0.00    -0.034 C 
ATOM     51  C   UNL A   1      41.736  30.478  36.170  1.00  0.00    -0.036 A 
ATOM     52  H   UNL A   1      43.565  29.401  36.624  1.00  0.00     0.065 H 
ATOM     53  C   UNL A   1      40.971  30.528  35.017  1.00  0.00     0.049 A 
ATOM     54  H   UNL A   1      41.240  29.493  33.197  1.00  0.00     0.167 HD
ATOM     55  C   UNL A   1      39.129  31.358  33.580  1.00  0.00     0.074 A 
ATOM     56  C   UNL A   1      37.937  32.145  33.344  1.00  0.00    -0.034 C 
ATOM     57  H   UNL A   1      36.614  32.338  31.683  1.00  0.00     0.065 H 
ATOM     58  H   UNL A   1      41.549  30.998  37.043  1.00  0.00     0.065 H 
ATOM     59  C   UNL A   1      39.781  31.299  34.766  1.00  0.00     0.037 A 
ATOM     60  H   UNL A   1      37.508  32.774  34.039  1.00  0.00     0.065 H 
BRANCH  41  61
ATOM     61  C   UNL A   1      44.566  27.421  34.886  1.00  0.00     0.064 A 
ATOM     62  C   UNL A   1      45.811  28.037  35.080  1.00  0.00     0.173 A 
ATOM     63  C   UNL A   1      44.302  26.237  35.593  1.00  0.00     0.173 A 
ATOM     64  F   UNL A   1      46.116  29.166  34.425  1.00  0.00    -0.203 F 
ATOM     65  C   UNL A   1      46.753  27.488  35.949  1.00  0.00     0.198 A 
ATOM     66  C   UNL A   1      45.235  25.705  36.479  1.00  0.00     0.198 A 
ATOM     67  F   UNL A   1      43.123  25.613  35.448  1.00  0.00    -0.203 F 
ATOM     68  F   UNL A   1      47.943  28.083  36.107  1.00  0.00    -0.200 F 
ATOM     69  C   UNL A   1      46.460  26.330  36.656  1.00  0.00     0.200 A 
ATOM     70  F   UNL A   1      44.943  24.596  37.172  1.00  0.00    -0.200 F 
ATOM     71  F   UNL A   1      47.356  25.820  37.511  1.00  0.00    -0.200 F 
ENDBRANCH  41  61
BRANCH  44  72
ATOM     72  C   UNL A   1      37.129  31.137  29.326  1.00  0.00     0.064 A 
ATOM     73  C   UNL A   1      37.053  32.464  28.885  1.00  0.00     0.173 A 
ATOM     74  C   UNL A   1      36.055  30.285  29.019  1.00  0.00     0.173 A 
ATOM     75  F   UNL A   1      38.046  33.320  29.167  1.00  0.00    -0.203 F 
ATOM     76  C   UNL A   1      35.932  32.931  28.203  1.00  0.00     0.198 A 
ATOM     77  C   UNL A   1      34.954  30.744  28.301  1.00  0.00     0.198 A 
ATOM     78  F   UNL A   1      36.080  29.003  29.410  1.00  0.00    -0.203 F 
ATOM     79  F   UNL A   1      35.856  34.222  27.852  1.00  0.00    -0.200 F 
ATOM     80  C   UNL A   1      34.886  32.070  27.906  1.00  0.00     0.200 A 
ATOM     81  F   UNL A   1      33.956  29.902  28.000  1.00  0.00    -0.200 F 
ATOM     82  F   UNL A   1      33.808  32.521  27.251  1.00  0.00    -0.200 F 
ENDBRANCH  44  72
BRANCH  59  83
ATOM     83  C   UNL A   1      39.220  32.115  35.893  1.00  0.00     0.064 A 
ATOM     84  C   UNL A   1      38.285  31.577  36.791  1.00  0.00     0.173 A 
ATOM     85  C   UNL A   1      39.645  33.436  36.099  1.00  0.00     0.173 A 
ATOM     86  F   UNL A   1      37.833  30.325  36.624  1.00  0.00    -0.203 F 
ATOM     87  C   UNL A   1      37.779  32.340  37.839  1.00  0.00     0.198 A 
ATOM     88  C   UNL A   1      39.162  34.184  37.168  1.00  0.00     0.198 A 
ATOM     89  F   UNL A   1      40.540  33.996  35.271  1.00  0.00    -0.203 F 
ATOM     90  F   UNL A   1      36.848  31.823  38.652  1.00  0.00    -0.200 F 
ATOM     91  C   UNL A   1      38.225  33.639  38.032  1.00  0.00     0.200 A 
ATOM     92  F   UNL A   1      39.604  35.434  37.362  1.00  0.00    -0.200 F 
ATOM     93  F   UNL A   1      37.743  34.369  39.047  1.00  0.00    -0.200 F 
ENDBRANCH  59  83
ENDBRANCH  24  27
ENDBRANCH  15  17
ENDBRANCH  10  13
ENDBRANCH   7  10
ENDBRANCH   4   7
ENDBRANCH   1   4
BRANCH   1  94
ATOM     94  C   UNL A   1      39.018  23.252  26.492  1.00  0.00    -0.036 C 
ATOM     95  H   UNL A   1      39.705  23.883  25.968  1.00  0.00     0.028 H 
ATOM     96  H   UNL A   1      39.121  23.311  27.555  1.00  0.00     0.028 H 
BRANCH  94  97
ATOM     97  C   UNL A   1      37.601  23.718  26.169  1.00  0.00     0.018 C 
ATOM     98  H   UNL A   1      37.511  24.755  26.415  1.00  0.00     0.049 H 
ATOM     99  H   UNL A   1      36.914  23.130  26.742  1.00  0.00     0.049 H 
BRANCH  97 100
ATOM    100  N   UNL A   1      37.292  23.539  24.761  1.00  0.00    -0.352 N 
ATOM    101  C   UNL A   1      36.063  23.407  24.169  1.00  0.00     0.255 C 
ATOM    102  H   UNL A   1      38.066  23.508  24.154  1.00  0.00     0.163 HD
ATOM    103  O   UNL A   1      35.970  22.961  23.029  1.00  0.00    -0.269 OA
BRANCH 101 104
ATOM    104  C   UNL A   1      34.845  23.783  24.908  1.00  0.00     0.082 A 
ATOM    105  C   UNL A   1      34.474  25.131  25.001  1.00  0.00    -0.044 A 
ATOM    106  C   UNL A   1      34.024  22.799  25.466  1.00  0.00     0.143 A 
ATOM    107  C   UNL A   1      33.342  25.479  25.725  1.00  0.00    -0.043 A 
ATOM    108  H   UNL A   1      35.038  25.860  24.535  1.00  0.00     0.063 H 
ATOM    109  N   UNL A   1      32.924  23.151  26.181  1.00  0.00    -0.238 NA
ATOM    110  C   UNL A   1      32.612  24.460  26.300  1.00  0.00     0.029 A 
ATOM    111  H   UNL A   1      33.058  26.466  25.829  1.00  0.00     0.064 H 
ATOM    112  H   UNL A   1      31.778  24.713  26.855  1.00  0.00     0.084 H 
BRANCH 106 113
ATOM    113  N   UNL A   1      34.374  21.433  25.395  1.00  0.00    -0.340 N 
ATOM    114  H   UNL A   1      35.098  21.128  25.990  1.00  0.00     0.168 HD
BRANCH 113 115
ATOM    115  C   UNL A   1      33.791  20.465  24.558  1.00  0.00     0.040 A 
ATOM    116  C   UNL A   1      32.758  20.830  23.691  1.00  0.00    -0.039 A 
ATOM    117  C   UNL A   1      34.154  19.116  24.645  1.00  0.00    -0.026 A 
ATOM    118  C   UNL A   1      32.153  19.877  22.869  1.00  0.00    -0.060 A 
ATOM    119  H   UNL A   1      32.439  21.810  23.658  1.00  0.00     0.064 H 
ATOM    120  C   UNL A   1      33.544  18.143  23.841  1.00  0.00     0.058 A 
ATOM    121  H   UNL A   1      34.885  18.832  25.316  1.00  0.00     0.065 H 
ATOM    122  C   UNL A   1      32.548  18.541  22.939  1.00  0.00    -0.050 A 
ATOM    123  H   UNL A   1      31.413  20.162  22.208  1.00  0.00     0.062 H 
ATOM    124  H   UNL A   1      32.103  17.841  22.325  1.00  0.00     0.063 H 
BRANCH 120 125
ATOM    125  C   UNL A   1      33.955  16.698  23.940  1.00  0.00     0.416 C 
ATOM    126  F   UNL A   1      34.402  16.203  22.751  1.00  0.00    -0.166 F 
ATOM    127  F   UNL A   1      34.970  16.501  24.828  1.00  0.00    -0.166 F 
ATOM    128  F   UNL A   1      32.951  15.862  24.331  1.00  0.00    -0.166 F 
ENDBRANCH 120 125
ENDBRANCH 113 115
ENDBRANCH 106 113
ENDBRANCH 101 104
ENDBRANCH  97 100
ENDBRANCH  94  97
ENDBRANCH   1  94
TORSDOF 16
ENDMDL
MODEL 7
REMARK VINA RESULT:     -11.9      5.482     10.348
REMARK SMILES O=C(NCCCCCCNC(=O)c1cccnc1Nc1cccc(C(F)(F)F)c1)c1ccc(-c2c3nc(c(-c4c(F)c(F)c(F)c(F)c4F)c4ccc([nH]4)c(-c4c(F)c(F)c(F)c(F)c4F)c4nc(c(-c5c(F)c(F)c(F)c(F)c5F)c5ccc2[nH]5)C=C4)C=C3)cc1
REMARK SMILES IDX 7 1 6 4 5 7 4 10 3 13 1 14 2 15 30 17 31 18 92 19 32 20
REMARK SMILES IDX 91 22 33 24 34 27 35 28 85 29 36 30 90 31 84 32 86 33 37 34
REMARK SMILES IDX 89 35 83 37 82 39 38 41 70 44 50 45 69 46 51 47 54 48 68 49
REMARK SMILES IDX 87 50 52 51 53 53 67 55 88 56 55 59 39 61 40 62 48 63 41 64
REMARK SMILES IDX 42 65 46 66 49 67 43 68 44 69 47 70 45 71 71 72 72 73 80 74
REMARK SMILES IDX 73 75 74 76 78 77 81 78 75 79 76 80 79 81 77 82 56 83 57 84
REMARK SMILES IDX 65 85 58 86 59 87 63 88 66 89 60 90 61 91 64 92 62 93 8 94
REMARK SMILES IDX 9 97 10 100 11 101 12 103 13 104 14 105 18 106 15 107 17 109
REMARK SMILES IDX 16 110 19 113 20 115 21 116 29 117 22 118 24 120 23 122
REMARK SMILES IDX 25 125 26 126 27 127 28 128
REMARK H PARENT 7 2 7 3 6 5 6 6 5 8 5 9 4 11 4 12 3 16 31 21 92 23 32 25 91 26
REMARK H PARENT 90 36 84 38 86 40 89 42 83 43 51 52 54 54 87 57 52 58 88 60
REMARK H PARENT 8 95 8 96 9 98 9 99 10 102 14 108 15 111 16 112 19 114 21 119
REMARK H PARENT 29 121 22 123 23 124
REMARK Flexibility Score: inf
ROOT
ATOM      1  C   UNL A   1      37.157  22.056  24.582  1.00  0.00    -0.052 C 
ATOM      2  H   UNL A   1      36.589  22.321  23.715  1.00  0.00     0.027 H 
ATOM      3  H   UNL A   1      38.214  22.048  24.417  1.00  0.00     0.027 H 
ENDROOT
BRANCH   1   4
ATOM      4  C   UNL A   1      36.779  20.625  24.978  1.00  0.00    -0.052 C 
ATOM      5  H   UNL A   1      36.350  20.654  25.957  1.00  0.00     0.027 H 
ATOM      6  H   UNL A   1      36.102  20.275  24.227  1.00  0.00     0.027 H 
BRANCH   4   7
ATOM      7  C   UNL A   1      37.941  19.632  25.000  1.00  0.00    -0.036 C 
ATOM      8  H   UNL A   1      37.594  18.720  25.437  1.00  0.00     0.028 H 
ATOM      9  H   UNL A   1      38.260  19.513  23.985  1.00  0.00     0.028 H 
BRANCH   7  10
ATOM     10  C   UNL A   1      39.154  20.106  25.785  1.00  0.00     0.018 C 
ATOM     11  H   UNL A   1      39.549  20.982  25.314  1.00  0.00     0.049 H 
ATOM     12  H   UNL A   1      38.839  20.311  26.787  1.00  0.00     0.049 H 
BRANCH  10  13
ATOM     13  N   UNL A   1      40.198  19.096  25.844  1.00  0.00    -0.352 N 
ATOM     14  O   UNL A   1      42.326  18.340  25.904  1.00  0.00    -0.269 OA
ATOM     15  C   UNL A   1      41.539  19.267  26.070  1.00  0.00     0.251 C 
ATOM     16  H   UNL A   1      39.902  18.167  25.704  1.00  0.00     0.163 HD
BRANCH  15  17
ATOM     17  C   UNL A   1      42.033  20.588  26.510  1.00  0.00     0.039 A 
ATOM     18  C   UNL A   1      42.469  21.523  25.567  1.00  0.00    -0.049 A 
ATOM     19  C   UNL A   1      42.045  20.897  27.872  1.00  0.00    -0.049 A 
ATOM     20  C   UNL A   1      43.014  22.728  25.991  1.00  0.00    -0.053 A 
ATOM     21  H   UNL A   1      42.386  21.320  24.559  1.00  0.00     0.063 H 
ATOM     22  C   UNL A   1      42.509  22.147  28.292  1.00  0.00    -0.053 A 
ATOM     23  H   UNL A   1      41.713  20.208  28.564  1.00  0.00     0.063 H 
ATOM     24  C   UNL A   1      42.998  23.070  27.353  1.00  0.00    -0.014 A 
ATOM     25  H   UNL A   1      43.433  23.374  25.303  1.00  0.00     0.063 H 
ATOM     26  H   UNL A   1      42.492  22.391  29.294  1.00  0.00     0.063 H 
BRANCH  24  27
ATOM     27  C   UNL A   1      43.349  24.454  27.751  1.00  0.00     0.031 A 
ATOM     28  C   UNL A   1      42.297  25.470  28.079  1.00  0.00     0.074 A 
ATOM     29  C   UNL A   1      44.657  24.777  27.798  1.00  0.00     0.049 A 
ATOM     30  N   UNL A   1      42.448  26.728  28.409  1.00  0.00    -0.248 NA
ATOM     31  C   UNL A   1      40.895  25.029  28.025  1.00  0.00    -0.034 C 
ATOM     32  C   UNL A   1      45.760  23.866  27.477  1.00  0.00    -0.036 A 
ATOM     33  N   UNL A   1      45.285  25.951  28.126  1.00  0.00    -0.354 N 
ATOM     34  C   UNL A   1      41.167  27.234  28.582  1.00  0.00     0.074 A 
ATOM     35  C   UNL A   1      40.246  26.152  28.311  1.00  0.00    -0.034 C 
ATOM     36  H   UNL A   1      40.515  24.091  27.819  1.00  0.00     0.065 H 
ATOM     37  C   UNL A   1      46.925  24.504  27.647  1.00  0.00    -0.036 A 
ATOM     38  H   UNL A   1      45.654  22.887  27.168  1.00  0.00     0.065 H 
ATOM     39  C   UNL A   1      46.653  25.888  28.013  1.00  0.00     0.049 A 
ATOM     40  H   UNL A   1      44.803  26.759  28.416  1.00  0.00     0.167 HD
ATOM     41  C   UNL A   1      40.807  28.490  28.937  1.00  0.00     0.037 A 
ATOM     42  H   UNL A   1      39.217  26.241  28.336  1.00  0.00     0.065 H 
ATOM     43  H   UNL A   1      47.862  24.084  27.537  1.00  0.00     0.065 H 
ATOM     44  C   UNL A   1      47.585  26.847  28.142  1.00  0.00     0.037 A 
ATOM     45  C   UNL A   1      41.741  29.551  29.223  1.00  0.00     0.049 A 
ATOM     46  C   UNL A   1      47.142  28.238  28.495  1.00  0.00     0.074 A 
ATOM     47  C   UNL A   1      41.474  30.835  29.668  1.00  0.00    -0.036 A 
ATOM     48  N   UNL A   1      43.117  29.459  29.073  1.00  0.00    -0.354 N 
ATOM     49  N   UNL A   1      45.933  28.684  28.737  1.00  0.00    -0.248 NA
ATOM     50  C   UNL A   1      48.190  29.263  28.585  1.00  0.00    -0.034 C 
ATOM     51  C   UNL A   1      42.680  31.539  29.719  1.00  0.00    -0.036 A 
ATOM     52  H   UNL A   1      40.545  31.207  29.919  1.00  0.00     0.065 H 
ATOM     53  C   UNL A   1      43.707  30.678  29.367  1.00  0.00     0.049 A 
ATOM     54  H   UNL A   1      43.603  28.647  28.799  1.00  0.00     0.167 HD
ATOM     55  C   UNL A   1      46.075  30.034  29.017  1.00  0.00     0.074 A 
ATOM     56  C   UNL A   1      47.491  30.328  28.952  1.00  0.00    -0.034 C 
ATOM     57  H   UNL A   1      49.203  29.177  28.411  1.00  0.00     0.065 H 
ATOM     58  H   UNL A   1      42.787  32.533  29.977  1.00  0.00     0.065 H 
ATOM     59  C   UNL A   1      45.118  30.953  29.291  1.00  0.00     0.037 A 
ATOM     60  H   UNL A   1      47.905  31.249  29.163  1.00  0.00     0.065 H 
BRANCH  41  61
ATOM     61  C   UNL A   1      39.345  28.819  29.023  1.00  0.00     0.064 A 
ATOM     62  C   UNL A   1      38.640  28.749  30.233  1.00  0.00     0.173 A 
ATOM     63  C   UNL A   1      38.672  29.325  27.899  1.00  0.00     0.173 A 
ATOM     64  F   UNL A   1      39.235  28.270  31.335  1.00  0.00    -0.203 F 
ATOM     65  C   UNL A   1      37.314  29.172  30.314  1.00  0.00     0.198 A 
ATOM     66  C   UNL A   1      37.355  29.769  27.989  1.00  0.00     0.198 A 
ATOM     67  F   UNL A   1      39.303  29.419  26.719  1.00  0.00    -0.203 F 
ATOM     68  F   UNL A   1      36.655  29.081  31.477  1.00  0.00    -0.200 F 
ATOM     69  C   UNL A   1      36.677  29.691  29.196  1.00  0.00     0.200 A 
ATOM     70  F   UNL A   1      36.748  30.285  26.912  1.00  0.00    -0.200 F 
ATOM     71  F   UNL A   1      35.412  30.121  29.284  1.00  0.00    -0.200 F 
ENDBRANCH  41  61
BRANCH  44  72
ATOM     72  C   UNL A   1      49.017  26.540  27.884  1.00  0.00     0.064 A 
ATOM     73  C   UNL A   1      49.517  26.447  26.579  1.00  0.00     0.173 A 
ATOM     74  C   UNL A   1      49.909  26.305  28.942  1.00  0.00     0.173 A 
ATOM     75  F   UNL A   1      48.700  26.647  25.534  1.00  0.00    -0.203 F 
ATOM     76  C   UNL A   1      50.843  26.095  26.341  1.00  0.00     0.198 A 
ATOM     77  C   UNL A   1      51.245  25.992  28.703  1.00  0.00     0.198 A 
ATOM     78  F   UNL A   1      49.486  26.388  30.212  1.00  0.00    -0.203 F 
ATOM     79  F   UNL A   1      51.278  25.947  25.082  1.00  0.00    -0.200 F 
ATOM     80  C   UNL A   1      51.708  25.873  27.402  1.00  0.00     0.200 A 
ATOM     81  F   UNL A   1      52.079  25.799  29.733  1.00  0.00    -0.200 F 
ATOM     82  F   UNL A   1      52.982  25.532  27.172  1.00  0.00    -0.200 F 
ENDBRANCH  44  72
BRANCH  59  83
ATOM     83  C   UNL A   1      45.577  32.357  29.550  1.00  0.00     0.064 A 
ATOM     84  C   UNL A   1      45.647  33.306  28.518  1.00  0.00     0.173 A 
ATOM     85  C   UNL A   1      45.916  32.771  30.847  1.00  0.00     0.173 A 
ATOM     86  F   UNL A   1      45.352  32.953  27.257  1.00  0.00    -0.203 F 
ATOM     87  C   UNL A   1      46.065  34.609  28.771  1.00  0.00     0.198 A 
ATOM     88  C   UNL A   1      46.300  34.084  31.102  1.00  0.00     0.198 A 
ATOM     89  F   UNL A   1      45.862  31.904  31.869  1.00  0.00    -0.203 F 
ATOM     90  F   UNL A   1      46.175  35.482  27.761  1.00  0.00    -0.200 F 
ATOM     91  C   UNL A   1      46.381  34.999  30.063  1.00  0.00     0.200 A 
ATOM     92  F   UNL A   1      46.592  34.464  32.353  1.00  0.00    -0.200 F 
ATOM     93  F   UNL A   1      46.773  36.257  30.306  1.00  0.00    -0.200 F 
ENDBRANCH  59  83
ENDBRANCH  24  27
ENDBRANCH  15  17
ENDBRANCH  10  13
ENDBRANCH   7  10
ENDBRANCH   4   7
ENDBRANCH   1   4
BRANCH   1  94
ATOM     94  C   UNL A   1      36.904  23.119  25.658  1.00  0.00    -0.036 C 
ATOM     95  H   UNL A   1      37.798  23.696  25.773  1.00  0.00     0.028 H 
ATOM     96  H   UNL A   1      36.628  22.591  26.546  1.00  0.00     0.028 H 
BRANCH  94  97
ATOM     97  C   UNL A   1      35.756  24.076  25.349  1.00  0.00     0.018 C 
ATOM     98  H   UNL A   1      36.054  25.071  25.604  1.00  0.00     0.049 H 
ATOM     99  H   UNL A   1      34.904  23.775  25.923  1.00  0.00     0.049 H 
BRANCH  97 100
ATOM    100  N   UNL A   1      35.396  24.037  23.943  1.00  0.00    -0.352 N 
ATOM    101  C   UNL A   1      34.285  23.482  23.364  1.00  0.00     0.255 C 
ATOM    102  H   UNL A   1      36.032  24.465  23.326  1.00  0.00     0.163 HD
ATOM    103  O   UNL A   1      34.264  23.257  22.156  1.00  0.00    -0.269 OA
BRANCH 101 104
ATOM    104  C   UNL A   1      33.116  23.136  24.191  1.00  0.00     0.082 A 
ATOM    105  C   UNL A   1      33.104  21.935  24.913  1.00  0.00    -0.044 A 
ATOM    106  C   UNL A   1      32.044  24.026  24.308  1.00  0.00     0.143 A 
ATOM    107  C   UNL A   1      31.985  21.603  25.664  1.00  0.00    -0.043 A 
ATOM    108  H   UNL A   1      33.919  21.302  24.885  1.00  0.00     0.063 H 
ATOM    109  N   UNL A   1      30.951  23.686  25.039  1.00  0.00    -0.238 NA
ATOM    110  C   UNL A   1      30.939  22.501  25.687  1.00  0.00     0.029 A 
ATOM    111  H   UNL A   1      31.939  20.714  26.188  1.00  0.00     0.064 H 
ATOM    112  H   UNL A   1      30.096  22.252  26.231  1.00  0.00     0.084 H 
BRANCH 106 113
ATOM    113  N   UNL A   1      32.024  25.241  23.589  1.00  0.00    -0.340 N 
ATOM    114  H   UNL A   1      32.119  25.179  22.610  1.00  0.00     0.168 HD
BRANCH 113 115
ATOM    115  C   UNL A   1      31.884  26.529  24.133  1.00  0.00     0.040 A 
ATOM    116  C   UNL A   1      30.933  27.406  23.605  1.00  0.00    -0.039 A 
ATOM    117  C   UNL A   1      32.749  26.994  25.131  1.00  0.00    -0.026 A 
ATOM    118  C   UNL A   1      30.796  28.697  24.118  1.00  0.00    -0.060 A 
ATOM    119  H   UNL A   1      30.327  27.097  22.829  1.00  0.00     0.064 H 
ATOM    120  C   UNL A   1      32.640  28.293  25.645  1.00  0.00     0.058 A 
ATOM    121  H   UNL A   1      33.484  26.367  25.494  1.00  0.00     0.065 H 
ATOM    122  C   UNL A   1      31.642  29.137  25.137  1.00  0.00    -0.050 A 
ATOM    123  H   UNL A   1      30.069  29.326  23.744  1.00  0.00     0.062 H 
ATOM    124  H   UNL A   1      31.533  30.090  25.520  1.00  0.00     0.063 H 
BRANCH 120 125
ATOM    125  C   UNL A   1      33.571  28.773  26.726  1.00  0.00     0.416 C 
ATOM    126  F   UNL A   1      33.085  28.531  27.976  1.00  0.00    -0.166 F 
ATOM    127  F   UNL A   1      34.788  28.161  26.678  1.00  0.00    -0.166 F 
ATOM    128  F   UNL A   1      33.826  30.112  26.684  1.00  0.00    -0.166 F 
ENDBRANCH 120 125
ENDBRANCH 113 115
ENDBRANCH 106 113
ENDBRANCH 101 104
ENDBRANCH  97 100
ENDBRANCH  94  97
ENDBRANCH   1  94
TORSDOF 16
ENDMDL
MODEL 8
REMARK VINA RESULT:     -11.9      5.547     10.757
REMARK SMILES O=C(NCCCCCCNC(=O)c1cccnc1Nc1cccc(C(F)(F)F)c1)c1ccc(-c2c3nc(c(-c4c(F)c(F)c(F)c(F)c4F)c4ccc([nH]4)c(-c4c(F)c(F)c(F)c(F)c4F)c4nc(c(-c5c(F)c(F)c(F)c(F)c5F)c5ccc2[nH]5)C=C4)C=C3)cc1
REMARK SMILES IDX 7 1 6 4 5 7 4 10 3 13 1 14 2 15 30 17 31 18 92 19 32 20
REMARK SMILES IDX 91 22 33 24 34 27 35 28 85 29 36 30 90 31 84 32 86 33 37 34
REMARK SMILES IDX 89 35 83 37 82 39 38 41 70 44 50 45 69 46 51 47 54 48 68 49
REMARK SMILES IDX 87 50 52 51 53 53 67 55 88 56 55 59 39 61 40 62 48 63 41 64
REMARK SMILES IDX 42 65 46 66 49 67 43 68 44 69 47 70 45 71 71 72 72 73 80 74
REMARK SMILES IDX 73 75 74 76 78 77 81 78 75 79 76 80 79 81 77 82 56 83 57 84
REMARK SMILES IDX 65 85 58 86 59 87 63 88 66 89 60 90 61 91 64 92 62 93 8 94
REMARK SMILES IDX 9 97 10 100 11 101 12 103 13 104 14 105 18 106 15 107 17 109
REMARK SMILES IDX 16 110 19 113 20 115 21 116 29 117 22 118 24 120 23 122
REMARK SMILES IDX 25 125 26 126 27 127 28 128
REMARK H PARENT 7 2 7 3 6 5 6 6 5 8 5 9 4 11 4 12 3 16 31 21 92 23 32 25 91 26
REMARK H PARENT 90 36 84 38 86 40 89 42 83 43 51 52 54 54 87 57 52 58 88 60
REMARK H PARENT 8 95 8 96 9 98 9 99 10 102 14 108 15 111 16 112 19 114 21 119
REMARK H PARENT 29 121 22 123 23 124
REMARK Flexibility Score: inf
ROOT
ATOM      1  C   UNL A   1      37.594  21.988  25.289  1.00  0.00    -0.052 C 
ATOM      2  H   UNL A   1      38.661  22.067  25.295  1.00  0.00     0.027 H 
ATOM      3  H   UNL A   1      37.159  21.990  26.266  1.00  0.00     0.027 H 
ENDROOT
BRANCH   1   4
ATOM      4  C   UNL A   1      37.221  20.640  24.663  1.00  0.00    -0.052 C 
ATOM      5  H   UNL A   1      36.240  20.378  24.999  1.00  0.00     0.027 H 
ATOM      6  H   UNL A   1      37.287  20.773  23.603  1.00  0.00     0.027 H 
BRANCH   4   7
ATOM      7  C   UNL A   1      38.162  19.486  25.006  1.00  0.00    -0.036 C 
ATOM      8  H   UNL A   1      37.591  18.719  25.487  1.00  0.00     0.028 H 
ATOM      9  H   UNL A   1      38.599  19.163  24.084  1.00  0.00     0.028 H 
BRANCH   7  10
ATOM     10  C   UNL A   1      39.314  19.868  25.923  1.00  0.00     0.018 C 
ATOM     11  H   UNL A   1      39.708  20.811  25.606  1.00  0.00     0.049 H 
ATOM     12  H   UNL A   1      38.935  19.920  26.923  1.00  0.00     0.049 H 
BRANCH  10  13
ATOM     13  N   UNL A   1      40.382  18.883  25.902  1.00  0.00    -0.352 N 
ATOM     14  O   UNL A   1      42.523  18.175  25.756  1.00  0.00    -0.269 OA
ATOM     15  C   UNL A   1      41.735  19.090  25.976  1.00  0.00     0.251 C 
ATOM     16  H   UNL A   1      40.096  17.944  25.824  1.00  0.00     0.163 HD
BRANCH  15  17
ATOM     17  C   UNL A   1      42.241  20.436  26.317  1.00  0.00     0.039 A 
ATOM     18  C   UNL A   1      42.729  21.278  25.314  1.00  0.00    -0.049 A 
ATOM     19  C   UNL A   1      42.212  20.863  27.647  1.00  0.00    -0.049 A 
ATOM     20  C   UNL A   1      43.283  22.505  25.651  1.00  0.00    -0.053 A 
ATOM     21  H   UNL A   1      42.676  20.988  24.325  1.00  0.00     0.063 H 
ATOM     22  C   UNL A   1      42.686  22.136  27.973  1.00  0.00    -0.053 A 
ATOM     23  H   UNL A   1      41.842  20.242  28.384  1.00  0.00     0.063 H 
ATOM     24  C   UNL A   1      43.226  22.964  26.976  1.00  0.00    -0.014 A 
ATOM     25  H   UNL A   1      43.738  23.081  24.925  1.00  0.00     0.063 H 
ATOM     26  H   UNL A   1      42.640  22.467  28.949  1.00  0.00     0.063 H 
BRANCH  24  27
ATOM     27  C   UNL A   1      43.592  24.372  27.266  1.00  0.00     0.031 A 
ATOM     28  C   UNL A   1      42.578  25.366  27.746  1.00  0.00     0.074 A 
ATOM     29  C   UNL A   1      44.874  24.737  27.070  1.00  0.00     0.049 A 
ATOM     30  N   UNL A   1      42.739  26.639  28.007  1.00  0.00    -0.248 NA
ATOM     31  C   UNL A   1      41.206  24.881  27.955  1.00  0.00    -0.034 C 
ATOM     32  C   UNL A   1      45.936  23.849  26.584  1.00  0.00    -0.036 A 
ATOM     33  N   UNL A   1      45.508  25.940  27.247  1.00  0.00    -0.354 N 
ATOM     34  C   UNL A   1      41.492  27.111  28.391  1.00  0.00     0.074 A 
ATOM     35  C   UNL A   1      40.576  25.992  28.319  1.00  0.00    -0.034 C 
ATOM     36  H   UNL A   1      40.829  23.925  27.847  1.00  0.00     0.065 H 
ATOM     37  C   UNL A   1      47.089  24.528  26.525  1.00  0.00    -0.036 A 
ATOM     38  H   UNL A   1      45.813  22.857  26.327  1.00  0.00     0.065 H 
ATOM     39  C   UNL A   1      46.835  25.915  26.894  1.00  0.00     0.049 A 
ATOM     40  H   UNL A   1      45.056  26.742  27.594  1.00  0.00     0.167 HD
ATOM     41  C   UNL A   1      41.154  28.367  28.768  1.00  0.00     0.037 A 
ATOM     42  H   UNL A   1      39.566  26.050  28.524  1.00  0.00     0.065 H 
ATOM     43  H   UNL A   1      48.006  24.133  26.263  1.00  0.00     0.065 H 
ATOM     44  C   UNL A   1      47.740  26.907  26.827  1.00  0.00     0.037 A 
ATOM     45  C   UNL A   1      42.085  29.466  28.851  1.00  0.00     0.049 A 
ATOM     46  C   UNL A   1      47.317  28.295  27.213  1.00  0.00     0.074 A 
ATOM     47  C   UNL A   1      41.854  30.755  29.300  1.00  0.00    -0.036 A 
ATOM     48  N   UNL A   1      43.414  29.410  28.462  1.00  0.00    -0.354 N 
ATOM     49  N   UNL A   1      46.153  28.711  27.653  1.00  0.00    -0.248 NA
ATOM     50  C   UNL A   1      48.325  29.354  27.086  1.00  0.00    -0.034 C 
ATOM     51  C   UNL A   1      43.024  31.498  29.115  1.00  0.00    -0.036 A 
ATOM     52  H   UNL A   1      40.971  31.107  29.701  1.00  0.00     0.065 H 
ATOM     53  C   UNL A   1      44.003  30.656  28.612  1.00  0.00     0.049 A 
ATOM     54  H   UNL A   1      43.874  28.605  28.129  1.00  0.00     0.167 HD
ATOM     55  C   UNL A   1      46.293  30.074  27.864  1.00  0.00     0.074 A 
ATOM     56  C   UNL A   1      47.664  30.409  27.539  1.00  0.00    -0.034 C 
ATOM     57  H   UNL A   1      49.294  29.293  26.736  1.00  0.00     0.065 H 
ATOM     58  H   UNL A   1      43.138  32.503  29.321  1.00  0.00     0.065 H 
ATOM     59  C   UNL A   1      45.367  30.972  28.278  1.00  0.00     0.037 A 
ATOM     60  H   UNL A   1      48.075  31.349  27.647  1.00  0.00     0.065 H 
BRANCH  41  61
ATOM     61  C   UNL A   1      39.719  28.654  29.103  1.00  0.00     0.064 A 
ATOM     62  C   UNL A   1      39.221  28.512  30.405  1.00  0.00     0.173 A 
ATOM     63  C   UNL A   1      38.865  29.192  28.127  1.00  0.00     0.173 A 
ATOM     64  F   UNL A   1      39.994  27.999  31.373  1.00  0.00    -0.203 F 
ATOM     65  C   UNL A   1      37.918  28.896  30.718  1.00  0.00     0.198 A 
ATOM     66  C   UNL A   1      37.571  29.596  28.448  1.00  0.00     0.198 A 
ATOM     67  F   UNL A   1      39.295  29.355  26.867  1.00  0.00    -0.203 F 
ATOM     68  F   UNL A   1      37.456  28.736  31.966  1.00  0.00    -0.200 F 
ATOM     69  C   UNL A   1      37.099  29.448  29.743  1.00  0.00     0.200 A 
ATOM     70  F   UNL A   1      36.789  30.145  27.509  1.00  0.00    -0.200 F 
ATOM     71  F   UNL A   1      35.856  29.840  30.053  1.00  0.00    -0.200 F 
ENDBRANCH  41  61
BRANCH  44  72
ATOM     72  C   UNL A   1      49.114  26.635  26.327  1.00  0.00     0.064 A 
ATOM     73  C   UNL A   1      50.137  26.231  27.195  1.00  0.00     0.173 A 
ATOM     74  C   UNL A   1      49.437  26.802  24.971  1.00  0.00     0.173 A 
ATOM     75  F   UNL A   1      49.882  26.074  28.502  1.00  0.00    -0.203 F 
ATOM     76  C   UNL A   1      51.437  26.041  26.733  1.00  0.00     0.198 A 
ATOM     77  C   UNL A   1      50.728  26.572  24.504  1.00  0.00     0.198 A 
ATOM     78  F   UNL A   1      48.494  27.180  24.096  1.00  0.00    -0.203 F 
ATOM     79  F   UNL A   1      52.411  25.720  27.596  1.00  0.00    -0.200 F 
ATOM     80  C   UNL A   1      51.731  26.206  25.388  1.00  0.00     0.200 A 
ATOM     81  F   UNL A   1      51.001  26.714  23.200  1.00  0.00    -0.200 F 
ATOM     82  F   UNL A   1      52.982  26.025  24.945  1.00  0.00    -0.200 F 
ENDBRANCH  44  72
BRANCH  59  83
ATOM     83  C   UNL A   1      45.813  32.398  28.410  1.00  0.00     0.064 A 
ATOM     84  C   UNL A   1      46.410  32.872  29.588  1.00  0.00     0.173 A 
ATOM     85  C   UNL A   1      45.675  33.292  27.337  1.00  0.00     0.173 A 
ATOM     86  F   UNL A   1      46.546  32.061  30.648  1.00  0.00    -0.203 F 
ATOM     87  C   UNL A   1      46.829  34.195  29.696  1.00  0.00     0.198 A 
ATOM     88  C   UNL A   1      46.127  34.605  27.437  1.00  0.00     0.198 A 
ATOM     89  F   UNL A   1      45.114  32.888  26.187  1.00  0.00    -0.203 F 
ATOM     90  F   UNL A   1      47.348  34.638  30.849  1.00  0.00    -0.200 F 
ATOM     91  C   UNL A   1      46.696  35.057  28.618  1.00  0.00     0.200 A 
ATOM     92  F   UNL A   1      46.010  35.433  26.390  1.00  0.00    -0.200 F 
ATOM     93  F   UNL A   1      47.109  36.327  28.720  1.00  0.00    -0.200 F 
ENDBRANCH  59  83
ENDBRANCH  24  27
ENDBRANCH  15  17
ENDBRANCH  10  13
ENDBRANCH   7  10
ENDBRANCH   4   7
ENDBRANCH   1   4
BRANCH   1  94
ATOM     94  C   UNL A   1      37.031  23.219  24.571  1.00  0.00    -0.036 C 
ATOM     95  H   UNL A   1      36.486  22.884  23.712  1.00  0.00     0.028 H 
ATOM     96  H   UNL A   1      37.869  23.834  24.321  1.00  0.00     0.028 H 
BRANCH  94  97
ATOM     97  C   UNL A   1      36.100  24.081  25.419  1.00  0.00     0.018 C 
ATOM     98  H   UNL A   1      35.303  24.443  24.804  1.00  0.00     0.049 H 
ATOM     99  H   UNL A   1      36.668  24.894  25.822  1.00  0.00     0.049 H 
BRANCH  97 100
ATOM    100  N   UNL A   1      35.537  23.326  26.524  1.00  0.00    -0.352 N 
ATOM    101  C   UNL A   1      34.269  22.822  26.653  1.00  0.00     0.255 C 
ATOM    102  H   UNL A   1      36.146  23.153  27.278  1.00  0.00     0.163 HD
ATOM    103  O   UNL A   1      33.850  22.477  27.755  1.00  0.00    -0.269 OA
BRANCH 101 104
ATOM    104  C   UNL A   1      33.396  22.710  25.472  1.00  0.00     0.082 A 
ATOM    105  C   UNL A   1      33.506  21.598  24.627  1.00  0.00    -0.044 A 
ATOM    106  C   UNL A   1      32.418  23.677  25.221  1.00  0.00     0.143 A 
ATOM    107  C   UNL A   1      32.701  21.517  23.499  1.00  0.00    -0.043 A 
ATOM    108  H   UNL A   1      34.180  20.846  24.840  1.00  0.00     0.063 H 
ATOM    109  N   UNL A   1      31.642  23.592  24.109  1.00  0.00    -0.238 NA
ATOM    110  C   UNL A   1      31.798  22.537  23.281  1.00  0.00     0.029 A 
ATOM    111  H   UNL A   1      32.776  20.721  22.846  1.00  0.00     0.064 H 
ATOM    112  H   UNL A   1      31.208  22.492  22.434  1.00  0.00     0.084 H 
BRANCH 106 113
ATOM    113  N   UNL A   1      32.287  24.813  26.051  1.00  0.00    -0.340 N 
ATOM    114  H   UNL A   1      32.034  24.650  26.989  1.00  0.00     0.168 HD
BRANCH 113 115
ATOM    115  C   UNL A   1      32.480  26.152  25.668  1.00  0.00     0.040 A 
ATOM    116  C   UNL A   1      33.604  26.847  26.119  1.00  0.00    -0.039 A 
ATOM    117  C   UNL A   1      31.515  26.840  24.923  1.00  0.00    -0.026 A 
ATOM    118  C   UNL A   1      33.800  28.184  25.766  1.00  0.00    -0.060 A 
ATOM    119  H   UNL A   1      34.295  26.370  26.718  1.00  0.00     0.064 H 
ATOM    120  C   UNL A   1      31.684  28.187  24.576  1.00  0.00     0.058 A 
ATOM    121  H   UNL A   1      30.660  26.345  24.624  1.00  0.00     0.065 H 
ATOM    122  C   UNL A   1      32.847  28.850  24.994  1.00  0.00    -0.050 A 
ATOM    123  H   UNL A   1      34.649  28.680  26.077  1.00  0.00     0.062 H 
ATOM    124  H   UNL A   1      32.999  29.836  24.729  1.00  0.00     0.063 H 
BRANCH 120 125
ATOM    125  C   UNL A   1      30.642  28.910  23.765  1.00  0.00     0.416 C 
ATOM    126  F   UNL A   1      29.456  28.238  23.727  1.00  0.00    -0.166 F 
ATOM    127  F   UNL A   1      30.351  30.143  24.267  1.00  0.00    -0.166 F 
ATOM    128  F   UNL A   1      30.993  29.110  22.463  1.00  0.00    -0.166 F 
ENDBRANCH 120 125
ENDBRANCH 113 115
ENDBRANCH 106 113
ENDBRANCH 101 104
ENDBRANCH  97 100
ENDBRANCH  94  97
ENDBRANCH   1  94
TORSDOF 16
ENDMDL
MODEL 9
REMARK VINA RESULT:     -11.9      1.037      2.027
REMARK SMILES O=C(NCCCCCCNC(=O)c1cccnc1Nc1cccc(C(F)(F)F)c1)c1ccc(-c2c3nc(c(-c4c(F)c(F)c(F)c(F)c4F)c4ccc([nH]4)c(-c4c(F)c(F)c(F)c(F)c4F)c4nc(c(-c5c(F)c(F)c(F)c(F)c5F)c5ccc2[nH]5)C=C4)C=C3)cc1
REMARK SMILES IDX 7 1 6 4 5 7 4 10 3 13 1 14 2 15 30 17 31 18 92 19 32 20
REMARK SMILES IDX 91 22 33 24 34 27 35 28 85 29 36 30 90 31 84 32 86 33 37 34
REMARK SMILES IDX 89 35 83 37 82 39 38 41 70 44 50 45 69 46 51 47 54 48 68 49
REMARK SMILES IDX 87 50 52 51 53 53 67 55 88 56 55 59 39 61 40 62 48 63 41 64
REMARK SMILES IDX 42 65 46 66 49 67 43 68 44 69 47 70 45 71 71 72 72 73 80 74
REMARK SMILES IDX 73 75 74 76 78 77 81 78 75 79 76 80 79 81 77 82 56 83 57 84
REMARK SMILES IDX 65 85 58 86 59 87 63 88 66 89 60 90 61 91 64 92 62 93 8 94
REMARK SMILES IDX 9 97 10 100 11 101 12 103 13 104 14 105 18 106 15 107 17 109
REMARK SMILES IDX 16 110 19 113 20 115 21 116 29 117 22 118 24 120 23 122
REMARK SMILES IDX 25 125 26 126 27 127 28 128
REMARK H PARENT 7 2 7 3 6 5 6 6 5 8 5 9 4 11 4 12 3 16 31 21 92 23 32 25 91 26
REMARK H PARENT 90 36 84 38 86 40 89 42 83 43 51 52 54 54 87 57 52 58 88 60
REMARK H PARENT 8 95 8 96 9 98 9 99 10 102 14 108 15 111 16 112 19 114 21 119
REMARK H PARENT 29 121 22 123 23 124
REMARK Flexibility Score: inf
ROOT
ATOM      1  C   UNL A   1      32.053  29.749  26.614  1.00  0.00    -0.052 C 
ATOM      2  H   UNL A   1      32.039  29.929  27.668  1.00  0.00     0.027 H 
ATOM      3  H   UNL A   1      33.038  29.696  26.201  1.00  0.00     0.027 H 
ENDROOT
BRANCH   1   4
ATOM      4  C   UNL A   1      31.367  30.932  25.922  1.00  0.00    -0.052 C 
ATOM      5  H   UNL A   1      31.885  31.126  25.006  1.00  0.00     0.027 H 
ATOM      6  H   UNL A   1      30.346  30.645  25.780  1.00  0.00     0.027 H 
BRANCH   4   7
ATOM      7  C   UNL A   1      31.338  32.227  26.733  1.00  0.00    -0.036 C 
ATOM      8  H   UNL A   1      30.797  32.961  26.174  1.00  0.00     0.028 H 
ATOM      9  H   UNL A   1      30.875  31.991  27.669  1.00  0.00     0.028 H 
BRANCH   7  10
ATOM     10  C   UNL A   1      32.712  32.793  27.058  1.00  0.00     0.018 C 
ATOM     11  H   UNL A   1      33.204  32.133  27.740  1.00  0.00     0.049 H 
ATOM     12  H   UNL A   1      33.256  32.883  26.141  1.00  0.00     0.049 H 
BRANCH  10  13
ATOM     13  N   UNL A   1      32.632  34.114  27.660  1.00  0.00    -0.352 N 
ATOM     14  O   UNL A   1      33.050  35.687  29.227  1.00  0.00    -0.269 OA
ATOM     15  C   UNL A   1      33.360  34.619  28.706  1.00  0.00     0.251 C 
ATOM     16  H   UNL A   1      31.969  34.725  27.265  1.00  0.00     0.163 HD
BRANCH  15  17
ATOM     17  C   UNL A   1      34.522  33.860  29.210  1.00  0.00     0.039 A 
ATOM     18  C   UNL A   1      35.820  34.281  28.909  1.00  0.00    -0.049 A 
ATOM     19  C   UNL A   1      34.311  32.729  30.002  1.00  0.00    -0.049 A 
ATOM     20  C   UNL A   1      36.905  33.515  29.312  1.00  0.00    -0.053 A 
ATOM     21  H   UNL A   1      35.972  35.160  28.390  1.00  0.00     0.063 H 
ATOM     22  C   UNL A   1      35.408  32.009  30.484  1.00  0.00    -0.053 A 
ATOM     23  H   UNL A   1      33.351  32.426  30.230  1.00  0.00     0.063 H 
ATOM     24  C   UNL A   1      36.712  32.398  30.140  1.00  0.00    -0.014 A 
ATOM     25  H   UNL A   1      37.857  33.767  29.001  1.00  0.00     0.063 H 
ATOM     26  H   UNL A   1      35.258  31.190  31.093  1.00  0.00     0.063 H 
BRANCH  24  27
ATOM     27  C   UNL A   1      37.893  31.750  30.760  1.00  0.00     0.031 A 
ATOM     28  C   UNL A   1      38.712  30.735  30.022  1.00  0.00     0.074 A 
ATOM     29  C   UNL A   1      38.202  32.095  32.026  1.00  0.00     0.049 A 
ATOM     30  N   UNL A   1      39.750  30.057  30.443  1.00  0.00    -0.248 NA
ATOM     31  C   UNL A   1      38.320  30.431  28.637  1.00  0.00    -0.034 C 
ATOM     32  C   UNL A   1      37.455  33.059  32.841  1.00  0.00    -0.036 A 
ATOM     33  N   UNL A   1      39.215  31.681  32.853  1.00  0.00    -0.354 N 
ATOM     34  C   UNL A   1      40.123  29.234  29.389  1.00  0.00     0.074 A 
ATOM     35  C   UNL A   1      39.194  29.487  28.308  1.00  0.00    -0.034 C 
ATOM     36  H   UNL A   1      37.563  30.844  28.070  1.00  0.00     0.065 H 
ATOM     37  C   UNL A   1      38.046  33.180  34.037  1.00  0.00    -0.036 A 
ATOM     38  H   UNL A   1      36.607  33.564  32.539  1.00  0.00     0.065 H 
ATOM     39  C   UNL A   1      39.165  32.249  34.103  1.00  0.00     0.049 A 
ATOM     40  H   UNL A   1      39.910  31.041  32.577  1.00  0.00     0.167 HD
ATOM     41  C   UNL A   1      41.150  28.353  29.340  1.00  0.00     0.037 A 
ATOM     42  H   UNL A   1      39.210  28.998  27.399  1.00  0.00     0.065 H 
ATOM     43  H   UNL A   1      37.756  33.827  34.787  1.00  0.00     0.065 H 
ATOM     44  C   UNL A   1      39.907  32.015  35.199  1.00  0.00     0.037 A 
ATOM     45  C   UNL A   1      42.077  28.129  30.422  1.00  0.00     0.049 A 
ATOM     46  C   UNL A   1      41.010  30.999  35.118  1.00  0.00     0.074 A 
ATOM     47  C   UNL A   1      43.198  27.316  30.439  1.00  0.00    -0.036 A 
ATOM     48  N   UNL A   1      41.981  28.702  31.681  1.00  0.00    -0.354 N 
ATOM     49  N   UNL A   1      41.403  30.288  34.089  1.00  0.00    -0.248 NA
ATOM     50  C   UNL A   1      41.767  30.744  36.350  1.00  0.00    -0.034 C 
ATOM     51  C   UNL A   1      43.737  27.342  31.728  1.00  0.00    -0.036 A 
ATOM     52  H   UNL A   1      43.570  26.782  29.637  1.00  0.00     0.065 H 
ATOM     53  C   UNL A   1      42.992  28.220  32.498  1.00  0.00     0.049 A 
ATOM     54  H   UNL A   1      41.297  29.355  31.955  1.00  0.00     0.167 HD
ATOM     55  C   UNL A   1      42.458  29.512  34.545  1.00  0.00     0.074 A 
ATOM     56  C   UNL A   1      42.667  29.865  35.934  1.00  0.00    -0.034 C 
ATOM     57  H   UNL A   1      41.635  31.146  37.291  1.00  0.00     0.065 H 
ATOM     58  H   UNL A   1      44.554  26.799  32.050  1.00  0.00     0.065 H 
ATOM     59  C   UNL A   1      43.181  28.580  33.879  1.00  0.00     0.037 A 
ATOM     60  H   UNL A   1      43.420  29.482  36.525  1.00  0.00     0.065 H 
BRANCH  41  61
ATOM     61  C   UNL A   1      41.335  27.536  28.095  1.00  0.00     0.064 A 
ATOM     62  C   UNL A   1      42.141  27.975  27.035  1.00  0.00     0.173 A 
ATOM     63  C   UNL A   1      40.791  26.244  28.015  1.00  0.00     0.173 A 
ATOM     64  F   UNL A   1      42.680  29.202  27.059  1.00  0.00    -0.203 F 
ATOM     65  C   UNL A   1      42.393  27.150  25.940  1.00  0.00     0.198 A 
ATOM     66  C   UNL A   1      41.065  25.414  26.932  1.00  0.00     0.198 A 
ATOM     67  F   UNL A   1      40.020  25.774  29.007  1.00  0.00    -0.203 F 
ATOM     68  F   UNL A   1      43.153  27.596  24.930  1.00  0.00    -0.200 F 
ATOM     69  C   UNL A   1      41.866  25.868  25.895  1.00  0.00     0.200 A 
ATOM     70  F   UNL A   1      40.568  24.170  26.899  1.00  0.00    -0.200 F 
ATOM     71  F   UNL A   1      42.132  25.068  24.853  1.00  0.00    -0.200 F 
ENDBRANCH  41  61
BRANCH  44  72
ATOM     72  C   UNL A   1      39.597  32.711  36.476  1.00  0.00     0.064 A 
ATOM     73  C   UNL A   1      38.586  32.250  37.329  1.00  0.00     0.173 A 
ATOM     74  C   UNL A   1      40.291  33.871  36.855  1.00  0.00     0.173 A 
ATOM     75  F   UNL A   1      37.883  31.155  37.002  1.00  0.00    -0.203 F 
ATOM     76  C   UNL A   1      38.255  32.942  38.491  1.00  0.00     0.198 A 
ATOM     77  C   UNL A   1      39.987  34.539  38.038  1.00  0.00     0.198 A 
ATOM     78  F   UNL A   1      41.274  34.352  36.079  1.00  0.00    -0.203 F 
ATOM     79  F   UNL A   1      37.239  32.518  39.254  1.00  0.00    -0.200 F 
ATOM     80  C   UNL A   1      38.959  34.083  38.848  1.00  0.00     0.200 A 
ATOM     81  F   UNL A   1      40.683  35.628  38.387  1.00  0.00    -0.200 F 
ATOM     82  F   UNL A   1      38.638  34.749  39.965  1.00  0.00    -0.200 F 
ENDBRANCH  44  72
BRANCH  59  83
ATOM     83  C   UNL A   1      44.270  27.888  34.645  1.00  0.00     0.064 A 
ATOM     84  C   UNL A   1      44.044  26.663  35.292  1.00  0.00     0.173 A 
ATOM     85  C   UNL A   1      45.561  28.434  34.703  1.00  0.00     0.173 A 
ATOM     86  F   UNL A   1      42.821  26.111  35.282  1.00  0.00    -0.203 F 
ATOM     87  C   UNL A   1      45.064  26.025  35.991  1.00  0.00     0.198 A 
ATOM     88  C   UNL A   1      46.587  27.775  35.374  1.00  0.00     0.198 A 
ATOM     89  F   UNL A   1      45.830  29.600  34.097  1.00  0.00    -0.203 F 
ATOM     90  F   UNL A   1      44.811  24.884  36.646  1.00  0.00    -0.200 F 
ATOM     91  C   UNL A   1      46.336  26.576  36.023  1.00  0.00     0.200 A 
ATOM     92  F   UNL A   1      47.819  28.301  35.392  1.00  0.00    -0.200 F 
ATOM     93  F   UNL A   1      47.319  25.955  36.688  1.00  0.00    -0.200 F 
ENDBRANCH  59  83
ENDBRANCH  24  27
ENDBRANCH  15  17
ENDBRANCH  10  13
ENDBRANCH   7  10
ENDBRANCH   4   7
ENDBRANCH   1   4
BRANCH   1  94
ATOM     94  C   UNL A   1      31.411  28.381  26.357  1.00  0.00    -0.036 C 
ATOM     95  H   UNL A   1      31.143  28.327  25.322  1.00  0.00     0.028 H 
ATOM     96  H   UNL A   1      30.568  28.314  27.012  1.00  0.00     0.028 H 
BRANCH  94  97
ATOM     97  C   UNL A   1      32.305  27.187  26.680  1.00  0.00     0.018 C 
ATOM     98  H   UNL A   1      32.861  27.399  27.568  1.00  0.00     0.049 H 
ATOM     99  H   UNL A   1      32.961  27.024  25.850  1.00  0.00     0.049 H 
BRANCH  97 100
ATOM    100  N   UNL A   1      31.524  25.981  26.888  1.00  0.00    -0.352 N 
ATOM    101  C   UNL A   1      31.611  24.785  26.223  1.00  0.00     0.255 C 
ATOM    102  H   UNL A   1      30.845  26.028  27.598  1.00  0.00     0.163 HD
ATOM    103  O   UNL A   1      30.696  23.969  26.296  1.00  0.00    -0.269 OA
BRANCH 101 104
ATOM    104  C   UNL A   1      32.796  24.482  25.403  1.00  0.00     0.082 A 
ATOM    105  C   UNL A   1      33.944  23.952  26.006  1.00  0.00    -0.044 A 
ATOM    106  C   UNL A   1      32.763  24.664  24.017  1.00  0.00     0.143 A 
ATOM    107  C   UNL A   1      35.067  23.699  25.230  1.00  0.00    -0.043 A 
ATOM    108  H   UNL A   1      33.956  23.751  27.018  1.00  0.00     0.063 H 
ATOM    109  N   UNL A   1      33.870  24.422  23.269  1.00  0.00    -0.238 NA
ATOM    110  C   UNL A   1      34.983  23.958  23.878  1.00  0.00     0.029 A 
ATOM    111  H   UNL A   1      35.934  23.329  25.651  1.00  0.00     0.064 H 
ATOM    112  H   UNL A   1      35.821  23.788  23.297  1.00  0.00     0.084 H 
BRANCH 106 113
ATOM    113  N   UNL A   1      31.623  25.203  23.381  1.00  0.00    -0.340 N 
ATOM    114  H   UNL A   1      30.929  24.564  23.098  1.00  0.00     0.168 HD
BRANCH 113 115
ATOM    115  C   UNL A   1      31.384  26.562  23.110  1.00  0.00     0.040 A 
ATOM    116  C   UNL A   1      32.460  27.435  22.939  1.00  0.00    -0.039 A 
ATOM    117  C   UNL A   1      30.084  27.084  23.109  1.00  0.00    -0.026 A 
ATOM    118  C   UNL A   1      32.240  28.792  22.692  1.00  0.00    -0.060 A 
ATOM    119  H   UNL A   1      33.425  27.076  22.995  1.00  0.00     0.064 H 
ATOM    120  C   UNL A   1      29.845  28.446  22.882  1.00  0.00     0.058 A 
ATOM    121  H   UNL A   1      29.286  26.452  23.280  1.00  0.00     0.065 H 
ATOM    122  C   UNL A   1      30.939  29.294  22.658  1.00  0.00    -0.050 A 
ATOM    123  H   UNL A   1      33.041  29.424  22.534  1.00  0.00     0.062 H 
ATOM    124  H   UNL A   1      30.780  30.296  22.468  1.00  0.00     0.063 H 
BRANCH 120 125
ATOM    125  C   UNL A   1      28.442  28.989  22.873  1.00  0.00     0.416 C 
ATOM    126  F   UNL A   1      27.531  28.083  23.330  1.00  0.00    -0.166 F 
ATOM    127  F   UNL A   1      28.300  30.087  23.668  1.00  0.00    -0.166 F 
ATOM    128  F   UNL A   1      28.000  29.364  21.640  1.00  0.00    -0.166 F 
ENDBRANCH 120 125
ENDBRANCH 113 115
ENDBRANCH 106 113
ENDBRANCH 101 104
ENDBRANCH  97 100
ENDBRANCH  94  97
ENDBRANCH   1  94
TORSDOF 16
ENDMDL
MODEL 10
REMARK VINA RESULT:     -11.9      5.910     10.280
REMARK SMILES O=C(NCCCCCCNC(=O)c1cccnc1Nc1cccc(C(F)(F)F)c1)c1ccc(-c2c3nc(c(-c4c(F)c(F)c(F)c(F)c4F)c4ccc([nH]4)c(-c4c(F)c(F)c(F)c(F)c4F)c4nc(c(-c5c(F)c(F)c(F)c(F)c5F)c5ccc2[nH]5)C=C4)C=C3)cc1
REMARK SMILES IDX 7 1 6 4 5 7 4 10 3 13 1 14 2 15 30 17 31 18 92 19 32 20
REMARK SMILES IDX 91 22 33 24 34 27 35 28 85 29 36 30 90 31 84 32 86 33 37 34
REMARK SMILES IDX 89 35 83 37 82 39 38 41 70 44 50 45 69 46 51 47 54 48 68 49
REMARK SMILES IDX 87 50 52 51 53 53 67 55 88 56 55 59 39 61 40 62 48 63 41 64
REMARK SMILES IDX 42 65 46 66 49 67 43 68 44 69 47 70 45 71 71 72 72 73 80 74
REMARK SMILES IDX 73 75 74 76 78 77 81 78 75 79 76 80 79 81 77 82 56 83 57 84
REMARK SMILES IDX 65 85 58 86 59 87 63 88 66 89 60 90 61 91 64 92 62 93 8 94
REMARK SMILES IDX 9 97 10 100 11 101 12 103 13 104 14 105 18 106 15 107 17 109
REMARK SMILES IDX 16 110 19 113 20 115 21 116 29 117 22 118 24 120 23 122
REMARK SMILES IDX 25 125 26 126 27 127 28 128
REMARK H PARENT 7 2 7 3 6 5 6 6 5 8 5 9 4 11 4 12 3 16 31 21 92 23 32 25 91 26
REMARK H PARENT 90 36 84 38 86 40 89 42 83 43 51 52 54 54 87 57 52 58 88 60
REMARK H PARENT 8 95 8 96 9 98 9 99 10 102 14 108 15 111 16 112 19 114 21 119
REMARK H PARENT 29 121 22 123 23 124
REMARK Flexibility Score: inf
ROOT
ATOM      1  C   UNL A   1      37.218  22.208  25.174  1.00  0.00    -0.052 C 
ATOM      2  H   UNL A   1      37.247  22.690  24.218  1.00  0.00     0.027 H 
ATOM      3  H   UNL A   1      38.165  22.185  25.670  1.00  0.00     0.027 H 
ENDROOT
BRANCH   1   4
ATOM      4  C   UNL A   1      36.817  20.746  24.956  1.00  0.00    -0.052 C 
ATOM      5  H   UNL A   1      36.138  20.469  25.734  1.00  0.00     0.027 H 
ATOM      6  H   UNL A   1      36.386  20.696  23.977  1.00  0.00     0.027 H 
BRANCH   4   7
ATOM      7  C   UNL A   1      37.976  19.750  24.963  1.00  0.00    -0.036 C 
ATOM      8  H   UNL A   1      37.634  18.840  25.408  1.00  0.00     0.028 H 
ATOM      9  H   UNL A   1      38.280  19.627  23.944  1.00  0.00     0.028 H 
BRANCH   7  10
ATOM     10  C   UNL A   1      39.203  20.223  25.728  1.00  0.00     0.018 C 
ATOM     11  H   UNL A   1      39.637  21.049  25.206  1.00  0.00     0.049 H 
ATOM     12  H   UNL A   1      38.889  20.504  26.712  1.00  0.00     0.049 H 
BRANCH  10  13
ATOM     13  N   UNL A   1      40.203  19.176  25.861  1.00  0.00    -0.352 N 
ATOM     14  O   UNL A   1      42.297  18.337  25.985  1.00  0.00    -0.269 OA
ATOM     15  C   UNL A   1      41.549  19.306  26.083  1.00  0.00     0.251 C 
ATOM     16  H   UNL A   1      39.869  18.253  25.782  1.00  0.00     0.163 HD
BRANCH  15  17
ATOM     17  C   UNL A   1      42.097  20.631  26.436  1.00  0.00     0.039 A 
ATOM     18  C   UNL A   1      42.537  21.499  25.431  1.00  0.00    -0.049 A 
ATOM     19  C   UNL A   1      42.157  21.015  27.777  1.00  0.00    -0.049 A 
ATOM     20  C   UNL A   1      43.131  22.706  25.774  1.00  0.00    -0.053 A 
ATOM     21  H   UNL A   1      42.419  21.243  24.439  1.00  0.00     0.063 H 
ATOM     22  C   UNL A   1      42.672  22.269  28.115  1.00  0.00    -0.053 A 
ATOM     23  H   UNL A   1      41.823  20.375  28.516  1.00  0.00     0.063 H 
ATOM     24  C   UNL A   1      43.163  23.122  27.114  1.00  0.00    -0.014 A 
ATOM     25  H   UNL A   1      43.550  23.299  25.040  1.00  0.00     0.063 H 
ATOM     26  H   UNL A   1      42.691  22.568  29.102  1.00  0.00     0.063 H 
BRANCH  24  27
ATOM     27  C   UNL A   1      43.570  24.513  27.425  1.00  0.00     0.031 A 
ATOM     28  C   UNL A   1      45.011  24.923  27.463  1.00  0.00     0.074 A 
ATOM     29  C   UNL A   1      42.594  25.406  27.688  1.00  0.00     0.049 A 
ATOM     30  N   UNL A   1      45.523  26.092  27.754  1.00  0.00    -0.248 NA
ATOM     31  C   UNL A   1      46.012  23.894  27.142  1.00  0.00    -0.034 C 
ATOM     32  C   UNL A   1      41.158  25.103  27.697  1.00  0.00    -0.036 A 
ATOM     33  N   UNL A   1      42.650  26.739  28.000  1.00  0.00    -0.354 N 
ATOM     34  C   UNL A   1      46.900  25.938  27.672  1.00  0.00     0.074 A 
ATOM     35  C   UNL A   1      47.149  24.558  27.315  1.00  0.00    -0.034 C 
ATOM     36  H   UNL A   1      45.868  22.912  26.857  1.00  0.00     0.065 H 
ATOM     37  C   UNL A   1      40.472  26.219  27.974  1.00  0.00    -0.036 A 
ATOM     38  H   UNL A   1      40.744  24.175  27.518  1.00  0.00     0.065 H 
ATOM     39  C   UNL A   1      41.417  27.296  28.239  1.00  0.00     0.049 A 
ATOM     40  H   UNL A   1      43.492  27.248  28.048  1.00  0.00     0.167 HD
ATOM     41  C   UNL A   1      47.858  26.872  27.878  1.00  0.00     0.037 A 
ATOM     42  H   UNL A   1      48.089  24.143  27.207  1.00  0.00     0.065 H 
ATOM     43  H   UNL A   1      39.444  26.302  27.996  1.00  0.00     0.065 H 
ATOM     44  C   UNL A   1      41.082  28.525  28.668  1.00  0.00     0.037 A 
ATOM     45  C   UNL A   1      47.589  28.248  28.215  1.00  0.00     0.049 A 
ATOM     46  C   UNL A   1      42.177  29.521  28.926  1.00  0.00     0.074 A 
ATOM     47  C   UNL A   1      48.491  29.289  28.365  1.00  0.00    -0.036 A 
ATOM     48  N   UNL A   1      46.331  28.771  28.473  1.00  0.00    -0.354 N 
ATOM     49  N   UNL A   1      43.471  29.385  28.765  1.00  0.00    -0.248 NA
ATOM     50  C   UNL A   1      41.768  30.837  29.434  1.00  0.00    -0.034 C 
ATOM     51  C   UNL A   1      47.787  30.421  28.782  1.00  0.00    -0.036 A 
ATOM     52  H   UNL A   1      49.509  29.236  28.197  1.00  0.00     0.065 H 
ATOM     53  C   UNL A   1      46.439  30.105  28.832  1.00  0.00     0.049 A 
ATOM     54  H   UNL A   1      45.486  28.269  28.411  1.00  0.00     0.167 HD
ATOM     55  C   UNL A   1      44.029  30.598  29.141  1.00  0.00     0.074 A 
ATOM     56  C   UNL A   1      42.930  31.469  29.503  1.00  0.00    -0.034 C 
ATOM     57  H   UNL A   1      40.824  31.179  29.673  1.00  0.00     0.065 H 
ATOM     58  H   UNL A   1      48.202  31.338  29.014  1.00  0.00     0.065 H 
ATOM     59  C   UNL A   1      45.334  30.955  29.194  1.00  0.00     0.037 A 
ATOM     60  H   UNL A   1      43.038  32.457  29.779  1.00  0.00     0.065 H 
BRANCH  41  61
ATOM     61  C   UNL A   1      49.297  26.458  27.772  1.00  0.00     0.064 A 
ATOM     62  C   UNL A   1      49.948  26.352  26.535  1.00  0.00     0.173 A 
ATOM     63  C   UNL A   1      50.064  26.281  28.935  1.00  0.00     0.173 A 
ATOM     64  F   UNL A   1      49.260  26.507  25.394  1.00  0.00    -0.203 F 
ATOM     65  C   UNL A   1      51.313  26.081  26.466  1.00  0.00     0.198 A 
ATOM     66  C   UNL A   1      51.433  26.035  28.863  1.00  0.00     0.198 A 
ATOM     67  F   UNL A   1      49.491  26.380  30.144  1.00  0.00    -0.203 F 
ATOM     68  F   UNL A   1      51.912  25.967  25.272  1.00  0.00    -0.200 F 
ATOM     69  C   UNL A   1      52.056  25.935  27.629  1.00  0.00     0.200 A 
ATOM     70  F   UNL A   1      52.151  25.910  29.987  1.00  0.00    -0.200 F 
ATOM     71  F   UNL A   1      53.374  25.701  27.559  1.00  0.00    -0.200 F 
ENDBRANCH  41  61
BRANCH  44  72
ATOM     72  C   UNL A   1      39.659  28.864  28.933  1.00  0.00     0.064 A 
ATOM     73  C   UNL A   1      39.094  28.689  30.202  1.00  0.00     0.173 A 
ATOM     74  C   UNL A   1      38.826  29.344  27.909  1.00  0.00     0.173 A 
ATOM     75  F   UNL A   1      39.844  28.217  31.209  1.00  0.00    -0.203 F 
ATOM     76  C   UNL A   1      37.744  28.945  30.429  1.00  0.00     0.198 A 
ATOM     77  C   UNL A   1      37.486  29.639  28.148  1.00  0.00     0.198 A 
ATOM     78  F   UNL A   1      39.317  29.537  26.676  1.00  0.00    -0.203 F 
ATOM     79  F   UNL A   1      37.213  28.706  31.636  1.00  0.00    -0.200 F 
ATOM     80  C   UNL A   1      36.942  29.425  29.404  1.00  0.00     0.200 A 
ATOM     81  F   UNL A   1      36.723  30.121  27.158  1.00  0.00    -0.200 F 
ATOM     82  F   UNL A   1      35.643  29.669  29.623  1.00  0.00    -0.200 F 
ENDBRANCH  44  72
BRANCH  59  83
ATOM     83  C   UNL A   1      45.640  32.351  29.651  1.00  0.00     0.064 A 
ATOM     84  C   UNL A   1      45.677  33.425  28.750  1.00  0.00     0.173 A 
ATOM     85  C   UNL A   1      45.864  32.625  31.009  1.00  0.00     0.173 A 
ATOM     86  F   UNL A   1      45.490  33.211  27.438  1.00  0.00    -0.203 F 
ATOM     87  C   UNL A   1      45.952  34.717  29.186  1.00  0.00     0.198 A 
ATOM     88  C   UNL A   1      46.103  33.924  31.447  1.00  0.00     0.198 A 
ATOM     89  F   UNL A   1      45.835  31.634  31.913  1.00  0.00    -0.203 F 
ATOM     90  F   UNL A   1      46.035  35.718  28.299  1.00  0.00    -0.200 F 
ATOM     91  C   UNL A   1      46.155  34.967  30.535  1.00  0.00     0.200 A 
ATOM     92  F   UNL A   1      46.285  34.166  32.752  1.00  0.00    -0.200 F 
ATOM     93  F   UNL A   1      46.409  36.214  30.955  1.00  0.00    -0.200 F 
ENDBRANCH  59  83
ENDBRANCH  24  27
ENDBRANCH  15  17
ENDBRANCH  10  13
ENDBRANCH   7  10
ENDBRANCH   4   7
ENDBRANCH   1   4
BRANCH   1  94
ATOM     94  C   UNL A   1      36.282  23.013  26.083  1.00  0.00    -0.036 C 
ATOM     95  H   UNL A   1      36.833  23.307  26.952  1.00  0.00     0.028 H 
ATOM     96  H   UNL A   1      35.454  22.375  26.307  1.00  0.00     0.028 H 
BRANCH  94  97
ATOM     97  C   UNL A   1      35.698  24.270  25.443  1.00  0.00     0.018 C 
ATOM     98  H   UNL A   1      36.402  25.069  25.538  1.00  0.00     0.049 H 
ATOM     99  H   UNL A   1      34.782  24.507  25.943  1.00  0.00     0.049 H 
BRANCH  97 100
ATOM    100  N   UNL A   1      35.408  24.062  24.035  1.00  0.00    -0.352 N 
ATOM    101  C   UNL A   1      34.225  23.683  23.456  1.00  0.00     0.255 C 
ATOM    102  H   UNL A   1      36.158  24.213  23.417  1.00  0.00     0.163 HD
ATOM    103  O   UNL A   1      34.208  23.256  22.305  1.00  0.00    -0.269 OA
BRANCH 101 104
ATOM    104  C   UNL A   1      32.968  23.772  24.220  1.00  0.00     0.082 A 
ATOM    105  C   UNL A   1      32.178  24.925  24.131  1.00  0.00    -0.044 A 
ATOM    106  C   UNL A   1      32.530  22.688  24.987  1.00  0.00     0.143 A 
ATOM    107  C   UNL A   1      31.012  25.011  24.880  1.00  0.00    -0.043 A 
ATOM    108  H   UNL A   1      32.460  25.704  23.516  1.00  0.00     0.063 H 
ATOM    109  N   UNL A   1      31.392  22.788  25.723  1.00  0.00    -0.238 NA
ATOM    110  C   UNL A   1      30.670  23.928  25.662  1.00  0.00     0.029 A 
ATOM    111  H   UNL A   1      30.422  25.858  24.852  1.00  0.00     0.064 H 
ATOM    112  H   UNL A   1      29.813  23.992  26.234  1.00  0.00     0.084 H 
BRANCH 106 113
ATOM    113  N   UNL A   1      33.307  21.515  25.102  1.00  0.00    -0.340 N 
ATOM    114  H   UNL A   1      34.062  21.542  25.734  1.00  0.00     0.168 HD
BRANCH 113 115
ATOM    115  C   UNL A   1      33.110  20.313  24.400  1.00  0.00     0.040 A 
ATOM    116  C   UNL A   1      32.391  20.318  23.203  1.00  0.00    -0.039 A 
ATOM    117  C   UNL A   1      33.534  19.087  24.928  1.00  0.00    -0.026 A 
ATOM    118  C   UNL A   1      32.167  19.129  22.505  1.00  0.00    -0.060 A 
ATOM    119  H   UNL A   1      32.021  21.206  22.831  1.00  0.00     0.064 H 
ATOM    120  C   UNL A   1      33.301  17.881  24.251  1.00  0.00     0.058 A 
ATOM    121  H   UNL A   1      34.027  19.070  25.834  1.00  0.00     0.065 H 
ATOM    122  C   UNL A   1      32.624  17.917  23.023  1.00  0.00    -0.050 A 
ATOM    123  H   UNL A   1      31.662  19.147  21.605  1.00  0.00     0.062 H 
ATOM    124  H   UNL A   1      32.464  17.042  22.501  1.00  0.00     0.063 H 
BRANCH 120 125
ATOM    125  C   UNL A   1      33.773  16.573  24.826  1.00  0.00     0.416 C 
ATOM    126  F   UNL A   1      35.125  16.424  24.738  1.00  0.00    -0.166 F 
ATOM    127  F   UNL A   1      33.473  16.445  26.150  1.00  0.00    -0.166 F 
ATOM    128  F   UNL A   1      33.242  15.475  24.217  1.00  0.00    -0.166 F 
ENDBRANCH 120 125
ENDBRANCH 113 115
ENDBRANCH 106 113
ENDBRANCH 101 104
ENDBRANCH  97 100
ENDBRANCH  94  97
ENDBRANCH   1  94
TORSDOF 16
ENDMDL
