MODEL 1
REMARK VINA RESULT:     -11.4      0.000      0.000
REMARK SMILES Cc1cc(C)c2c(OCCCC(=O)NCCCCCCNC(=O)c3ccc(-c4c5nc(c(-c6c(F)c(F)c(F)c(F)c6F)c6ccc([nH]6)c(-c6c(F)c(F)c(F)c(F)c6F)c6nc(c(-c7c(F)c(F)c(F)c(F)c7F)c7ccc4[nH]7)C=C6)C=C5)cc3)nsc2n1
REMARK SMILES IDX 16 1 15 4 14 7 12 8 13 9 11 11 10 14 9 17 8 20 7 21 2 22
REMARK SMILES IDX 3 23 90 24 4 25 89 27 6 28 88 29 87 30 1 31 5 35 17 39 18 42
REMARK SMILES IDX 19 45 20 48 21 51 22 52 23 54 24 55 25 56 86 57 26 58 85 60
REMARK SMILES IDX 27 62 28 65 29 66 79 67 30 68 84 69 78 70 80 71 31 72 83 73
REMARK SMILES IDX 77 75 76 77 32 79 64 82 44 83 63 84 45 85 48 86 62 87 81 88
REMARK SMILES IDX 46 89 47 91 61 93 82 94 49 97 33 99 34 100 42 101 35 102
REMARK SMILES IDX 36 103 40 104 43 105 37 106 38 107 41 108 39 109 65 110
REMARK SMILES IDX 66 111 74 112 67 113 68 114 72 115 75 116 69 117 70 118
REMARK SMILES IDX 73 119 71 120 50 121 51 122 59 123 52 124 53 125 57 126
REMARK SMILES IDX 60 127 54 128 55 129 58 130 56 131
REMARK H PARENT 16 2 16 3 15 5 15 6 14 10 11 12 11 13 10 15 10 16 9 18 9 19
REMARK H PARENT 3 26 1 32 1 33 1 34 5 36 5 37 5 38 17 40 17 41 18 43 18 44
REMARK H PARENT 19 46 19 47 20 49 20 50 21 53 25 59 86 61 26 63 85 64 84 74
REMARK H PARENT 78 76 80 78 83 80 77 81 45 90 48 92 81 95 46 96 82 98
REMARK Flexibility Score: inf
ROOT
ATOM      1  C   UNL A   1      39.183  21.734  26.143  1.00  0.00    -0.036 C 
ATOM      2  H   UNL A   1      38.992  21.273  25.196  1.00  0.00     0.028 H 
ATOM      3  H   UNL A   1      38.804  21.195  26.985  1.00  0.00     0.028 H 
ENDROOT
BRANCH   1   4
ATOM      4  C   UNL A   1      38.434  23.116  26.160  1.00  0.00     0.017 C 
ATOM      5  H   UNL A   1      38.823  23.692  26.974  1.00  0.00     0.049 H 
ATOM      6  H   UNL A   1      38.606  23.559  25.201  1.00  0.00     0.049 H 
BRANCH   4   7
ATOM      7  N   UNL A   1      36.887  23.032  26.325  1.00  0.00    -0.356 N 
ATOM      8  C   UNL A   1      35.601  23.277  25.904  1.00  0.00     0.220 C 
ATOM      9  O   UNL A   1      34.814  22.705  26.695  1.00  0.00    -0.275 OA
ATOM     10  H   UNL A   1      36.767  22.553  27.177  1.00  0.00     0.163 HD
BRANCH   8  11
ATOM     11  C   UNL A   1      34.850  23.925  24.585  1.00  0.00     0.030 C 
ATOM     12  H   UNL A   1      35.639  23.929  23.864  1.00  0.00     0.037 H 
ATOM     13  H   UNL A   1      33.956  23.358  24.741  1.00  0.00     0.037 H 
BRANCH  11  14
ATOM     14  C   UNL A   1      34.032  25.269  24.187  1.00  0.00    -0.010 C 
ATOM     15  H   UNL A   1      33.362  25.396  25.011  1.00  0.00     0.031 H 
ATOM     16  H   UNL A   1      34.895  25.828  23.894  1.00  0.00     0.031 H 
BRANCH  14  17
ATOM     17  C   UNL A   1      33.141  25.702  22.931  1.00  0.00     0.090 C 
ATOM     18  H   UNL A   1      33.528  26.651  22.624  1.00  0.00     0.071 H 
ATOM     19  H   UNL A   1      33.233  24.824  22.327  1.00  0.00     0.071 H 
BRANCH  17  20
ATOM     20  O   UNL A   1      31.713  25.858  22.930  1.00  0.00    -0.477 OA
BRANCH  20  21
ATOM     21  C   UNL A   1      31.080  27.009  23.276  1.00  0.00     0.235 A 
ATOM     22  C   UNL A   1      31.873  29.564  26.286  1.00  0.00     0.039 A 
ATOM     23  C   UNL A   1      31.762  28.231  26.672  1.00  0.00    -0.037 A 
ATOM     24  N   UNL A   1      31.340  30.037  25.140  1.00  0.00    -0.240 NA
ATOM     25  C   UNL A   1      31.186  27.268  25.817  1.00  0.00    -0.034 A 
ATOM     26  H   UNL A   1      32.108  27.941  27.600  1.00  0.00     0.064 H 
ATOM     27  C   UNL A   1      30.975  29.055  24.290  1.00  0.00     0.147 A 
ATOM     28  C   UNL A   1      31.052  27.693  24.513  1.00  0.00     0.078 A 
ATOM     29  S   UNL A   1      30.299  29.260  22.741  1.00  0.00    -0.012 S 
ATOM     30  N   UNL A   1      30.538  27.672  22.253  1.00  0.00    -0.153 NA
BRANCH  22  31
ATOM     31  C   UNL A   1      32.699  30.505  27.127  1.00  0.00    -0.022 C 
ATOM     32  H   UNL A   1      32.090  31.324  27.449  1.00  0.00     0.030 H 
ATOM     33  H   UNL A   1      33.519  30.876  26.547  1.00  0.00     0.030 H 
ATOM     34  H   UNL A   1      33.074  29.982  27.981  1.00  0.00     0.030 H 
ENDBRANCH  22  31
BRANCH  25  35
ATOM     35  C   UNL A   1      30.766  25.872  26.084  1.00  0.00    -0.039 C 
ATOM     36  H   UNL A   1      31.086  25.243  25.280  1.00  0.00     0.028 H 
ATOM     37  H   UNL A   1      29.700  25.830  26.168  1.00  0.00     0.028 H 
ATOM     38  H   UNL A   1      31.209  25.535  26.998  1.00  0.00     0.028 H 
ENDBRANCH  25  35
ENDBRANCH  20  21
ENDBRANCH  17  20
ENDBRANCH  14  17
ENDBRANCH  11  14
ENDBRANCH   8  11
ENDBRANCH   4   7
ENDBRANCH   1   4
BRANCH   1  39
ATOM     39  C   UNL A   1      40.708  21.779  26.341  1.00  0.00    -0.052 C 
ATOM     40  H   UNL A   1      40.970  22.794  26.552  1.00  0.00     0.027 H 
ATOM     41  H   UNL A   1      41.105  21.374  25.434  1.00  0.00     0.027 H 
BRANCH  39  42
ATOM     42  C   UNL A   1      41.321  20.905  27.454  1.00  0.00    -0.052 C 
ATOM     43  H   UNL A   1      40.508  20.425  27.958  1.00  0.00     0.027 H 
ATOM     44  H   UNL A   1      41.903  21.597  28.027  1.00  0.00     0.027 H 
BRANCH  42  45
ATOM     45  C   UNL A   1      42.332  19.802  27.076  1.00  0.00    -0.036 C 
ATOM     46  H   UNL A   1      42.031  18.902  27.572  1.00  0.00     0.028 H 
ATOM     47  H   UNL A   1      43.287  20.177  27.380  1.00  0.00     0.028 H 
BRANCH  45  48
ATOM     48  C   UNL A   1      42.471  19.489  25.590  1.00  0.00     0.018 C 
ATOM     49  H   UNL A   1      42.005  20.275  25.034  1.00  0.00     0.049 H 
ATOM     50  H   UNL A   1      42.004  18.540  25.427  1.00  0.00     0.049 H 
BRANCH  48  51
ATOM     51  N   UNL A   1      43.854  19.365  25.142  1.00  0.00    -0.352 N 
ATOM     52  C   UNL A   1      44.783  20.349  24.853  1.00  0.00     0.251 C 
ATOM     53  H   UNL A   1      44.174  18.441  25.030  1.00  0.00     0.163 HD
ATOM     54  O   UNL A   1      45.768  20.086  24.192  1.00  0.00    -0.269 OA
BRANCH  52  55
ATOM     55  C   UNL A   1      44.574  21.729  25.347  1.00  0.00     0.039 A 
ATOM     56  C   UNL A   1      43.772  22.618  24.625  1.00  0.00    -0.049 A 
ATOM     57  C   UNL A   1      45.215  22.153  26.509  1.00  0.00    -0.049 A 
ATOM     58  C   UNL A   1      43.575  23.903  25.123  1.00  0.00    -0.053 A 
ATOM     59  H   UNL A   1      43.333  22.326  23.738  1.00  0.00     0.063 H 
ATOM     60  C   UNL A   1      44.911  23.369  27.076  1.00  0.00    -0.053 A 
ATOM     61  H   UNL A   1      45.926  21.548  26.949  1.00  0.00     0.063 H 
ATOM     62  C   UNL A   1      44.130  24.263  26.365  1.00  0.00    -0.014 A 
ATOM     63  H   UNL A   1      43.025  24.589  24.583  1.00  0.00     0.063 H 
ATOM     64  H   UNL A   1      45.260  23.610  28.018  1.00  0.00     0.063 H 
BRANCH  62  65
ATOM     65  C   UNL A   1      43.766  25.529  26.986  1.00  0.00     0.031 A 
ATOM     66  C   UNL A   1      44.701  26.626  26.638  1.00  0.00     0.074 A 
ATOM     67  C   UNL A   1      42.636  25.750  27.691  1.00  0.00     0.049 A 
ATOM     68  N   UNL A   1      45.611  27.126  27.402  1.00  0.00    -0.248 NA
ATOM     69  C   UNL A   1      44.775  27.085  25.243  1.00  0.00    -0.034 C 
ATOM     70  C   UNL A   1      41.482  24.865  27.871  1.00  0.00    -0.036 A 
ATOM     71  N   UNL A   1      42.259  26.875  28.368  1.00  0.00    -0.354 N 
ATOM     72  C   UNL A   1      46.240  28.116  26.654  1.00  0.00     0.074 A 
ATOM     73  C   UNL A   1      45.820  27.915  25.294  1.00  0.00    -0.034 C 
ATOM     74  H   UNL A   1      44.179  26.834  24.439  1.00  0.00     0.065 H 
ATOM     75  C   UNL A   1      40.459  25.552  28.430  1.00  0.00    -0.036 A 
ATOM     76  H   UNL A   1      41.453  23.866  27.610  1.00  0.00     0.065 H 
ATOM     77  C   UNL A   1      40.937  26.870  28.807  1.00  0.00     0.049 A 
ATOM     78  H   UNL A   1      42.871  27.627  28.533  1.00  0.00     0.167 HD
ATOM     79  C   UNL A   1      46.828  29.167  27.289  1.00  0.00     0.037 A 
ATOM     80  H   UNL A   1      46.264  28.353  24.472  1.00  0.00     0.065 H 
ATOM     81  H   UNL A   1      39.499  25.200  28.566  1.00  0.00     0.065 H 
ATOM     82  C   UNL A   1      40.297  27.880  29.447  1.00  0.00     0.037 A 
ATOM     83  C   UNL A   1      46.995  28.866  28.693  1.00  0.00     0.049 A 
ATOM     84  C   UNL A   1      41.347  28.712  30.075  1.00  0.00     0.074 A 
ATOM     85  C   UNL A   1      47.749  27.986  29.438  1.00  0.00    -0.036 A 
ATOM     86  N   UNL A   1      45.954  29.273  29.488  1.00  0.00    -0.354 N 
ATOM     87  N   UNL A   1      42.096  28.308  31.062  1.00  0.00    -0.248 NA
ATOM     88  C   UNL A   1      41.829  29.884  29.360  1.00  0.00    -0.034 C 
ATOM     89  C   UNL A   1      46.944  27.651  30.568  1.00  0.00    -0.036 A 
ATOM     90  H   UNL A   1      48.698  27.641  29.223  1.00  0.00     0.065 H 
ATOM     91  C   UNL A   1      45.758  28.383  30.506  1.00  0.00     0.049 A 
ATOM     92  H   UNL A   1      45.424  30.090  29.345  1.00  0.00     0.167 HD
ATOM     93  C   UNL A   1      43.330  28.879  30.811  1.00  0.00     0.074 A 
ATOM     94  C   UNL A   1      43.062  29.958  29.865  1.00  0.00    -0.034 C 
ATOM     95  H   UNL A   1      41.355  30.483  28.665  1.00  0.00     0.065 H 
ATOM     96  H   UNL A   1      47.197  26.978  31.308  1.00  0.00     0.065 H 
ATOM     97  C   UNL A   1      44.475  28.222  31.159  1.00  0.00     0.037 A 
ATOM     98  H   UNL A   1      43.745  30.690  29.616  1.00  0.00     0.065 H 
BRANCH  79  99
ATOM     99  C   UNL A   1      46.791  30.602  26.797  1.00  0.00     0.064 A 
ATOM    100  C   UNL A   1      47.974  31.371  26.869  1.00  0.00     0.173 A 
ATOM    101  C   UNL A   1      45.609  31.341  26.572  1.00  0.00     0.173 A 
ATOM    102  F   UNL A   1      49.159  30.785  27.098  1.00  0.00    -0.203 F 
ATOM    103  C   UNL A   1      47.958  32.768  26.812  1.00  0.00     0.198 A 
ATOM    104  C   UNL A   1      45.604  32.731  26.467  1.00  0.00     0.198 A 
ATOM    105  F   UNL A   1      44.399  30.776  26.557  1.00  0.00    -0.203 F 
ATOM    106  F   UNL A   1      49.088  33.456  27.021  1.00  0.00    -0.200 F 
ATOM    107  C   UNL A   1      46.771  33.448  26.618  1.00  0.00     0.200 A 
ATOM    108  F   UNL A   1      44.438  33.373  26.303  1.00  0.00    -0.200 F 
ATOM    109  F   UNL A   1      46.742  34.787  26.626  1.00  0.00    -0.200 F 
ENDBRANCH  79  99
BRANCH  82 110
ATOM    110  C   UNL A   1      38.889  28.341  29.358  1.00  0.00     0.064 A 
ATOM    111  C   UNL A   1      38.112  28.510  30.521  1.00  0.00     0.173 A 
ATOM    112  C   UNL A   1      38.391  28.939  28.186  1.00  0.00     0.173 A 
ATOM    113  F   UNL A   1      38.525  27.997  31.690  1.00  0.00    -0.203 F 
ATOM    114  C   UNL A   1      36.947  29.285  30.525  1.00  0.00     0.198 A 
ATOM    115  C   UNL A   1      37.224  29.708  28.190  1.00  0.00     0.198 A 
ATOM    116  F   UNL A   1      39.081  28.876  27.038  1.00  0.00    -0.203 F 
ATOM    117  F   UNL A   1      36.286  29.494  31.673  1.00  0.00    -0.200 F 
ATOM    118  C   UNL A   1      36.515  29.900  29.363  1.00  0.00     0.200 A 
ATOM    119  F   UNL A   1      36.833  30.328  27.068  1.00  0.00    -0.200 F 
ATOM    120  F   UNL A   1      35.447  30.710  29.382  1.00  0.00    -0.200 F 
ENDBRANCH  82 110
BRANCH  97 121
ATOM    121  C   UNL A   1      44.363  27.121  32.176  1.00  0.00     0.064 A 
ATOM    122  C   UNL A   1      44.268  25.753  31.868  1.00  0.00     0.173 A 
ATOM    123  C   UNL A   1      44.494  27.472  33.527  1.00  0.00     0.173 A 
ATOM    124  F   UNL A   1      44.211  25.331  30.600  1.00  0.00    -0.203 F 
ATOM    125  C   UNL A   1      44.287  24.786  32.874  1.00  0.00     0.198 A 
ATOM    126  C   UNL A   1      44.551  26.503  34.524  1.00  0.00     0.198 A 
ATOM    127  F   UNL A   1      44.623  28.761  33.876  1.00  0.00    -0.203 F 
ATOM    128  F   UNL A   1      44.189  23.485  32.559  1.00  0.00    -0.200 F 
ATOM    129  C   UNL A   1      44.441  25.162  34.198  1.00  0.00     0.200 A 
ATOM    130  F   UNL A   1      44.744  26.872  35.797  1.00  0.00    -0.200 F 
ATOM    131  F   UNL A   1      44.511  24.230  35.160  1.00  0.00    -0.200 F 
ENDBRANCH  97 121
ENDBRANCH  62  65
ENDBRANCH  52  55
ENDBRANCH  48  51
ENDBRANCH  45  48
ENDBRANCH  42  45
ENDBRANCH  39  42
ENDBRANCH   1  39
TORSDOF 19
ENDMDL
MODEL 2
REMARK VINA RESULT:     -11.1      1.946      3.158
REMARK SMILES Cc1cc(C)c2c(OCCCC(=O)NCCCCCCNC(=O)c3ccc(-c4c5nc(c(-c6c(F)c(F)c(F)c(F)c6F)c6ccc([nH]6)c(-c6c(F)c(F)c(F)c(F)c6F)c6nc(c(-c7c(F)c(F)c(F)c(F)c7F)c7ccc4[nH]7)C=C6)C=C5)cc3)nsc2n1
REMARK SMILES IDX 16 1 15 4 14 7 12 8 13 9 11 11 10 14 9 17 8 20 7 21 2 22
REMARK SMILES IDX 3 23 90 24 4 25 89 27 6 28 88 29 87 30 1 31 5 35 17 39 18 42
REMARK SMILES IDX 19 45 20 48 21 51 22 52 23 54 24 55 25 56 86 57 26 58 85 60
REMARK SMILES IDX 27 62 28 65 29 66 79 67 30 68 84 69 78 70 80 71 31 72 83 73
REMARK SMILES IDX 77 75 76 77 32 79 64 82 44 83 63 84 45 85 48 86 62 87 81 88
REMARK SMILES IDX 46 89 47 91 61 93 82 94 49 97 33 99 34 100 42 101 35 102
REMARK SMILES IDX 36 103 40 104 43 105 37 106 38 107 41 108 39 109 65 110
REMARK SMILES IDX 66 111 74 112 67 113 68 114 72 115 75 116 69 117 70 118
REMARK SMILES IDX 73 119 71 120 50 121 51 122 59 123 52 124 53 125 57 126
REMARK SMILES IDX 60 127 54 128 55 129 58 130 56 131
REMARK H PARENT 16 2 16 3 15 5 15 6 14 10 11 12 11 13 10 15 10 16 9 18 9 19
REMARK H PARENT 3 26 1 32 1 33 1 34 5 36 5 37 5 38 17 40 17 41 18 43 18 44
REMARK H PARENT 19 46 19 47 20 49 20 50 21 53 25 59 86 61 26 63 85 64 84 74
REMARK H PARENT 78 76 80 78 83 80 77 81 45 90 48 92 81 95 46 96 82 98
REMARK Flexibility Score: inf
ROOT
ATOM      1  C   UNL A   1      39.130  21.863  26.480  1.00  0.00    -0.036 C 
ATOM      2  H   UNL A   1      38.780  21.129  25.784  1.00  0.00     0.028 H 
ATOM      3  H   UNL A   1      38.853  21.680  27.497  1.00  0.00     0.028 H 
ENDROOT
BRANCH   1   4
ATOM      4  C   UNL A   1      38.459  23.234  26.105  1.00  0.00     0.017 C 
ATOM      5  H   UNL A   1      37.868  23.551  26.940  1.00  0.00     0.049 H 
ATOM      6  H   UNL A   1      39.261  23.902  25.869  1.00  0.00     0.049 H 
BRANCH   4   7
ATOM      7  N   UNL A   1      37.539  23.203  24.848  1.00  0.00    -0.356 N 
ATOM      8  C   UNL A   1      36.391  23.539  24.169  1.00  0.00     0.220 C 
ATOM      9  O   UNL A   1      36.498  23.124  22.990  1.00  0.00    -0.275 OA
ATOM     10  H   UNL A   1      38.042  22.658  24.201  1.00  0.00     0.163 HD
BRANCH   8  11
ATOM     11  C   UNL A   1      35.053  24.473  24.417  1.00  0.00     0.030 C 
ATOM     12  H   UNL A   1      35.403  25.440  24.124  1.00  0.00     0.037 H 
ATOM     13  H   UNL A   1      34.392  23.739  24.005  1.00  0.00     0.037 H 
BRANCH  11  14
ATOM     14  C   UNL A   1      34.032  24.843  25.623  1.00  0.00    -0.010 C 
ATOM     15  H   UNL A   1      34.531  24.457  26.487  1.00  0.00     0.031 H 
ATOM     16  H   UNL A   1      33.862  25.850  25.305  1.00  0.00     0.031 H 
BRANCH  14  17
ATOM     17  C   UNL A   1      32.495  24.519  25.921  1.00  0.00     0.090 C 
ATOM     18  H   UNL A   1      32.386  24.617  26.982  1.00  0.00     0.071 H 
ATOM     19  H   UNL A   1      32.026  25.191  25.234  1.00  0.00     0.071 H 
BRANCH  17  20
ATOM     20  O   UNL A   1      31.814  23.300  25.583  1.00  0.00    -0.477 OA
BRANCH  20  21
ATOM     21  C   UNL A   1      32.240  22.441  24.620  1.00  0.00     0.235 A 
ATOM     22  C   UNL A   1      32.694  18.443  24.772  1.00  0.00     0.039 A 
ATOM     23  C   UNL A   1      33.312  19.137  25.810  1.00  0.00    -0.037 A 
ATOM     24  N   UNL A   1      32.366  19.027  23.601  1.00  0.00    -0.240 NA
ATOM     25  C   UNL A   1      33.517  20.530  25.738  1.00  0.00    -0.034 A 
ATOM     26  H   UNL A   1      33.624  18.622  26.648  1.00  0.00     0.064 H 
ATOM     27  C   UNL A   1      32.410  20.375  23.659  1.00  0.00     0.147 A 
ATOM     28  C   UNL A   1      32.794  21.147  24.740  1.00  0.00     0.078 A 
ATOM     29  S   UNL A   1      32.033  21.452  22.397  1.00  0.00    -0.012 S 
ATOM     30  N   UNL A   1      31.943  22.815  23.374  1.00  0.00    -0.153 NA
BRANCH  22  31
ATOM     31  C   UNL A   1      32.287  17.007  24.989  1.00  0.00    -0.022 C 
ATOM     32  H   UNL A   1      31.669  16.685  24.177  1.00  0.00     0.030 H 
ATOM     33  H   UNL A   1      31.743  16.925  25.906  1.00  0.00     0.030 H 
ATOM     34  H   UNL A   1      33.162  16.393  25.036  1.00  0.00     0.030 H 
ENDBRANCH  22  31
BRANCH  25  35
ATOM     35  C   UNL A   1      34.328  21.429  26.592  1.00  0.00    -0.039 C 
ATOM     36  H   UNL A   1      34.529  22.338  26.065  1.00  0.00     0.028 H 
ATOM     37  H   UNL A   1      35.251  20.949  26.841  1.00  0.00     0.028 H 
ATOM     38  H   UNL A   1      33.789  21.650  27.491  1.00  0.00     0.028 H 
ENDBRANCH  25  35
ENDBRANCH  20  21
ENDBRANCH  17  20
ENDBRANCH  14  17
ENDBRANCH  11  14
ENDBRANCH   8  11
ENDBRANCH   4   7
ENDBRANCH   1   4
BRANCH   1  39
ATOM     39  C   UNL A   1      40.667  21.826  26.463  1.00  0.00    -0.052 C 
ATOM     40  H   UNL A   1      41.010  22.836  26.541  1.00  0.00     0.027 H 
ATOM     41  H   UNL A   1      40.910  21.319  25.553  1.00  0.00     0.027 H 
BRANCH  39  42
ATOM     42  C   UNL A   1      41.385  21.012  27.560  1.00  0.00    -0.052 C 
ATOM     43  H   UNL A   1      40.626  20.617  28.203  1.00  0.00     0.027 H 
ATOM     44  H   UNL A   1      42.066  21.716  27.992  1.00  0.00     0.027 H 
BRANCH  42  45
ATOM     45  C   UNL A   1      42.291  19.831  27.152  1.00  0.00    -0.036 C 
ATOM     46  H   UNL A   1      41.951  18.964  27.680  1.00  0.00     0.028 H 
ATOM     47  H   UNL A   1      43.285  20.138  27.399  1.00  0.00     0.028 H 
BRANCH  45  48
ATOM     48  C   UNL A   1      42.329  19.487  25.667  1.00  0.00     0.018 C 
ATOM     49  H   UNL A   1      41.814  20.254  25.129  1.00  0.00     0.049 H 
ATOM     50  H   UNL A   1      41.864  18.528  25.558  1.00  0.00     0.049 H 
BRANCH  48  51
ATOM     51  N   UNL A   1      43.677  19.369  25.124  1.00  0.00    -0.352 N 
ATOM     52  C   UNL A   1      44.580  20.357  24.774  1.00  0.00     0.251 C 
ATOM     53  H   UNL A   1      43.992  18.446  24.987  1.00  0.00     0.163 HD
ATOM     54  O   UNL A   1      45.519  20.100  24.047  1.00  0.00    -0.269 OA
BRANCH  52  55
ATOM     55  C   UNL A   1      44.401  21.735  25.286  1.00  0.00     0.039 A 
ATOM     56  C   UNL A   1      43.586  22.638  24.597  1.00  0.00    -0.049 A 
ATOM     57  C   UNL A   1      45.082  22.142  26.432  1.00  0.00    -0.049 A 
ATOM     58  C   UNL A   1      43.418  23.921  25.111  1.00  0.00    -0.053 A 
ATOM     59  H   UNL A   1      43.117  22.358  23.722  1.00  0.00     0.063 H 
ATOM     60  C   UNL A   1      44.808  23.356  27.018  1.00  0.00    -0.053 A 
ATOM     61  H   UNL A   1      45.800  21.527  26.845  1.00  0.00     0.063 H 
ATOM     62  C   UNL A   1      44.015  24.265  26.338  1.00  0.00    -0.014 A 
ATOM     63  H   UNL A   1      42.859  24.617  24.595  1.00  0.00     0.063 H 
ATOM     64  H   UNL A   1      45.189  23.586  27.950  1.00  0.00     0.063 H 
BRANCH  62  65
ATOM     65  C   UNL A   1      43.683  25.529  26.981  1.00  0.00     0.031 A 
ATOM     66  C   UNL A   1      44.635  26.613  26.636  1.00  0.00     0.074 A 
ATOM     67  C   UNL A   1      42.567  25.762  27.703  1.00  0.00     0.049 A 
ATOM     68  N   UNL A   1      45.564  27.084  27.394  1.00  0.00    -0.248 NA
ATOM     69  C   UNL A   1      44.700  27.089  25.246  1.00  0.00    -0.034 C 
ATOM     70  C   UNL A   1      41.398  24.896  27.887  1.00  0.00    -0.036 A 
ATOM     71  N   UNL A   1      42.220  26.884  28.400  1.00  0.00    -0.354 N 
ATOM     72  C   UNL A   1      46.203  28.072  26.652  1.00  0.00     0.074 A 
ATOM     73  C   UNL A   1      45.762  27.898  25.295  1.00  0.00    -0.034 C 
ATOM     74  H   UNL A   1      44.089  26.860  24.446  1.00  0.00     0.065 H 
ATOM     75  C   UNL A   1      40.396  25.596  28.467  1.00  0.00    -0.036 A 
ATOM     76  H   UNL A   1      41.347  23.902  27.613  1.00  0.00     0.065 H 
ATOM     77  C   UNL A   1      40.904  26.899  28.856  1.00  0.00     0.049 A 
ATOM     78  H   UNL A   1      42.849  27.622  28.567  1.00  0.00     0.167 HD
ATOM     79  C   UNL A   1      46.819  29.103  27.293  1.00  0.00     0.037 A 
ATOM     80  H   UNL A   1      46.204  28.338  24.473  1.00  0.00     0.065 H 
ATOM     81  H   UNL A   1      39.432  25.260  28.611  1.00  0.00     0.065 H 
ATOM     82  C   UNL A   1      40.291  27.912  29.518  1.00  0.00     0.037 A 
ATOM     83  C   UNL A   1      46.997  28.780  28.691  1.00  0.00     0.049 A 
ATOM     84  C   UNL A   1      41.365  28.715  30.144  1.00  0.00     0.074 A 
ATOM     85  C   UNL A   1      47.744  27.875  29.414  1.00  0.00    -0.036 A 
ATOM     86  N   UNL A   1      45.975  29.195  29.504  1.00  0.00    -0.354 N 
ATOM     87  N   UNL A   1      42.119  28.284  31.115  1.00  0.00    -0.248 NA
ATOM     88  C   UNL A   1      41.860  29.887  29.438  1.00  0.00    -0.034 C 
ATOM     89  C   UNL A   1      46.947  27.541  30.550  1.00  0.00    -0.036 A 
ATOM     90  H   UNL A   1      48.684  27.516  29.182  1.00  0.00     0.065 H 
ATOM     91  C   UNL A   1      45.774  28.296  30.513  1.00  0.00     0.049 A 
ATOM     92  H   UNL A   1      45.458  30.025  29.379  1.00  0.00     0.167 HD
ATOM     93  C   UNL A   1      43.361  28.834  30.856  1.00  0.00     0.074 A 
ATOM     94  C   UNL A   1      43.101  29.931  29.928  1.00  0.00    -0.034 C 
ATOM     95  H   UNL A   1      41.390  30.505  28.757  1.00  0.00     0.065 H 
ATOM     96  H   UNL A   1      47.196  26.853  31.278  1.00  0.00     0.065 H 
ATOM     97  C   UNL A   1      44.497  28.151  31.180  1.00  0.00     0.037 A 
ATOM     98  H   UNL A   1      43.795  30.653  29.679  1.00  0.00     0.065 H 
BRANCH  79  99
ATOM     99  C   UNL A   1      46.803  30.545  26.821  1.00  0.00     0.064 A 
ATOM    100  C   UNL A   1      47.998  31.295  26.901  1.00  0.00     0.173 A 
ATOM    101  C   UNL A   1      45.632  31.305  26.608  1.00  0.00     0.173 A 
ATOM    102  F   UNL A   1      49.174  30.687  27.120  1.00  0.00    -0.203 F 
ATOM    103  C   UNL A   1      48.003  32.692  26.863  1.00  0.00     0.198 A 
ATOM    104  C   UNL A   1      45.649  32.697  26.522  1.00  0.00     0.198 A 
ATOM    105  F   UNL A   1      44.413  30.760  26.588  1.00  0.00    -0.203 F 
ATOM    106  F   UNL A   1      49.145  33.359  27.079  1.00  0.00    -0.200 F 
ATOM    107  C   UNL A   1      46.827  33.393  26.681  1.00  0.00     0.200 A 
ATOM    108  F   UNL A   1      44.493  33.359  26.370  1.00  0.00    -0.200 F 
ATOM    109  F   UNL A   1      46.819  34.732  26.707  1.00  0.00    -0.200 F 
ENDBRANCH  79  99
BRANCH  82 110
ATOM    110  C   UNL A   1      38.892  28.401  29.453  1.00  0.00     0.064 A 
ATOM    111  C   UNL A   1      38.127  28.551  30.627  1.00  0.00     0.173 A 
ATOM    112  C   UNL A   1      38.396  29.040  28.302  1.00  0.00     0.173 A 
ATOM    113  F   UNL A   1      38.539  27.999  31.777  1.00  0.00    -0.203 F 
ATOM    114  C   UNL A   1      36.977  29.347  30.661  1.00  0.00     0.198 A 
ATOM    115  C   UNL A   1      37.244  29.831  28.337  1.00  0.00     0.198 A 
ATOM    116  F   UNL A   1      39.076  28.997  27.147  1.00  0.00    -0.203 F 
ATOM    117  F   UNL A   1      36.328  29.536  31.820  1.00  0.00    -0.200 F 
ATOM    118  C   UNL A   1      36.548  30.002  29.521  1.00  0.00     0.200 A 
ATOM    119  F   UNL A   1      36.856  30.489  27.236  1.00  0.00    -0.200 F 
ATOM    120  F   UNL A   1      35.495  30.831  29.570  1.00  0.00    -0.200 F 
ENDBRANCH  82 110
BRANCH  97 121
ATOM    121  C   UNL A   1      44.377  27.039  32.183  1.00  0.00     0.064 A 
ATOM    122  C   UNL A   1      44.229  25.679  31.859  1.00  0.00     0.173 A 
ATOM    123  C   UNL A   1      44.555  27.364  33.535  1.00  0.00     0.173 A 
ATOM    124  F   UNL A   1      44.124  25.279  30.587  1.00  0.00    -0.203 F 
ATOM    125  C   UNL A   1      44.243  24.697  32.849  1.00  0.00     0.198 A 
ATOM    126  C   UNL A   1      44.607  26.379  34.517  1.00  0.00     0.198 A 
ATOM    127  F   UNL A   1      44.734  28.643  33.900  1.00  0.00    -0.203 F 
ATOM    128  F   UNL A   1      44.095  23.405  32.518  1.00  0.00    -0.200 F 
ATOM    129  C   UNL A   1      44.446  25.047  34.175  1.00  0.00     0.200 A 
ATOM    130  F   UNL A   1      44.846  26.721  35.789  1.00  0.00    -0.200 F 
ATOM    131  F   UNL A   1      44.510  24.098  35.120  1.00  0.00    -0.200 F 
ENDBRANCH  97 121
ENDBRANCH  62  65
ENDBRANCH  52  55
ENDBRANCH  48  51
ENDBRANCH  45  48
ENDBRANCH  42  45
ENDBRANCH  39  42
ENDBRANCH   1  39
TORSDOF 19
ENDMDL
MODEL 3
REMARK VINA RESULT:     -11.0      1.331      2.078
REMARK SMILES Cc1cc(C)c2c(OCCCC(=O)NCCCCCCNC(=O)c3ccc(-c4c5nc(c(-c6c(F)c(F)c(F)c(F)c6F)c6ccc([nH]6)c(-c6c(F)c(F)c(F)c(F)c6F)c6nc(c(-c7c(F)c(F)c(F)c(F)c7F)c7ccc4[nH]7)C=C6)C=C5)cc3)nsc2n1
REMARK SMILES IDX 16 1 15 4 14 7 12 8 13 9 11 11 10 14 9 17 8 20 7 21 2 22
REMARK SMILES IDX 3 23 90 24 4 25 89 27 6 28 88 29 87 30 1 31 5 35 17 39 18 42
REMARK SMILES IDX 19 45 20 48 21 51 22 52 23 54 24 55 25 56 86 57 26 58 85 60
REMARK SMILES IDX 27 62 28 65 29 66 79 67 30 68 84 69 78 70 80 71 31 72 83 73
REMARK SMILES IDX 77 75 76 77 32 79 64 82 44 83 63 84 45 85 48 86 62 87 81 88
REMARK SMILES IDX 46 89 47 91 61 93 82 94 49 97 33 99 34 100 42 101 35 102
REMARK SMILES IDX 36 103 40 104 43 105 37 106 38 107 41 108 39 109 65 110
REMARK SMILES IDX 66 111 74 112 67 113 68 114 72 115 75 116 69 117 70 118
REMARK SMILES IDX 73 119 71 120 50 121 51 122 59 123 52 124 53 125 57 126
REMARK SMILES IDX 60 127 54 128 55 129 58 130 56 131
REMARK H PARENT 16 2 16 3 15 5 15 6 14 10 11 12 11 13 10 15 10 16 9 18 9 19
REMARK H PARENT 3 26 1 32 1 33 1 34 5 36 5 37 5 38 17 40 17 41 18 43 18 44
REMARK H PARENT 19 46 19 47 20 49 20 50 21 53 25 59 86 61 26 63 85 64 84 74
REMARK H PARENT 78 76 80 78 83 80 77 81 45 90 48 92 81 95 46 96 82 98
REMARK Flexibility Score: inf
ROOT
ATOM      1  C   UNL A   1      39.212  21.723  26.275  1.00  0.00    -0.036 C 
ATOM      2  H   UNL A   1      39.065  21.035  25.468  1.00  0.00     0.028 H 
ATOM      3  H   UNL A   1      38.834  21.390  27.219  1.00  0.00     0.028 H 
ENDROOT
BRANCH   1   4
ATOM      4  C   UNL A   1      38.404  23.029  25.941  1.00  0.00     0.017 C 
ATOM      5  H   UNL A   1      37.724  23.213  26.748  1.00  0.00     0.049 H 
ATOM      6  H   UNL A   1      39.131  23.803  25.809  1.00  0.00     0.049 H 
BRANCH   4   7
ATOM      7  N   UNL A   1      37.579  22.983  24.620  1.00  0.00    -0.356 N 
ATOM      8  C   UNL A   1      36.401  22.858  23.922  1.00  0.00     0.220 C 
ATOM      9  O   UNL A   1      36.640  23.066  22.708  1.00  0.00    -0.275 OA
ATOM     10  H   UNL A   1      38.256  23.109  23.916  1.00  0.00     0.163 HD
BRANCH   8  11
ATOM     11  C   UNL A   1      34.791  22.711  24.257  1.00  0.00     0.030 C 
ATOM     12  H   UNL A   1      34.786  22.750  25.326  1.00  0.00     0.037 H 
ATOM     13  H   UNL A   1      34.506  23.371  23.464  1.00  0.00     0.037 H 
BRANCH  11  14
ATOM     14  C   UNL A   1      33.574  21.681  23.957  1.00  0.00    -0.010 C 
ATOM     15  H   UNL A   1      34.082  20.790  23.657  1.00  0.00     0.031 H 
ATOM     16  H   UNL A   1      33.028  21.910  24.848  1.00  0.00     0.031 H 
BRANCH  14  17
ATOM     17  C   UNL A   1      32.300  21.712  22.991  1.00  0.00     0.090 C 
ATOM     18  H   UNL A   1      32.700  21.759  21.999  1.00  0.00     0.071 H 
ATOM     19  H   UNL A   1      31.770  20.858  23.354  1.00  0.00     0.071 H 
BRANCH  17  20
ATOM     20  O   UNL A   1      31.248  22.690  23.021  1.00  0.00    -0.477 OA
BRANCH  20  21
ATOM     21  C   UNL A   1      31.237  23.760  23.859  1.00  0.00     0.235 A 
ATOM     22  C   UNL A   1      30.248  27.591  23.112  1.00  0.00     0.039 A 
ATOM     23  C   UNL A   1      31.178  27.049  22.228  1.00  0.00    -0.037 A 
ATOM     24  N   UNL A   1      30.030  27.079  24.341  1.00  0.00    -0.240 NA
ATOM     25  C   UNL A   1      31.858  25.850  22.525  1.00  0.00    -0.034 A 
ATOM     26  H   UNL A   1      31.372  27.533  21.337  1.00  0.00     0.064 H 
ATOM     27  C   UNL A   1      30.558  25.847  24.495  1.00  0.00     0.147 A 
ATOM     28  C   UNL A   1      31.302  25.141  23.568  1.00  0.00     0.078 A 
ATOM     29  S   UNL A   1      30.459  24.874  25.888  1.00  0.00    -0.012 S 
ATOM     30  N   UNL A   1      30.964  23.463  25.131  1.00  0.00    -0.153 NA
BRANCH  22  31
ATOM     31  C   UNL A   1      29.381  28.737  22.655  1.00  0.00    -0.022 C 
ATOM     32  H   UNL A   1      29.696  29.638  23.139  1.00  0.00     0.030 H 
ATOM     33  H   UNL A   1      28.361  28.535  22.906  1.00  0.00     0.030 H 
ATOM     34  H   UNL A   1      29.472  28.851  21.595  1.00  0.00     0.030 H 
ENDBRANCH  22  31
BRANCH  25  35
ATOM     35  C   UNL A   1      33.020  25.213  21.863  1.00  0.00    -0.039 C 
ATOM     36  H   UNL A   1      32.971  24.153  21.998  1.00  0.00     0.028 H 
ATOM     37  H   UNL A   1      33.925  25.586  22.295  1.00  0.00     0.028 H 
ATOM     38  H   UNL A   1      33.004  25.440  20.817  1.00  0.00     0.028 H 
ENDBRANCH  25  35
ENDBRANCH  20  21
ENDBRANCH  17  20
ENDBRANCH  14  17
ENDBRANCH  11  14
ENDBRANCH   8  11
ENDBRANCH   4   7
ENDBRANCH   1   4
BRANCH   1  39
ATOM     39  C   UNL A   1      40.727  21.888  26.477  1.00  0.00    -0.052 C 
ATOM     40  H   UNL A   1      40.903  22.910  26.740  1.00  0.00     0.027 H 
ATOM     41  H   UNL A   1      41.155  21.564  25.552  1.00  0.00     0.027 H 
BRANCH  39  42
ATOM     42  C   UNL A   1      41.416  21.014  27.546  1.00  0.00    -0.052 C 
ATOM     43  H   UNL A   1      40.643  20.613  28.168  1.00  0.00     0.027 H 
ATOM     44  H   UNL A   1      42.110  21.684  28.011  1.00  0.00     0.027 H 
BRANCH  42  45
ATOM     45  C   UNL A   1      42.296  19.829  27.099  1.00  0.00    -0.036 C 
ATOM     46  H   UNL A   1      41.901  18.943  27.549  1.00  0.00     0.028 H 
ATOM     47  H   UNL A   1      43.289  20.079  27.411  1.00  0.00     0.028 H 
BRANCH  45  48
ATOM     48  C   UNL A   1      42.392  19.584  25.597  1.00  0.00     0.018 C 
ATOM     49  H   UNL A   1      41.926  20.403  25.090  1.00  0.00     0.049 H 
ATOM     50  H   UNL A   1      41.905  18.651  25.402  1.00  0.00     0.049 H 
BRANCH  48  51
ATOM     51  N   UNL A   1      43.760  19.459  25.107  1.00  0.00    -0.352 N 
ATOM     52  C   UNL A   1      44.684  20.441  24.798  1.00  0.00     0.251 C 
ATOM     53  H   UNL A   1      44.073  18.534  24.977  1.00  0.00     0.163 HD
ATOM     54  O   UNL A   1      45.648  20.181  24.107  1.00  0.00    -0.269 OA
BRANCH  52  55
ATOM     55  C   UNL A   1      44.495  21.818  25.309  1.00  0.00     0.039 A 
ATOM     56  C   UNL A   1      43.706  22.728  24.599  1.00  0.00    -0.049 A 
ATOM     57  C   UNL A   1      45.141  22.217  26.478  1.00  0.00    -0.049 A 
ATOM     58  C   UNL A   1      43.528  24.009  25.113  1.00  0.00    -0.053 A 
ATOM     59  H   UNL A   1      43.264  22.454  23.708  1.00  0.00     0.063 H 
ATOM     60  C   UNL A   1      44.855  23.430  27.060  1.00  0.00    -0.053 A 
ATOM     61  H   UNL A   1      45.843  21.597  26.910  1.00  0.00     0.063 H 
ATOM     62  C   UNL A   1      44.088  24.345  26.359  1.00  0.00    -0.014 A 
ATOM     63  H   UNL A   1      42.989  24.710  24.582  1.00  0.00     0.063 H 
ATOM     64  H   UNL A   1      45.207  23.655  28.005  1.00  0.00     0.063 H 
BRANCH  62  65
ATOM     65  C   UNL A   1      43.742  25.609  26.996  1.00  0.00     0.031 A 
ATOM     66  C   UNL A   1      44.678  26.703  26.641  1.00  0.00     0.074 A 
ATOM     67  C   UNL A   1      42.625  25.831  27.722  1.00  0.00     0.049 A 
ATOM     68  N   UNL A   1      45.603  27.191  27.394  1.00  0.00    -0.248 NA
ATOM     69  C   UNL A   1      44.731  27.173  25.249  1.00  0.00    -0.034 C 
ATOM     70  C   UNL A   1      41.469  24.951  27.914  1.00  0.00    -0.036 A 
ATOM     71  N   UNL A   1      42.266  26.952  28.414  1.00  0.00    -0.354 N 
ATOM     72  C   UNL A   1      46.226  28.183  26.644  1.00  0.00     0.074 A 
ATOM     73  C   UNL A   1      45.782  27.995  25.289  1.00  0.00    -0.034 C 
ATOM     74  H   UNL A   1      44.120  26.931  24.453  1.00  0.00     0.065 H 
ATOM     75  C   UNL A   1      40.460  25.640  28.495  1.00  0.00    -0.036 A 
ATOM     76  H   UNL A   1      41.429  23.955  27.646  1.00  0.00     0.065 H 
ATOM     77  C   UNL A   1      40.952  26.952  28.875  1.00  0.00     0.049 A 
ATOM     78  H   UNL A   1      42.886  27.699  28.574  1.00  0.00     0.167 HD
ATOM     79  C   UNL A   1      46.831  29.225  27.277  1.00  0.00     0.037 A 
ATOM     80  H   UNL A   1      46.215  28.437  24.463  1.00  0.00     0.065 H 
ATOM     81  H   UNL A   1      39.500  25.292  28.645  1.00  0.00     0.065 H 
ATOM     82  C   UNL A   1      40.328  27.961  29.534  1.00  0.00     0.037 A 
ATOM     83  C   UNL A   1      47.019  28.913  28.675  1.00  0.00     0.049 A 
ATOM     84  C   UNL A   1      41.394  28.781  30.151  1.00  0.00     0.074 A 
ATOM     85  C   UNL A   1      47.780  28.022  29.400  1.00  0.00    -0.036 A 
ATOM     86  N   UNL A   1      45.994  29.319  29.491  1.00  0.00    -0.354 N 
ATOM     87  N   UNL A   1      42.157  28.365  31.121  1.00  0.00    -0.248 NA
ATOM     88  C   UNL A   1      41.871  29.956  29.437  1.00  0.00    -0.034 C 
ATOM     89  C   UNL A   1      46.992  27.683  30.541  1.00  0.00    -0.036 A 
ATOM     90  H   UNL A   1      48.724  27.673  29.167  1.00  0.00     0.065 H 
ATOM     91  C   UNL A   1      45.809  28.423  30.505  1.00  0.00     0.049 A 
ATOM     92  H   UNL A   1      45.466  30.141  29.363  1.00  0.00     0.167 HD
ATOM     93  C   UNL A   1      43.390  28.931  30.855  1.00  0.00     0.074 A 
ATOM     94  C   UNL A   1      43.113  30.019  29.921  1.00  0.00    -0.034 C 
ATOM     95  H   UNL A   1      41.389  30.563  28.754  1.00  0.00     0.065 H 
ATOM     96  H   UNL A   1      47.253  27.002  31.272  1.00  0.00     0.065 H 
ATOM     97  C   UNL A   1      44.536  28.264  31.178  1.00  0.00     0.037 A 
ATOM     98  H   UNL A   1      43.796  30.748  29.666  1.00  0.00     0.065 H 
BRANCH  79  99
ATOM     99  C   UNL A   1      46.794  30.664  26.797  1.00  0.00     0.064 A 
ATOM    100  C   UNL A   1      47.982  31.427  26.859  1.00  0.00     0.173 A 
ATOM    101  C   UNL A   1      45.613  31.411  26.593  1.00  0.00     0.173 A 
ATOM    102  F   UNL A   1      49.167  30.833  27.067  1.00  0.00    -0.203 F 
ATOM    103  C   UNL A   1      47.972  32.825  26.813  1.00  0.00     0.198 A 
ATOM    104  C   UNL A   1      45.614  32.802  26.499  1.00  0.00     0.198 A 
ATOM    105  F   UNL A   1      44.400  30.853  26.590  1.00  0.00    -0.203 F 
ATOM    106  F   UNL A   1      49.109  33.505  27.011  1.00  0.00    -0.200 F 
ATOM    107  C   UNL A   1      46.786  33.511  26.641  1.00  0.00     0.200 A 
ATOM    108  F   UNL A   1      44.449  33.451  26.357  1.00  0.00    -0.200 F 
ATOM    109  F   UNL A   1      46.764  34.851  26.659  1.00  0.00    -0.200 F 
ENDBRANCH  79  99
BRANCH  82 110
ATOM    110  C   UNL A   1      38.922  28.431  29.471  1.00  0.00     0.064 A 
ATOM    111  C   UNL A   1      38.164  28.588  30.648  1.00  0.00     0.173 A 
ATOM    112  C   UNL A   1      38.410  29.048  28.315  1.00  0.00     0.173 A 
ATOM    113  F   UNL A   1      38.591  28.058  31.803  1.00  0.00    -0.203 F 
ATOM    114  C   UNL A   1      37.003  29.369  30.679  1.00  0.00     0.198 A 
ATOM    115  C   UNL A   1      37.248  29.824  28.347  1.00  0.00     0.198 A 
ATOM    116  F   UNL A   1      39.083  28.997  27.156  1.00  0.00    -0.203 F 
ATOM    117  F   UNL A   1      36.360  29.567  31.840  1.00  0.00    -0.200 F 
ATOM    118  C   UNL A   1      36.558  30.003  29.533  1.00  0.00     0.200 A 
ATOM    119  F   UNL A   1      36.845  30.461  27.239  1.00  0.00    -0.200 F 
ATOM    120  F   UNL A   1      35.495  30.819  29.578  1.00  0.00    -0.200 F 
ENDBRANCH  82 110
BRANCH  97 121
ATOM    121  C   UNL A   1      44.435  27.156  32.188  1.00  0.00     0.064 A 
ATOM    122  C   UNL A   1      44.288  27.345  33.573  1.00  0.00     0.173 A 
ATOM    123  C   UNL A   1      44.349  25.844  31.702  1.00  0.00     0.173 A 
ATOM    124  F   UNL A   1      44.287  28.570  34.108  1.00  0.00    -0.203 F 
ATOM    125  C   UNL A   1      44.082  26.262  34.429  1.00  0.00     0.198 A 
ATOM    126  C   UNL A   1      44.105  24.771  32.553  1.00  0.00     0.198 A 
ATOM    127  F   UNL A   1      44.448  25.608  30.385  1.00  0.00    -0.203 F 
ATOM    128  F   UNL A   1      43.951  26.464  35.749  1.00  0.00    -0.200 F 
ATOM    129  C   UNL A   1      43.978  24.979  33.916  1.00  0.00     0.200 A 
ATOM    130  F   UNL A   1      43.962  23.539  32.046  1.00  0.00    -0.200 F 
ATOM    131  F   UNL A   1      43.729  23.945  34.734  1.00  0.00    -0.200 F 
ENDBRANCH  97 121
ENDBRANCH  62  65
ENDBRANCH  52  55
ENDBRANCH  48  51
ENDBRANCH  45  48
ENDBRANCH  42  45
ENDBRANCH  39  42
ENDBRANCH   1  39
TORSDOF 19
ENDMDL
MODEL 4
REMARK VINA RESULT:     -10.4      2.949      4.455
REMARK SMILES Cc1cc(C)c2c(OCCCC(=O)NCCCCCCNC(=O)c3ccc(-c4c5nc(c(-c6c(F)c(F)c(F)c(F)c6F)c6ccc([nH]6)c(-c6c(F)c(F)c(F)c(F)c6F)c6nc(c(-c7c(F)c(F)c(F)c(F)c7F)c7ccc4[nH]7)C=C6)C=C5)cc3)nsc2n1
REMARK SMILES IDX 16 1 15 4 14 7 12 8 13 9 11 11 10 14 9 17 8 20 7 21 2 22
REMARK SMILES IDX 3 23 90 24 4 25 89 27 6 28 88 29 87 30 1 31 5 35 17 39 18 42
REMARK SMILES IDX 19 45 20 48 21 51 22 52 23 54 24 55 25 56 86 57 26 58 85 60
REMARK SMILES IDX 27 62 28 65 29 66 79 67 30 68 84 69 78 70 80 71 31 72 83 73
REMARK SMILES IDX 77 75 76 77 32 79 64 82 44 83 63 84 45 85 48 86 62 87 81 88
REMARK SMILES IDX 46 89 47 91 61 93 82 94 49 97 33 99 34 100 42 101 35 102
REMARK SMILES IDX 36 103 40 104 43 105 37 106 38 107 41 108 39 109 65 110
REMARK SMILES IDX 66 111 74 112 67 113 68 114 72 115 75 116 69 117 70 118
REMARK SMILES IDX 73 119 71 120 50 121 51 122 59 123 52 124 53 125 57 126
REMARK SMILES IDX 60 127 54 128 55 129 58 130 56 131
REMARK H PARENT 16 2 16 3 15 5 15 6 14 10 11 12 11 13 10 15 10 16 9 18 9 19
REMARK H PARENT 3 26 1 32 1 33 1 34 5 36 5 37 5 38 17 40 17 41 18 43 18 44
REMARK H PARENT 19 46 19 47 20 49 20 50 21 53 25 59 86 61 26 63 85 64 84 74
REMARK H PARENT 78 76 80 78 83 80 77 81 45 90 48 92 81 95 46 96 82 98
REMARK Flexibility Score: inf
ROOT
ATOM      1  C   UNL A   1      35.178  23.324  26.158  1.00  0.00    -0.036 C 
ATOM      2  H   UNL A   1      34.202  22.997  26.450  1.00  0.00     0.028 H 
ATOM      3  H   UNL A   1      35.782  23.695  26.959  1.00  0.00     0.028 H 
ENDROOT
BRANCH   1   4
ATOM      4  C   UNL A   1      35.000  24.537  25.174  1.00  0.00     0.017 C 
ATOM      5  H   UNL A   1      35.973  24.852  24.858  1.00  0.00     0.049 H 
ATOM      6  H   UNL A   1      34.383  24.183  24.375  1.00  0.00     0.049 H 
BRANCH   4   7
ATOM      7  N   UNL A   1      34.264  25.775  25.770  1.00  0.00    -0.356 N 
ATOM      8  C   UNL A   1      33.390  26.832  25.682  1.00  0.00     0.220 C 
ATOM      9  O   UNL A   1      33.289  27.354  26.818  1.00  0.00    -0.275 OA
ATOM     10  H   UNL A   1      34.601  25.827  26.694  1.00  0.00     0.163 HD
BRANCH   8  11
ATOM     11  C   UNL A   1      32.330  27.453  24.579  1.00  0.00     0.030 C 
ATOM     12  H   UNL A   1      32.537  28.501  24.642  1.00  0.00     0.037 H 
ATOM     13  H   UNL A   1      32.521  26.675  23.870  1.00  0.00     0.037 H 
BRANCH  11  14
ATOM     14  C   UNL A   1      30.734  27.449  24.287  1.00  0.00    -0.010 C 
ATOM     15  H   UNL A   1      30.337  27.996  25.117  1.00  0.00     0.031 H 
ATOM     16  H   UNL A   1      30.821  27.711  23.254  1.00  0.00     0.031 H 
BRANCH  14  17
ATOM     17  C   UNL A   1      29.645  26.301  24.059  1.00  0.00     0.090 C 
ATOM     18  H   UNL A   1      29.223  26.115  25.025  1.00  0.00     0.071 H 
ATOM     19  H   UNL A   1      29.080  26.735  23.262  1.00  0.00     0.071 H 
BRANCH  17  20
ATOM     20  O   UNL A   1      29.902  25.001  23.503  1.00  0.00    -0.477 OA
BRANCH  20  21
ATOM     21  C   UNL A   1      31.144  24.461  23.390  1.00  0.00     0.235 A 
ATOM     22  C   UNL A   1      32.489  20.856  24.578  1.00  0.00     0.039 A 
ATOM     23  C   UNL A   1      31.820  21.579  25.563  1.00  0.00    -0.037 A 
ATOM     24  N   UNL A   1      33.036  21.441  23.492  1.00  0.00    -0.240 NA
ATOM     25  C   UNL A   1      31.568  22.959  25.415  1.00  0.00    -0.034 A 
ATOM     26  H   UNL A   1      31.502  21.096  26.418  1.00  0.00     0.064 H 
ATOM     27  C   UNL A   1      32.608  22.708  23.310  1.00  0.00     0.147 A 
ATOM     28  C   UNL A   1      31.751  23.420  24.129  1.00  0.00     0.078 A 
ATOM     29  S   UNL A   1      33.048  23.748  22.037  1.00  0.00    -0.012 S 
ATOM     30  N   UNL A   1      31.829  24.868  22.321  1.00  0.00    -0.153 NA
BRANCH  22  31
ATOM     31  C   UNL A   1      32.529  19.352  24.672  1.00  0.00    -0.022 C 
ATOM     32  H   UNL A   1      31.790  19.018  25.370  1.00  0.00     0.030 H 
ATOM     33  H   UNL A   1      33.498  19.040  25.002  1.00  0.00     0.030 H 
ATOM     34  H   UNL A   1      32.327  18.930  23.710  1.00  0.00     0.030 H 
ENDBRANCH  22  31
BRANCH  25  35
ATOM     35  C   UNL A   1      31.087  23.961  26.394  1.00  0.00    -0.039 C 
ATOM     36  H   UNL A   1      31.875  24.649  26.617  1.00  0.00     0.028 H 
ATOM     37  H   UNL A   1      30.782  23.465  27.291  1.00  0.00     0.028 H 
ATOM     38  H   UNL A   1      30.255  24.493  25.980  1.00  0.00     0.028 H 
ENDBRANCH  25  35
ENDBRANCH  20  21
ENDBRANCH  17  20
ENDBRANCH  14  17
ENDBRANCH  11  14
ENDBRANCH   8  11
ENDBRANCH   4   7
ENDBRANCH   1   4
BRANCH   1  39
ATOM     39  C   UNL A   1      35.935  22.103  25.609  1.00  0.00    -0.052 C 
ATOM     40  H   UNL A   1      35.329  21.675  24.838  1.00  0.00     0.027 H 
ATOM     41  H   UNL A   1      36.102  21.487  26.467  1.00  0.00     0.027 H 
BRANCH  39  42
ATOM     42  C   UNL A   1      37.341  22.326  25.016  1.00  0.00    -0.052 C 
ATOM     43  H   UNL A   1      37.602  23.347  25.206  1.00  0.00     0.027 H 
ATOM     44  H   UNL A   1      37.232  22.039  23.991  1.00  0.00     0.027 H 
BRANCH  42  45
ATOM     45  C   UNL A   1      38.517  21.461  25.515  1.00  0.00    -0.036 C 
ATOM     46  H   UNL A   1      39.118  21.209  24.666  1.00  0.00     0.028 H 
ATOM     47  H   UNL A   1      38.065  20.622  26.001  1.00  0.00     0.028 H 
BRANCH  45  48
ATOM     48  C   UNL A   1      39.429  22.093  26.560  1.00  0.00     0.018 C 
ATOM     49  H   UNL A   1      39.296  21.572  27.485  1.00  0.00     0.049 H 
ATOM     50  H   UNL A   1      39.155  23.125  26.629  1.00  0.00     0.049 H 
BRANCH  48  51
ATOM     51  N   UNL A   1      40.844  22.052  26.209  1.00  0.00    -0.352 N 
ATOM     52  C   UNL A   1      41.766  23.080  26.124  1.00  0.00     0.251 C 
ATOM     53  H   UNL A   1      41.196  21.156  26.002  1.00  0.00     0.163 HD
ATOM     54  O   UNL A   1      42.805  22.923  25.514  1.00  0.00    -0.269 OA
BRANCH  52  55
ATOM     55  C   UNL A   1      41.484  24.379  26.775  1.00  0.00     0.039 A 
ATOM     56  C   UNL A   1      42.086  24.696  27.996  1.00  0.00    -0.049 A 
ATOM     57  C   UNL A   1      40.582  25.266  26.190  1.00  0.00    -0.049 A 
ATOM     58  C   UNL A   1      41.820  25.933  28.577  1.00  0.00    -0.053 A 
ATOM     59  H   UNL A   1      42.717  24.024  28.460  1.00  0.00     0.063 H 
ATOM     60  C   UNL A   1      40.427  26.540  26.685  1.00  0.00    -0.053 A 
ATOM     61  H   UNL A   1      40.024  24.964  25.376  1.00  0.00     0.063 H 
ATOM     62  C   UNL A   1      41.006  26.861  27.901  1.00  0.00    -0.014 A 
ATOM     63  H   UNL A   1      42.217  26.168  29.500  1.00  0.00     0.063 H 
ATOM     64  H   UNL A   1      39.887  27.245  26.158  1.00  0.00     0.063 H 
BRANCH  62  65
ATOM     65  C   UNL A   1      40.885  28.224  28.400  1.00  0.00     0.031 A 
ATOM     66  C   UNL A   1      41.985  29.103  27.933  1.00  0.00     0.074 A 
ATOM     67  C   UNL A   1      39.833  28.705  29.097  1.00  0.00     0.049 A 
ATOM     68  N   UNL A   1      42.991  29.505  28.631  1.00  0.00    -0.248 NA
ATOM     69  C   UNL A   1      42.093  29.409  26.499  1.00  0.00    -0.034 C 
ATOM     70  C   UNL A   1      38.550  28.055  29.380  1.00  0.00    -0.036 A 
ATOM     71  N   UNL A   1      39.677  29.936  29.666  1.00  0.00    -0.354 N 
ATOM     72  C   UNL A   1      43.758  30.295  27.781  1.00  0.00     0.074 A 
ATOM     73  C   UNL A   1      43.267  30.044  26.454  1.00  0.00    -0.034 C 
ATOM     74  H   UNL A   1      41.437  29.191  25.732  1.00  0.00     0.065 H 
ATOM     75  C   UNL A   1      37.679  28.961  29.883  1.00  0.00    -0.036 A 
ATOM     76  H   UNL A   1      38.341  27.058  29.218  1.00  0.00     0.065 H 
ATOM     77  C   UNL A   1      38.389  30.204  30.122  1.00  0.00     0.049 A 
ATOM     78  H   UNL A   1      40.415  30.582  29.747  1.00  0.00     0.167 HD
ATOM     79  C   UNL A   1      44.538  31.282  28.301  1.00  0.00     0.037 A 
ATOM     80  H   UNL A   1      43.754  30.318  25.586  1.00  0.00     0.065 H 
ATOM     81  H   UNL A   1      36.678  28.796  30.067  1.00  0.00     0.065 H 
ATOM     82  C   UNL A   1      37.953  31.367  30.670  1.00  0.00     0.037 A 
ATOM     83  C   UNL A   1      44.694  31.090  29.726  1.00  0.00     0.049 A 
ATOM     84  C   UNL A   1      39.151  32.057  31.198  1.00  0.00     0.074 A 
ATOM     85  C   UNL A   1      45.308  30.165  30.542  1.00  0.00    -0.036 A 
ATOM     86  N   UNL A   1      43.765  31.745  30.492  1.00  0.00    -0.354 N 
ATOM     87  N   UNL A   1      39.850  31.622  32.208  1.00  0.00    -0.248 NA
ATOM     88  C   UNL A   1      39.805  33.054  30.365  1.00  0.00    -0.034 C 
ATOM     89  C   UNL A   1      44.493  30.083  31.711  1.00  0.00    -0.036 A 
ATOM     90  H   UNL A   1      46.176  29.641  30.348  1.00  0.00     0.065 H 
ATOM     91  C   UNL A   1      43.450  31.003  31.595  1.00  0.00     0.049 A 
ATOM     92  H   UNL A   1      43.379  32.626  30.277  1.00  0.00     0.167 HD
ATOM     93  C   UNL A   1      41.155  31.942  31.885  1.00  0.00     0.074 A 
ATOM     94  C   UNL A   1      41.048  32.958  30.842  1.00  0.00    -0.034 C 
ATOM     95  H   UNL A   1      39.420  33.659  29.622  1.00  0.00     0.065 H 
ATOM     96  H   UNL A   1      44.649  29.449  32.510  1.00  0.00     0.065 H 
ATOM     97  C   UNL A   1      42.179  31.131  32.279  1.00  0.00     0.037 A 
ATOM     98  H   UNL A   1      41.839  33.532  30.512  1.00  0.00     0.065 H 
BRANCH  79  99
ATOM     99  C   UNL A   1      44.734  32.648  27.672  1.00  0.00     0.064 A 
ATOM    100  C   UNL A   1      46.007  32.978  27.157  1.00  0.00     0.173 A 
ATOM    101  C   UNL A   1      43.855  33.741  27.840  1.00  0.00     0.173 A 
ATOM    102  F   UNL A   1      46.937  32.028  26.970  1.00  0.00    -0.203 F 
ATOM    103  C   UNL A   1      46.394  34.301  26.917  1.00  0.00     0.198 A 
ATOM    104  C   UNL A   1      44.229  35.053  27.554  1.00  0.00     0.198 A 
ATOM    105  F   UNL A   1      42.644  33.613  28.390  1.00  0.00    -0.203 F 
ATOM    106  F   UNL A   1      47.656  34.570  26.558  1.00  0.00    -0.200 F 
ATOM    107  C   UNL A   1      45.506  35.338  27.124  1.00  0.00     0.200 A 
ATOM    108  F   UNL A   1      43.360  36.049  27.785  1.00  0.00    -0.200 F 
ATOM    109  F   UNL A   1      45.892  36.610  26.957  1.00  0.00    -0.200 F 
ENDBRANCH  79  99
BRANCH  82 110
ATOM    110  C   UNL A   1      36.644  32.056  30.556  1.00  0.00     0.064 A 
ATOM    111  C   UNL A   1      35.791  32.167  31.672  1.00  0.00     0.173 A 
ATOM    112  C   UNL A   1      36.357  32.899  29.468  1.00  0.00     0.173 A 
ATOM    113  F   UNL A   1      36.007  31.421  32.765  1.00  0.00    -0.203 F 
ATOM    114  C   UNL A   1      34.757  33.109  31.720  1.00  0.00     0.198 A 
ATOM    115  C   UNL A   1      35.321  33.837  29.516  1.00  0.00     0.198 A 
ATOM    116  F   UNL A   1      37.139  32.903  28.379  1.00  0.00    -0.203 F 
ATOM    117  F   UNL A   1      34.025  33.244  32.835  1.00  0.00    -0.200 F 
ATOM    118  C   UNL A   1      34.537  33.957  30.649  1.00  0.00     0.200 A 
ATOM    119  F   UNL A   1      35.138  34.676  28.487  1.00  0.00    -0.200 F 
ATOM    120  F   UNL A   1      33.603  34.916  30.724  1.00  0.00    -0.200 F 
ENDBRANCH  82 110
BRANCH  97 121
ATOM    121  C   UNL A   1      41.911  30.167  33.400  1.00  0.00     0.064 A 
ATOM    122  C   UNL A   1      41.514  28.829  33.229  1.00  0.00     0.173 A 
ATOM    123  C   UNL A   1      42.203  30.592  34.704  1.00  0.00     0.173 A 
ATOM    124  F   UNL A   1      41.285  28.326  32.011  1.00  0.00    -0.203 F 
ATOM    125  C   UNL A   1      41.400  27.967  34.320  1.00  0.00     0.198 A 
ATOM    126  C   UNL A   1      42.126  29.720  35.785  1.00  0.00     0.198 A 
ATOM    127  F   UNL A   1      42.619  31.849  34.922  1.00  0.00    -0.203 F 
ATOM    128  F   UNL A   1      41.013  26.696  34.135  1.00  0.00    -0.200 F 
ATOM    129  C   UNL A   1      41.719  28.410  35.594  1.00  0.00     0.200 A 
ATOM    130  F   UNL A   1      42.476  30.143  37.006  1.00  0.00    -0.200 F 
ATOM    131  F   UNL A   1      41.658  27.567  36.635  1.00  0.00    -0.200 F 
ENDBRANCH  97 121
ENDBRANCH  62  65
ENDBRANCH  52  55
ENDBRANCH  48  51
ENDBRANCH  45  48
ENDBRANCH  42  45
ENDBRANCH  39  42
ENDBRANCH   1  39
TORSDOF 19
ENDMDL
MODEL 5
REMARK VINA RESULT:     -10.4      2.713      3.721
REMARK SMILES Cc1cc(C)c2c(OCCCC(=O)NCCCCCCNC(=O)c3ccc(-c4c5nc(c(-c6c(F)c(F)c(F)c(F)c6F)c6ccc([nH]6)c(-c6c(F)c(F)c(F)c(F)c6F)c6nc(c(-c7c(F)c(F)c(F)c(F)c7F)c7ccc4[nH]7)C=C6)C=C5)cc3)nsc2n1
REMARK SMILES IDX 16 1 15 4 14 7 12 8 13 9 11 11 10 14 9 17 8 20 7 21 2 22
REMARK SMILES IDX 3 23 90 24 4 25 89 27 6 28 88 29 87 30 1 31 5 35 17 39 18 42
REMARK SMILES IDX 19 45 20 48 21 51 22 52 23 54 24 55 25 56 86 57 26 58 85 60
REMARK SMILES IDX 27 62 28 65 29 66 79 67 30 68 84 69 78 70 80 71 31 72 83 73
REMARK SMILES IDX 77 75 76 77 32 79 64 82 44 83 63 84 45 85 48 86 62 87 81 88
REMARK SMILES IDX 46 89 47 91 61 93 82 94 49 97 33 99 34 100 42 101 35 102
REMARK SMILES IDX 36 103 40 104 43 105 37 106 38 107 41 108 39 109 65 110
REMARK SMILES IDX 66 111 74 112 67 113 68 114 72 115 75 116 69 117 70 118
REMARK SMILES IDX 73 119 71 120 50 121 51 122 59 123 52 124 53 125 57 126
REMARK SMILES IDX 60 127 54 128 55 129 58 130 56 131
REMARK H PARENT 16 2 16 3 15 5 15 6 14 10 11 12 11 13 10 15 10 16 9 18 9 19
REMARK H PARENT 3 26 1 32 1 33 1 34 5 36 5 37 5 38 17 40 17 41 18 43 18 44
REMARK H PARENT 19 46 19 47 20 49 20 50 21 53 25 59 86 61 26 63 85 64 84 74
REMARK H PARENT 78 76 80 78 83 80 77 81 45 90 48 92 81 95 46 96 82 98
REMARK Flexibility Score: inf
ROOT
ATOM      1  C   UNL A   1      36.210  22.211  25.753  1.00  0.00    -0.036 C 
ATOM      2  H   UNL A   1      36.085  22.238  26.816  1.00  0.00     0.028 H 
ATOM      3  H   UNL A   1      35.415  22.664  25.200  1.00  0.00     0.028 H 
ENDROOT
BRANCH   1   4
ATOM      4  C   UNL A   1      36.216  20.702  25.313  1.00  0.00     0.017 C 
ATOM      5  H   UNL A   1      36.820  20.617  24.432  1.00  0.00     0.049 H 
ATOM      6  H   UNL A   1      36.597  20.151  26.148  1.00  0.00     0.049 H 
BRANCH   4   7
ATOM      7  N   UNL A   1      34.817  20.094  24.997  1.00  0.00    -0.356 N 
ATOM      8  C   UNL A   1      33.498  20.201  24.625  1.00  0.00     0.220 C 
ATOM      9  O   UNL A   1      33.029  19.044  24.503  1.00  0.00    -0.275 OA
ATOM     10  H   UNL A   1      34.943  19.128  25.136  1.00  0.00     0.163 HD
BRANCH   8  11
ATOM     11  C   UNL A   1      32.461  21.384  24.124  1.00  0.00     0.030 C 
ATOM     12  H   UNL A   1      32.496  21.270  23.061  1.00  0.00     0.037 H 
ATOM     13  H   UNL A   1      31.751  21.171  24.895  1.00  0.00     0.037 H 
BRANCH  11  14
ATOM     14  C   UNL A   1      32.278  22.989  24.277  1.00  0.00    -0.010 C 
ATOM     15  H   UNL A   1      31.530  23.074  25.037  1.00  0.00     0.031 H 
ATOM     16  H   UNL A   1      33.325  23.208  24.297  1.00  0.00     0.031 H 
BRANCH  14  17
ATOM     17  C   UNL A   1      31.900  24.170  23.267  1.00  0.00     0.090 C 
ATOM     18  H   UNL A   1      32.181  23.814  22.298  1.00  0.00     0.071 H 
ATOM     19  H   UNL A   1      30.880  24.332  23.543  1.00  0.00     0.071 H 
BRANCH  17  20
ATOM     20  O   UNL A   1      32.393  25.518  23.332  1.00  0.00    -0.477 OA
BRANCH  20  21
ATOM     21  C   UNL A   1      31.592  26.608  23.460  1.00  0.00     0.235 A 
ATOM     22  C   UNL A   1      31.780  29.627  26.118  1.00  0.00     0.039 A 
ATOM     23  C   UNL A   1      31.801  28.354  26.684  1.00  0.00    -0.037 A 
ATOM     24  N   UNL A   1      31.298  29.865  24.881  1.00  0.00    -0.240 NA
ATOM     25  C   UNL A   1      31.431  27.216  25.938  1.00  0.00    -0.034 A 
ATOM     26  H   UNL A   1      32.094  28.242  27.667  1.00  0.00     0.064 H 
ATOM     27  C   UNL A   1      31.139  28.738  24.157  1.00  0.00     0.147 A 
ATOM     28  C   UNL A   1      31.365  27.441  24.580  1.00  0.00     0.078 A 
ATOM     29  S   UNL A   1      30.587  28.640  22.549  1.00  0.00    -0.012 S 
ATOM     30  N   UNL A   1      31.067  27.047  22.315  1.00  0.00    -0.153 NA
BRANCH  22  31
ATOM     31  C   UNL A   1      32.401  30.776  26.873  1.00  0.00    -0.022 C 
ATOM     32  H   UNL A   1      31.822  30.982  27.749  1.00  0.00     0.030 H 
ATOM     33  H   UNL A   1      32.423  31.644  26.247  1.00  0.00     0.030 H 
ATOM     34  H   UNL A   1      33.399  30.516  27.158  1.00  0.00     0.030 H 
ENDBRANCH  22  31
BRANCH  25  35
ATOM     35  C   UNL A   1      31.167  25.825  26.372  1.00  0.00    -0.039 C 
ATOM     36  H   UNL A   1      30.862  25.239  25.530  1.00  0.00     0.028 H 
ATOM     37  H   UNL A   1      30.390  25.822  27.108  1.00  0.00     0.028 H 
ATOM     38  H   UNL A   1      32.058  25.407  26.793  1.00  0.00     0.028 H 
ENDBRANCH  25  35
ENDBRANCH  20  21
ENDBRANCH  17  20
ENDBRANCH  14  17
ENDBRANCH  11  14
ENDBRANCH   8  11
ENDBRANCH   4   7
ENDBRANCH   1   4
BRANCH   1  39
ATOM     39  C   UNL A   1      37.465  23.030  25.410  1.00  0.00    -0.052 C 
ATOM     40  H   UNL A   1      37.157  24.048  25.293  1.00  0.00     0.027 H 
ATOM     41  H   UNL A   1      37.858  22.558  24.534  1.00  0.00     0.027 H 
BRANCH  39  42
ATOM     42  C   UNL A   1      38.637  23.018  26.412  1.00  0.00    -0.052 C 
ATOM     43  H   UNL A   1      38.217  23.165  27.386  1.00  0.00     0.027 H 
ATOM     44  H   UNL A   1      39.290  23.784  26.048  1.00  0.00     0.027 H 
BRANCH  42  45
ATOM     45  C   UNL A   1      39.546  21.774  26.495  1.00  0.00    -0.036 C 
ATOM     46  H   UNL A   1      39.822  21.506  25.497  1.00  0.00     0.028 H 
ATOM     47  H   UNL A   1      38.969  21.034  27.009  1.00  0.00     0.028 H 
BRANCH  45  48
ATOM     48  C   UNL A   1      40.828  21.924  27.307  1.00  0.00     0.018 C 
ATOM     49  H   UNL A   1      40.985  21.023  27.861  1.00  0.00     0.049 H 
ATOM     50  H   UNL A   1      40.698  22.777  27.940  1.00  0.00     0.049 H 
BRANCH  48  51
ATOM     51  N   UNL A   1      42.013  22.177  26.494  1.00  0.00    -0.352 N 
ATOM     52  C   UNL A   1      42.549  23.375  26.057  1.00  0.00     0.251 C 
ATOM     53  H   UNL A   1      42.507  21.371  26.216  1.00  0.00     0.163 HD
ATOM     54  O   UNL A   1      43.340  23.393  25.135  1.00  0.00    -0.269 OA
BRANCH  52  55
ATOM     55  C   UNL A   1      42.153  24.642  26.713  1.00  0.00     0.039 A 
ATOM     56  C   UNL A   1      42.726  25.008  27.934  1.00  0.00    -0.049 A 
ATOM     57  C   UNL A   1      41.175  25.447  26.130  1.00  0.00    -0.049 A 
ATOM     58  C   UNL A   1      42.351  26.215  28.519  1.00  0.00    -0.053 A 
ATOM     59  H   UNL A   1      43.414  24.394  28.395  1.00  0.00     0.063 H 
ATOM     60  C   UNL A   1      40.909  26.701  26.629  1.00  0.00    -0.053 A 
ATOM     61  H   UNL A   1      40.646  25.099  25.316  1.00  0.00     0.063 H 
ATOM     62  C   UNL A   1      41.457  27.069  27.846  1.00  0.00    -0.014 A 
ATOM     63  H   UNL A   1      42.727  26.482  29.442  1.00  0.00     0.063 H 
ATOM     64  H   UNL A   1      40.307  27.357  26.105  1.00  0.00     0.063 H 
BRANCH  62  65
ATOM     65  C   UNL A   1      41.217  28.414  28.349  1.00  0.00     0.031 A 
ATOM     66  C   UNL A   1      42.273  29.373  27.944  1.00  0.00     0.074 A 
ATOM     67  C   UNL A   1      40.101  28.812  28.996  1.00  0.00     0.049 A 
ATOM     68  N   UNL A   1      43.213  29.837  28.694  1.00  0.00    -0.248 NA
ATOM     69  C   UNL A   1      42.430  29.702  26.520  1.00  0.00    -0.034 C 
ATOM     70  C   UNL A   1      38.854  28.072  29.210  1.00  0.00    -0.036 A 
ATOM     71  N   UNL A   1      39.830  30.023  29.566  1.00  0.00    -0.354 N 
ATOM     72  C   UNL A   1      43.963  30.688  27.890  1.00  0.00     0.074 A 
ATOM     73  C   UNL A   1      43.557  30.418  26.537  1.00  0.00    -0.034 C 
ATOM     74  H   UNL A   1      41.829  29.448  25.719  1.00  0.00     0.065 H 
ATOM     75  C   UNL A   1      37.898  28.908  29.676  1.00  0.00    -0.036 A 
ATOM     76  H   UNL A   1      38.724  27.064  29.030  1.00  0.00     0.065 H 
ATOM     77  C   UNL A   1      38.506  30.196  29.960  1.00  0.00     0.049 A 
ATOM     78  H   UNL A   1      40.517  30.718  29.689  1.00  0.00     0.167 HD
ATOM     79  C   UNL A   1      44.646  31.721  28.456  1.00  0.00     0.037 A 
ATOM     80  H   UNL A   1      44.065  30.735  25.697  1.00  0.00     0.065 H 
ATOM     81  H   UNL A   1      36.903  28.672  29.808  1.00  0.00     0.065 H 
ATOM     82  C   UNL A   1      37.963  31.318  30.494  1.00  0.00     0.037 A 
ATOM     83  C   UNL A   1      44.744  31.525  29.884  1.00  0.00     0.049 A 
ATOM     84  C   UNL A   1      39.081  32.085  31.087  1.00  0.00     0.074 A 
ATOM     85  C   UNL A   1      45.382  30.636  30.723  1.00  0.00    -0.036 A 
ATOM     86  N   UNL A   1      43.735  32.104  30.609  1.00  0.00    -0.354 N 
ATOM     87  N   UNL A   1      39.759  31.689  32.127  1.00  0.00    -0.248 NA
ATOM     88  C   UNL A   1      39.704  33.134  30.295  1.00  0.00    -0.034 C 
ATOM     89  C   UNL A   1      44.518  30.484  31.849  1.00  0.00    -0.036 A 
ATOM     90  H   UNL A   1      46.293  30.176  30.568  1.00  0.00     0.065 H 
ATOM     91  C   UNL A   1      43.419  31.330  31.689  1.00  0.00     0.049 A 
ATOM     92  H   UNL A   1      43.299  32.958  30.382  1.00  0.00     0.167 HD
ATOM     93  C   UNL A   1      41.053  32.103  31.872  1.00  0.00     0.074 A 
ATOM     94  C   UNL A   1      40.925  33.120  30.833  1.00  0.00    -0.034 C 
ATOM     95  H   UNL A   1      39.314  33.719  29.538  1.00  0.00     0.065 H 
ATOM     96  H   UNL A   1      44.678  29.853  32.650  1.00  0.00     0.065 H 
ATOM     97  C   UNL A   1      42.111  31.361  32.310  1.00  0.00     0.037 A 
ATOM     98  H   UNL A   1      41.689  33.752  30.547  1.00  0.00     0.065 H 
BRANCH  79  99
ATOM     99  C   UNL A   1      44.775  33.105  27.847  1.00  0.00     0.064 A 
ATOM    100  C   UNL A   1      46.059  33.561  27.475  1.00  0.00     0.173 A 
ATOM    101  C   UNL A   1      43.781  34.106  27.913  1.00  0.00     0.173 A 
ATOM    102  F   UNL A   1      47.092  32.708  27.395  1.00  0.00    -0.203 F 
ATOM    103  C   UNL A   1      46.339  34.917  27.275  1.00  0.00     0.198 A 
ATOM    104  C   UNL A   1      44.055  35.450  27.666  1.00  0.00     0.198 A 
ATOM    105  F   UNL A   1      42.535  33.857  28.327  1.00  0.00    -0.203 F 
ATOM    106  F   UNL A   1      47.601  35.310  27.056  1.00  0.00    -0.200 F 
ATOM    107  C   UNL A   1      45.337  35.861  27.379  1.00  0.00     0.200 A 
ATOM    108  F   UNL A   1      43.073  36.354  27.797  1.00  0.00    -0.200 F 
ATOM    109  F   UNL A   1      45.613  37.166  27.252  1.00  0.00    -0.200 F 
ENDBRANCH  79  99
BRANCH  82 110
ATOM    110  C   UNL A   1      36.616  31.916  30.321  1.00  0.00     0.064 A 
ATOM    111  C   UNL A   1      35.796  32.177  31.437  1.00  0.00     0.173 A 
ATOM    112  C   UNL A   1      36.247  32.544  29.118  1.00  0.00     0.173 A 
ATOM    113  F   UNL A   1      36.089  31.642  32.631  1.00  0.00    -0.203 F 
ATOM    114  C   UNL A   1      34.716  33.064  31.367  1.00  0.00     0.198 A 
ATOM    115  C   UNL A   1      35.165  33.426  29.050  1.00  0.00     0.198 A 
ATOM    116  F   UNL A   1      36.990  32.398  28.012  1.00  0.00    -0.203 F 
ATOM    117  F   UNL A   1      34.016  33.354  32.474  1.00  0.00    -0.200 F 
ATOM    118  C   UNL A   1      34.414  33.703  30.179  1.00  0.00     0.200 A 
ATOM    119  F   UNL A   1      34.901  34.067  27.902  1.00  0.00    -0.200 F 
ATOM    120  F   UNL A   1      33.433  34.616  30.130  1.00  0.00    -0.200 F 
ENDBRANCH  82 110
BRANCH  97 121
ATOM    121  C   UNL A   1      41.857  30.368  33.409  1.00  0.00     0.064 A 
ATOM    122  C   UNL A   1      41.560  29.008  33.208  1.00  0.00     0.173 A 
ATOM    123  C   UNL A   1      42.057  30.797  34.728  1.00  0.00     0.173 A 
ATOM    124  F   UNL A   1      41.423  28.505  31.976  1.00  0.00    -0.203 F 
ATOM    125  C   UNL A   1      41.454  28.128  34.285  1.00  0.00     0.198 A 
ATOM    126  C   UNL A   1      41.988  29.909  35.797  1.00  0.00     0.198 A 
ATOM    127  F   UNL A   1      42.376  32.076  34.977  1.00  0.00    -0.203 F 
ATOM    128  F   UNL A   1      41.164  26.836  34.071  1.00  0.00    -0.200 F 
ATOM    129  C   UNL A   1      41.681  28.577  35.576  1.00  0.00     0.200 A 
ATOM    130  F   UNL A   1      42.252  30.340  37.037  1.00  0.00    -0.200 F 
ATOM    131  F   UNL A   1      41.629  27.720  36.606  1.00  0.00    -0.200 F 
ENDBRANCH  97 121
ENDBRANCH  62  65
ENDBRANCH  52  55
ENDBRANCH  48  51
ENDBRANCH  45  48
ENDBRANCH  42  45
ENDBRANCH  39  42
ENDBRANCH   1  39
TORSDOF 19
ENDMDL
MODEL 6
REMARK VINA RESULT:     -10.3      4.067     10.104
REMARK SMILES Cc1cc(C)c2c(OCCCC(=O)NCCCCCCNC(=O)c3ccc(-c4c5nc(c(-c6c(F)c(F)c(F)c(F)c6F)c6ccc([nH]6)c(-c6c(F)c(F)c(F)c(F)c6F)c6nc(c(-c7c(F)c(F)c(F)c(F)c7F)c7ccc4[nH]7)C=C6)C=C5)cc3)nsc2n1
REMARK SMILES IDX 16 1 15 4 14 7 12 8 13 9 11 11 10 14 9 17 8 20 7 21 2 22
REMARK SMILES IDX 3 23 90 24 4 25 89 27 6 28 88 29 87 30 1 31 5 35 17 39 18 42
REMARK SMILES IDX 19 45 20 48 21 51 22 52 23 54 24 55 25 56 86 57 26 58 85 60
REMARK SMILES IDX 27 62 28 65 29 66 79 67 30 68 84 69 78 70 80 71 31 72 83 73
REMARK SMILES IDX 77 75 76 77 32 79 64 82 44 83 63 84 45 85 48 86 62 87 81 88
REMARK SMILES IDX 46 89 47 91 61 93 82 94 49 97 33 99 34 100 42 101 35 102
REMARK SMILES IDX 36 103 40 104 43 105 37 106 38 107 41 108 39 109 65 110
REMARK SMILES IDX 66 111 74 112 67 113 68 114 72 115 75 116 69 117 70 118
REMARK SMILES IDX 73 119 71 120 50 121 51 122 59 123 52 124 53 125 57 126
REMARK SMILES IDX 60 127 54 128 55 129 58 130 56 131
REMARK H PARENT 16 2 16 3 15 5 15 6 14 10 11 12 11 13 10 15 10 16 9 18 9 19
REMARK H PARENT 3 26 1 32 1 33 1 34 5 36 5 37 5 38 17 40 17 41 18 43 18 44
REMARK H PARENT 19 46 19 47 20 49 20 50 21 53 25 59 86 61 26 63 85 64 84 74
REMARK H PARENT 78 76 80 78 83 80 77 81 45 90 48 92 81 95 46 96 82 98
REMARK Flexibility Score: inf
ROOT
ATOM      1  C   UNL A   1      34.763  32.376  28.947  1.00  0.00    -0.036 C 
ATOM      2  H   UNL A   1      35.324  32.014  29.784  1.00  0.00     0.028 H 
ATOM      3  H   UNL A   1      33.741  32.605  29.162  1.00  0.00     0.028 H 
ENDROOT
BRANCH   1   4
ATOM      4  C   UNL A   1      34.716  31.231  27.872  1.00  0.00     0.017 C 
ATOM      5  H   UNL A   1      35.432  31.463  27.110  1.00  0.00     0.049 H 
ATOM      6  H   UNL A   1      34.929  30.323  28.397  1.00  0.00     0.049 H 
BRANCH   4   7
ATOM      7  N   UNL A   1      33.334  31.018  27.185  1.00  0.00    -0.356 N 
ATOM      8  C   UNL A   1      32.248  30.246  26.846  1.00  0.00     0.220 C 
ATOM      9  O   UNL A   1      31.406  30.982  26.278  1.00  0.00    -0.275 OA
ATOM     10  H   UNL A   1      33.132  31.894  26.786  1.00  0.00     0.163 HD
BRANCH   8  11
ATOM     11  C   UNL A   1      31.689  28.722  27.146  1.00  0.00     0.030 C 
ATOM     12  H   UNL A   1      32.382  28.377  27.884  1.00  0.00     0.037 H 
ATOM     13  H   UNL A   1      30.665  29.032  27.141  1.00  0.00     0.037 H 
BRANCH  11  14
ATOM     14  C   UNL A   1      31.373  27.357  26.326  1.00  0.00    -0.010 C 
ATOM     15  H   UNL A   1      30.305  27.302  26.355  1.00  0.00     0.031 H 
ATOM     16  H   UNL A   1      32.042  27.568  25.519  1.00  0.00     0.031 H 
BRANCH  14  17
ATOM     17  C   UNL A   1      31.815  25.829  26.491  1.00  0.00     0.090 C 
ATOM     18  H   UNL A   1      31.708  25.615  27.535  1.00  0.00     0.071 H 
ATOM     19  H   UNL A   1      31.197  25.375  25.747  1.00  0.00     0.071 H 
BRANCH  17  20
ATOM     20  O   UNL A   1      33.092  25.282  26.123  1.00  0.00    -0.477 OA
BRANCH  20  21
ATOM     21  C   UNL A   1      33.367  23.951  26.112  1.00  0.00     0.235 A 
ATOM     22  C   UNL A   1      36.811  22.054  25.246  1.00  0.00     0.039 A 
ATOM     23  C   UNL A   1      36.402  22.979  24.288  1.00  0.00    -0.037 A 
ATOM     24  N   UNL A   1      35.960  21.505  26.138  1.00  0.00    -0.240 NA
ATOM     25  C   UNL A   1      35.088  23.489  24.279  1.00  0.00    -0.034 A 
ATOM     26  H   UNL A   1      37.074  23.297  23.572  1.00  0.00     0.064 H 
ATOM     27  C   UNL A   1      34.782  22.159  26.205  1.00  0.00     0.147 A 
ATOM     28  C   UNL A   1      34.388  23.242  25.440  1.00  0.00     0.078 A 
ATOM     29  S   UNL A   1      33.477  21.784  27.232  1.00  0.00    -0.012 S 
ATOM     30  N   UNL A   1      32.665  23.234  26.990  1.00  0.00    -0.153 NA
BRANCH  22  31
ATOM     31  C   UNL A   1      38.277  21.716  25.361  1.00  0.00    -0.022 C 
ATOM     32  H   UNL A   1      38.500  20.880  24.731  1.00  0.00     0.030 H 
ATOM     33  H   UNL A   1      38.508  21.469  26.376  1.00  0.00     0.030 H 
ATOM     34  H   UNL A   1      38.861  22.558  25.056  1.00  0.00     0.030 H 
ENDBRANCH  22  31
BRANCH  25  35
ATOM     35  C   UNL A   1      34.372  24.289  23.257  1.00  0.00    -0.039 C 
ATOM     36  H   UNL A   1      33.676  24.943  23.739  1.00  0.00     0.028 H 
ATOM     37  H   UNL A   1      33.847  23.633  22.595  1.00  0.00     0.028 H 
ATOM     38  H   UNL A   1      35.079  24.868  22.699  1.00  0.00     0.028 H 
ENDBRANCH  25  35
ENDBRANCH  20  21
ENDBRANCH  17  20
ENDBRANCH  14  17
ENDBRANCH  11  14
ENDBRANCH   8  11
ENDBRANCH   4   7
ENDBRANCH   1   4
BRANCH   1  39
ATOM     39  C   UNL A   1      35.393  33.707  28.503  1.00  0.00    -0.052 C 
ATOM     40  H   UNL A   1      36.073  33.486  27.708  1.00  0.00     0.027 H 
ATOM     41  H   UNL A   1      35.831  34.103  29.395  1.00  0.00     0.027 H 
BRANCH  39  42
ATOM     42  C   UNL A   1      34.454  34.825  28.007  1.00  0.00    -0.052 C 
ATOM     43  H   UNL A   1      33.680  34.354  27.437  1.00  0.00     0.027 H 
ATOM     44  H   UNL A   1      35.107  35.488  27.477  1.00  0.00     0.027 H 
BRANCH  42  45
ATOM     45  C   UNL A   1      33.761  35.742  29.037  1.00  0.00    -0.036 C 
ATOM     46  H   UNL A   1      32.953  36.236  28.540  1.00  0.00     0.028 H 
ATOM     47  H   UNL A   1      34.528  36.397  29.394  1.00  0.00     0.028 H 
BRANCH  45  48
ATOM     48  C   UNL A   1      33.197  35.061  30.279  1.00  0.00     0.018 C 
ATOM     49  H   UNL A   1      33.718  34.138  30.425  1.00  0.00     0.049 H 
ATOM     50  H   UNL A   1      32.150  34.918  30.107  1.00  0.00     0.049 H 
BRANCH  48  51
ATOM     51  N   UNL A   1      33.322  35.857  31.495  1.00  0.00    -0.352 N 
ATOM     52  C   UNL A   1      34.078  35.627  32.631  1.00  0.00     0.251 C 
ATOM     53  H   UNL A   1      32.788  36.685  31.508  1.00  0.00     0.163 HD
ATOM     54  O   UNL A   1      33.824  36.211  33.665  1.00  0.00    -0.269 OA
BRANCH  52  55
ATOM     55  C   UNL A   1      35.200  34.661  32.587  1.00  0.00     0.039 A 
ATOM     56  C   UNL A   1      34.945  33.288  32.642  1.00  0.00    -0.049 A 
ATOM     57  C   UNL A   1      36.513  35.127  32.535  1.00  0.00    -0.049 A 
ATOM     58  C   UNL A   1      36.017  32.402  32.578  1.00  0.00    -0.053 A 
ATOM     59  H   UNL A   1      33.979  32.937  32.729  1.00  0.00     0.063 H 
ATOM     60  C   UNL A   1      37.559  34.259  32.329  1.00  0.00    -0.053 A 
ATOM     61  H   UNL A   1      36.701  36.135  32.654  1.00  0.00     0.063 H 
ATOM     62  C   UNL A   1      37.322  32.896  32.397  1.00  0.00    -0.014 A 
ATOM     63  H   UNL A   1      35.855  31.387  32.663  1.00  0.00     0.063 H 
ATOM     64  H   UNL A   1      38.506  34.617  32.128  1.00  0.00     0.063 H 
BRANCH  62  65
ATOM     65  C   UNL A   1      38.419  31.977  32.128  1.00  0.00     0.031 A 
ATOM     66  C   UNL A   1      39.165  31.604  33.354  1.00  0.00     0.074 A 
ATOM     67  C   UNL A   1      38.672  31.399  30.934  1.00  0.00     0.049 A 
ATOM     68  N   UNL A   1      40.326  32.041  33.705  1.00  0.00    -0.248 NA
ATOM     69  C   UNL A   1      38.482  30.823  34.395  1.00  0.00    -0.034 C 
ATOM     70  C   UNL A   1      37.861  31.430  29.712  1.00  0.00    -0.036 A 
ATOM     71  N   UNL A   1      39.716  30.594  30.579  1.00  0.00    -0.354 N 
ATOM     72  C   UNL A   1      40.618  31.427  34.918  1.00  0.00     0.074 A 
ATOM     73  C   UNL A   1      39.385  30.849  35.379  1.00  0.00    -0.034 C 
ATOM     74  H   UNL A   1      37.552  30.375  34.373  1.00  0.00     0.065 H 
ATOM     75  C   UNL A   1      38.334  30.524  28.826  1.00  0.00    -0.036 A 
ATOM     76  H   UNL A   1      37.052  32.050  29.553  1.00  0.00     0.065 H 
ATOM     77  C   UNL A   1      39.576  29.975  29.339  1.00  0.00     0.049 A 
ATOM     78  H   UNL A   1      40.505  30.463  31.152  1.00  0.00     0.167 HD
ATOM     79  C   UNL A   1      41.916  31.228  35.276  1.00  0.00     0.037 A 
ATOM     80  H   UNL A   1      39.221  30.503  36.337  1.00  0.00     0.065 H 
ATOM     81  H   UNL A   1      37.886  30.265  27.933  1.00  0.00     0.065 H 
ATOM     82  C   UNL A   1      40.435  29.087  28.780  1.00  0.00     0.037 A 
ATOM     83  C   UNL A   1      42.786  32.037  34.452  1.00  0.00     0.049 A 
ATOM     84  C   UNL A   1      41.751  29.317  29.416  1.00  0.00     0.074 A 
ATOM     85  C   UNL A   1      43.030  33.383  34.290  1.00  0.00    -0.036 A 
ATOM     86  N   UNL A   1      43.247  31.408  33.324  1.00  0.00    -0.354 N 
ATOM     87  N   UNL A   1      42.458  30.398  29.244  1.00  0.00    -0.248 NA
ATOM     88  C   UNL A   1      42.128  28.494  30.555  1.00  0.00    -0.034 C 
ATOM     89  C   UNL A   1      43.353  33.551  32.909  1.00  0.00    -0.036 A 
ATOM     90  H   UNL A   1      42.988  34.117  35.015  1.00  0.00     0.065 H 
ATOM     91  C   UNL A   1      43.356  32.299  32.294  1.00  0.00     0.049 A 
ATOM     92  H   UNL A   1      43.468  30.450  33.266  1.00  0.00     0.167 HD
ATOM     93  C   UNL A   1      43.052  30.618  30.473  1.00  0.00     0.074 A 
ATOM     94  C   UNL A   1      42.952  29.342  31.175  1.00  0.00    -0.034 C 
ATOM     95  H   UNL A   1      41.841  27.536  30.809  1.00  0.00     0.065 H 
ATOM     96  H   UNL A   1      43.551  34.450  32.442  1.00  0.00     0.065 H 
ATOM     97  C   UNL A   1      43.284  31.891  30.906  1.00  0.00     0.037 A 
ATOM     98  H   UNL A   1      43.458  29.121  32.047  1.00  0.00     0.065 H 
BRANCH  79  99
ATOM     99  C   UNL A   1      42.437  29.987  35.976  1.00  0.00     0.064 A 
ATOM    100  C   UNL A   1      43.449  30.136  36.951  1.00  0.00     0.173 A 
ATOM    101  C   UNL A   1      42.237  28.665  35.520  1.00  0.00     0.173 A 
ATOM    102  F   UNL A   1      43.746  31.346  37.449  1.00  0.00    -0.203 F 
ATOM    103  C   UNL A   1      44.249  29.066  37.363  1.00  0.00     0.198 A 
ATOM    104  C   UNL A   1      43.006  27.593  35.970  1.00  0.00     0.198 A 
ATOM    105  F   UNL A   1      41.376  28.364  34.543  1.00  0.00    -0.203 F 
ATOM    106  F   UNL A   1      45.282  29.287  38.188  1.00  0.00    -0.200 F 
ATOM    107  C   UNL A   1      44.032  27.796  36.866  1.00  0.00     0.200 A 
ATOM    108  F   UNL A   1      42.794  26.372  35.456  1.00  0.00    -0.200 F 
ATOM    109  F   UNL A   1      44.836  26.782  37.209  1.00  0.00    -0.200 F 
ENDBRANCH  79  99
BRANCH  82 110
ATOM    110  C   UNL A   1      40.175  27.893  27.938  1.00  0.00     0.064 A 
ATOM    111  C   UNL A   1      40.872  27.701  26.728  1.00  0.00     0.173 A 
ATOM    112  C   UNL A   1      39.505  26.769  28.454  1.00  0.00     0.173 A 
ATOM    113  F   UNL A   1      41.562  28.710  26.178  1.00  0.00    -0.203 F 
ATOM    114  C   UNL A   1      40.947  26.447  26.111  1.00  0.00     0.198 A 
ATOM    115  C   UNL A   1      39.577  25.519  27.834  1.00  0.00     0.198 A 
ATOM    116  F   UNL A   1      38.854  26.837  29.625  1.00  0.00    -0.203 F 
ATOM    117  F   UNL A   1      41.695  26.287  25.009  1.00  0.00    -0.200 F 
ATOM    118  C   UNL A   1      40.317  25.353  26.675  1.00  0.00     0.200 A 
ATOM    119  F   UNL A   1      38.991  24.458  28.407  1.00  0.00    -0.200 F 
ATOM    120  F   UNL A   1      40.456  24.135  26.133  1.00  0.00    -0.200 F 
ENDBRANCH  82 110
BRANCH  97 121
ATOM    121  C   UNL A   1      43.291  32.985  29.875  1.00  0.00     0.064 A 
ATOM    122  C   UNL A   1      42.203  33.831  29.597  1.00  0.00     0.173 A 
ATOM    123  C   UNL A   1      44.508  33.268  29.240  1.00  0.00     0.173 A 
ATOM    124  F   UNL A   1      41.027  33.671  30.214  1.00  0.00    -0.203 F 
ATOM    125  C   UNL A   1      42.330  34.898  28.708  1.00  0.00     0.198 A 
ATOM    126  C   UNL A   1      44.642  34.357  28.383  1.00  0.00     0.198 A 
ATOM    127  F   UNL A   1      45.589  32.515  29.494  1.00  0.00    -0.203 F 
ATOM    128  F   UNL A   1      41.277  35.689  28.451  1.00  0.00    -0.200 F 
ATOM    129  C   UNL A   1      43.552  35.167  28.113  1.00  0.00     0.200 A 
ATOM    130  F   UNL A   1      45.836  34.636  27.846  1.00  0.00    -0.200 F 
ATOM    131  F   UNL A   1      43.687  36.224  27.298  1.00  0.00    -0.200 F 
ENDBRANCH  97 121
ENDBRANCH  62  65
ENDBRANCH  52  55
ENDBRANCH  48  51
ENDBRANCH  45  48
ENDBRANCH  42  45
ENDBRANCH  39  42
ENDBRANCH   1  39
TORSDOF 19
ENDMDL
MODEL 7
REMARK VINA RESULT:     -10.3      4.721      8.665
REMARK SMILES Cc1cc(C)c2c(OCCCC(=O)NCCCCCCNC(=O)c3ccc(-c4c5nc(c(-c6c(F)c(F)c(F)c(F)c6F)c6ccc([nH]6)c(-c6c(F)c(F)c(F)c(F)c6F)c6nc(c(-c7c(F)c(F)c(F)c(F)c7F)c7ccc4[nH]7)C=C6)C=C5)cc3)nsc2n1
REMARK SMILES IDX 16 1 15 4 14 7 12 8 13 9 11 11 10 14 9 17 8 20 7 21 2 22
REMARK SMILES IDX 3 23 90 24 4 25 89 27 6 28 88 29 87 30 1 31 5 35 17 39 18 42
REMARK SMILES IDX 19 45 20 48 21 51 22 52 23 54 24 55 25 56 86 57 26 58 85 60
REMARK SMILES IDX 27 62 28 65 29 66 79 67 30 68 84 69 78 70 80 71 31 72 83 73
REMARK SMILES IDX 77 75 76 77 32 79 64 82 44 83 63 84 45 85 48 86 62 87 81 88
REMARK SMILES IDX 46 89 47 91 61 93 82 94 49 97 33 99 34 100 42 101 35 102
REMARK SMILES IDX 36 103 40 104 43 105 37 106 38 107 41 108 39 109 65 110
REMARK SMILES IDX 66 111 74 112 67 113 68 114 72 115 75 116 69 117 70 118
REMARK SMILES IDX 73 119 71 120 50 121 51 122 59 123 52 124 53 125 57 126
REMARK SMILES IDX 60 127 54 128 55 129 58 130 56 131
REMARK H PARENT 16 2 16 3 15 5 15 6 14 10 11 12 11 13 10 15 10 16 9 18 9 19
REMARK H PARENT 3 26 1 32 1 33 1 34 5 36 5 37 5 38 17 40 17 41 18 43 18 44
REMARK H PARENT 19 46 19 47 20 49 20 50 21 53 25 59 86 61 26 63 85 64 84 74
REMARK H PARENT 78 76 80 78 83 80 77 81 45 90 48 92 81 95 46 96 82 98
REMARK Flexibility Score: inf
ROOT
ATOM      1  C   UNL A   1      44.922  26.046  26.765  1.00  0.00    -0.036 C 
ATOM      2  H   UNL A   1      44.054  25.722  27.300  1.00  0.00     0.028 H 
ATOM      3  H   UNL A   1      45.484  26.814  27.252  1.00  0.00     0.028 H 
ENDROOT
BRANCH   1   4
ATOM      4  C   UNL A   1      44.439  26.679  25.409  1.00  0.00     0.017 C 
ATOM      5  H   UNL A   1      44.118  25.883  24.769  1.00  0.00     0.049 H 
ATOM      6  H   UNL A   1      43.658  27.365  25.664  1.00  0.00     0.049 H 
BRANCH   4   7
ATOM      7  N   UNL A   1      45.511  27.511  24.644  1.00  0.00    -0.356 N 
ATOM      8  C   UNL A   1      46.780  27.706  24.153  1.00  0.00     0.220 C 
ATOM      9  O   UNL A   1      46.778  28.755  23.465  1.00  0.00    -0.275 OA
ATOM     10  H   UNL A   1      45.025  28.320  24.364  1.00  0.00     0.163 HD
BRANCH   8  11
ATOM     11  C   UNL A   1      48.199  26.866  24.063  1.00  0.00     0.030 C 
ATOM     12  H   UNL A   1      48.006  26.198  23.251  1.00  0.00     0.037 H 
ATOM     13  H   UNL A   1      48.795  27.743  24.211  1.00  0.00     0.037 H 
BRANCH  11  14
ATOM     14  C   UNL A   1      49.139  25.957  25.024  1.00  0.00    -0.010 C 
ATOM     15  H   UNL A   1      48.610  25.964  25.953  1.00  0.00     0.031 H 
ATOM     16  H   UNL A   1      49.288  25.176  24.308  1.00  0.00     0.031 H 
BRANCH  14  17
ATOM     17  C   UNL A   1      50.670  26.032  25.480  1.00  0.00     0.090 C 
ATOM     18  H   UNL A   1      50.865  25.100  25.969  1.00  0.00     0.071 H 
ATOM     19  H   UNL A   1      51.128  26.299  24.552  1.00  0.00     0.071 H 
BRANCH  17  20
ATOM     20  O   UNL A   1      51.240  27.035  26.337  1.00  0.00    -0.477 OA
BRANCH  20  21
ATOM     21  C   UNL A   1      51.025  27.092  27.677  1.00  0.00     0.235 A 
ATOM     22  C   UNL A   1      47.602  26.625  29.745  1.00  0.00     0.039 A 
ATOM     23  C   UNL A   1      47.528  27.543  28.701  1.00  0.00    -0.037 A 
ATOM     24  N   UNL A   1      48.771  26.260  30.311  1.00  0.00    -0.240 NA
ATOM     25  C   UNL A   1      48.692  28.052  28.090  1.00  0.00    -0.034 A 
ATOM     26  H   UNL A   1      46.603  27.857  28.367  1.00  0.00     0.064 H 
ATOM     27  C   UNL A   1      49.843  26.624  29.576  1.00  0.00     0.147 A 
ATOM     28  C   UNL A   1      49.834  27.343  28.395  1.00  0.00     0.078 A 
ATOM     29  S   UNL A   1      51.474  26.311  29.947  1.00  0.00    -0.012 S 
ATOM     30  N   UNL A   1      52.059  26.696  28.421  1.00  0.00    -0.153 NA
BRANCH  22  31
ATOM     31  C   UNL A   1      46.343  25.936  30.208  1.00  0.00    -0.022 C 
ATOM     32  H   UNL A   1      45.918  25.385  29.395  1.00  0.00     0.030 H 
ATOM     33  H   UNL A   1      45.640  26.667  30.549  1.00  0.00     0.030 H 
ATOM     34  H   UNL A   1      46.578  25.266  31.009  1.00  0.00     0.030 H 
ENDBRANCH  22  31
BRANCH  25  35
ATOM     35  C   UNL A   1      48.869  29.174  27.138  1.00  0.00    -0.039 C 
ATOM     36  H   UNL A   1      48.509  28.884  26.173  1.00  0.00     0.028 H 
ATOM     37  H   UNL A   1      49.907  29.425  27.072  1.00  0.00     0.028 H 
ATOM     38  H   UNL A   1      48.318  30.024  27.483  1.00  0.00     0.028 H 
ENDBRANCH  25  35
ENDBRANCH  20  21
ENDBRANCH  17  20
ENDBRANCH  14  17
ENDBRANCH  11  14
ENDBRANCH   8  11
ENDBRANCH   4   7
ENDBRANCH   1   4
BRANCH   1  39
ATOM     39  C   UNL A   1      45.879  24.847  26.658  1.00  0.00    -0.052 C 
ATOM     40  H   UNL A   1      46.539  24.892  27.499  1.00  0.00     0.027 H 
ATOM     41  H   UNL A   1      46.338  24.958  25.698  1.00  0.00     0.027 H 
BRANCH  39  42
ATOM     42  C   UNL A   1      45.269  23.431  26.629  1.00  0.00    -0.052 C 
ATOM     43  H   UNL A   1      44.504  23.405  27.378  1.00  0.00     0.027 H 
ATOM     44  H   UNL A   1      46.112  22.789  26.780  1.00  0.00     0.027 H 
BRANCH  42  45
ATOM     45  C   UNL A   1      44.639  22.907  25.323  1.00  0.00    -0.036 C 
ATOM     46  H   UNL A   1      44.584  21.840  25.393  1.00  0.00     0.028 H 
ATOM     47  H   UNL A   1      45.272  23.266  24.538  1.00  0.00     0.028 H 
BRANCH  45  48
ATOM     48  C   UNL A   1      43.244  23.423  24.987  1.00  0.00     0.018 C 
ATOM     49  H   UNL A   1      43.168  23.529  23.926  1.00  0.00     0.049 H 
ATOM     50  H   UNL A   1      43.124  24.355  25.501  1.00  0.00     0.049 H 
BRANCH  48  51
ATOM     51  N   UNL A   1      42.168  22.548  25.440  1.00  0.00    -0.352 N 
ATOM     52  C   UNL A   1      41.289  22.700  26.498  1.00  0.00     0.251 C 
ATOM     53  H   UNL A   1      42.049  21.726  24.912  1.00  0.00     0.163 HD
ATOM     54  O   UNL A   1      40.676  21.743  26.927  1.00  0.00    -0.269 OA
BRANCH  52  55
ATOM     55  C   UNL A   1      41.096  24.034  27.112  1.00  0.00     0.039 A 
ATOM     56  C   UNL A   1      41.890  24.429  28.192  1.00  0.00    -0.049 A 
ATOM     57  C   UNL A   1      40.092  24.875  26.637  1.00  0.00    -0.049 A 
ATOM     58  C   UNL A   1      41.702  25.696  28.737  1.00  0.00    -0.053 A 
ATOM     59  H   UNL A   1      42.603  23.792  28.580  1.00  0.00     0.063 H 
ATOM     60  C   UNL A   1      39.999  26.176  27.077  1.00  0.00    -0.053 A 
ATOM     61  H   UNL A   1      39.410  24.519  25.949  1.00  0.00     0.063 H 
ATOM     62  C   UNL A   1      40.768  26.574  28.156  1.00  0.00    -0.014 A 
ATOM     63  H   UNL A   1      42.245  25.990  29.564  1.00  0.00     0.063 H 
ATOM     64  H   UNL A   1      39.364  26.843  26.610  1.00  0.00     0.063 H 
BRANCH  62  65
ATOM     65  C   UNL A   1      40.708  27.964  28.589  1.00  0.00     0.031 A 
ATOM     66  C   UNL A   1      41.805  28.786  28.024  1.00  0.00     0.074 A 
ATOM     67  C   UNL A   1      39.705  28.509  29.310  1.00  0.00     0.049 A 
ATOM     68  N   UNL A   1      42.855  29.195  28.651  1.00  0.00    -0.248 NA
ATOM     69  C   UNL A   1      41.850  29.016  26.572  1.00  0.00    -0.034 C 
ATOM     70  C   UNL A   1      38.421  27.912  29.688  1.00  0.00    -0.036 A 
ATOM     71  N   UNL A   1      39.609  29.772  29.820  1.00  0.00    -0.354 N 
ATOM     72  C   UNL A   1      43.599  29.918  27.724  1.00  0.00     0.074 A 
ATOM     73  C   UNL A   1      43.036  29.614  26.437  1.00  0.00    -0.034 C 
ATOM     74  H   UNL A   1      41.151  28.778  25.851  1.00  0.00     0.065 H 
ATOM     75  C   UNL A   1      37.600  28.866  30.185  1.00  0.00    -0.036 A 
ATOM     76  H   UNL A   1      38.178  26.913  29.589  1.00  0.00     0.065 H 
ATOM     77  C   UNL A   1      38.353  30.099  30.324  1.00  0.00     0.049 A 
ATOM     78  H   UNL A   1      40.367  30.399  29.832  1.00  0.00     0.167 HD
ATOM     79  C   UNL A   1      44.429  30.908  28.154  1.00  0.00     0.037 A 
ATOM     80  H   UNL A   1      43.486  29.830  25.534  1.00  0.00     0.065 H 
ATOM     81  H   UNL A   1      36.605  28.739  30.425  1.00  0.00     0.065 H 
ATOM     82  C   UNL A   1      37.975  31.300  30.831  1.00  0.00     0.037 A 
ATOM     83  C   UNL A   1      44.651  30.784  29.577  1.00  0.00     0.049 A 
ATOM     84  C   UNL A   1      39.215  31.982  31.264  1.00  0.00     0.074 A 
ATOM     85  C   UNL A   1      45.281  29.885  30.409  1.00  0.00    -0.036 A 
ATOM     86  N   UNL A   1      43.779  31.503  30.352  1.00  0.00    -0.354 N 
ATOM     87  N   UNL A   1      39.952  31.579  32.260  1.00  0.00    -0.248 NA
ATOM     88  C   UNL A   1      39.852  32.916  30.349  1.00  0.00    -0.034 C 
ATOM     89  C   UNL A   1      44.523  29.886  31.619  1.00  0.00    -0.036 A 
ATOM     90  H   UNL A   1      46.125  29.327  30.201  1.00  0.00     0.065 H 
ATOM     91  C   UNL A   1      43.500  30.828  31.507  1.00  0.00     0.049 A 
ATOM     92  H   UNL A   1      43.405  32.383  30.111  1.00  0.00     0.167 HD
ATOM     93  C   UNL A   1      41.248  31.845  31.858  1.00  0.00     0.074 A 
ATOM     94  C   UNL A   1      41.114  32.809  30.770  1.00  0.00    -0.034 C 
ATOM     95  H   UNL A   1      39.447  33.493  29.595  1.00  0.00     0.065 H 
ATOM     96  H   UNL A   1      44.702  29.289  32.442  1.00  0.00     0.065 H 
ATOM     97  C   UNL A   1      42.269  31.026  32.244  1.00  0.00     0.037 A 
ATOM     98  H   UNL A   1      41.903  33.344  30.372  1.00  0.00     0.065 H 
BRANCH  79  99
ATOM     99  C   UNL A   1      44.629  32.234  27.445  1.00  0.00     0.064 A 
ATOM    100  C   UNL A   1      45.816  32.434  26.707  1.00  0.00     0.173 A 
ATOM    101  C   UNL A   1      43.889  33.407  27.716  1.00  0.00     0.173 A 
ATOM    102  F   UNL A   1      46.615  31.399  26.402  1.00  0.00    -0.203 F 
ATOM    103  C   UNL A   1      46.267  33.709  26.351  1.00  0.00     0.198 A 
ATOM    104  C   UNL A   1      44.318  34.672  27.317  1.00  0.00     0.198 A 
ATOM    105  F   UNL A   1      42.786  33.404  28.470  1.00  0.00    -0.203 F 
ATOM    106  F   UNL A   1      47.466  33.852  25.771  1.00  0.00    -0.200 F 
ATOM    107  C   UNL A   1      45.521  34.828  26.664  1.00  0.00     0.200 A 
ATOM    108  F   UNL A   1      43.591  35.747  27.653  1.00  0.00    -0.200 F 
ATOM    109  F   UNL A   1      45.979  36.054  26.382  1.00  0.00    -0.200 F 
ENDBRANCH  79  99
BRANCH  82 110
ATOM    110  C   UNL A   1      36.680  32.019  30.745  1.00  0.00     0.064 A 
ATOM    111  C   UNL A   1      35.858  32.157  31.881  1.00  0.00     0.173 A 
ATOM    112  C   UNL A   1      36.386  32.862  29.659  1.00  0.00     0.173 A 
ATOM    113  F   UNL A   1      36.084  31.414  32.974  1.00  0.00    -0.203 F 
ATOM    114  C   UNL A   1      34.848  33.124  31.948  1.00  0.00     0.198 A 
ATOM    115  C   UNL A   1      35.374  33.824  29.725  1.00  0.00     0.198 A 
ATOM    116  F   UNL A   1      37.141  32.841  28.550  1.00  0.00    -0.203 F 
ATOM    117  F   UNL A   1      34.148  33.283  33.080  1.00  0.00    -0.200 F 
ATOM    118  C   UNL A   1      34.621  33.970  30.877  1.00  0.00     0.200 A 
ATOM    119  F   UNL A   1      35.185  34.661  28.696  1.00  0.00    -0.200 F 
ATOM    120  F   UNL A   1      33.713  34.951  30.969  1.00  0.00    -0.200 F 
ENDBRANCH  82 110
BRANCH  97 121
ATOM    121  C   UNL A   1      42.032  30.129  33.425  1.00  0.00     0.064 A 
ATOM    122  C   UNL A   1      41.619  28.787  33.343  1.00  0.00     0.173 A 
ATOM    123  C   UNL A   1      42.372  30.623  34.692  1.00  0.00     0.173 A 
ATOM    124  F   UNL A   1      41.344  28.219  32.163  1.00  0.00    -0.203 F 
ATOM    125  C   UNL A   1      41.536  27.989  34.483  1.00  0.00     0.198 A 
ATOM    126  C   UNL A   1      42.325  29.813  35.822  1.00  0.00     0.198 A 
ATOM    127  F   UNL A   1      42.805  31.886  34.826  1.00  0.00    -0.203 F 
ATOM    128  F   UNL A   1      41.134  26.712  34.383  1.00  0.00    -0.200 F 
ATOM    129  C   UNL A   1      41.902  28.498  35.719  1.00  0.00     0.200 A 
ATOM    130  F   UNL A   1      42.721  30.299  37.005  1.00  0.00    -0.200 F 
ATOM    131  F   UNL A   1      41.871  27.715  36.807  1.00  0.00    -0.200 F 
ENDBRANCH  97 121
ENDBRANCH  62  65
ENDBRANCH  52  55
ENDBRANCH  48  51
ENDBRANCH  45  48
ENDBRANCH  42  45
ENDBRANCH  39  42
ENDBRANCH   1  39
TORSDOF 19
ENDMDL
MODEL 8
REMARK VINA RESULT:     -10.3      4.925      8.991
REMARK SMILES Cc1cc(C)c2c(OCCCC(=O)NCCCCCCNC(=O)c3ccc(-c4c5nc(c(-c6c(F)c(F)c(F)c(F)c6F)c6ccc([nH]6)c(-c6c(F)c(F)c(F)c(F)c6F)c6nc(c(-c7c(F)c(F)c(F)c(F)c7F)c7ccc4[nH]7)C=C6)C=C5)cc3)nsc2n1
REMARK SMILES IDX 16 1 15 4 14 7 12 8 13 9 11 11 10 14 9 17 8 20 7 21 2 22
REMARK SMILES IDX 3 23 90 24 4 25 89 27 6 28 88 29 87 30 1 31 5 35 17 39 18 42
REMARK SMILES IDX 19 45 20 48 21 51 22 52 23 54 24 55 25 56 86 57 26 58 85 60
REMARK SMILES IDX 27 62 28 65 29 66 79 67 30 68 84 69 78 70 80 71 31 72 83 73
REMARK SMILES IDX 77 75 76 77 32 79 64 82 44 83 63 84 45 85 48 86 62 87 81 88
REMARK SMILES IDX 46 89 47 91 61 93 82 94 49 97 33 99 34 100 42 101 35 102
REMARK SMILES IDX 36 103 40 104 43 105 37 106 38 107 41 108 39 109 65 110
REMARK SMILES IDX 66 111 74 112 67 113 68 114 72 115 75 116 69 117 70 118
REMARK SMILES IDX 73 119 71 120 50 121 51 122 59 123 52 124 53 125 57 126
REMARK SMILES IDX 60 127 54 128 55 129 58 130 56 131
REMARK H PARENT 16 2 16 3 15 5 15 6 14 10 11 12 11 13 10 15 10 16 9 18 9 19
REMARK H PARENT 3 26 1 32 1 33 1 34 5 36 5 37 5 38 17 40 17 41 18 43 18 44
REMARK H PARENT 19 46 19 47 20 49 20 50 21 53 25 59 86 61 26 63 85 64 84 74
REMARK H PARENT 78 76 80 78 83 80 77 81 45 90 48 92 81 95 46 96 82 98
REMARK Flexibility Score: inf
ROOT
ATOM      1  C   UNL A   1      41.123  28.997  34.815  1.00  0.00    -0.036 C 
ATOM      2  H   UNL A   1      41.721  29.160  33.942  1.00  0.00     0.028 H 
ATOM      3  H   UNL A   1      40.112  28.712  34.614  1.00  0.00     0.028 H 
ENDROOT
BRANCH   1   4
ATOM      4  C   UNL A   1      41.025  30.363  35.587  1.00  0.00     0.017 C 
ATOM      5  H   UNL A   1      41.729  30.337  36.393  1.00  0.00     0.049 H 
ATOM      6  H   UNL A   1      41.228  31.127  34.865  1.00  0.00     0.049 H 
BRANCH   4   7
ATOM      7  N   UNL A   1      39.623  30.692  36.182  1.00  0.00    -0.356 N 
ATOM      8  C   UNL A   1      38.394  31.306  36.137  1.00  0.00     0.220 C 
ATOM      9  O   UNL A   1      37.724  30.917  37.123  1.00  0.00    -0.275 OA
ATOM     10  H   UNL A   1      39.610  30.206  37.038  1.00  0.00     0.163 HD
BRANCH   8  11
ATOM     11  C   UNL A   1      37.524  32.225  35.076  1.00  0.00     0.030 C 
ATOM     12  H   UNL A   1      38.261  32.462  34.338  1.00  0.00     0.037 H 
ATOM     13  H   UNL A   1      36.670  31.583  35.128  1.00  0.00     0.037 H 
BRANCH  11  14
ATOM     14  C   UNL A   1      36.621  33.573  35.088  1.00  0.00    -0.010 C 
ATOM     15  H   UNL A   1      35.658  33.215  35.385  1.00  0.00     0.031 H 
ATOM     16  H   UNL A   1      37.339  34.169  35.612  1.00  0.00     0.031 H 
BRANCH  14  17
ATOM     17  C   UNL A   1      36.270  34.689  33.998  1.00  0.00     0.090 C 
ATOM     18  H   UNL A   1      35.201  34.701  33.941  1.00  0.00     0.071 H 
ATOM     19  H   UNL A   1      36.831  35.512  34.386  1.00  0.00     0.071 H 
BRANCH  17  20
ATOM     20  O   UNL A   1      36.721  34.700  32.634  1.00  0.00    -0.477 OA
BRANCH  20  21
ATOM     21  C   UNL A   1      36.440  33.716  31.739  1.00  0.00     0.235 A 
ATOM     22  C   UNL A   1      37.604  29.861  31.719  1.00  0.00     0.039 A 
ATOM     23  C   UNL A   1      38.640  30.779  31.874  1.00  0.00    -0.037 A 
ATOM     24  N   UNL A   1      36.411  30.195  31.184  1.00  0.00    -0.240 NA
ATOM     25  C   UNL A   1      38.453  32.148  31.591  1.00  0.00    -0.034 A 
ATOM     26  H   UNL A   1      39.562  30.452  32.202  1.00  0.00     0.064 H 
ATOM     27  C   UNL A   1      36.226  31.529  31.110  1.00  0.00     0.147 A 
ATOM     28  C   UNL A   1      37.130  32.513  31.467  1.00  0.00     0.078 A 
ATOM     29  S   UNL A   1      34.840  32.326  30.527  1.00  0.00    -0.012 S 
ATOM     30  N   UNL A   1      35.251  33.832  31.145  1.00  0.00    -0.153 NA
BRANCH  22  31
ATOM     31  C   UNL A   1      37.778  28.461  32.252  1.00  0.00    -0.022 C 
ATOM     32  H   UNL A   1      36.832  28.085  32.580  1.00  0.00     0.030 H 
ATOM     33  H   UNL A   1      38.462  28.474  33.074  1.00  0.00     0.030 H 
ATOM     34  H   UNL A   1      38.163  27.832  31.477  1.00  0.00     0.030 H 
ENDBRANCH  22  31
BRANCH  25  35
ATOM     35  C   UNL A   1      39.437  33.249  31.468  1.00  0.00    -0.039 C 
ATOM     36  H   UNL A   1      40.308  33.016  32.044  1.00  0.00     0.028 H 
ATOM     37  H   UNL A   1      39.003  34.157  31.829  1.00  0.00     0.028 H 
ATOM     38  H   UNL A   1      39.711  33.369  30.440  1.00  0.00     0.028 H 
ENDBRANCH  25  35
ENDBRANCH  20  21
ENDBRANCH  17  20
ENDBRANCH  14  17
ENDBRANCH  11  14
ENDBRANCH   8  11
ENDBRANCH   4   7
ENDBRANCH   1   4
BRANCH   1  39
ATOM     39  C   UNL A   1      41.735  27.816  35.586  1.00  0.00    -0.052 C 
ATOM     40  H   UNL A   1      41.320  27.832  36.572  1.00  0.00     0.027 H 
ATOM     41  H   UNL A   1      42.791  27.975  35.521  1.00  0.00     0.027 H 
BRANCH  39  42
ATOM     42  C   UNL A   1      41.525  26.395  35.023  1.00  0.00    -0.052 C 
ATOM     43  H   UNL A   1      42.400  26.152  34.456  1.00  0.00     0.027 H 
ATOM     44  H   UNL A   1      40.605  26.471  34.481  1.00  0.00     0.027 H 
BRANCH  42  45
ATOM     45  C   UNL A   1      41.279  25.226  35.999  1.00  0.00    -0.036 C 
ATOM     46  H   UNL A   1      40.457  24.654  35.620  1.00  0.00     0.028 H 
ATOM     47  H   UNL A   1      41.100  25.682  36.950  1.00  0.00     0.028 H 
BRANCH  45  48
ATOM     48  C   UNL A   1      42.447  24.270  36.220  1.00  0.00     0.018 C 
ATOM     49  H   UNL A   1      42.752  23.884  35.270  1.00  0.00     0.049 H 
ATOM     50  H   UNL A   1      42.100  23.503  36.881  1.00  0.00     0.049 H 
BRANCH  48  51
ATOM     51  N   UNL A   1      43.603  24.890  36.858  1.00  0.00    -0.352 N 
ATOM     52  C   UNL A   1      44.857  25.164  36.343  1.00  0.00     0.251 C 
ATOM     53  H   UNL A   1      43.469  25.154  37.797  1.00  0.00     0.163 HD
ATOM     54  O   UNL A   1      45.791  25.383  37.089  1.00  0.00    -0.269 OA
BRANCH  52  55
ATOM     55  C   UNL A   1      45.064  25.188  34.877  1.00  0.00     0.039 A 
ATOM     56  C   UNL A   1      45.469  24.030  34.208  1.00  0.00    -0.049 A 
ATOM     57  C   UNL A   1      44.897  26.380  34.174  1.00  0.00    -0.049 A 
ATOM     58  C   UNL A   1      45.636  24.074  32.826  1.00  0.00    -0.053 A 
ATOM     59  H   UNL A   1      45.642  23.156  34.729  1.00  0.00     0.063 H 
ATOM     60  C   UNL A   1      44.922  26.393  32.798  1.00  0.00    -0.053 A 
ATOM     61  H   UNL A   1      44.753  27.261  34.690  1.00  0.00     0.063 H 
ATOM     62  C   UNL A   1      45.336  25.257  32.125  1.00  0.00    -0.014 A 
ATOM     63  H   UNL A   1      45.978  23.244  32.319  1.00  0.00     0.063 H 
ATOM     64  H   UNL A   1      44.637  27.238  32.277  1.00  0.00     0.063 H 
BRANCH  62  65
ATOM     65  C   UNL A   1      45.314  25.254  30.668  1.00  0.00     0.031 A 
ATOM     66  C   UNL A   1      46.370  26.112  30.079  1.00  0.00     0.074 A 
ATOM     67  C   UNL A   1      44.527  24.465  29.907  1.00  0.00     0.049 A 
ATOM     68  N   UNL A   1      46.202  27.274  29.546  1.00  0.00    -0.248 NA
ATOM     69  C   UNL A   1      47.780  25.743  30.272  1.00  0.00    -0.034 C 
ATOM     70  C   UNL A   1      43.654  23.364  30.326  1.00  0.00    -0.036 A 
ATOM     71  N   UNL A   1      44.387  24.455  28.548  1.00  0.00    -0.354 N 
ATOM     72  C   UNL A   1      47.463  27.698  29.142  1.00  0.00     0.074 A 
ATOM     73  C   UNL A   1      48.403  26.816  29.779  1.00  0.00    -0.034 C 
ATOM     74  H   UNL A   1      48.181  24.884  30.681  1.00  0.00     0.065 H 
ATOM     75  C   UNL A   1      43.238  22.670  29.242  1.00  0.00    -0.036 A 
ATOM     76  H   UNL A   1      43.396  23.151  31.303  1.00  0.00     0.065 H 
ATOM     77  C   UNL A   1      43.667  23.373  28.047  1.00  0.00     0.049 A 
ATOM     78  H   UNL A   1      44.764  25.156  27.970  1.00  0.00     0.167 HD
ATOM     79  C   UNL A   1      47.579  28.568  28.101  1.00  0.00     0.037 A 
ATOM     80  H   UNL A   1      49.418  26.988  29.844  1.00  0.00     0.065 H 
ATOM     81  H   UNL A   1      42.705  21.787  29.261  1.00  0.00     0.065 H 
ATOM     82  C   UNL A   1      43.435  23.095  26.740  1.00  0.00     0.037 A 
ATOM     83  C   UNL A   1      46.299  29.180  27.824  1.00  0.00     0.049 A 
ATOM     84  C   UNL A   1      43.575  24.372  26.007  1.00  0.00     0.074 A 
ATOM     85  C   UNL A   1      45.456  30.057  28.472  1.00  0.00    -0.036 A 
ATOM     86  N   UNL A   1      45.547  28.523  26.884  1.00  0.00    -0.354 N 
ATOM     87  N   UNL A   1      42.752  25.374  26.136  1.00  0.00    -0.248 NA
ATOM     88  C   UNL A   1      44.856  24.687  25.393  1.00  0.00    -0.034 C 
ATOM     89  C   UNL A   1      44.135  29.664  28.100  1.00  0.00    -0.036 A 
ATOM     90  H   UNL A   1      45.725  30.835  29.095  1.00  0.00     0.065 H 
ATOM     91  C   UNL A   1      44.219  28.606  27.194  1.00  0.00     0.049 A 
ATOM     92  H   UNL A   1      45.913  28.057  26.097  1.00  0.00     0.167 HD
ATOM     93  C   UNL A   1      43.556  26.494  26.040  1.00  0.00     0.074 A 
ATOM     94  C   UNL A   1      44.791  26.020  25.421  1.00  0.00    -0.034 C 
ATOM     95  H   UNL A   1      45.598  24.063  25.040  1.00  0.00     0.065 H 
ATOM     96  H   UNL A   1      43.261  30.091  28.446  1.00  0.00     0.065 H 
ATOM     97  C   UNL A   1      43.256  27.619  26.752  1.00  0.00     0.037 A 
ATOM     98  H   UNL A   1      45.525  26.642  25.049  1.00  0.00     0.065 H 
BRANCH  79  99
ATOM     99  C   UNL A   1      48.659  28.501  27.038  1.00  0.00     0.064 A 
ATOM    100  C   UNL A   1      48.817  27.301  26.310  1.00  0.00     0.173 A 
ATOM    101  C   UNL A   1      49.731  29.414  26.927  1.00  0.00     0.173 A 
ATOM    102  F   UNL A   1      47.874  26.347  26.350  1.00  0.00    -0.203 F 
ATOM    103  C   UNL A   1      49.989  27.006  25.607  1.00  0.00     0.198 A 
ATOM    104  C   UNL A   1      50.878  29.135  26.184  1.00  0.00     0.198 A 
ATOM    105  F   UNL A   1      49.776  30.559  27.613  1.00  0.00    -0.203 F 
ATOM    106  F   UNL A   1      50.142  25.799  25.046  1.00  0.00    -0.200 F 
ATOM    107  C   UNL A   1      51.022  27.921  25.551  1.00  0.00     0.200 A 
ATOM    108  F   UNL A   1      51.879  30.027  26.164  1.00  0.00    -0.200 F 
ATOM    109  F   UNL A   1      52.170  27.617  24.932  1.00  0.00    -0.200 F 
ENDBRANCH  79  99
BRANCH  82 110
ATOM    110  C   UNL A   1      43.357  21.794  26.029  1.00  0.00     0.064 A 
ATOM    111  C   UNL A   1      44.525  21.152  25.573  1.00  0.00     0.173 A 
ATOM    112  C   UNL A   1      42.194  21.005  26.082  1.00  0.00     0.173 A 
ATOM    113  F   UNL A   1      45.686  21.821  25.517  1.00  0.00    -0.203 F 
ATOM    114  C   UNL A   1      44.541  19.790  25.254  1.00  0.00     0.198 A 
ATOM    115  C   UNL A   1      42.211  19.645  25.758  1.00  0.00     0.198 A 
ATOM    116  F   UNL A   1      41.042  21.510  26.548  1.00  0.00    -0.203 F 
ATOM    117  F   UNL A   1      45.694  19.197  24.909  1.00  0.00    -0.200 F 
ATOM    118  C   UNL A   1      43.389  19.033  25.366  1.00  0.00     0.200 A 
ATOM    119  F   UNL A   1      41.097  18.913  25.903  1.00  0.00    -0.200 F 
ATOM    120  F   UNL A   1      43.421  17.712  25.142  1.00  0.00    -0.200 F 
ENDBRANCH  82 110
BRANCH  97 121
ATOM    121  C   UNL A   1      41.852  27.760  27.269  1.00  0.00     0.064 A 
ATOM    122  C   UNL A   1      41.394  27.250  28.496  1.00  0.00     0.173 A 
ATOM    123  C   UNL A   1      40.971  28.570  26.537  1.00  0.00     0.173 A 
ATOM    124  F   UNL A   1      42.196  26.528  29.287  1.00  0.00    -0.203 F 
ATOM    125  C   UNL A   1      40.107  27.527  28.955  1.00  0.00     0.198 A 
ATOM    126  C   UNL A   1      39.701  28.875  27.016  1.00  0.00     0.198 A 
ATOM    127  F   UNL A   1      41.366  29.111  25.375  1.00  0.00    -0.203 F 
ATOM    128  F   UNL A   1      39.688  27.024  30.127  1.00  0.00    -0.200 F 
ATOM    129  C   UNL A   1      39.267  28.349  28.222  1.00  0.00     0.200 A 
ATOM    130  F   UNL A   1      38.912  29.706  26.323  1.00  0.00    -0.200 F 
ATOM    131  F   UNL A   1      38.048  28.657  28.688  1.00  0.00    -0.200 F 
ENDBRANCH  97 121
ENDBRANCH  62  65
ENDBRANCH  52  55
ENDBRANCH  48  51
ENDBRANCH  45  48
ENDBRANCH  42  45
ENDBRANCH  39  42
ENDBRANCH   1  39
TORSDOF 19
ENDMDL
MODEL 9
REMARK VINA RESULT:     -10.2      4.672     10.144
REMARK SMILES Cc1cc(C)c2c(OCCCC(=O)NCCCCCCNC(=O)c3ccc(-c4c5nc(c(-c6c(F)c(F)c(F)c(F)c6F)c6ccc([nH]6)c(-c6c(F)c(F)c(F)c(F)c6F)c6nc(c(-c7c(F)c(F)c(F)c(F)c7F)c7ccc4[nH]7)C=C6)C=C5)cc3)nsc2n1
REMARK SMILES IDX 16 1 15 4 14 7 12 8 13 9 11 11 10 14 9 17 8 20 7 21 2 22
REMARK SMILES IDX 3 23 90 24 4 25 89 27 6 28 88 29 87 30 1 31 5 35 17 39 18 42
REMARK SMILES IDX 19 45 20 48 21 51 22 52 23 54 24 55 25 56 86 57 26 58 85 60
REMARK SMILES IDX 27 62 28 65 29 66 79 67 30 68 84 69 78 70 80 71 31 72 83 73
REMARK SMILES IDX 77 75 76 77 32 79 64 82 44 83 63 84 45 85 48 86 62 87 81 88
REMARK SMILES IDX 46 89 47 91 61 93 82 94 49 97 33 99 34 100 42 101 35 102
REMARK SMILES IDX 36 103 40 104 43 105 37 106 38 107 41 108 39 109 65 110
REMARK SMILES IDX 66 111 74 112 67 113 68 114 72 115 75 116 69 117 70 118
REMARK SMILES IDX 73 119 71 120 50 121 51 122 59 123 52 124 53 125 57 126
REMARK SMILES IDX 60 127 54 128 55 129 58 130 56 131
REMARK H PARENT 16 2 16 3 15 5 15 6 14 10 11 12 11 13 10 15 10 16 9 18 9 19
REMARK H PARENT 3 26 1 32 1 33 1 34 5 36 5 37 5 38 17 40 17 41 18 43 18 44
REMARK H PARENT 19 46 19 47 20 49 20 50 21 53 25 59 86 61 26 63 85 64 84 74
REMARK H PARENT 78 76 80 78 83 80 77 81 45 90 48 92 81 95 46 96 82 98
REMARK Flexibility Score: inf
ROOT
ATOM      1  C   UNL A   1      35.162  32.609  27.979  1.00  0.00    -0.036 C 
ATOM      2  H   UNL A   1      35.564  32.850  27.017  1.00  0.00     0.028 H 
ATOM      3  H   UNL A   1      35.784  31.975  28.575  1.00  0.00     0.028 H 
ENDROOT
BRANCH   1   4
ATOM      4  C   UNL A   1      33.836  31.797  27.752  1.00  0.00     0.017 C 
ATOM      5  H   UNL A   1      33.418  31.570  28.711  1.00  0.00     0.049 H 
ATOM      6  H   UNL A   1      33.208  32.418  27.147  1.00  0.00     0.049 H 
BRANCH   4   7
ATOM      7  N   UNL A   1      34.000  30.459  26.970  1.00  0.00    -0.356 N 
ATOM      8  C   UNL A   1      33.513  29.281  26.456  1.00  0.00     0.220 C 
ATOM      9  O   UNL A   1      34.420  28.745  25.775  1.00  0.00    -0.275 OA
ATOM     10  H   UNL A   1      34.948  30.456  26.705  1.00  0.00     0.163 HD
BRANCH   8  11
ATOM     11  C   UNL A   1      32.059  28.509  26.333  1.00  0.00     0.030 C 
ATOM     12  H   UNL A   1      31.399  29.210  26.799  1.00  0.00     0.037 H 
ATOM     13  H   UNL A   1      32.249  28.184  25.331  1.00  0.00     0.037 H 
BRANCH  11  14
ATOM     14  C   UNL A   1      31.391  27.093  26.760  1.00  0.00    -0.010 C 
ATOM     15  H   UNL A   1      32.242  26.477  26.962  1.00  0.00     0.031 H 
ATOM     16  H   UNL A   1      30.663  27.519  27.417  1.00  0.00     0.031 H 
BRANCH  14  17
ATOM     17  C   UNL A   1      30.376  26.080  26.052  1.00  0.00     0.090 C 
ATOM     18  H   UNL A   1      30.994  25.379  25.529  1.00  0.00     0.071 H 
ATOM     19  H   UNL A   1      29.777  25.799  26.892  1.00  0.00     0.071 H 
BRANCH  17  20
ATOM     20  O   UNL A   1      29.345  26.442  25.120  1.00  0.00    -0.477 OA
BRANCH  20  21
ATOM     21  C   UNL A   1      29.590  26.901  23.864  1.00  0.00     0.235 A 
ATOM     22  C   UNL A   1      28.848  30.524  22.271  1.00  0.00     0.039 A 
ATOM     23  C   UNL A   1      27.756  29.934  22.902  1.00  0.00    -0.037 A 
ATOM     24  N   UNL A   1      29.906  29.811  21.830  1.00  0.00    -0.240 NA
ATOM     25  C   UNL A   1      27.753  28.562  23.229  1.00  0.00    -0.034 A 
ATOM     26  H   UNL A   1      26.933  30.512  23.137  1.00  0.00     0.064 H 
ATOM     27  C   UNL A   1      29.936  28.558  22.329  1.00  0.00     0.147 A 
ATOM     28  C   UNL A   1      28.997  27.973  23.158  1.00  0.00     0.078 A 
ATOM     29  S   UNL A   1      31.128  27.381  22.029  1.00  0.00    -0.012 S 
ATOM     30  N   UNL A   1      30.657  26.359  23.276  1.00  0.00    -0.153 NA
BRANCH  22  31
ATOM     31  C   UNL A   1      28.904  32.027  22.153  1.00  0.00    -0.022 C 
ATOM     32  H   UNL A   1      28.977  32.301  21.121  1.00  0.00     0.030 H 
ATOM     33  H   UNL A   1      29.759  32.395  22.681  1.00  0.00     0.030 H 
ATOM     34  H   UNL A   1      28.016  32.449  22.572  1.00  0.00     0.030 H 
ENDBRANCH  22  31
BRANCH  25  35
ATOM     35  C   UNL A   1      26.652  27.684  23.687  1.00  0.00    -0.039 C 
ATOM     36  H   UNL A   1      27.013  26.682  23.789  1.00  0.00     0.028 H 
ATOM     37  H   UNL A   1      25.857  27.705  22.972  1.00  0.00     0.028 H 
ATOM     38  H   UNL A   1      26.290  28.030  24.633  1.00  0.00     0.028 H 
ENDBRANCH  25  35
ENDBRANCH  20  21
ENDBRANCH  17  20
ENDBRANCH  14  17
ENDBRANCH  11  14
ENDBRANCH   8  11
ENDBRANCH   4   7
ENDBRANCH   1   4
BRANCH   1  39
ATOM     39  C   UNL A   1      35.036  33.919  28.774  1.00  0.00    -0.052 C 
ATOM     40  H   UNL A   1      36.026  34.231  29.032  1.00  0.00     0.027 H 
ATOM     41  H   UNL A   1      34.396  33.671  29.595  1.00  0.00     0.027 H 
BRANCH  39  42
ATOM     42  C   UNL A   1      34.340  35.116  28.094  1.00  0.00    -0.052 C 
ATOM     43  H   UNL A   1      33.887  34.746  27.198  1.00  0.00     0.027 H 
ATOM     44  H   UNL A   1      35.127  35.833  27.977  1.00  0.00     0.027 H 
BRANCH  42  45
ATOM     45  C   UNL A   1      33.252  35.893  28.863  1.00  0.00    -0.036 C 
ATOM     46  H   UNL A   1      32.477  35.200  29.118  1.00  0.00     0.028 H 
ATOM     47  H   UNL A   1      32.944  36.678  28.204  1.00  0.00     0.028 H 
BRANCH  45  48
ATOM     48  C   UNL A   1      33.693  36.589  30.146  1.00  0.00     0.018 C 
ATOM     49  H   UNL A   1      33.647  37.646  29.990  1.00  0.00     0.049 H 
ATOM     50  H   UNL A   1      34.685  36.249  30.359  1.00  0.00     0.049 H 
BRANCH  48  51
ATOM     51  N   UNL A   1      32.873  36.259  31.307  1.00  0.00    -0.352 N 
ATOM     52  C   UNL A   1      32.992  35.215  32.207  1.00  0.00     0.251 C 
ATOM     53  H   UNL A   1      32.123  36.873  31.475  1.00  0.00     0.163 HD
ATOM     54  O   UNL A   1      32.053  34.904  32.912  1.00  0.00    -0.269 OA
BRANCH  52  55
ATOM     55  C   UNL A   1      34.268  34.470  32.309  1.00  0.00     0.039 A 
ATOM     56  C   UNL A   1      34.278  33.078  32.183  1.00  0.00    -0.049 A 
ATOM     57  C   UNL A   1      35.451  35.157  32.575  1.00  0.00    -0.049 A 
ATOM     58  C   UNL A   1      35.495  32.405  32.262  1.00  0.00    -0.053 A 
ATOM     59  H   UNL A   1      33.400  32.558  32.034  1.00  0.00     0.063 H 
ATOM     60  C   UNL A   1      36.666  34.515  32.512  1.00  0.00    -0.053 A 
ATOM     61  H   UNL A   1      35.415  36.158  32.822  1.00  0.00     0.063 H 
ATOM     62  C   UNL A   1      36.689  33.135  32.403  1.00  0.00    -0.014 A 
ATOM     63  H   UNL A   1      35.520  31.375  32.218  1.00  0.00     0.063 H 
ATOM     64  H   UNL A   1      37.546  35.054  32.547  1.00  0.00     0.063 H 
BRANCH  62  65
ATOM     65  C   UNL A   1      37.974  32.460  32.285  1.00  0.00     0.031 A 
ATOM     66  C   UNL A   1      38.705  32.393  33.574  1.00  0.00     0.074 A 
ATOM     67  C   UNL A   1      38.421  31.831  31.177  1.00  0.00     0.049 A 
ATOM     68  N   UNL A   1      39.718  33.112  33.916  1.00  0.00    -0.248 NA
ATOM     69  C   UNL A   1      38.143  31.593  34.672  1.00  0.00    -0.034 C 
ATOM     70  C   UNL A   1      37.702  31.553  29.930  1.00  0.00    -0.036 A 
ATOM     71  N   UNL A   1      39.636  31.247  30.958  1.00  0.00    -0.354 N 
ATOM     72  C   UNL A   1      40.060  32.709  35.202  1.00  0.00     0.074 A 
ATOM     73  C   UNL A   1      38.955  31.923  35.680  1.00  0.00    -0.034 C 
ATOM     74  H   UNL A   1      37.336  30.949  34.666  1.00  0.00     0.065 H 
ATOM     75  C   UNL A   1      38.414  30.687  29.173  1.00  0.00    -0.036 A 
ATOM     76  H   UNL A   1      36.789  31.957  29.669  1.00  0.00     0.065 H 
ATOM     77  C   UNL A   1      39.711  30.486  29.794  1.00  0.00     0.049 A 
ATOM     78  H   UNL A   1      40.396  31.355  31.573  1.00  0.00     0.167 HD
ATOM     79  C   UNL A   1      41.345  32.843  35.630  1.00  0.00     0.037 A 
ATOM     80  H   UNL A   1      38.810  31.651  36.665  1.00  0.00     0.065 H 
ATOM     81  H   UNL A   1      38.091  30.243  28.300  1.00  0.00     0.065 H 
ATOM     82  C   UNL A   1      40.776  29.757  29.375  1.00  0.00     0.037 A 
ATOM     83  C   UNL A   1      42.069  33.734  34.752  1.00  0.00     0.049 A 
ATOM     84  C   UNL A   1      41.968  30.340  30.030  1.00  0.00     0.074 A 
ATOM     85  C   UNL A   1      42.024  35.077  34.444  1.00  0.00    -0.036 A 
ATOM     86  N   UNL A   1      42.725  33.110  33.724  1.00  0.00    -0.354 N 
ATOM     87  N   UNL A   1      42.433  31.527  29.761  1.00  0.00    -0.248 NA
ATOM     88  C   UNL A   1      42.442  29.746  31.270  1.00  0.00    -0.034 C 
ATOM     89  C   UNL A   1      42.389  35.167  33.067  1.00  0.00    -0.036 A 
ATOM     90  H   UNL A   1      41.779  35.854  35.077  1.00  0.00     0.065 H 
ATOM     91  C   UNL A   1      42.703  33.889  32.602  1.00  0.00     0.049 A 
ATOM     92  H   UNL A   1      43.152  32.224  33.785  1.00  0.00     0.167 HD
ATOM     93  C   UNL A   1      42.886  32.002  30.978  1.00  0.00     0.074 A 
ATOM     94  C   UNL A   1      43.022  30.816  31.819  1.00  0.00    -0.034 C 
ATOM     95  H   UNL A   1      42.355  28.780  31.623  1.00  0.00     0.065 H 
ATOM     96  H   UNL A   1      42.417  36.033  32.507  1.00  0.00     0.065 H 
ATOM     97  C   UNL A   1      42.809  33.333  31.268  1.00  0.00     0.037 A 
ATOM     98  H   UNL A   1      43.508  30.806  32.729  1.00  0.00     0.065 H 
BRANCH  79  99
ATOM     99  C   UNL A   1      42.078  31.829  36.489  1.00  0.00     0.064 A 
ATOM    100  C   UNL A   1      42.792  32.291  37.618  1.00  0.00     0.173 A 
ATOM    101  C   UNL A   1      42.381  30.509  36.089  1.00  0.00     0.173 A 
ATOM    102  F   UNL A   1      42.605  33.536  38.084  1.00  0.00    -0.203 F 
ATOM    103  C   UNL A   1      43.788  31.526  38.233  1.00  0.00     0.198 A 
ATOM    104  C   UNL A   1      43.341  29.732  36.736  1.00  0.00     0.198 A 
ATOM    105  F   UNL A   1      41.855  29.950  34.996  1.00  0.00    -0.203 F 
ATOM    106  F   UNL A   1      44.528  32.062  39.213  1.00  0.00    -0.200 F 
ATOM    107  C   UNL A   1      44.067  30.250  37.786  1.00  0.00     0.200 A 
ATOM    108  F   UNL A   1      43.614  28.505  36.271  1.00  0.00    -0.200 F 
ATOM    109  F   UNL A   1      45.062  29.538  38.331  1.00  0.00    -0.200 F 
ENDBRANCH  79  99
BRANCH  82 110
ATOM    110  C   UNL A   1      40.836  28.454  28.668  1.00  0.00     0.064 A 
ATOM    111  C   UNL A   1      40.090  27.351  29.129  1.00  0.00     0.173 A 
ATOM    112  C   UNL A   1      41.344  28.357  27.360  1.00  0.00     0.173 A 
ATOM    113  F   UNL A   1      39.544  27.369  30.353  1.00  0.00    -0.203 F 
ATOM    114  C   UNL A   1      39.815  26.251  28.308  1.00  0.00     0.198 A 
ATOM    115  C   UNL A   1      41.073  27.256  26.543  1.00  0.00     0.198 A 
ATOM    116  F   UNL A   1      42.026  29.375  26.812  1.00  0.00    -0.203 F 
ATOM    117  F   UNL A   1      39.026  25.263  28.755  1.00  0.00    -0.200 F 
ATOM    118  C   UNL A   1      40.290  26.214  27.009  1.00  0.00     0.200 A 
ATOM    119  F   UNL A   1      41.509  27.245  25.276  1.00  0.00    -0.200 F 
ATOM    120  F   UNL A   1      39.959  25.203  26.195  1.00  0.00    -0.200 F 
ENDBRANCH  82 110
BRANCH  97 121
ATOM    121  C   UNL A   1      42.643  34.287  30.119  1.00  0.00     0.064 A 
ATOM    122  C   UNL A   1      41.409  34.655  29.555  1.00  0.00     0.173 A 
ATOM    123  C   UNL A   1      43.787  34.956  29.663  1.00  0.00     0.173 A 
ATOM    124  F   UNL A   1      40.263  34.115  29.984  1.00  0.00    -0.203 F 
ATOM    125  C   UNL A   1      41.334  35.638  28.567  1.00  0.00     0.198 A 
ATOM    126  C   UNL A   1      43.704  35.962  28.706  1.00  0.00     0.198 A 
ATOM    127  F   UNL A   1      44.987  34.669  30.190  1.00  0.00    -0.203 F 
ATOM    128  F   UNL A   1      40.147  35.970  28.038  1.00  0.00    -0.200 F 
ATOM    129  C   UNL A   1      42.480  36.298  28.154  1.00  0.00     0.200 A 
ATOM    130  F   UNL A   1      44.809  36.626  28.343  1.00  0.00    -0.200 F 
ATOM    131  F   UNL A   1      42.400  37.278  27.242  1.00  0.00    -0.200 F 
ENDBRANCH  97 121
ENDBRANCH  62  65
ENDBRANCH  52  55
ENDBRANCH  48  51
ENDBRANCH  45  48
ENDBRANCH  42  45
ENDBRANCH  39  42
ENDBRANCH   1  39
TORSDOF 19
ENDMDL
MODEL 10
REMARK VINA RESULT:     -10.2      4.652      8.776
REMARK SMILES Cc1cc(C)c2c(OCCCC(=O)NCCCCCCNC(=O)c3ccc(-c4c5nc(c(-c6c(F)c(F)c(F)c(F)c6F)c6ccc([nH]6)c(-c6c(F)c(F)c(F)c(F)c6F)c6nc(c(-c7c(F)c(F)c(F)c(F)c7F)c7ccc4[nH]7)C=C6)C=C5)cc3)nsc2n1
REMARK SMILES IDX 16 1 15 4 14 7 12 8 13 9 11 11 10 14 9 17 8 20 7 21 2 22
REMARK SMILES IDX 3 23 90 24 4 25 89 27 6 28 88 29 87 30 1 31 5 35 17 39 18 42
REMARK SMILES IDX 19 45 20 48 21 51 22 52 23 54 24 55 25 56 86 57 26 58 85 60
REMARK SMILES IDX 27 62 28 65 29 66 79 67 30 68 84 69 78 70 80 71 31 72 83 73
REMARK SMILES IDX 77 75 76 77 32 79 64 82 44 83 63 84 45 85 48 86 62 87 81 88
REMARK SMILES IDX 46 89 47 91 61 93 82 94 49 97 33 99 34 100 42 101 35 102
REMARK SMILES IDX 36 103 40 104 43 105 37 106 38 107 41 108 39 109 65 110
REMARK SMILES IDX 66 111 74 112 67 113 68 114 72 115 75 116 69 117 70 118
REMARK SMILES IDX 73 119 71 120 50 121 51 122 59 123 52 124 53 125 57 126
REMARK SMILES IDX 60 127 54 128 55 129 58 130 56 131
REMARK H PARENT 16 2 16 3 15 5 15 6 14 10 11 12 11 13 10 15 10 16 9 18 9 19
REMARK H PARENT 3 26 1 32 1 33 1 34 5 36 5 37 5 38 17 40 17 41 18 43 18 44
REMARK H PARENT 19 46 19 47 20 49 20 50 21 53 25 59 86 61 26 63 85 64 84 74
REMARK H PARENT 78 76 80 78 83 80 77 81 45 90 48 92 81 95 46 96 82 98
REMARK Flexibility Score: inf
ROOT
ATOM      1  C   UNL A   1      45.435  25.579  26.593  1.00  0.00    -0.036 C 
ATOM      2  H   UNL A   1      45.861  25.443  25.620  1.00  0.00     0.028 H 
ATOM      3  H   UNL A   1      45.592  26.549  27.015  1.00  0.00     0.028 H 
ENDROOT
BRANCH   1   4
ATOM      4  C   UNL A   1      46.152  24.579  27.571  1.00  0.00     0.017 C 
ATOM      5  H   UNL A   1      46.702  23.876  26.980  1.00  0.00     0.049 H 
ATOM      6  H   UNL A   1      46.770  25.178  28.208  1.00  0.00     0.049 H 
BRANCH   4   7
ATOM      7  N   UNL A   1      45.207  23.779  28.516  1.00  0.00    -0.356 N 
ATOM      8  C   UNL A   1      44.572  23.577  29.719  1.00  0.00     0.220 C 
ATOM      9  O   UNL A   1      43.795  22.600  29.593  1.00  0.00    -0.275 OA
ATOM     10  H   UNL A   1      44.906  23.022  27.963  1.00  0.00     0.163 HD
BRANCH   8  11
ATOM     11  C   UNL A   1      44.413  24.359  31.164  1.00  0.00     0.030 C 
ATOM     12  H   UNL A   1      45.180  25.101  31.097  1.00  0.00     0.037 H 
ATOM     13  H   UNL A   1      43.344  24.354  31.116  1.00  0.00     0.037 H 
BRANCH  11  14
ATOM     14  C   UNL A   1      44.432  24.007  32.748  1.00  0.00    -0.010 C 
ATOM     15  H   UNL A   1      45.475  24.015  32.984  1.00  0.00     0.031 H 
ATOM     16  H   UNL A   1      43.649  24.687  33.011  1.00  0.00     0.031 H 
BRANCH  14  17
ATOM     17  C   UNL A   1      43.875  22.793  33.627  1.00  0.00     0.090 C 
ATOM     18  H   UNL A   1      42.830  22.737  33.401  1.00  0.00     0.071 H 
ATOM     19  H   UNL A   1      44.563  22.026  33.343  1.00  0.00     0.071 H 
BRANCH  17  20
ATOM     20  O   UNL A   1      43.958  22.686  35.057  1.00  0.00    -0.477 OA
BRANCH  20  21
ATOM     21  C   UNL A   1      45.128  22.559  35.737  1.00  0.00     0.235 A 
ATOM     22  C   UNL A   1      48.597  20.878  34.574  1.00  0.00     0.039 A 
ATOM     23  C   UNL A   1      47.475  20.073  34.397  1.00  0.00    -0.037 A 
ATOM     24  N   UNL A   1      48.621  21.912  35.442  1.00  0.00    -0.240 NA
ATOM     25  C   UNL A   1      46.251  20.375  35.029  1.00  0.00    -0.034 A 
ATOM     26  H   UNL A   1      47.539  19.240  33.790  1.00  0.00     0.064 H 
ATOM     27  C   UNL A   1      47.391  22.264  35.868  1.00  0.00     0.147 A 
ATOM     28  C   UNL A   1      46.194  21.651  35.547  1.00  0.00     0.078 A 
ATOM     29  S   UNL A   1      47.018  23.537  36.935  1.00  0.00    -0.012 S 
ATOM     30  N   UNL A   1      45.371  23.540  36.608  1.00  0.00    -0.153 NA
BRANCH  22  31
ATOM     31  C   UNL A   1      49.808  20.654  33.703  1.00  0.00    -0.022 C 
ATOM     32  H   UNL A   1      50.070  21.569  33.215  1.00  0.00     0.030 H 
ATOM     33  H   UNL A   1      49.585  19.908  32.968  1.00  0.00     0.030 H 
ATOM     34  H   UNL A   1      50.626  20.325  34.309  1.00  0.00     0.030 H 
ENDBRANCH  22  31
BRANCH  25  35
ATOM     35  C   UNL A   1      45.015  19.569  35.168  1.00  0.00    -0.039 C 
ATOM     36  H   UNL A   1      45.206  18.565  34.853  1.00  0.00     0.028 H 
ATOM     37  H   UNL A   1      44.243  19.993  34.561  1.00  0.00     0.028 H 
ATOM     38  H   UNL A   1      44.703  19.568  36.192  1.00  0.00     0.028 H 
ENDBRANCH  25  35
ENDBRANCH  20  21
ENDBRANCH  17  20
ENDBRANCH  14  17
ENDBRANCH  11  14
ENDBRANCH   8  11
ENDBRANCH   4   7
ENDBRANCH   1   4
BRANCH   1  39
ATOM     39  C   UNL A   1      43.911  25.433  26.460  1.00  0.00    -0.052 C 
ATOM     40  H   UNL A   1      43.480  26.387  26.680  1.00  0.00     0.027 H 
ATOM     41  H   UNL A   1      43.660  24.642  27.135  1.00  0.00     0.027 H 
BRANCH  39  42
ATOM     42  C   UNL A   1      43.340  24.975  25.102  1.00  0.00    -0.052 C 
ATOM     43  H   UNL A   1      43.929  25.445  24.342  1.00  0.00     0.027 H 
ATOM     44  H   UNL A   1      42.308  25.253  25.155  1.00  0.00     0.027 H 
BRANCH  42  45
ATOM     45  C   UNL A   1      43.296  23.469  24.772  1.00  0.00    -0.036 C 
ATOM     46  H   UNL A   1      44.271  23.181  24.437  1.00  0.00     0.028 H 
ATOM     47  H   UNL A   1      42.526  23.362  24.037  1.00  0.00     0.028 H 
BRANCH  45  48
ATOM     48  C   UNL A   1      42.902  22.536  25.912  1.00  0.00     0.018 C 
ATOM     49  H   UNL A   1      43.048  23.052  26.837  1.00  0.00     0.049 H 
ATOM     50  H   UNL A   1      43.519  21.665  25.828  1.00  0.00     0.049 H 
BRANCH  48  51
ATOM     51  N   UNL A   1      41.517  22.082  25.850  1.00  0.00    -0.352 N 
ATOM     52  C   UNL A   1      40.400  22.557  26.513  1.00  0.00     0.251 C 
ATOM     53  H   UNL A   1      41.353  21.324  25.243  1.00  0.00     0.163 HD
ATOM     54  O   UNL A   1      39.399  21.873  26.595  1.00  0.00    -0.269 OA
BRANCH  52  55
ATOM     55  C   UNL A   1      40.424  23.904  27.129  1.00  0.00     0.039 A 
ATOM     56  C   UNL A   1      41.168  24.130  28.290  1.00  0.00    -0.049 A 
ATOM     57  C   UNL A   1      39.667  24.933  26.572  1.00  0.00    -0.049 A 
ATOM     58  C   UNL A   1      41.190  25.411  28.836  1.00  0.00    -0.053 A 
ATOM     59  H   UNL A   1      41.692  23.361  28.735  1.00  0.00     0.063 H 
ATOM     60  C   UNL A   1      39.799  26.226  27.024  1.00  0.00    -0.053 A 
ATOM     61  H   UNL A   1      39.000  24.723  25.813  1.00  0.00     0.063 H 
ATOM     62  C   UNL A   1      40.520  26.461  28.181  1.00  0.00    -0.014 A 
ATOM     63  H   UNL A   1      41.695  25.589  29.718  1.00  0.00     0.063 H 
ATOM     64  H   UNL A   1      39.365  27.008  26.508  1.00  0.00     0.063 H 
BRANCH  62  65
ATOM     65  C   UNL A   1      40.703  27.834  28.631  1.00  0.00     0.031 A 
ATOM     66  C   UNL A   1      41.909  28.470  28.048  1.00  0.00     0.074 A 
ATOM     67  C   UNL A   1      39.822  28.527  29.383  1.00  0.00     0.049 A 
ATOM     68  N   UNL A   1      43.026  28.689  28.652  1.00  0.00    -0.248 NA
ATOM     69  C   UNL A   1      41.957  28.712  26.598  1.00  0.00    -0.034 C 
ATOM     70  C   UNL A   1      38.465  28.147  29.787  1.00  0.00    -0.036 A 
ATOM     71  N   UNL A   1      39.950  29.781  29.910  1.00  0.00    -0.354 N 
ATOM     72  C   UNL A   1      43.859  29.292  27.715  1.00  0.00     0.074 A 
ATOM     73  C   UNL A   1      43.223  29.106  26.439  1.00  0.00    -0.034 C 
ATOM     74  H   UNL A   1      41.212  28.605  25.891  1.00  0.00     0.065 H 
ATOM     75  C   UNL A   1      37.827  29.217  30.315  1.00  0.00    -0.036 A 
ATOM     76  H   UNL A   1      38.057  27.205  29.683  1.00  0.00     0.065 H 
ATOM     77  C   UNL A   1      38.778  30.305  30.449  1.00  0.00     0.049 A 
ATOM     78  H   UNL A   1      40.802  30.273  29.910  1.00  0.00     0.167 HD
ATOM     79  C   UNL A   1      44.852  30.123  28.135  1.00  0.00     0.037 A 
ATOM     80  H   UNL A   1      43.682  29.257  25.527  1.00  0.00     0.065 H 
ATOM     81  H   UNL A   1      36.830  29.254  30.579  1.00  0.00     0.065 H 
ATOM     82  C   UNL A   1      38.618  31.544  30.979  1.00  0.00     0.037 A 
ATOM     83  C   UNL A   1      45.083  29.942  29.550  1.00  0.00     0.049 A 
ATOM     84  C   UNL A   1      39.964  32.003  31.388  1.00  0.00     0.074 A 
ATOM     85  C   UNL A   1      45.573  28.938  30.356  1.00  0.00    -0.036 A 
ATOM     86  N   UNL A   1      44.361  30.785  30.355  1.00  0.00    -0.354 N 
ATOM     87  N   UNL A   1      40.646  31.469  32.360  1.00  0.00    -0.248 NA
ATOM     88  C   UNL A   1      40.727  32.832  30.467  1.00  0.00    -0.034 C 
ATOM     89  C   UNL A   1      44.854  29.047  31.585  1.00  0.00    -0.036 A 
ATOM     90  H   UNL A   1      46.307  28.251  30.121  1.00  0.00     0.065 H 
ATOM     91  C   UNL A   1      44.000  30.148  31.509  1.00  0.00     0.049 A 
ATOM     92  H   UNL A   1      44.135  31.718  30.133  1.00  0.00     0.167 HD
ATOM     93  C   UNL A   1      41.958  31.521  31.929  1.00  0.00     0.074 A 
ATOM     94  C   UNL A   1      41.963  32.510  30.855  1.00  0.00    -0.034 C 
ATOM     95  H   UNL A   1      40.406  33.480  29.730  1.00  0.00     0.065 H 
ATOM     96  H   UNL A   1      44.950  28.416  32.396  1.00  0.00     0.065 H 
ATOM     97  C   UNL A   1      42.837  30.537  32.279  1.00  0.00     0.037 A 
ATOM     98  H   UNL A   1      42.820  32.911  30.444  1.00  0.00     0.065 H 
BRANCH  79  99
ATOM     99  C   UNL A   1      45.254  31.408  27.436  1.00  0.00     0.064 A 
ATOM    100  C   UNL A   1      46.579  31.534  26.962  1.00  0.00     0.173 A 
ATOM    101  C   UNL A   1      44.524  32.616  27.498  1.00  0.00     0.173 A 
ATOM    102  F   UNL A   1      47.379  30.460  26.875  1.00  0.00    -0.203 F 
ATOM    103  C   UNL A   1      47.149  32.775  26.664  1.00  0.00     0.198 A 
ATOM    104  C   UNL A   1      45.082  33.846  27.153  1.00  0.00     0.198 A 
ATOM    105  F   UNL A   1      43.287  32.684  27.997  1.00  0.00    -0.203 F 
ATOM    106  F   UNL A   1      48.449  32.852  26.349  1.00  0.00    -0.200 F 
ATOM    107  C   UNL A   1      46.401  33.932  26.768  1.00  0.00     0.200 A 
ATOM    108  F   UNL A   1      44.346  34.960  27.285  1.00  0.00    -0.200 F 
ATOM    109  F   UNL A   1      46.960  35.128  26.545  1.00  0.00    -0.200 F 
ENDBRANCH  79  99
BRANCH  82 110
ATOM    110  C   UNL A   1      37.460  32.471  30.934  1.00  0.00     0.064 A 
ATOM    111  C   UNL A   1      37.157  33.187  29.759  1.00  0.00     0.173 A 
ATOM    112  C   UNL A   1      36.446  32.417  31.908  1.00  0.00     0.173 A 
ATOM    113  F   UNL A   1      38.054  33.266  28.765  1.00  0.00    -0.203 F 
ATOM    114  C   UNL A   1      35.897  33.757  29.546  1.00  0.00     0.198 A 
ATOM    115  C   UNL A   1      35.189  32.991  31.695  1.00  0.00     0.198 A 
ATOM    116  F   UNL A   1      36.619  31.719  33.040  1.00  0.00    -0.203 F 
ATOM    117  F   UNL A   1      35.621  34.353  28.377  1.00  0.00    -0.200 F 
ATOM    118  C   UNL A   1      34.908  33.640  30.506  1.00  0.00     0.200 A 
ATOM    119  F   UNL A   1      34.227  32.843  32.617  1.00  0.00    -0.200 F 
ATOM    120  F   UNL A   1      33.675  34.111  30.270  1.00  0.00    -0.200 F 
ENDBRANCH  82 110
BRANCH  97 121
ATOM    121  C   UNL A   1      42.481  29.674  33.456  1.00  0.00     0.064 A 
ATOM    122  C   UNL A   1      41.816  28.438  33.371  1.00  0.00     0.173 A 
ATOM    123  C   UNL A   1      42.961  30.064  34.714  1.00  0.00     0.173 A 
ATOM    124  F   UNL A   1      41.389  27.961  32.197  1.00  0.00    -0.203 F 
ATOM    125  C   UNL A   1      41.628  27.643  34.502  1.00  0.00     0.198 A 
ATOM    126  C   UNL A   1      42.805  29.251  35.833  1.00  0.00     0.198 A 
ATOM    127  F   UNL A   1      43.632  31.218  34.848  1.00  0.00    -0.203 F 
ATOM    128  F   UNL A   1      40.984  26.470  34.400  1.00  0.00    -0.200 F 
ATOM    129  C   UNL A   1      42.134  28.045  35.728  1.00  0.00     0.200 A 
ATOM    130  F   UNL A   1      43.335  29.625  37.004  1.00  0.00    -0.200 F 
ATOM    131  F   UNL A   1      41.998  27.256  36.804  1.00  0.00    -0.200 F 
ENDBRANCH  97 121
ENDBRANCH  62  65
ENDBRANCH  52  55
ENDBRANCH  48  51
ENDBRANCH  45  48
ENDBRANCH  42  45
ENDBRANCH  39  42
ENDBRANCH   1  39
TORSDOF 19
ENDMDL
