MODEL 1
REMARK VINA RESULT:     -12.2      0.000      0.000
REMARK SMILES O=C(Cc1cccn1-c1ccccc1F)NCCCCCCNC(=O)c1ccc(-c2c3nc(c(-c4c(F)c(F)c(F)c(F)c4F)c4ccc([nH]4)c(-c4c(F)c(F)c(F)c(F)c4F)c4nc(c(-c5c(F)c(F)c(F)c(F)c5F)c5ccc2[nH]5)C=C4)C=C3)cc1
REMARK SMILES IDX 19 1 18 4 17 7 16 10 1 11 2 12 3 14 4 17 5 18 8 19 6 20 7 22
REMARK SMILES IDX 9 25 10 26 14 27 11 28 13 30 15 31 12 32 20 36 21 39 22 42
REMARK SMILES IDX 23 45 24 46 25 48 26 49 27 50 88 51 28 52 87 54 29 56 30 59
REMARK SMILES IDX 31 60 81 61 32 62 86 63 80 64 82 65 33 66 85 67 79 69 78 71
REMARK SMILES IDX 34 73 66 76 46 77 65 78 47 79 50 80 64 81 83 82 48 83 49 85
REMARK SMILES IDX 63 87 84 88 51 91 35 93 36 94 44 95 37 96 38 97 42 98 45 99
REMARK SMILES IDX 39 100 40 101 43 102 41 103 67 104 68 105 76 106 69 107
REMARK SMILES IDX 70 108 74 109 77 110 71 111 72 112 75 113 73 114 52 115
REMARK SMILES IDX 53 116 61 117 54 118 55 119 59 120 62 121 56 122 57 123
REMARK SMILES IDX 60 124 58 125
REMARK H PARENT 19 2 19 3 18 5 18 6 17 8 17 9 16 13 3 15 3 16 5 21 6 23 7 24
REMARK H PARENT 10 29 11 33 13 34 12 35 20 37 20 38 21 40 21 41 22 43 22 44
REMARK H PARENT 23 47 27 53 88 55 28 57 87 58 86 68 80 70 82 72 85 74 79 75
REMARK H PARENT 47 84 50 86 83 89 48 90 84 92
REMARK Flexibility Score: inf
ROOT
ATOM      1  C   UNL A   1      31.914  29.414  27.075  1.00  0.00    -0.052 C 
ATOM      2  H   UNL A   1      32.526  29.841  27.841  1.00  0.00     0.027 H 
ATOM      3  H   UNL A   1      31.004  29.938  26.867  1.00  0.00     0.027 H 
ENDROOT
BRANCH   1   4
ATOM      4  C   UNL A   1      31.464  28.031  27.564  1.00  0.00    -0.036 C 
ATOM      5  H   UNL A   1      32.280  27.599  28.105  1.00  0.00     0.028 H 
ATOM      6  H   UNL A   1      30.584  28.217  28.144  1.00  0.00     0.028 H 
BRANCH   4   7
ATOM      7  C   UNL A   1      31.029  27.017  26.501  1.00  0.00     0.017 C 
ATOM      8  H   UNL A   1      30.066  26.639  26.771  1.00  0.00     0.049 H 
ATOM      9  H   UNL A   1      31.023  27.535  25.565  1.00  0.00     0.049 H 
BRANCH   7  10
ATOM     10  N   UNL A   1      31.935  25.892  26.351  1.00  0.00    -0.356 N 
ATOM     11  O   UNL A   1      30.367  24.299  26.899  1.00  0.00    -0.275 OA
ATOM     12  C   UNL A   1      31.505  24.585  26.536  1.00  0.00     0.225 C 
ATOM     13  H   UNL A   1      32.875  26.059  26.113  1.00  0.00     0.163 HD
BRANCH  12  14
ATOM     14  C   UNL A   1      32.568  23.532  26.252  1.00  0.00     0.067 C 
ATOM     15  H   UNL A   1      32.279  22.631  26.752  1.00  0.00     0.043 H 
ATOM     16  H   UNL A   1      33.490  23.947  26.602  1.00  0.00     0.043 H 
BRANCH  14  17
ATOM     17  C   UNL A   1      32.791  23.203  24.799  1.00  0.00     0.032 A 
ATOM     18  C   UNL A   1      31.808  23.018  23.832  1.00  0.00    -0.040 A 
ATOM     19  N   UNL A   1      34.010  22.998  24.172  1.00  0.00    -0.318 N 
ATOM     20  C   UNL A   1      32.436  22.707  22.607  1.00  0.00    -0.044 A 
ATOM     21  H   UNL A   1      30.791  23.095  23.986  1.00  0.00     0.064 H 
ATOM     22  C   UNL A   1      33.789  22.742  22.834  1.00  0.00     0.009 A 
ATOM     23  H   UNL A   1      31.967  22.493  21.713  1.00  0.00     0.064 H 
ATOM     24  H   UNL A   1      34.521  22.601  22.120  1.00  0.00     0.082 H 
BRANCH  19  25
ATOM     25  C   UNL A   1      35.270  22.795  24.752  1.00  0.00     0.081 A 
ATOM     26  C   UNL A   1      36.085  23.889  25.056  1.00  0.00    -0.035 A 
ATOM     27  C   UNL A   1      35.741  21.494  24.869  1.00  0.00     0.147 A 
ATOM     28  C   UNL A   1      37.376  23.655  25.533  1.00  0.00    -0.060 A 
ATOM     29  H   UNL A   1      35.739  24.852  24.929  1.00  0.00     0.065 H 
ATOM     30  C   UNL A   1      37.051  21.270  25.261  1.00  0.00    -0.024 A 
ATOM     31  F   UNL A   1      34.956  20.442  24.595  1.00  0.00    -0.205 F 
ATOM     32  C   UNL A   1      37.861  22.349  25.626  1.00  0.00    -0.059 A 
ATOM     33  H   UNL A   1      37.971  24.448  25.819  1.00  0.00     0.062 H 
ATOM     34  H   UNL A   1      37.427  20.310  25.284  1.00  0.00     0.065 H 
ATOM     35  H   UNL A   1      38.823  22.179  25.964  1.00  0.00     0.062 H 
ENDBRANCH  19  25
ENDBRANCH  14  17
ENDBRANCH  12  14
ENDBRANCH   7  10
ENDBRANCH   4   7
ENDBRANCH   1   4
BRANCH   1  36
ATOM     36  C   UNL A   1      32.706  29.480  25.767  1.00  0.00    -0.052 C 
ATOM     37  H   UNL A   1      32.839  30.516  25.535  1.00  0.00     0.027 H 
ATOM     38  H   UNL A   1      32.118  28.906  25.082  1.00  0.00     0.027 H 
BRANCH  36  39
ATOM     39  C   UNL A   1      34.089  28.824  25.700  1.00  0.00    -0.036 C 
ATOM     40  H   UNL A   1      34.667  29.330  24.956  1.00  0.00     0.028 H 
ATOM     41  H   UNL A   1      33.932  27.792  25.467  1.00  0.00     0.028 H 
BRANCH  39  42
ATOM     42  C   UNL A   1      34.857  28.869  27.016  1.00  0.00     0.018 C 
ATOM     43  H   UNL A   1      35.727  28.251  26.932  1.00  0.00     0.049 H 
ATOM     44  H   UNL A   1      34.212  28.515  27.792  1.00  0.00     0.049 H 
BRANCH  42  45
ATOM     45  N   UNL A   1      35.270  30.229  27.347  1.00  0.00    -0.352 N 
ATOM     46  C   UNL A   1      36.424  30.672  27.954  1.00  0.00     0.251 C 
ATOM     47  H   UNL A   1      34.629  30.934  27.102  1.00  0.00     0.163 HD
ATOM     48  O   UNL A   1      36.502  31.801  28.401  1.00  0.00    -0.269 OA
BRANCH  46  49
ATOM     49  C   UNL A   1      37.556  29.741  28.099  1.00  0.00     0.039 A 
ATOM     50  C   UNL A   1      38.528  29.716  27.095  1.00  0.00    -0.049 A 
ATOM     51  C   UNL A   1      37.658  28.926  29.229  1.00  0.00    -0.049 A 
ATOM     52  C   UNL A   1      39.665  28.944  27.278  1.00  0.00    -0.053 A 
ATOM     53  H   UNL A   1      38.400  30.262  26.228  1.00  0.00     0.063 H 
ATOM     54  C   UNL A   1      38.817  28.199  29.442  1.00  0.00    -0.053 A 
ATOM     55  H   UNL A   1      36.876  28.866  29.900  1.00  0.00     0.063 H 
ATOM     56  C   UNL A   1      39.825  28.228  28.473  1.00  0.00    -0.014 A 
ATOM     57  H   UNL A   1      40.387  28.898  26.543  1.00  0.00     0.063 H 
ATOM     58  H   UNL A   1      38.934  27.642  30.304  1.00  0.00     0.063 H 
BRANCH  56  59
ATOM     59  C   UNL A   1      41.132  27.602  28.749  1.00  0.00     0.031 A 
ATOM     60  C   UNL A   1      41.219  26.174  28.186  1.00  0.00     0.074 A 
ATOM     61  C   UNL A   1      42.014  28.364  29.461  1.00  0.00     0.049 A 
ATOM     62  N   UNL A   1      41.908  25.154  28.596  1.00  0.00    -0.248 NA
ATOM     63  C   UNL A   1      40.357  25.802  27.029  1.00  0.00    -0.034 C 
ATOM     64  C   UNL A   1      41.752  29.757  29.876  1.00  0.00    -0.036 A 
ATOM     65  N   UNL A   1      43.272  28.154  29.985  1.00  0.00    -0.354 N 
ATOM     66  C   UNL A   1      41.704  24.096  27.680  1.00  0.00     0.074 A 
ATOM     67  C   UNL A   1      40.655  24.520  26.804  1.00  0.00    -0.034 C 
ATOM     68  H   UNL A   1      39.685  26.398  26.520  1.00  0.00     0.065 H 
ATOM     69  C   UNL A   1      42.757  30.229  30.637  1.00  0.00    -0.036 A 
ATOM     70  H   UNL A   1      40.912  30.296  29.617  1.00  0.00     0.065 H 
ATOM     71  C   UNL A   1      43.767  29.206  30.802  1.00  0.00     0.049 A 
ATOM     72  H   UNL A   1      43.790  27.336  29.806  1.00  0.00     0.167 HD
ATOM     73  C   UNL A   1      42.506  22.989  27.632  1.00  0.00     0.037 A 
ATOM     74  H   UNL A   1      40.196  23.921  26.100  1.00  0.00     0.065 H 
ATOM     75  H   UNL A   1      42.801  31.178  31.042  1.00  0.00     0.065 H 
ATOM     76  C   UNL A   1      44.873  29.228  31.608  1.00  0.00     0.037 A 
ATOM     77  C   UNL A   1      43.503  23.072  28.645  1.00  0.00     0.049 A 
ATOM     78  C   UNL A   1      45.573  27.960  31.342  1.00  0.00     0.074 A 
ATOM     79  C   UNL A   1      43.446  22.927  30.005  1.00  0.00    -0.036 A 
ATOM     80  N   UNL A   1      44.677  23.701  28.309  1.00  0.00    -0.354 N 
ATOM     81  N   UNL A   1      46.213  27.679  30.245  1.00  0.00    -0.248 NA
ATOM     82  C   UNL A   1      45.444  26.872  32.319  1.00  0.00    -0.034 C 
ATOM     83  C   UNL A   1      44.355  23.897  30.476  1.00  0.00    -0.036 A 
ATOM     84  H   UNL A   1      42.874  22.267  30.555  1.00  0.00     0.065 H 
ATOM     85  C   UNL A   1      45.075  24.430  29.401  1.00  0.00     0.049 A 
ATOM     86  H   UNL A   1      45.145  23.640  27.445  1.00  0.00     0.167 HD
ATOM     87  C   UNL A   1      46.261  26.304  30.280  1.00  0.00     0.074 A 
ATOM     88  C   UNL A   1      46.082  25.912  31.658  1.00  0.00    -0.034 C 
ATOM     89  H   UNL A   1      44.991  26.856  33.247  1.00  0.00     0.065 H 
ATOM     90  H   UNL A   1      44.473  24.170  31.464  1.00  0.00     0.065 H 
ATOM     91  C   UNL A   1      45.900  25.595  29.181  1.00  0.00     0.037 A 
ATOM     92  H   UNL A   1      46.401  25.019  32.067  1.00  0.00     0.065 H 
BRANCH  73  93
ATOM     93  C   UNL A   1      42.665  21.881  26.624  1.00  0.00     0.064 A 
ATOM     94  C   UNL A   1      43.591  21.915  25.575  1.00  0.00     0.173 A 
ATOM     95  C   UNL A   1      42.121  20.607  26.933  1.00  0.00     0.173 A 
ATOM     96  F   UNL A   1      44.182  23.060  25.211  1.00  0.00    -0.203 F 
ATOM     97  C   UNL A   1      44.012  20.741  24.938  1.00  0.00     0.198 A 
ATOM     98  C   UNL A   1      42.578  19.437  26.330  1.00  0.00     0.198 A 
ATOM     99  F   UNL A   1      41.188  20.471  27.889  1.00  0.00    -0.203 F 
ATOM    100  F   UNL A   1      44.941  20.809  23.973  1.00  0.00    -0.200 F 
ATOM    101  C   UNL A   1      43.539  19.503  25.342  1.00  0.00     0.200 A 
ATOM    102  F   UNL A   1      42.132  18.245  26.755  1.00  0.00    -0.200 F 
ATOM    103  F   UNL A   1      44.034  18.380  24.806  1.00  0.00    -0.200 F 
ENDBRANCH  73  93
BRANCH  76 104
ATOM    104  C   UNL A   1      45.405  30.101  32.727  1.00  0.00     0.064 A 
ATOM    105  C   UNL A   1      46.710  30.665  32.624  1.00  0.00     0.173 A 
ATOM    106  C   UNL A   1      44.778  30.352  33.954  1.00  0.00     0.173 A 
ATOM    107  F   UNL A   1      47.378  30.684  31.464  1.00  0.00    -0.203 F 
ATOM    108  C   UNL A   1      47.393  31.230  33.702  1.00  0.00     0.198 A 
ATOM    109  C   UNL A   1      45.449  30.964  35.030  1.00  0.00     0.198 A 
ATOM    110  F   UNL A   1      43.494  30.048  34.156  1.00  0.00    -0.203 F 
ATOM    111  F   UNL A   1      48.667  31.622  33.548  1.00  0.00    -0.200 F 
ATOM    112  C   UNL A   1      46.770  31.357  34.918  1.00  0.00     0.200 A 
ATOM    113  F   UNL A   1      44.805  31.155  36.190  1.00  0.00    -0.200 F 
ATOM    114  F   UNL A   1      47.428  31.870  35.965  1.00  0.00    -0.200 F 
ENDBRANCH  76 104
BRANCH  91 115
ATOM    115  C   UNL A   1      46.073  26.341  27.875  1.00  0.00     0.064 A 
ATOM    116  C   UNL A   1      45.009  26.823  27.095  1.00  0.00     0.173 A 
ATOM    117  C   UNL A   1      47.361  26.683  27.436  1.00  0.00     0.173 A 
ATOM    118  F   UNL A   1      43.749  26.553  27.425  1.00  0.00    -0.203 F 
ATOM    119  C   UNL A   1      45.209  27.596  25.949  1.00  0.00     0.198 A 
ATOM    120  C   UNL A   1      47.567  27.463  26.294  1.00  0.00     0.198 A 
ATOM    121  F   UNL A   1      48.434  26.251  28.116  1.00  0.00    -0.203 F 
ATOM    122  F   UNL A   1      44.156  28.018  25.231  1.00  0.00    -0.200 F 
ATOM    123  C   UNL A   1      46.490  27.920  25.551  1.00  0.00     0.200 A 
ATOM    124  F   UNL A   1      48.813  27.764  25.909  1.00  0.00    -0.200 F 
ATOM    125  F   UNL A   1      46.689  28.654  24.447  1.00  0.00    -0.200 F 
ENDBRANCH  91 115
ENDBRANCH  56  59
ENDBRANCH  46  49
ENDBRANCH  42  45
ENDBRANCH  39  42
ENDBRANCH  36  39
ENDBRANCH   1  36
TORSDOF 15
ENDMDL
MODEL 2
REMARK VINA RESULT:     -12.1      1.270      2.007
REMARK SMILES O=C(Cc1cccn1-c1ccccc1F)NCCCCCCNC(=O)c1ccc(-c2c3nc(c(-c4c(F)c(F)c(F)c(F)c4F)c4ccc([nH]4)c(-c4c(F)c(F)c(F)c(F)c4F)c4nc(c(-c5c(F)c(F)c(F)c(F)c5F)c5ccc2[nH]5)C=C4)C=C3)cc1
REMARK SMILES IDX 19 1 18 4 17 7 16 10 1 11 2 12 3 14 4 17 5 18 8 19 6 20 7 22
REMARK SMILES IDX 9 25 10 26 14 27 11 28 13 30 15 31 12 32 20 36 21 39 22 42
REMARK SMILES IDX 23 45 24 46 25 48 26 49 27 50 88 51 28 52 87 54 29 56 30 59
REMARK SMILES IDX 31 60 81 61 32 62 86 63 80 64 82 65 33 66 85 67 79 69 78 71
REMARK SMILES IDX 34 73 66 76 46 77 65 78 47 79 50 80 64 81 83 82 48 83 49 85
REMARK SMILES IDX 63 87 84 88 51 91 35 93 36 94 44 95 37 96 38 97 42 98 45 99
REMARK SMILES IDX 39 100 40 101 43 102 41 103 67 104 68 105 76 106 69 107
REMARK SMILES IDX 70 108 74 109 77 110 71 111 72 112 75 113 73 114 52 115
REMARK SMILES IDX 53 116 61 117 54 118 55 119 59 120 62 121 56 122 57 123
REMARK SMILES IDX 60 124 58 125
REMARK H PARENT 19 2 19 3 18 5 18 6 17 8 17 9 16 13 3 15 3 16 5 21 6 23 7 24
REMARK H PARENT 10 29 11 33 13 34 12 35 20 37 20 38 21 40 21 41 22 43 22 44
REMARK H PARENT 23 47 27 53 88 55 28 57 87 58 86 68 80 70 82 72 85 74 79 75
REMARK H PARENT 47 84 50 86 83 89 48 90 84 92
REMARK Flexibility Score: inf
ROOT
ATOM      1  C   UNL A   1      32.913  29.161  24.658  1.00  0.00    -0.052 C 
ATOM      2  H   UNL A   1      32.456  30.120  24.782  1.00  0.00     0.027 H 
ATOM      3  H   UNL A   1      33.981  29.167  24.585  1.00  0.00     0.027 H 
ENDROOT
BRANCH   1   4
ATOM      4  C   UNL A   1      32.434  28.594  23.314  1.00  0.00    -0.036 C 
ATOM      5  H   UNL A   1      31.640  27.906  23.520  1.00  0.00     0.028 H 
ATOM      6  H   UNL A   1      32.154  29.450  22.738  1.00  0.00     0.028 H 
BRANCH   4   7
ATOM      7  C   UNL A   1      33.468  27.860  22.454  1.00  0.00     0.017 C 
ATOM      8  H   UNL A   1      33.248  28.052  21.426  1.00  0.00     0.049 H 
ATOM      9  H   UNL A   1      34.430  28.226  22.747  1.00  0.00     0.049 H 
BRANCH   7  10
ATOM     10  N   UNL A   1      33.490  26.422  22.654  1.00  0.00    -0.356 N 
ATOM     11  O   UNL A   1      32.093  25.954  20.886  1.00  0.00    -0.275 OA
ATOM     12  C   UNL A   1      32.806  25.562  21.806  1.00  0.00     0.225 C 
ATOM     13  H   UNL A   1      34.000  26.048  23.407  1.00  0.00     0.163 HD
BRANCH  12  14
ATOM     14  C   UNL A   1      33.013  24.084  22.115  1.00  0.00     0.067 C 
ATOM     15  H   UNL A   1      34.065  23.891  22.104  1.00  0.00     0.043 H 
ATOM     16  H   UNL A   1      32.465  23.551  21.366  1.00  0.00     0.043 H 
BRANCH  14  17
ATOM     17  C   UNL A   1      32.468  23.610  23.437  1.00  0.00     0.032 A 
ATOM     18  C   UNL A   1      31.140  23.656  23.849  1.00  0.00    -0.040 A 
ATOM     19  N   UNL A   1      33.193  23.072  24.489  1.00  0.00    -0.318 N 
ATOM     20  C   UNL A   1      31.058  23.133  25.158  1.00  0.00    -0.044 A 
ATOM     21  H   UNL A   1      30.349  24.012  23.291  1.00  0.00     0.064 H 
ATOM     22  C   UNL A   1      32.326  22.744  25.511  1.00  0.00     0.009 A 
ATOM     23  H   UNL A   1      30.207  23.059  25.737  1.00  0.00     0.064 H 
ATOM     24  H   UNL A   1      32.587  22.281  26.395  1.00  0.00     0.082 H 
BRANCH  19  25
ATOM     25  C   UNL A   1      34.581  23.072  24.686  1.00  0.00     0.081 A 
ATOM     26  C   UNL A   1      35.338  21.952  24.334  1.00  0.00    -0.035 A 
ATOM     27  C   UNL A   1      35.150  24.136  25.374  1.00  0.00     0.147 A 
ATOM     28  C   UNL A   1      36.700  21.936  24.638  1.00  0.00    -0.060 A 
ATOM     29  H   UNL A   1      34.898  21.150  23.856  1.00  0.00     0.065 H 
ATOM     30  C   UNL A   1      36.483  24.077  25.749  1.00  0.00    -0.024 A 
ATOM     31  F   UNL A   1      34.430  25.220  25.699  1.00  0.00    -0.205 F 
ATOM     32  C   UNL A   1      37.269  22.992  25.354  1.00  0.00    -0.059 A 
ATOM     33  H   UNL A   1      37.288  21.144  24.333  1.00  0.00     0.062 H 
ATOM     34  H   UNL A   1      36.892  24.833  26.319  1.00  0.00     0.065 H 
ATOM     35  H   UNL A   1      38.274  22.971  25.593  1.00  0.00     0.062 H 
ENDBRANCH  19  25
ENDBRANCH  14  17
ENDBRANCH  12  14
ENDBRANCH   7  10
ENDBRANCH   4   7
ENDBRANCH   1   4
BRANCH   1  36
ATOM     36  C   UNL A   1      32.615  28.346  25.918  1.00  0.00    -0.052 C 
ATOM     37  H   UNL A   1      32.720  27.314  25.655  1.00  0.00     0.027 H 
ATOM     38  H   UNL A   1      31.637  28.670  26.207  1.00  0.00     0.027 H 
BRANCH  36  39
ATOM     39  C   UNL A   1      33.464  28.579  27.172  1.00  0.00    -0.036 C 
ATOM     40  H   UNL A   1      33.414  27.700  27.780  1.00  0.00     0.028 H 
ATOM     41  H   UNL A   1      33.063  29.441  27.664  1.00  0.00     0.028 H 
BRANCH  39  42
ATOM     42  C   UNL A   1      34.929  28.877  26.879  1.00  0.00     0.018 C 
ATOM     43  H   UNL A   1      35.090  28.818  25.823  1.00  0.00     0.049 H 
ATOM     44  H   UNL A   1      35.528  28.158  27.397  1.00  0.00     0.049 H 
BRANCH  42  45
ATOM     45  N   UNL A   1      35.307  30.208  27.344  1.00  0.00    -0.352 N 
ATOM     46  C   UNL A   1      36.436  30.613  28.019  1.00  0.00     0.251 C 
ATOM     47  H   UNL A   1      34.659  30.921  27.145  1.00  0.00     0.163 HD
ATOM     48  O   UNL A   1      36.480  31.698  28.569  1.00  0.00    -0.269 OA
BRANCH  46  49
ATOM     49  C   UNL A   1      37.581  29.693  28.110  1.00  0.00     0.039 A 
ATOM     50  C   UNL A   1      38.525  29.703  27.079  1.00  0.00    -0.049 A 
ATOM     51  C   UNL A   1      37.724  28.852  29.217  1.00  0.00    -0.049 A 
ATOM     52  C   UNL A   1      39.676  28.941  27.212  1.00  0.00    -0.053 A 
ATOM     53  H   UNL A   1      38.368  30.269  26.230  1.00  0.00     0.063 H 
ATOM     54  C   UNL A   1      38.896  28.134  29.380  1.00  0.00    -0.053 A 
ATOM     55  H   UNL A   1      36.962  28.767  29.907  1.00  0.00     0.063 H 
ATOM     56  C   UNL A   1      39.877  28.198  28.384  1.00  0.00    -0.014 A 
ATOM     57  H   UNL A   1      40.378  28.921  26.456  1.00  0.00     0.063 H 
ATOM     58  H   UNL A   1      39.044  27.557  30.224  1.00  0.00     0.063 H 
BRANCH  56  59
ATOM     59  C   UNL A   1      41.198  27.581  28.608  1.00  0.00     0.031 A 
ATOM     60  C   UNL A   1      41.254  26.133  28.094  1.00  0.00     0.074 A 
ATOM     61  C   UNL A   1      42.118  28.368  29.241  1.00  0.00     0.049 A 
ATOM     62  N   UNL A   1      41.966  25.128  28.502  1.00  0.00    -0.248 NA
ATOM     63  C   UNL A   1      40.328  25.720  27.003  1.00  0.00    -0.034 C 
ATOM     64  C   UNL A   1      41.879  29.776  29.618  1.00  0.00    -0.036 A 
ATOM     65  N   UNL A   1      43.405  28.176  29.700  1.00  0.00    -0.354 N 
ATOM     66  C   UNL A   1      41.712  24.038  27.639  1.00  0.00     0.074 A 
ATOM     67  C   UNL A   1      40.614  24.430  26.809  1.00  0.00    -0.034 C 
ATOM     68  H   UNL A   1      39.627  26.297  26.512  1.00  0.00     0.065 H 
ATOM     69  C   UNL A   1      42.926  30.274  30.303  1.00  0.00    -0.036 A 
ATOM     70  H   UNL A   1      41.025  30.306  29.388  1.00  0.00     0.065 H 
ATOM     71  C   UNL A   1      43.944  29.256  30.448  1.00  0.00     0.049 A 
ATOM     72  H   UNL A   1      43.912  27.351  29.522  1.00  0.00     0.167 HD
ATOM     73  C   UNL A   1      42.511  22.928  27.587  1.00  0.00     0.037 A 
ATOM     74  H   UNL A   1      40.116  23.806  26.155  1.00  0.00     0.065 H 
ATOM     75  H   UNL A   1      42.992  31.238  30.670  1.00  0.00     0.065 H 
ATOM     76  C   UNL A   1      45.094  29.307  31.188  1.00  0.00     0.037 A 
ATOM     77  C   UNL A   1      43.563  23.048  28.538  1.00  0.00     0.049 A 
ATOM     78  C   UNL A   1      45.778  28.029  30.930  1.00  0.00     0.074 A 
ATOM     79  C   UNL A   1      43.583  22.953  29.904  1.00  0.00    -0.036 A 
ATOM     80  N   UNL A   1      44.716  23.662  28.113  1.00  0.00    -0.354 N 
ATOM     81  N   UNL A   1      46.355  27.707  29.810  1.00  0.00    -0.248 NA
ATOM     82  C   UNL A   1      45.706  26.978  31.953  1.00  0.00    -0.034 C 
ATOM     83  C   UNL A   1      44.517  23.938  30.286  1.00  0.00    -0.036 A 
ATOM     84  H   UNL A   1      43.044  22.314  30.509  1.00  0.00     0.065 H 
ATOM     85  C   UNL A   1      45.174  24.431  29.153  1.00  0.00     0.049 A 
ATOM     86  H   UNL A   1      45.134  23.569  27.226  1.00  0.00     0.167 HD
ATOM     87  C   UNL A   1      46.407  26.334  29.893  1.00  0.00     0.074 A 
ATOM     88  C   UNL A   1      46.306  25.993  31.293  1.00  0.00    -0.034 C 
ATOM     89  H   UNL A   1      45.307  26.997  32.904  1.00  0.00     0.065 H 
ATOM     90  H   UNL A   1      44.690  24.247  31.255  1.00  0.00     0.065 H 
ATOM     91  C   UNL A   1      45.984  25.585  28.844  1.00  0.00     0.037 A 
ATOM     92  H   UNL A   1      46.649  25.116  31.716  1.00  0.00     0.065 H 
BRANCH  73  93
ATOM     93  C   UNL A   1      42.613  21.783  26.613  1.00  0.00     0.064 A 
ATOM     94  C   UNL A   1      43.488  21.772  25.521  1.00  0.00     0.173 A 
ATOM     95  C   UNL A   1      42.075  20.527  26.994  1.00  0.00     0.173 A 
ATOM     96  F   UNL A   1      44.069  22.897  25.088  1.00  0.00    -0.203 F 
ATOM     97  C   UNL A   1      43.869  20.572  24.907  1.00  0.00     0.198 A 
ATOM     98  C   UNL A   1      42.494  19.331  26.412  1.00  0.00     0.198 A 
ATOM     99  F   UNL A   1      41.188  20.433  27.998  1.00  0.00    -0.203 F 
ATOM    100  F   UNL A   1      44.751  20.597  23.898  1.00  0.00    -0.200 F 
ATOM    101  C   UNL A   1      43.407  19.354  25.378  1.00  0.00     0.200 A 
ATOM    102  F   UNL A   1      42.061  18.160  26.902  1.00  0.00    -0.200 F 
ATOM    103  F   UNL A   1      43.867  18.207  24.860  1.00  0.00    -0.200 F 
ENDBRANCH  73  93
BRANCH  76 104
ATOM    104  C   UNL A   1      45.688  30.220  32.242  1.00  0.00     0.064 A 
ATOM    105  C   UNL A   1      44.980  30.454  33.456  1.00  0.00     0.173 A 
ATOM    106  C   UNL A   1      46.861  30.975  32.121  1.00  0.00     0.173 A 
ATOM    107  F   UNL A   1      43.943  29.690  33.823  1.00  0.00    -0.203 F 
ATOM    108  C   UNL A   1      45.292  31.482  34.347  1.00  0.00     0.198 A 
ATOM    109  C   UNL A   1      47.206  31.983  33.042  1.00  0.00     0.198 A 
ATOM    110  F   UNL A   1      47.733  30.756  31.134  1.00  0.00    -0.203 F 
ATOM    111  F   UNL A   1      44.496  31.712  35.401  1.00  0.00    -0.200 F 
ATOM    112  C   UNL A   1      46.396  32.267  34.126  1.00  0.00     0.200 A 
ATOM    113  F   UNL A   1      48.329  32.691  32.860  1.00  0.00    -0.200 F 
ATOM    114  F   UNL A   1      46.687  33.275  34.959  1.00  0.00    -0.200 F 
ENDBRANCH  76 104
BRANCH  91 115
ATOM    115  C   UNL A   1      46.082  26.283  27.503  1.00  0.00     0.064 A 
ATOM    116  C   UNL A   1      44.975  26.719  26.758  1.00  0.00     0.173 A 
ATOM    117  C   UNL A   1      47.342  26.625  26.989  1.00  0.00     0.173 A 
ATOM    118  F   UNL A   1      43.736  26.444  27.159  1.00  0.00    -0.203 F 
ATOM    119  C   UNL A   1      45.107  27.449  25.575  1.00  0.00     0.198 A 
ATOM    120  C   UNL A   1      47.480  27.363  25.810  1.00  0.00     0.198 A 
ATOM    121  F   UNL A   1      48.454  26.234  27.632  1.00  0.00    -0.203 F 
ATOM    122  F   UNL A   1      44.014  27.828  24.894  1.00  0.00    -0.200 F 
ATOM    123  C   UNL A   1      46.362  27.775  25.103  1.00  0.00     0.200 A 
ATOM    124  F   UNL A   1      48.702  27.666  25.353  1.00  0.00    -0.200 F 
ATOM    125  F   UNL A   1      46.495  28.469  23.963  1.00  0.00    -0.200 F 
ENDBRANCH  91 115
ENDBRANCH  56  59
ENDBRANCH  46  49
ENDBRANCH  42  45
ENDBRANCH  39  42
ENDBRANCH  36  39
ENDBRANCH   1  36
TORSDOF 15
ENDMDL
MODEL 3
REMARK VINA RESULT:     -12.0      1.166      2.021
REMARK SMILES O=C(Cc1cccn1-c1ccccc1F)NCCCCCCNC(=O)c1ccc(-c2c3nc(c(-c4c(F)c(F)c(F)c(F)c4F)c4ccc([nH]4)c(-c4c(F)c(F)c(F)c(F)c4F)c4nc(c(-c5c(F)c(F)c(F)c(F)c5F)c5ccc2[nH]5)C=C4)C=C3)cc1
REMARK SMILES IDX 19 1 18 4 17 7 16 10 1 11 2 12 3 14 4 17 5 18 8 19 6 20 7 22
REMARK SMILES IDX 9 25 10 26 14 27 11 28 13 30 15 31 12 32 20 36 21 39 22 42
REMARK SMILES IDX 23 45 24 46 25 48 26 49 27 50 88 51 28 52 87 54 29 56 30 59
REMARK SMILES IDX 31 60 81 61 32 62 86 63 80 64 82 65 33 66 85 67 79 69 78 71
REMARK SMILES IDX 34 73 66 76 46 77 65 78 47 79 50 80 64 81 83 82 48 83 49 85
REMARK SMILES IDX 63 87 84 88 51 91 35 93 36 94 44 95 37 96 38 97 42 98 45 99
REMARK SMILES IDX 39 100 40 101 43 102 41 103 67 104 68 105 76 106 69 107
REMARK SMILES IDX 70 108 74 109 77 110 71 111 72 112 75 113 73 114 52 115
REMARK SMILES IDX 53 116 61 117 54 118 55 119 59 120 62 121 56 122 57 123
REMARK SMILES IDX 60 124 58 125
REMARK H PARENT 19 2 19 3 18 5 18 6 17 8 17 9 16 13 3 15 3 16 5 21 6 23 7 24
REMARK H PARENT 10 29 11 33 13 34 12 35 20 37 20 38 21 40 21 41 22 43 22 44
REMARK H PARENT 23 47 27 53 88 55 28 57 87 58 86 68 80 70 82 72 85 74 79 75
REMARK H PARENT 47 84 50 86 83 89 48 90 84 92
REMARK Flexibility Score: inf
ROOT
ATOM      1  C   UNL A   1      32.921  28.299  23.531  1.00  0.00    -0.052 C 
ATOM      2  H   UNL A   1      32.044  28.848  23.803  1.00  0.00     0.027 H 
ATOM      3  H   UNL A   1      33.644  28.843  22.959  1.00  0.00     0.027 H 
ENDROOT
BRANCH   1   4
ATOM      4  C   UNL A   1      32.479  27.153  22.612  1.00  0.00    -0.036 C 
ATOM      5  H   UNL A   1      31.548  26.781  22.986  1.00  0.00     0.028 H 
ATOM      6  H   UNL A   1      32.434  27.585  21.634  1.00  0.00     0.028 H 
BRANCH   4   7
ATOM      7  C   UNL A   1      33.429  25.959  22.472  1.00  0.00     0.017 C 
ATOM      8  H   UNL A   1      33.589  25.777  21.430  1.00  0.00     0.049 H 
ATOM      9  H   UNL A   1      34.329  26.218  22.989  1.00  0.00     0.049 H 
BRANCH   7  10
ATOM     10  N   UNL A   1      32.935  24.736  23.077  1.00  0.00    -0.356 N 
ATOM     11  O   UNL A   1      33.605  23.372  21.349  1.00  0.00    -0.275 OA
ATOM     12  C   UNL A   1      33.100  23.503  22.462  1.00  0.00     0.225 C 
ATOM     13  H   UNL A   1      32.472  24.781  23.945  1.00  0.00     0.163 HD
BRANCH  12  14
ATOM     14  C   UNL A   1      32.598  22.322  23.282  1.00  0.00     0.067 C 
ATOM     15  H   UNL A   1      33.286  21.514  23.148  1.00  0.00     0.043 H 
ATOM     16  H   UNL A   1      31.611  22.117  22.922  1.00  0.00     0.043 H 
BRANCH  14  17
ATOM     17  C   UNL A   1      32.453  22.567  24.761  1.00  0.00     0.032 A 
ATOM     18  C   UNL A   1      31.282  22.900  25.433  1.00  0.00    -0.040 A 
ATOM     19  N   UNL A   1      33.462  22.534  25.711  1.00  0.00    -0.318 N 
ATOM     20  C   UNL A   1      31.581  23.062  26.804  1.00  0.00    -0.044 A 
ATOM     21  H   UNL A   1      30.351  23.011  25.003  1.00  0.00     0.064 H 
ATOM     22  C   UNL A   1      32.918  22.790  26.953  1.00  0.00     0.009 A 
ATOM     23  H   UNL A   1      30.920  23.333  27.549  1.00  0.00     0.064 H 
ATOM     24  H   UNL A   1      33.431  22.779  27.848  1.00  0.00     0.082 H 
BRANCH  19  25
ATOM     25  C   UNL A   1      34.849  22.522  25.514  1.00  0.00     0.081 A 
ATOM     26  C   UNL A   1      35.534  21.307  25.426  1.00  0.00    -0.035 A 
ATOM     27  C   UNL A   1      35.533  23.729  25.566  1.00  0.00     0.147 A 
ATOM     28  C   UNL A   1      36.926  21.323  25.337  1.00  0.00    -0.060 A 
ATOM     29  H   UNL A   1      35.019  20.413  25.427  1.00  0.00     0.065 H 
ATOM     30  C   UNL A   1      36.919  23.734  25.564  1.00  0.00    -0.024 A 
ATOM     31  F   UNL A   1      34.879  24.898  25.633  1.00  0.00    -0.205 F 
ATOM     32  C   UNL A   1      37.619  22.533  25.416  1.00  0.00    -0.059 A 
ATOM     33  H   UNL A   1      37.446  20.439  25.212  1.00  0.00     0.062 H 
ATOM     34  H   UNL A   1      37.433  24.622  25.671  1.00  0.00     0.065 H 
ATOM     35  H   UNL A   1      38.650  22.542  25.367  1.00  0.00     0.062 H 
ENDBRANCH  19  25
ENDBRANCH  14  17
ENDBRANCH  12  14
ENDBRANCH   7  10
ENDBRANCH   4   7
ENDBRANCH   1   4
BRANCH   1  36
ATOM     36  C   UNL A   1      33.649  27.930  24.825  1.00  0.00    -0.052 C 
ATOM     37  H   UNL A   1      34.679  27.783  24.573  1.00  0.00     0.027 H 
ATOM     38  H   UNL A   1      33.117  27.074  25.183  1.00  0.00     0.027 H 
BRANCH  36  39
ATOM     39  C   UNL A   1      33.610  28.906  26.006  1.00  0.00    -0.036 C 
ATOM     40  H   UNL A   1      32.773  28.654  26.623  1.00  0.00     0.028 H 
ATOM     41  H   UNL A   1      33.535  29.890  25.593  1.00  0.00     0.028 H 
BRANCH  39  42
ATOM     42  C   UNL A   1      34.867  28.882  26.867  1.00  0.00     0.018 C 
ATOM     43  H   UNL A   1      35.670  28.461  26.299  1.00  0.00     0.049 H 
ATOM     44  H   UNL A   1      34.665  28.293  27.737  1.00  0.00     0.049 H 
BRANCH  42  45
ATOM     45  N   UNL A   1      35.244  30.224  27.300  1.00  0.00    -0.352 N 
ATOM     46  C   UNL A   1      36.370  30.645  27.971  1.00  0.00     0.251 C 
ATOM     47  H   UNL A   1      34.598  30.932  27.080  1.00  0.00     0.163 HD
ATOM     48  O   UNL A   1      36.413  31.744  28.493  1.00  0.00    -0.269 OA
BRANCH  46  49
ATOM     49  C   UNL A   1      37.513  29.726  28.092  1.00  0.00     0.039 A 
ATOM     50  C   UNL A   1      38.474  29.723  27.076  1.00  0.00    -0.049 A 
ATOM     51  C   UNL A   1      37.638  28.899  29.212  1.00  0.00    -0.049 A 
ATOM     52  C   UNL A   1      39.622  28.962  27.237  1.00  0.00    -0.053 A 
ATOM     53  H   UNL A   1      38.330  30.277  26.218  1.00  0.00     0.063 H 
ATOM     54  C   UNL A   1      38.808  28.183  29.403  1.00  0.00    -0.053 A 
ATOM     55  H   UNL A   1      36.865  28.823  29.892  1.00  0.00     0.063 H 
ATOM     56  C   UNL A   1      39.804  28.235  28.423  1.00  0.00    -0.014 A 
ATOM     57  H   UNL A   1      40.336  28.932  26.493  1.00  0.00     0.063 H 
ATOM     58  H   UNL A   1      38.942  27.618  30.257  1.00  0.00     0.063 H 
BRANCH  56  59
ATOM     59  C   UNL A   1      41.121  27.620  28.676  1.00  0.00     0.031 A 
ATOM     60  C   UNL A   1      41.203  26.184  28.133  1.00  0.00     0.074 A 
ATOM     61  C   UNL A   1      42.015  28.398  29.355  1.00  0.00     0.049 A 
ATOM     62  N   UNL A   1      41.908  25.175  28.541  1.00  0.00    -0.248 NA
ATOM     63  C   UNL A   1      40.315  25.790  27.003  1.00  0.00    -0.034 C 
ATOM     64  C   UNL A   1      41.755  29.797  29.755  1.00  0.00    -0.036 A 
ATOM     65  N   UNL A   1      43.288  28.204  29.851  1.00  0.00    -0.354 N 
ATOM     66  C   UNL A   1      41.689  24.102  27.647  1.00  0.00     0.074 A 
ATOM     67  C   UNL A   1      40.616  24.506  26.790  1.00  0.00    -0.034 C 
ATOM     68  H   UNL A   1      39.627  26.373  26.502  1.00  0.00     0.065 H 
ATOM     69  C   UNL A   1      42.776  30.286  30.484  1.00  0.00    -0.036 A 
ATOM     70  H   UNL A   1      40.906  30.327  29.508  1.00  0.00     0.065 H 
ATOM     71  C   UNL A   1      43.795  29.271  30.640  1.00  0.00     0.049 A 
ATOM     72  H   UNL A   1      43.806  27.386  29.672  1.00  0.00     0.167 HD
ATOM     73  C   UNL A   1      42.496  22.998  27.596  1.00  0.00     0.037 A 
ATOM     74  H   UNL A   1      40.143  23.894  26.107  1.00  0.00     0.065 H 
ATOM     75  H   UNL A   1      42.824  31.241  30.873  1.00  0.00     0.065 H 
ATOM     76  C   UNL A   1      44.920  29.312  31.417  1.00  0.00     0.037 A 
ATOM     77  C   UNL A   1      43.517  23.104  28.583  1.00  0.00     0.049 A 
ATOM     78  C   UNL A   1      45.621  28.044  31.154  1.00  0.00     0.074 A 
ATOM     79  C   UNL A   1      43.494  22.979  29.947  1.00  0.00    -0.036 A 
ATOM     80  N   UNL A   1      44.678  23.734  28.209  1.00  0.00    -0.354 N 
ATOM     81  N   UNL A   1      46.236  27.750  30.046  1.00  0.00    -0.248 NA
ATOM     82  C   UNL A   1      45.523  26.970  32.151  1.00  0.00    -0.034 C 
ATOM     83  C   UNL A   1      44.408  23.961  30.380  1.00  0.00    -0.036 A 
ATOM     84  H   UNL A   1      42.939  22.324  30.520  1.00  0.00     0.065 H 
ATOM     85  C   UNL A   1      45.098  24.482  29.280  1.00  0.00     0.049 A 
ATOM     86  H   UNL A   1      45.126  23.662  27.335  1.00  0.00     0.167 HD
ATOM     87  C   UNL A   1      46.294  26.376  30.101  1.00  0.00     0.074 A 
ATOM     88  C   UNL A   1      46.150  26.004  31.489  1.00  0.00    -0.034 C 
ATOM     89  H   UNL A   1      45.093  26.966  33.089  1.00  0.00     0.065 H 
ATOM     90  H   UNL A   1      44.548  24.250  31.361  1.00  0.00     0.065 H 
ATOM     91  C   UNL A   1      45.910  25.648  29.022  1.00  0.00     0.037 A 
ATOM     92  H   UNL A   1      46.485  25.120  31.903  1.00  0.00     0.065 H 
BRANCH  73  93
ATOM     93  C   UNL A   1      42.637  21.876  26.602  1.00  0.00     0.064 A 
ATOM     94  C   UNL A   1      43.541  21.898  25.533  1.00  0.00     0.173 A 
ATOM     95  C   UNL A   1      42.104  20.606  26.941  1.00  0.00     0.173 A 
ATOM     96  F   UNL A   1      44.120  23.039  25.140  1.00  0.00    -0.203 F 
ATOM     97  C   UNL A   1      43.952  20.715  24.905  1.00  0.00     0.198 A 
ATOM     98  C   UNL A   1      42.552  19.428  26.346  1.00  0.00     0.198 A 
ATOM     99  F   UNL A   1      41.192  20.481  27.919  1.00  0.00    -0.203 F 
ATOM    100  F   UNL A   1      44.860  20.772  23.919  1.00  0.00    -0.200 F 
ATOM    101  C   UNL A   1      43.491  19.482  25.337  1.00  0.00     0.200 A 
ATOM    102  F   UNL A   1      42.119  18.241  26.799  1.00  0.00    -0.200 F 
ATOM    103  F   UNL A   1      43.978  18.352  24.807  1.00  0.00    -0.200 F 
ENDBRANCH  73  93
BRANCH  76 104
ATOM    104  C   UNL A   1      45.475  30.205  32.510  1.00  0.00     0.064 A 
ATOM    105  C   UNL A   1      46.767  30.787  32.360  1.00  0.00     0.173 A 
ATOM    106  C   UNL A   1      44.882  30.461  33.753  1.00  0.00     0.173 A 
ATOM    107  F   UNL A   1      47.399  30.801  31.180  1.00  0.00    -0.203 F 
ATOM    108  C   UNL A   1      47.475  31.373  33.410  1.00  0.00     0.198 A 
ATOM    109  C   UNL A   1      45.578  31.095  34.800  1.00  0.00     0.198 A 
ATOM    110  F   UNL A   1      43.609  30.142  33.998  1.00  0.00    -0.203 F 
ATOM    111  F   UNL A   1      48.737  31.781  33.211  1.00  0.00    -0.200 F 
ATOM    112  C   UNL A   1      46.888  31.505  34.643  1.00  0.00     0.200 A 
ATOM    113  F   UNL A   1      44.967  31.290  35.978  1.00  0.00    -0.200 F 
ATOM    114  F   UNL A   1      47.571  32.039  35.664  1.00  0.00    -0.200 F 
ENDBRANCH  76 104
BRANCH  91 115
ATOM    115  C   UNL A   1      46.047  26.375  27.701  1.00  0.00     0.064 A 
ATOM    116  C   UNL A   1      47.274  26.661  27.081  1.00  0.00     0.173 A 
ATOM    117  C   UNL A   1      44.897  26.709  26.970  1.00  0.00     0.173 A 
ATOM    118  F   UNL A   1      48.424  26.384  27.692  1.00  0.00    -0.203 F 
ATOM    119  C   UNL A   1      47.358  27.241  25.814  1.00  0.00     0.198 A 
ATOM    120  C   UNL A   1      44.975  27.284  25.698  1.00  0.00     0.198 A 
ATOM    121  F   UNL A   1      43.683  26.483  27.496  1.00  0.00    -0.203 F 
ATOM    122  F   UNL A   1      48.559  27.507  25.275  1.00  0.00    -0.200 F 
ATOM    123  C   UNL A   1      46.206  27.550  25.120  1.00  0.00     0.200 A 
ATOM    124  F   UNL A   1      43.852  27.590  25.035  1.00  0.00    -0.200 F 
ATOM    125  F   UNL A   1      46.280  28.116  23.907  1.00  0.00    -0.200 F 
ENDBRANCH  91 115
ENDBRANCH  56  59
ENDBRANCH  46  49
ENDBRANCH  42  45
ENDBRANCH  39  42
ENDBRANCH  36  39
ENDBRANCH   1  36
TORSDOF 15
ENDMDL
MODEL 4
REMARK VINA RESULT:     -11.9      4.668      9.778
REMARK SMILES O=C(Cc1cccn1-c1ccccc1F)NCCCCCCNC(=O)c1ccc(-c2c3nc(c(-c4c(F)c(F)c(F)c(F)c4F)c4ccc([nH]4)c(-c4c(F)c(F)c(F)c(F)c4F)c4nc(c(-c5c(F)c(F)c(F)c(F)c5F)c5ccc2[nH]5)C=C4)C=C3)cc1
REMARK SMILES IDX 19 1 18 4 17 7 16 10 1 11 2 12 3 14 4 17 5 18 8 19 6 20 7 22
REMARK SMILES IDX 9 25 10 26 14 27 11 28 13 30 15 31 12 32 20 36 21 39 22 42
REMARK SMILES IDX 23 45 24 46 25 48 26 49 27 50 88 51 28 52 87 54 29 56 30 59
REMARK SMILES IDX 31 60 81 61 32 62 86 63 80 64 82 65 33 66 85 67 79 69 78 71
REMARK SMILES IDX 34 73 66 76 46 77 65 78 47 79 50 80 64 81 83 82 48 83 49 85
REMARK SMILES IDX 63 87 84 88 51 91 35 93 36 94 44 95 37 96 38 97 42 98 45 99
REMARK SMILES IDX 39 100 40 101 43 102 41 103 67 104 68 105 76 106 69 107
REMARK SMILES IDX 70 108 74 109 77 110 71 111 72 112 75 113 73 114 52 115
REMARK SMILES IDX 53 116 61 117 54 118 55 119 59 120 62 121 56 122 57 123
REMARK SMILES IDX 60 124 58 125
REMARK H PARENT 19 2 19 3 18 5 18 6 17 8 17 9 16 13 3 15 3 16 5 21 6 23 7 24
REMARK H PARENT 10 29 11 33 13 34 12 35 20 37 20 38 21 40 21 41 22 43 22 44
REMARK H PARENT 23 47 27 53 88 55 28 57 87 58 86 68 80 70 82 72 85 74 79 75
REMARK H PARENT 47 84 50 86 83 89 48 90 84 92
REMARK Flexibility Score: inf
ROOT
ATOM      1  C   UNL A   1      34.999  22.567  23.750  1.00  0.00    -0.052 C 
ATOM      2  H   UNL A   1      35.236  22.838  22.742  1.00  0.00     0.027 H 
ATOM      3  H   UNL A   1      35.450  21.662  24.100  1.00  0.00     0.027 H 
ENDROOT
BRANCH   1   4
ATOM      4  C   UNL A   1      33.489  22.298  23.810  1.00  0.00    -0.036 C 
ATOM      5  H   UNL A   1      33.355  21.286  24.130  1.00  0.00     0.028 H 
ATOM      6  H   UNL A   1      33.104  23.040  24.479  1.00  0.00     0.028 H 
BRANCH   4   7
ATOM      7  C   UNL A   1      32.691  22.482  22.515  1.00  0.00     0.017 C 
ATOM      8  H   UNL A   1      33.113  21.844  21.767  1.00  0.00     0.049 H 
ATOM      9  H   UNL A   1      31.675  22.237  22.742  1.00  0.00     0.049 H 
BRANCH   7  10
ATOM     10  N   UNL A   1      32.691  23.842  22.008  1.00  0.00    -0.356 N 
ATOM     11  O   UNL A   1      30.797  24.480  23.148  1.00  0.00    -0.275 OA
ATOM     12  C   UNL A   1      31.734  24.765  22.406  1.00  0.00     0.225 C 
ATOM     13  H   UNL A   1      33.385  24.116  21.367  1.00  0.00     0.163 HD
BRANCH  12  14
ATOM     14  C   UNL A   1      31.941  26.164  21.841  1.00  0.00     0.067 C 
ATOM     15  H   UNL A   1      31.021  26.477  21.395  1.00  0.00     0.043 H 
ATOM     16  H   UNL A   1      32.754  26.081  21.150  1.00  0.00     0.043 H 
BRANCH  14  17
ATOM     17  C   UNL A   1      32.355  27.217  22.836  1.00  0.00     0.032 A 
ATOM     18  C   UNL A   1      33.459  27.169  23.680  1.00  0.00    -0.040 A 
ATOM     19  N   UNL A   1      31.696  28.405  23.110  1.00  0.00    -0.318 N 
ATOM     20  C   UNL A   1      33.475  28.341  24.466  1.00  0.00    -0.044 A 
ATOM     21  H   UNL A   1      34.150  26.404  23.725  1.00  0.00     0.064 H 
ATOM     22  C   UNL A   1      32.406  29.102  24.066  1.00  0.00     0.009 A 
ATOM     23  H   UNL A   1      34.160  28.579  25.201  1.00  0.00     0.064 H 
ATOM     24  H   UNL A   1      32.171  30.042  24.422  1.00  0.00     0.082 H 
BRANCH  19  25
ATOM     25  C   UNL A   1      30.402  28.794  22.738  1.00  0.00     0.081 A 
ATOM     26  C   UNL A   1      30.215  29.889  21.890  1.00  0.00    -0.035 A 
ATOM     27  C   UNL A   1      29.324  28.169  23.352  1.00  0.00     0.147 A 
ATOM     28  C   UNL A   1      28.915  30.320  21.622  1.00  0.00    -0.060 A 
ATOM     29  H   UNL A   1      31.024  30.371  21.469  1.00  0.00     0.065 H 
ATOM     30  C   UNL A   1      28.042  28.655  23.150  1.00  0.00    -0.024 A 
ATOM     31  F   UNL A   1      29.498  27.107  24.153  1.00  0.00    -0.205 F 
ATOM     32  C   UNL A   1      27.831  29.711  22.259  1.00  0.00    -0.059 A 
ATOM     33  H   UNL A   1      28.754  31.089  20.953  1.00  0.00     0.062 H 
ATOM     34  H   UNL A   1      27.246  28.239  23.656  1.00  0.00     0.065 H 
ATOM     35  H   UNL A   1      26.871  30.043  22.072  1.00  0.00     0.062 H 
ENDBRANCH  19  25
ENDBRANCH  14  17
ENDBRANCH  12  14
ENDBRANCH   7  10
ENDBRANCH   4   7
ENDBRANCH   1   4
BRANCH   1  36
ATOM     36  C   UNL A   1      35.562  23.659  24.661  1.00  0.00    -0.052 C 
ATOM     37  H   UNL A   1      35.081  23.552  25.611  1.00  0.00     0.027 H 
ATOM     38  H   UNL A   1      35.369  24.565  24.126  1.00  0.00     0.027 H 
BRANCH  36  39
ATOM     39  C   UNL A   1      37.071  23.704  24.924  1.00  0.00    -0.036 C 
ATOM     40  H   UNL A   1      37.508  24.417  24.256  1.00  0.00     0.028 H 
ATOM     41  H   UNL A   1      37.443  22.713  24.769  1.00  0.00     0.028 H 
BRANCH  39  42
ATOM     42  C   UNL A   1      37.437  24.096  26.350  1.00  0.00     0.018 C 
ATOM     43  H   UNL A   1      36.682  23.732  27.015  1.00  0.00     0.049 H 
ATOM     44  H   UNL A   1      37.505  25.163  26.398  1.00  0.00     0.049 H 
BRANCH  42  45
ATOM     45  N   UNL A   1      38.726  23.536  26.745  1.00  0.00    -0.352 N 
ATOM     46  C   UNL A   1      39.827  24.164  27.281  1.00  0.00     0.251 C 
ATOM     47  H   UNL A   1      38.822  22.567  26.606  1.00  0.00     0.163 HD
ATOM     48  O   UNL A   1      40.912  23.612  27.305  1.00  0.00    -0.269 OA
BRANCH  46  49
ATOM     49  C   UNL A   1      39.688  25.540  27.788  1.00  0.00     0.039 A 
ATOM     50  C   UNL A   1      39.179  25.725  29.076  1.00  0.00    -0.049 A 
ATOM     51  C   UNL A   1      40.082  26.624  27.000  1.00  0.00    -0.049 A 
ATOM     52  C   UNL A   1      39.166  27.001  29.618  1.00  0.00    -0.053 A 
ATOM     53  H   UNL A   1      38.818  24.923  29.617  1.00  0.00     0.063 H 
ATOM     54  C   UNL A   1      40.123  27.891  27.556  1.00  0.00    -0.053 A 
ATOM     55  H   UNL A   1      40.340  26.482  26.010  1.00  0.00     0.063 H 
ATOM     56  C   UNL A   1      39.684  28.070  28.872  1.00  0.00    -0.014 A 
ATOM     57  H   UNL A   1      38.779  27.163  30.561  1.00  0.00     0.063 H 
ATOM     58  H   UNL A   1      40.472  28.693  27.007  1.00  0.00     0.063 H 
BRANCH  56  59
ATOM     59  C   UNL A   1      39.872  29.370  29.543  1.00  0.00     0.031 A 
ATOM     60  C   UNL A   1      38.635  30.273  29.412  1.00  0.00     0.074 A 
ATOM     61  C   UNL A   1      41.091  29.560  30.130  1.00  0.00     0.049 A 
ATOM     62  N   UNL A   1      38.542  31.567  29.394  1.00  0.00    -0.248 NA
ATOM     63  C   UNL A   1      37.301  29.642  29.203  1.00  0.00    -0.034 C 
ATOM     64  C   UNL A   1      42.148  28.530  30.189  1.00  0.00    -0.036 A 
ATOM     65  N   UNL A   1      41.699  30.615  30.779  1.00  0.00    -0.354 N 
ATOM     66  C   UNL A   1      37.170  31.903  29.343  1.00  0.00     0.074 A 
ATOM     67  C   UNL A   1      36.465  30.680  29.114  1.00  0.00    -0.034 C 
ATOM     68  H   UNL A   1      37.077  28.637  29.139  1.00  0.00     0.065 H 
ATOM     69  C   UNL A   1      43.269  29.023  30.749  1.00  0.00    -0.036 A 
ATOM     70  H   UNL A   1      42.042  27.564  29.846  1.00  0.00     0.065 H 
ATOM     71  C   UNL A   1      43.066  30.410  31.107  1.00  0.00     0.049 A 
ATOM     72  H   UNL A   1      41.222  31.447  30.998  1.00  0.00     0.167 HD
ATOM     73  C   UNL A   1      36.701  33.159  29.618  1.00  0.00     0.037 A 
ATOM     74  H   UNL A   1      35.455  30.609  28.910  1.00  0.00     0.065 H 
ATOM     75  H   UNL A   1      44.141  28.491  30.899  1.00  0.00     0.065 H 
ATOM     76  C   UNL A   1      43.989  31.309  31.570  1.00  0.00     0.037 A 
ATOM     77  C   UNL A   1      37.791  34.027  29.910  1.00  0.00     0.049 A 
ATOM     78  C   UNL A   1      43.231  32.547  31.822  1.00  0.00     0.074 A 
ATOM     79  C   UNL A   1      38.748  34.599  29.115  1.00  0.00    -0.036 A 
ATOM     80  N   UNL A   1      38.194  34.097  31.221  1.00  0.00    -0.354 N 
ATOM     81  N   UNL A   1      42.383  32.715  32.793  1.00  0.00    -0.248 NA
ATOM     82  C   UNL A   1      43.329  33.639  30.845  1.00  0.00    -0.034 C 
ATOM     83  C   UNL A   1      39.905  34.562  29.919  1.00  0.00    -0.036 A 
ATOM     84  H   UNL A   1      38.647  34.968  28.156  1.00  0.00     0.065 H 
ATOM     85  C   UNL A   1      39.564  34.178  31.221  1.00  0.00     0.049 A 
ATOM     86  H   UNL A   1      37.609  34.090  32.012  1.00  0.00     0.167 HD
ATOM     87  C   UNL A   1      41.630  33.775  32.343  1.00  0.00     0.074 A 
ATOM     88  C   UNL A   1      42.427  34.469  31.358  1.00  0.00    -0.034 C 
ATOM     89  H   UNL A   1      43.924  33.734  30.007  1.00  0.00     0.065 H 
ATOM     90  H   UNL A   1      40.860  34.786  29.597  1.00  0.00     0.065 H 
ATOM     91  C   UNL A   1      40.276  33.698  32.381  1.00  0.00     0.037 A 
ATOM     92  H   UNL A   1      42.312  35.460  31.093  1.00  0.00     0.065 H 
BRANCH  73  93
ATOM     93  C   UNL A   1      35.321  33.702  29.882  1.00  0.00     0.064 A 
ATOM     94  C   UNL A   1      34.748  33.773  31.157  1.00  0.00     0.173 A 
ATOM     95  C   UNL A   1      34.707  34.495  28.879  1.00  0.00     0.173 A 
ATOM     96  F   UNL A   1      35.258  33.083  32.185  1.00  0.00    -0.203 F 
ATOM     97  C   UNL A   1      33.687  34.647  31.430  1.00  0.00     0.198 A 
ATOM     98  C   UNL A   1      33.684  35.397  29.165  1.00  0.00     0.198 A 
ATOM     99  F   UNL A   1      35.148  34.462  27.611  1.00  0.00    -0.203 F 
ATOM    100  F   UNL A   1      33.200  34.725  32.677  1.00  0.00    -0.200 F 
ATOM    101  C   UNL A   1      33.186  35.485  30.448  1.00  0.00     0.200 A 
ATOM    102  F   UNL A   1      33.232  36.223  28.210  1.00  0.00    -0.200 F 
ATOM    103  F   UNL A   1      32.251  36.398  30.748  1.00  0.00    -0.200 F 
ENDBRANCH  73  93
BRANCH  76 104
ATOM    104  C   UNL A   1      45.496  31.370  31.711  1.00  0.00     0.064 A 
ATOM    105  C   UNL A   1      46.084  31.404  33.008  1.00  0.00     0.173 A 
ATOM    106  C   UNL A   1      46.423  31.500  30.669  1.00  0.00     0.173 A 
ATOM    107  F   UNL A   1      45.379  31.111  34.108  1.00  0.00    -0.203 F 
ATOM    108  C   UNL A   1      47.416  31.747  33.243  1.00  0.00     0.198 A 
ATOM    109  C   UNL A   1      47.779  31.800  30.903  1.00  0.00     0.198 A 
ATOM    110  F   UNL A   1      46.071  31.316  29.394  1.00  0.00    -0.203 F 
ATOM    111  F   UNL A   1      47.855  31.880  34.504  1.00  0.00    -0.200 F 
ATOM    112  C   UNL A   1      48.262  31.972  32.186  1.00  0.00     0.200 A 
ATOM    113  F   UNL A   1      48.615  31.940  29.864  1.00  0.00    -0.200 F 
ATOM    114  F   UNL A   1      49.535  32.330  32.402  1.00  0.00    -0.200 F 
ENDBRANCH  76 104
BRANCH  91 115
ATOM    115  C   UNL A   1      39.738  32.765  33.445  1.00  0.00     0.064 A 
ATOM    116  C   UNL A   1      39.147  31.519  33.176  1.00  0.00     0.173 A 
ATOM    117  C   UNL A   1      39.913  33.081  34.800  1.00  0.00     0.173 A 
ATOM    118  F   UNL A   1      38.934  31.125  31.923  1.00  0.00    -0.203 F 
ATOM    119  C   UNL A   1      38.755  30.640  34.188  1.00  0.00     0.198 A 
ATOM    120  C   UNL A   1      39.530  32.202  35.817  1.00  0.00     0.198 A 
ATOM    121  F   UNL A   1      40.457  34.259  35.145  1.00  0.00    -0.203 F 
ATOM    122  F   UNL A   1      38.181  29.468  33.875  1.00  0.00    -0.200 F 
ATOM    123  C   UNL A   1      38.951  30.981  35.511  1.00  0.00     0.200 A 
ATOM    124  F   UNL A   1      39.714  32.545  37.099  1.00  0.00    -0.200 F 
ATOM    125  F   UNL A   1      38.568  30.146  36.487  1.00  0.00    -0.200 F 
ENDBRANCH  91 115
ENDBRANCH  56  59
ENDBRANCH  46  49
ENDBRANCH  42  45
ENDBRANCH  39  42
ENDBRANCH  36  39
ENDBRANCH   1  36
TORSDOF 15
ENDMDL
MODEL 5
REMARK VINA RESULT:     -11.9      1.420      2.266
REMARK SMILES O=C(Cc1cccn1-c1ccccc1F)NCCCCCCNC(=O)c1ccc(-c2c3nc(c(-c4c(F)c(F)c(F)c(F)c4F)c4ccc([nH]4)c(-c4c(F)c(F)c(F)c(F)c4F)c4nc(c(-c5c(F)c(F)c(F)c(F)c5F)c5ccc2[nH]5)C=C4)C=C3)cc1
REMARK SMILES IDX 19 1 18 4 17 7 16 10 1 11 2 12 3 14 4 17 5 18 8 19 6 20 7 22
REMARK SMILES IDX 9 25 10 26 14 27 11 28 13 30 15 31 12 32 20 36 21 39 22 42
REMARK SMILES IDX 23 45 24 46 25 48 26 49 27 50 88 51 28 52 87 54 29 56 30 59
REMARK SMILES IDX 31 60 81 61 32 62 86 63 80 64 82 65 33 66 85 67 79 69 78 71
REMARK SMILES IDX 34 73 66 76 46 77 65 78 47 79 50 80 64 81 83 82 48 83 49 85
REMARK SMILES IDX 63 87 84 88 51 91 35 93 36 94 44 95 37 96 38 97 42 98 45 99
REMARK SMILES IDX 39 100 40 101 43 102 41 103 67 104 68 105 76 106 69 107
REMARK SMILES IDX 70 108 74 109 77 110 71 111 72 112 75 113 73 114 52 115
REMARK SMILES IDX 53 116 61 117 54 118 55 119 59 120 62 121 56 122 57 123
REMARK SMILES IDX 60 124 58 125
REMARK H PARENT 19 2 19 3 18 5 18 6 17 8 17 9 16 13 3 15 3 16 5 21 6 23 7 24
REMARK H PARENT 10 29 11 33 13 34 12 35 20 37 20 38 21 40 21 41 22 43 22 44
REMARK H PARENT 23 47 27 53 88 55 28 57 87 58 86 68 80 70 82 72 85 74 79 75
REMARK H PARENT 47 84 50 86 83 89 48 90 84 92
REMARK Flexibility Score: inf
ROOT
ATOM      1  C   UNL A   1      31.760  26.719  25.789  1.00  0.00    -0.052 C 
ATOM      2  H   UNL A   1      31.918  25.711  26.110  1.00  0.00     0.027 H 
ATOM      3  H   UNL A   1      31.218  27.339  26.474  1.00  0.00     0.027 H 
ENDROOT
BRANCH   1   4
ATOM      4  C   UNL A   1      30.882  26.669  24.532  1.00  0.00    -0.036 C 
ATOM      5  H   UNL A   1      30.016  26.085  24.766  1.00  0.00     0.028 H 
ATOM      6  H   UNL A   1      30.687  27.693  24.291  1.00  0.00     0.028 H 
BRANCH   4   7
ATOM      7  C   UNL A   1      31.506  26.077  23.263  1.00  0.00     0.017 C 
ATOM      8  H   UNL A   1      30.763  26.069  22.495  1.00  0.00     0.049 H 
ATOM      9  H   UNL A   1      32.349  26.689  23.019  1.00  0.00     0.049 H 
BRANCH   7  10
ATOM     10  N   UNL A   1      32.006  24.724  23.427  1.00  0.00    -0.356 N 
ATOM     11  O   UNL A   1      34.029  25.134  22.409  1.00  0.00    -0.275 OA
ATOM     12  C   UNL A   1      33.278  24.365  23.003  1.00  0.00     0.225 C 
ATOM     13  H   UNL A   1      31.431  24.046  23.847  1.00  0.00     0.163 HD
BRANCH  12  14
ATOM     14  C   UNL A   1      33.665  22.929  23.334  1.00  0.00     0.067 C 
ATOM     15  H   UNL A   1      34.574  22.706  22.815  1.00  0.00     0.043 H 
ATOM     16  H   UNL A   1      32.834  22.327  23.034  1.00  0.00     0.043 H 
BRANCH  14  17
ATOM     17  C   UNL A   1      33.882  22.630  24.795  1.00  0.00     0.032 A 
ATOM     18  C   UNL A   1      34.246  23.542  25.780  1.00  0.00    -0.040 A 
ATOM     19  N   UNL A   1      33.786  21.393  25.413  1.00  0.00    -0.318 N 
ATOM     20  C   UNL A   1      34.364  22.854  27.007  1.00  0.00    -0.044 A 
ATOM     21  H   UNL A   1      34.404  24.551  25.638  1.00  0.00     0.064 H 
ATOM     22  C   UNL A   1      34.035  21.544  26.762  1.00  0.00     0.009 A 
ATOM     23  H   UNL A   1      34.643  23.259  27.914  1.00  0.00     0.064 H 
ATOM     24  H   UNL A   1      33.982  20.795  27.470  1.00  0.00     0.082 H 
BRANCH  19  25
ATOM     25  C   UNL A   1      33.723  20.123  24.823  1.00  0.00     0.081 A 
ATOM     26  C   UNL A   1      32.487  19.579  24.463  1.00  0.00    -0.035 A 
ATOM     27  C   UNL A   1      34.887  19.369  24.754  1.00  0.00     0.147 A 
ATOM     28  C   UNL A   1      32.442  18.271  23.977  1.00  0.00    -0.060 A 
ATOM     29  H   UNL A   1      31.622  20.134  24.554  1.00  0.00     0.065 H 
ATOM     30  C   UNL A   1      34.824  18.044  24.352  1.00  0.00    -0.024 A 
ATOM     31  F   UNL A   1      36.077  19.894  25.083  1.00  0.00    -0.205 F 
ATOM     32  C   UNL A   1      33.607  17.502  23.931  1.00  0.00    -0.059 A 
ATOM     33  H   UNL A   1      31.548  17.873  23.650  1.00  0.00     0.062 H 
ATOM     34  H   UNL A   1      35.675  17.460  24.364  1.00  0.00     0.065 H 
ATOM     35  H   UNL A   1      33.569  16.529  23.587  1.00  0.00     0.062 H 
ENDBRANCH  19  25
ENDBRANCH  14  17
ENDBRANCH  12  14
ENDBRANCH   7  10
ENDBRANCH   4   7
ENDBRANCH   1   4
BRANCH   1  36
ATOM     36  C   UNL A   1      33.133  27.382  25.670  1.00  0.00    -0.052 C 
ATOM     37  H   UNL A   1      33.266  27.643  24.641  1.00  0.00     0.027 H 
ATOM     38  H   UNL A   1      33.805  26.652  26.071  1.00  0.00     0.027 H 
BRANCH  36  39
ATOM     39  C   UNL A   1      33.426  28.641  26.494  1.00  0.00    -0.036 C 
ATOM     40  H   UNL A   1      32.743  28.671  27.317  1.00  0.00     0.028 H 
ATOM     41  H   UNL A   1      33.313  29.476  25.835  1.00  0.00     0.028 H 
BRANCH  39  42
ATOM     42  C   UNL A   1      34.845  28.700  27.045  1.00  0.00     0.018 C 
ATOM     43  H   UNL A   1      35.518  28.296  26.318  1.00  0.00     0.049 H 
ATOM     44  H   UNL A   1      34.877  28.131  27.951  1.00  0.00     0.049 H 
BRANCH  42  45
ATOM     45  N   UNL A   1      35.243  30.071  27.351  1.00  0.00    -0.352 N 
ATOM     46  C   UNL A   1      36.409  30.541  27.910  1.00  0.00     0.251 C 
ATOM     47  H   UNL A   1      34.580  30.760  27.125  1.00  0.00     0.163 HD
ATOM     48  O   UNL A   1      36.481  31.675  28.346  1.00  0.00    -0.269 OA
BRANCH  46  49
ATOM     49  C   UNL A   1      37.564  29.634  28.020  1.00  0.00     0.039 A 
ATOM     50  C   UNL A   1      38.550  29.693  27.031  1.00  0.00    -0.049 A 
ATOM     51  C   UNL A   1      37.674  28.759  29.104  1.00  0.00    -0.049 A 
ATOM     52  C   UNL A   1      39.707  28.943  27.187  1.00  0.00    -0.053 A 
ATOM     53  H   UNL A   1      38.420  30.284  26.195  1.00  0.00     0.063 H 
ATOM     54  C   UNL A   1      38.849  28.053  29.293  1.00  0.00    -0.053 A 
ATOM     55  H   UNL A   1      36.885  28.640  29.758  1.00  0.00     0.063 H 
ATOM     56  C   UNL A   1      39.870  28.165  28.343  1.00  0.00    -0.014 A 
ATOM     57  H   UNL A   1      40.439  28.958  26.462  1.00  0.00     0.063 H 
ATOM     58  H   UNL A   1      38.970  27.451  30.123  1.00  0.00     0.063 H 
BRANCH  56  59
ATOM     59  C   UNL A   1      41.190  27.559  28.602  1.00  0.00     0.031 A 
ATOM     60  C   UNL A   1      41.277  26.116  28.079  1.00  0.00     0.074 A 
ATOM     61  C   UNL A   1      42.082  28.350  29.269  1.00  0.00     0.049 A 
ATOM     62  N   UNL A   1      41.986  25.115  28.500  1.00  0.00    -0.248 NA
ATOM     63  C   UNL A   1      40.389  25.703  26.956  1.00  0.00    -0.034 C 
ATOM     64  C   UNL A   1      41.816  29.753  29.650  1.00  0.00    -0.036 A 
ATOM     65  N   UNL A   1      43.355  28.168  29.766  1.00  0.00    -0.354 N 
ATOM     66  C   UNL A   1      41.770  24.029  27.621  1.00  0.00     0.074 A 
ATOM     67  C   UNL A   1      40.695  24.417  26.761  1.00  0.00    -0.034 C 
ATOM     68  H   UNL A   1      39.698  26.276  26.448  1.00  0.00     0.065 H 
ATOM     69  C   UNL A   1      42.836  30.256  30.371  1.00  0.00    -0.036 A 
ATOM     70  H   UNL A   1      40.964  30.276  29.398  1.00  0.00     0.065 H 
ATOM     71  C   UNL A   1      43.860  29.247  30.539  1.00  0.00     0.049 A 
ATOM     72  H   UNL A   1      43.877  27.350  29.597  1.00  0.00     0.167 HD
ATOM     73  C   UNL A   1      42.582  22.928  27.584  1.00  0.00     0.037 A 
ATOM     74  H   UNL A   1      40.223  23.794  26.086  1.00  0.00     0.065 H 
ATOM     75  H   UNL A   1      42.880  31.217  30.747  1.00  0.00     0.065 H 
ATOM     76  C   UNL A   1      44.986  29.304  31.314  1.00  0.00     0.037 A 
ATOM     77  C   UNL A   1      43.604  23.051  28.568  1.00  0.00     0.049 A 
ATOM     78  C   UNL A   1      45.692  28.035  31.067  1.00  0.00     0.074 A 
ATOM     79  C   UNL A   1      43.583  22.946  29.933  1.00  0.00    -0.036 A 
ATOM     80  N   UNL A   1      44.762  23.681  28.183  1.00  0.00    -0.354 N 
ATOM     81  N   UNL A   1      46.306  27.728  29.963  1.00  0.00    -0.248 NA
ATOM     82  C   UNL A   1      45.599  26.975  32.079  1.00  0.00    -0.034 C 
ATOM     83  C   UNL A   1      44.494  23.937  30.351  1.00  0.00    -0.036 A 
ATOM     84  H   UNL A   1      43.032  22.296  30.516  1.00  0.00     0.065 H 
ATOM     85  C   UNL A   1      45.180  24.446  29.243  1.00  0.00     0.049 A 
ATOM     86  H   UNL A   1      45.208  23.599  27.310  1.00  0.00     0.167 HD
ATOM     87  C   UNL A   1      46.369  26.356  30.036  1.00  0.00     0.074 A 
ATOM     88  C   UNL A   1      46.229  26.002  31.430  1.00  0.00    -0.034 C 
ATOM     89  H   UNL A   1      45.171  26.982  33.018  1.00  0.00     0.065 H 
ATOM     90  H   UNL A   1      44.634  24.240  31.328  1.00  0.00     0.065 H 
ATOM     91  C   UNL A   1      45.987  25.611  28.969  1.00  0.00     0.037 A 
ATOM     92  H   UNL A   1      46.568  25.125  31.856  1.00  0.00     0.065 H 
BRANCH  73  93
ATOM     93  C   UNL A   1      42.726  21.793  26.605  1.00  0.00     0.064 A 
ATOM     94  C   UNL A   1      43.613  21.813  25.522  1.00  0.00     0.173 A 
ATOM     95  C   UNL A   1      42.220  20.520  26.972  1.00  0.00     0.173 A 
ATOM     96  F   UNL A   1      44.167  22.957  25.102  1.00  0.00    -0.203 F 
ATOM     97  C   UNL A   1      44.034  20.627  24.905  1.00  0.00     0.198 A 
ATOM     98  C   UNL A   1      42.677  19.340  26.388  1.00  0.00     0.198 A 
ATOM     99  F   UNL A   1      41.325  20.395  27.966  1.00  0.00    -0.203 F 
ATOM    100  F   UNL A   1      44.925  20.683  23.905  1.00  0.00    -0.200 F 
ATOM    101  C   UNL A   1      43.600  19.394  25.364  1.00  0.00     0.200 A 
ATOM    102  F   UNL A   1      42.271  18.154  26.866  1.00  0.00    -0.200 F 
ATOM    103  F   UNL A   1      44.098  18.264  24.844  1.00  0.00    -0.200 F 
ENDBRANCH  73  93
BRANCH  76 104
ATOM    104  C   UNL A   1      45.538  30.214  32.394  1.00  0.00     0.064 A 
ATOM    105  C   UNL A   1      44.820  30.382  33.612  1.00  0.00     0.173 A 
ATOM    106  C   UNL A   1      46.676  31.025  32.294  1.00  0.00     0.173 A 
ATOM    107  F   UNL A   1      43.819  29.562  33.958  1.00  0.00    -0.203 F 
ATOM    108  C   UNL A   1      45.085  31.399  34.531  1.00  0.00     0.198 A 
ATOM    109  C   UNL A   1      46.974  32.021  33.243  1.00  0.00     0.198 A 
ATOM    110  F   UNL A   1      47.557  30.872  31.302  1.00  0.00    -0.203 F 
ATOM    111  F   UNL A   1      44.279  31.563  35.590  1.00  0.00    -0.200 F 
ATOM    112  C   UNL A   1      46.152  32.239  34.333  1.00  0.00     0.200 A 
ATOM    113  F   UNL A   1      48.063  32.785  33.081  1.00  0.00    -0.200 F 
ATOM    114  F   UNL A   1      46.397  33.236  35.193  1.00  0.00    -0.200 F 
ENDBRANCH  76 104
BRANCH  91 115
ATOM    115  C   UNL A   1      46.119  26.320  27.637  1.00  0.00     0.064 A 
ATOM    116  C   UNL A   1      45.031  26.758  26.865  1.00  0.00     0.173 A 
ATOM    117  C   UNL A   1      47.391  26.672  27.161  1.00  0.00     0.173 A 
ATOM    118  F   UNL A   1      43.782  26.475  27.230  1.00  0.00    -0.203 F 
ATOM    119  C   UNL A   1      45.192  27.500  25.693  1.00  0.00     0.198 A 
ATOM    120  C   UNL A   1      47.558  27.421  25.992  1.00  0.00     0.198 A 
ATOM    121  F   UNL A   1      48.486  26.281  27.831  1.00  0.00    -0.203 F 
ATOM    122  F   UNL A   1      44.116  27.880  24.985  1.00  0.00    -0.200 F 
ATOM    123  C   UNL A   1      46.458  27.835  25.259  1.00  0.00     0.200 A 
ATOM    124  F   UNL A   1      48.791  27.734  25.572  1.00  0.00    -0.200 F 
ATOM    125  F   UNL A   1      46.619  28.539  24.129  1.00  0.00    -0.200 F 
ENDBRANCH  91 115
ENDBRANCH  56  59
ENDBRANCH  46  49
ENDBRANCH  42  45
ENDBRANCH  39  42
ENDBRANCH  36  39
ENDBRANCH   1  36
TORSDOF 15
ENDMDL
MODEL 6
REMARK VINA RESULT:     -11.7      1.094      2.056
REMARK SMILES O=C(Cc1cccn1-c1ccccc1F)NCCCCCCNC(=O)c1ccc(-c2c3nc(c(-c4c(F)c(F)c(F)c(F)c4F)c4ccc([nH]4)c(-c4c(F)c(F)c(F)c(F)c4F)c4nc(c(-c5c(F)c(F)c(F)c(F)c5F)c5ccc2[nH]5)C=C4)C=C3)cc1
REMARK SMILES IDX 19 1 18 4 17 7 16 10 1 11 2 12 3 14 4 17 5 18 8 19 6 20 7 22
REMARK SMILES IDX 9 25 10 26 14 27 11 28 13 30 15 31 12 32 20 36 21 39 22 42
REMARK SMILES IDX 23 45 24 46 25 48 26 49 27 50 88 51 28 52 87 54 29 56 30 59
REMARK SMILES IDX 31 60 81 61 32 62 86 63 80 64 82 65 33 66 85 67 79 69 78 71
REMARK SMILES IDX 34 73 66 76 46 77 65 78 47 79 50 80 64 81 83 82 48 83 49 85
REMARK SMILES IDX 63 87 84 88 51 91 35 93 36 94 44 95 37 96 38 97 42 98 45 99
REMARK SMILES IDX 39 100 40 101 43 102 41 103 67 104 68 105 76 106 69 107
REMARK SMILES IDX 70 108 74 109 77 110 71 111 72 112 75 113 73 114 52 115
REMARK SMILES IDX 53 116 61 117 54 118 55 119 59 120 62 121 56 122 57 123
REMARK SMILES IDX 60 124 58 125
REMARK H PARENT 19 2 19 3 18 5 18 6 17 8 17 9 16 13 3 15 3 16 5 21 6 23 7 24
REMARK H PARENT 10 29 11 33 13 34 12 35 20 37 20 38 21 40 21 41 22 43 22 44
REMARK H PARENT 23 47 27 53 88 55 28 57 87 58 86 68 80 70 82 72 85 74 79 75
REMARK H PARENT 47 84 50 86 83 89 48 90 84 92
REMARK Flexibility Score: inf
ROOT
ATOM      1  C   UNL A   1      31.717  29.318  26.882  1.00  0.00    -0.052 C 
ATOM      2  H   UNL A   1      31.975  29.970  27.690  1.00  0.00     0.027 H 
ATOM      3  H   UNL A   1      30.764  29.502  26.430  1.00  0.00     0.027 H 
ENDROOT
BRANCH   1   4
ATOM      4  C   UNL A   1      31.609  27.898  27.454  1.00  0.00    -0.036 C 
ATOM      5  H   UNL A   1      32.582  27.616  27.800  1.00  0.00     0.028 H 
ATOM      6  H   UNL A   1      30.859  27.963  28.213  1.00  0.00     0.028 H 
BRANCH   4   7
ATOM      7  C   UNL A   1      31.120  26.796  26.508  1.00  0.00     0.017 C 
ATOM      8  H   UNL A   1      30.213  26.391  26.905  1.00  0.00     0.049 H 
ATOM      9  H   UNL A   1      30.986  27.250  25.549  1.00  0.00     0.049 H 
BRANCH   7  10
ATOM     10  N   UNL A   1      32.064  25.709  26.329  1.00  0.00    -0.356 N 
ATOM     11  O   UNL A   1      30.646  24.079  27.121  1.00  0.00    -0.275 OA
ATOM     12  C   UNL A   1      31.725  24.397  26.627  1.00  0.00     0.225 C 
ATOM     13  H   UNL A   1      32.966  25.906  25.987  1.00  0.00     0.163 HD
BRANCH  12  14
ATOM     14  C   UNL A   1      32.809  23.379  26.295  1.00  0.00     0.067 C 
ATOM     15  H   UNL A   1      32.879  22.695  27.114  1.00  0.00     0.043 H 
ATOM     16  H   UNL A   1      33.700  23.948  26.126  1.00  0.00     0.043 H 
BRANCH  14  17
ATOM     17  C   UNL A   1      32.590  22.577  25.038  1.00  0.00     0.032 A 
ATOM     18  C   UNL A   1      32.691  21.196  24.911  1.00  0.00    -0.040 A 
ATOM     19  N   UNL A   1      32.277  23.072  23.782  1.00  0.00    -0.318 N 
ATOM     20  C   UNL A   1      32.429  20.849  23.568  1.00  0.00    -0.044 A 
ATOM     21  H   UNL A   1      32.919  20.536  25.670  1.00  0.00     0.064 H 
ATOM     22  C   UNL A   1      32.137  22.015  22.906  1.00  0.00     0.009 A 
ATOM     23  H   UNL A   1      32.453  19.900  23.163  1.00  0.00     0.064 H 
ATOM     24  H   UNL A   1      31.858  22.089  21.915  1.00  0.00     0.082 H 
BRANCH  19  25
ATOM     25  C   UNL A   1      32.339  24.394  23.322  1.00  0.00     0.081 A 
ATOM     26  C   UNL A   1      31.163  25.085  23.017  1.00  0.00    -0.035 A 
ATOM     27  C   UNL A   1      33.585  24.934  23.032  1.00  0.00     0.147 A 
ATOM     28  C   UNL A   1      31.257  26.361  22.460  1.00  0.00    -0.060 A 
ATOM     29  H   UNL A   1      30.242  24.660  23.201  1.00  0.00     0.065 H 
ATOM     30  C   UNL A   1      33.670  26.165  22.400  1.00  0.00    -0.024 A 
ATOM     31  F   UNL A   1      34.716  24.281  23.338  1.00  0.00    -0.205 F 
ATOM     32  C   UNL A   1      32.507  26.896  22.142  1.00  0.00    -0.059 A 
ATOM     33  H   UNL A   1      30.401  26.911  22.283  1.00  0.00     0.062 H 
ATOM     34  H   UNL A   1      34.590  26.540  22.121  1.00  0.00     0.065 H 
ATOM     35  H   UNL A   1      32.574  27.834  21.714  1.00  0.00     0.062 H 
ENDBRANCH  19  25
ENDBRANCH  14  17
ENDBRANCH  12  14
ENDBRANCH   7  10
ENDBRANCH   4   7
ENDBRANCH   1   4
BRANCH   1  36
ATOM     36  C   UNL A   1      32.730  29.557  25.760  1.00  0.00    -0.052 C 
ATOM     37  H   UNL A   1      33.005  30.590  25.802  1.00  0.00     0.027 H 
ATOM     38  H   UNL A   1      32.218  29.233  24.879  1.00  0.00     0.027 H 
BRANCH  36  39
ATOM     39  C   UNL A   1      34.030  28.746  25.747  1.00  0.00    -0.036 C 
ATOM     40  H   UNL A   1      34.647  29.111  24.953  1.00  0.00     0.028 H 
ATOM     41  H   UNL A   1      33.755  27.720  25.615  1.00  0.00     0.028 H 
BRANCH  39  42
ATOM     42  C   UNL A   1      34.822  28.829  27.046  1.00  0.00     0.018 C 
ATOM     43  H   UNL A   1      35.692  28.211  26.963  1.00  0.00     0.049 H 
ATOM     44  H   UNL A   1      34.192  28.495  27.844  1.00  0.00     0.049 H 
BRANCH  42  45
ATOM     45  N   UNL A   1      35.237  30.198  27.332  1.00  0.00    -0.352 N 
ATOM     46  C   UNL A   1      36.405  30.661  27.895  1.00  0.00     0.251 C 
ATOM     47  H   UNL A   1      34.587  30.894  27.088  1.00  0.00     0.163 HD
ATOM     48  O   UNL A   1      36.490  31.801  28.312  1.00  0.00    -0.269 OA
BRANCH  46  49
ATOM     49  C   UNL A   1      37.545  29.739  28.031  1.00  0.00     0.039 A 
ATOM     50  C   UNL A   1      38.504  29.714  27.015  1.00  0.00    -0.049 A 
ATOM     51  C   UNL A   1      37.668  28.933  29.166  1.00  0.00    -0.049 A 
ATOM     52  C   UNL A   1      39.650  28.951  27.188  1.00  0.00    -0.053 A 
ATOM     53  H   UNL A   1      38.361  30.253  26.146  1.00  0.00     0.063 H 
ATOM     54  C   UNL A   1      38.835  28.215  29.368  1.00  0.00    -0.053 A 
ATOM     55  H   UNL A   1      36.896  28.872  29.848  1.00  0.00     0.063 H 
ATOM     56  C   UNL A   1      39.830  28.245  28.386  1.00  0.00    -0.014 A 
ATOM     57  H   UNL A   1      40.362  28.905  26.443  1.00  0.00     0.063 H 
ATOM     58  H   UNL A   1      38.968  27.665  30.232  1.00  0.00     0.063 H 
BRANCH  56  59
ATOM     59  C   UNL A   1      41.145  27.630  28.648  1.00  0.00     0.031 A 
ATOM     60  C   UNL A   1      41.229  26.193  28.108  1.00  0.00     0.074 A 
ATOM     61  C   UNL A   1      42.036  28.407  29.332  1.00  0.00     0.049 A 
ATOM     62  N   UNL A   1      41.930  25.183  28.522  1.00  0.00    -0.248 NA
ATOM     63  C   UNL A   1      40.348  25.797  26.973  1.00  0.00    -0.034 C 
ATOM     64  C   UNL A   1      41.774  29.807  29.728  1.00  0.00    -0.036 A 
ATOM     65  N   UNL A   1      43.304  28.212  29.836  1.00  0.00    -0.354 N 
ATOM     66  C   UNL A   1      41.716  24.109  27.628  1.00  0.00     0.074 A 
ATOM     67  C   UNL A   1      40.649  24.513  26.764  1.00  0.00    -0.034 C 
ATOM     68  H   UNL A   1      39.664  26.381  26.467  1.00  0.00     0.065 H 
ATOM     69  C   UNL A   1      42.791  30.296  30.463  1.00  0.00    -0.036 A 
ATOM     70  H   UNL A   1      40.927  30.337  29.475  1.00  0.00     0.065 H 
ATOM     71  C   UNL A   1      43.808  29.280  30.626  1.00  0.00     0.049 A 
ATOM     72  H   UNL A   1      43.823  27.394  29.661  1.00  0.00     0.167 HD
ATOM     73  C   UNL A   1      42.522  23.004  27.584  1.00  0.00     0.037 A 
ATOM     74  H   UNL A   1      40.180  23.900  26.079  1.00  0.00     0.065 H 
ATOM     75  H   UNL A   1      42.837  31.252  30.851  1.00  0.00     0.065 H 
ATOM     76  C   UNL A   1      44.928  29.322  31.411  1.00  0.00     0.037 A 
ATOM     77  C   UNL A   1      43.537  23.110  28.577  1.00  0.00     0.049 A 
ATOM     78  C   UNL A   1      45.630  28.052  31.154  1.00  0.00     0.074 A 
ATOM     79  C   UNL A   1      43.505  22.988  29.941  1.00  0.00    -0.036 A 
ATOM     80  N   UNL A   1      44.701  23.739  28.209  1.00  0.00    -0.354 N 
ATOM     81  N   UNL A   1      46.251  27.755  30.051  1.00  0.00    -0.248 NA
ATOM     82  C   UNL A   1      45.524  26.980  32.152  1.00  0.00    -0.034 C 
ATOM     83  C   UNL A   1      44.417  23.969  30.378  1.00  0.00    -0.036 A 
ATOM     84  H   UNL A   1      42.946  22.334  30.512  1.00  0.00     0.065 H 
ATOM     85  C   UNL A   1      45.115  24.488  29.282  1.00  0.00     0.049 A 
ATOM     86  H   UNL A   1      45.154  23.665  27.338  1.00  0.00     0.167 HD
ATOM     87  C   UNL A   1      46.307  26.382  30.108  1.00  0.00     0.074 A 
ATOM     88  C   UNL A   1      46.154  26.012  31.496  1.00  0.00    -0.034 C 
ATOM     89  H   UNL A   1      45.088  26.978  33.087  1.00  0.00     0.065 H 
ATOM     90  H   UNL A   1      44.551  24.259  31.360  1.00  0.00     0.065 H 
ATOM     91  C   UNL A   1      45.929  25.652  29.028  1.00  0.00     0.037 A 
ATOM     92  H   UNL A   1      46.486  25.128  31.914  1.00  0.00     0.065 H 
BRANCH  73  93
ATOM     93  C   UNL A   1      42.668  21.881  26.592  1.00  0.00     0.064 A 
ATOM     94  C   UNL A   1      43.579  21.899  25.530  1.00  0.00     0.173 A 
ATOM     95  C   UNL A   1      42.132  20.611  26.930  1.00  0.00     0.173 A 
ATOM     96  F   UNL A   1      44.162  23.039  25.138  1.00  0.00    -0.203 F 
ATOM     97  C   UNL A   1      43.993  20.716  24.905  1.00  0.00     0.198 A 
ATOM     98  C   UNL A   1      42.582  19.432  26.340  1.00  0.00     0.198 A 
ATOM     99  F   UNL A   1      41.213  20.489  27.902  1.00  0.00    -0.203 F 
ATOM    100  F   UNL A   1      44.907  20.770  23.926  1.00  0.00    -0.200 F 
ATOM    101  C   UNL A   1      43.528  19.484  25.337  1.00  0.00     0.200 A 
ATOM    102  F   UNL A   1      42.145  18.247  26.791  1.00  0.00    -0.200 F 
ATOM    103  F   UNL A   1      44.017  18.352  24.812  1.00  0.00    -0.200 F 
ENDBRANCH  73  93
BRANCH  76 104
ATOM    104  C   UNL A   1      45.477  30.215  32.506  1.00  0.00     0.064 A 
ATOM    105  C   UNL A   1      46.732  30.865  32.326  1.00  0.00     0.173 A 
ATOM    106  C   UNL A   1      44.918  30.412  33.775  1.00  0.00     0.173 A 
ATOM    107  F   UNL A   1      47.319  30.940  31.125  1.00  0.00    -0.203 F 
ATOM    108  C   UNL A   1      47.448  31.462  33.364  1.00  0.00     0.198 A 
ATOM    109  C   UNL A   1      45.618  31.055  34.813  1.00  0.00     0.198 A 
ATOM    110  F   UNL A   1      43.672  30.022  34.057  1.00  0.00    -0.203 F 
ATOM    111  F   UNL A   1      48.679  31.939  33.132  1.00  0.00    -0.200 F 
ATOM    112  C   UNL A   1      46.900  31.535  34.620  1.00  0.00     0.200 A 
ATOM    113  F   UNL A   1      45.041  31.191  36.016  1.00  0.00    -0.200 F 
ATOM    114  F   UNL A   1      47.591  32.079  35.630  1.00  0.00    -0.200 F 
ENDBRANCH  76 104
BRANCH  91 115
ATOM    115  C   UNL A   1      46.076  26.378  27.707  1.00  0.00     0.064 A 
ATOM    116  C   UNL A   1      47.306  26.648  27.087  1.00  0.00     0.173 A 
ATOM    117  C   UNL A   1      44.930  26.726  26.976  1.00  0.00     0.173 A 
ATOM    118  F   UNL A   1      48.452  26.356  27.698  1.00  0.00    -0.203 F 
ATOM    119  C   UNL A   1      47.398  27.227  25.820  1.00  0.00     0.198 A 
ATOM    120  C   UNL A   1      45.015  27.300  25.703  1.00  0.00     0.198 A 
ATOM    121  F   UNL A   1      43.713  26.516  27.501  1.00  0.00    -0.203 F 
ATOM    122  F   UNL A   1      48.601  27.478  25.280  1.00  0.00    -0.200 F 
ATOM    123  C   UNL A   1      46.250  27.549  25.125  1.00  0.00     0.200 A 
ATOM    124  F   UNL A   1      43.896  27.619  25.040  1.00  0.00    -0.200 F 
ATOM    125  F   UNL A   1      46.331  28.115  23.912  1.00  0.00    -0.200 F 
ENDBRANCH  91 115
ENDBRANCH  56  59
ENDBRANCH  46  49
ENDBRANCH  42  45
ENDBRANCH  39  42
ENDBRANCH  36  39
ENDBRANCH   1  36
TORSDOF 15
ENDMDL
MODEL 7
REMARK VINA RESULT:     -11.6      4.596      9.569
REMARK SMILES O=C(Cc1cccn1-c1ccccc1F)NCCCCCCNC(=O)c1ccc(-c2c3nc(c(-c4c(F)c(F)c(F)c(F)c4F)c4ccc([nH]4)c(-c4c(F)c(F)c(F)c(F)c4F)c4nc(c(-c5c(F)c(F)c(F)c(F)c5F)c5ccc2[nH]5)C=C4)C=C3)cc1
REMARK SMILES IDX 19 1 18 4 17 7 16 10 1 11 2 12 3 14 4 17 5 18 8 19 6 20 7 22
REMARK SMILES IDX 9 25 10 26 14 27 11 28 13 30 15 31 12 32 20 36 21 39 22 42
REMARK SMILES IDX 23 45 24 46 25 48 26 49 27 50 88 51 28 52 87 54 29 56 30 59
REMARK SMILES IDX 31 60 81 61 32 62 86 63 80 64 82 65 33 66 85 67 79 69 78 71
REMARK SMILES IDX 34 73 66 76 46 77 65 78 47 79 50 80 64 81 83 82 48 83 49 85
REMARK SMILES IDX 63 87 84 88 51 91 35 93 36 94 44 95 37 96 38 97 42 98 45 99
REMARK SMILES IDX 39 100 40 101 43 102 41 103 67 104 68 105 76 106 69 107
REMARK SMILES IDX 70 108 74 109 77 110 71 111 72 112 75 113 73 114 52 115
REMARK SMILES IDX 53 116 61 117 54 118 55 119 59 120 62 121 56 122 57 123
REMARK SMILES IDX 60 124 58 125
REMARK H PARENT 19 2 19 3 18 5 18 6 17 8 17 9 16 13 3 15 3 16 5 21 6 23 7 24
REMARK H PARENT 10 29 11 33 13 34 12 35 20 37 20 38 21 40 21 41 22 43 22 44
REMARK H PARENT 23 47 27 53 88 55 28 57 87 58 86 68 80 70 82 72 85 74 79 75
REMARK H PARENT 47 84 50 86 83 89 48 90 84 92
REMARK Flexibility Score: inf
ROOT
ATOM      1  C   UNL A   1      35.187  21.768  25.897  1.00  0.00    -0.052 C 
ATOM      2  H   UNL A   1      35.357  21.209  26.793  1.00  0.00     0.027 H 
ATOM      3  H   UNL A   1      34.759  22.740  26.036  1.00  0.00     0.027 H 
ENDROOT
BRANCH   1   4
ATOM      4  C   UNL A   1      34.148  21.001  25.067  1.00  0.00    -0.036 C 
ATOM      5  H   UNL A   1      34.574  20.828  24.100  1.00  0.00     0.028 H 
ATOM      6  H   UNL A   1      33.939  20.119  25.635  1.00  0.00     0.028 H 
BRANCH   4   7
ATOM      7  C   UNL A   1      32.785  21.669  24.858  1.00  0.00     0.017 C 
ATOM      8  H   UNL A   1      32.435  21.420  23.878  1.00  0.00     0.049 H 
ATOM      9  H   UNL A   1      32.142  21.307  25.632  1.00  0.00     0.049 H 
BRANCH   7  10
ATOM     10  N   UNL A   1      32.810  23.115  24.978  1.00  0.00    -0.356 N 
ATOM     11  O   UNL A   1      30.673  23.420  24.181  1.00  0.00    -0.275 OA
ATOM     12  C   UNL A   1      31.706  23.890  24.652  1.00  0.00     0.225 C 
ATOM     13  H   UNL A   1      33.629  23.558  25.298  1.00  0.00     0.163 HD
BRANCH  12  14
ATOM     14  C   UNL A   1      31.884  25.379  24.922  1.00  0.00     0.067 C 
ATOM     15  H   UNL A   1      32.490  25.482  25.798  1.00  0.00     0.043 H 
ATOM     16  H   UNL A   1      30.896  25.775  25.029  1.00  0.00     0.043 H 
BRANCH  14  17
ATOM     17  C   UNL A   1      32.528  26.172  23.816  1.00  0.00     0.032 A 
ATOM     18  C   UNL A   1      32.933  25.686  22.577  1.00  0.00    -0.040 A 
ATOM     19  N   UNL A   1      32.857  27.518  23.842  1.00  0.00    -0.318 N 
ATOM     20  C   UNL A   1      33.506  26.748  21.844  1.00  0.00    -0.044 A 
ATOM     21  H   UNL A   1      32.833  24.713  22.251  1.00  0.00     0.064 H 
ATOM     22  C   UNL A   1      33.408  27.870  22.627  1.00  0.00     0.009 A 
ATOM     23  H   UNL A   1      33.918  26.690  20.899  1.00  0.00     0.064 H 
ATOM     24  H   UNL A   1      33.699  28.821  22.352  1.00  0.00     0.082 H 
BRANCH  19  25
ATOM     25  C   UNL A   1      32.913  28.384  24.943  1.00  0.00     0.081 A 
ATOM     26  C   UNL A   1      33.935  28.253  25.887  1.00  0.00    -0.035 A 
ATOM     27  C   UNL A   1      31.853  29.258  25.150  1.00  0.00     0.147 A 
ATOM     28  C   UNL A   1      33.907  29.056  27.027  1.00  0.00    -0.060 A 
ATOM     29  H   UNL A   1      34.698  27.574  25.743  1.00  0.00     0.065 H 
ATOM     30  C   UNL A   1      31.786  29.990  26.324  1.00  0.00    -0.024 A 
ATOM     31  F   UNL A   1      30.879  29.398  24.239  1.00  0.00    -0.205 F 
ATOM     32  C   UNL A   1      32.829  29.916  27.251  1.00  0.00    -0.059 A 
ATOM     33  H   UNL A   1      34.683  29.016  27.706  1.00  0.00     0.062 H 
ATOM     34  H   UNL A   1      30.967  30.588  26.514  1.00  0.00     0.065 H 
ATOM     35  H   UNL A   1      32.802  30.497  28.104  1.00  0.00     0.062 H 
ENDBRANCH  19  25
ENDBRANCH  14  17
ENDBRANCH  12  14
ENDBRANCH   7  10
ENDBRANCH   4   7
ENDBRANCH   1   4
BRANCH   1  36
ATOM     36  C   UNL A   1      36.551  22.033  25.257  1.00  0.00    -0.052 C 
ATOM     37  H   UNL A   1      36.538  21.573  24.291  1.00  0.00     0.027 H 
ATOM     38  H   UNL A   1      37.247  21.639  25.967  1.00  0.00     0.027 H 
BRANCH  36  39
ATOM     39  C   UNL A   1      37.011  23.481  25.058  1.00  0.00    -0.036 C 
ATOM     40  H   UNL A   1      36.183  24.050  24.692  1.00  0.00     0.028 H 
ATOM     41  H   UNL A   1      37.829  23.456  24.369  1.00  0.00     0.028 H 
BRANCH  39  42
ATOM     42  C   UNL A   1      37.524  24.145  26.330  1.00  0.00     0.018 C 
ATOM     43  H   UNL A   1      36.813  23.989  27.115  1.00  0.00     0.049 H 
ATOM     44  H   UNL A   1      37.653  25.189  26.135  1.00  0.00     0.049 H 
BRANCH  42  45
ATOM     45  N   UNL A   1      38.812  23.593  26.740  1.00  0.00    -0.352 N 
ATOM     46  C   UNL A   1      39.895  24.223  27.310  1.00  0.00     0.251 C 
ATOM     47  H   UNL A   1      38.923  22.628  26.585  1.00  0.00     0.163 HD
ATOM     48  O   UNL A   1      40.985  23.684  27.345  1.00  0.00    -0.269 OA
BRANCH  46  49
ATOM     49  C   UNL A   1      39.729  25.587  27.839  1.00  0.00     0.039 A 
ATOM     50  C   UNL A   1      39.209  25.741  29.127  1.00  0.00    -0.049 A 
ATOM     51  C   UNL A   1      40.110  26.692  27.072  1.00  0.00    -0.049 A 
ATOM     52  C   UNL A   1      39.170  27.008  29.691  1.00  0.00    -0.053 A 
ATOM     53  H   UNL A   1      38.857  24.924  29.651  1.00  0.00     0.063 H 
ATOM     54  C   UNL A   1      40.126  27.949  27.651  1.00  0.00    -0.053 A 
ATOM     55  H   UNL A   1      40.377  26.572  26.083  1.00  0.00     0.063 H 
ATOM     56  C   UNL A   1      39.675  28.098  28.967  1.00  0.00    -0.014 A 
ATOM     57  H   UNL A   1      38.775  27.147  30.633  1.00  0.00     0.063 H 
ATOM     58  H   UNL A   1      40.465  28.766  27.118  1.00  0.00     0.063 H 
BRANCH  56  59
ATOM     59  C   UNL A   1      39.837  29.389  29.662  1.00  0.00     0.031 A 
ATOM     60  C   UNL A   1      38.609  30.297  29.488  1.00  0.00     0.074 A 
ATOM     61  C   UNL A   1      41.029  29.568  30.304  1.00  0.00     0.049 A 
ATOM     62  N   UNL A   1      38.520  31.591  29.482  1.00  0.00    -0.248 NA
ATOM     63  C   UNL A   1      37.284  29.673  29.212  1.00  0.00    -0.034 C 
ATOM     64  C   UNL A   1      42.080  28.534  30.396  1.00  0.00    -0.036 A 
ATOM     65  N   UNL A   1      41.611  30.613  30.991  1.00  0.00    -0.354 N 
ATOM     66  C   UNL A   1      37.152  31.932  29.375  1.00  0.00     0.074 A 
ATOM     67  C   UNL A   1      36.455  30.714  29.100  1.00  0.00    -0.034 C 
ATOM     68  H   UNL A   1      37.060  28.669  29.127  1.00  0.00     0.065 H 
ATOM     69  C   UNL A   1      43.177  29.017  31.010  1.00  0.00    -0.036 A 
ATOM     70  H   UNL A   1      41.987  27.572  30.036  1.00  0.00     0.065 H 
ATOM     71  C   UNL A   1      42.962  30.400  31.376  1.00  0.00     0.049 A 
ATOM     72  H   UNL A   1      41.127  31.444  31.200  1.00  0.00     0.167 HD
ATOM     73  C   UNL A   1      36.674  33.186  29.645  1.00  0.00     0.037 A 
ATOM     74  H   UNL A   1      35.455  30.648  28.851  1.00  0.00     0.065 H 
ATOM     75  H   UNL A   1      44.040  28.480  31.193  1.00  0.00     0.065 H 
ATOM     76  C   UNL A   1      43.865  31.291  31.890  1.00  0.00     0.037 A 
ATOM     77  C   UNL A   1      37.753  34.047  29.995  1.00  0.00     0.049 A 
ATOM     78  C   UNL A   1      43.101  32.527  32.125  1.00  0.00     0.074 A 
ATOM     79  C   UNL A   1      38.746  34.626  29.250  1.00  0.00    -0.036 A 
ATOM     80  N   UNL A   1      38.099  34.100  31.323  1.00  0.00    -0.354 N 
ATOM     81  N   UNL A   1      42.211  32.686  33.060  1.00  0.00    -0.248 NA
ATOM     82  C   UNL A   1      43.244  33.631  31.167  1.00  0.00    -0.034 C 
ATOM     83  C   UNL A   1      39.866  34.576  30.104  1.00  0.00    -0.036 A 
ATOM     84  H   UNL A   1      38.687  35.007  28.292  1.00  0.00     0.065 H 
ATOM     85  C   UNL A   1      39.467  34.177  31.384  1.00  0.00     0.049 A 
ATOM     86  H   UNL A   1      37.479  34.085  32.088  1.00  0.00     0.167 HD
ATOM     87  C   UNL A   1      41.482  33.754  32.590  1.00  0.00     0.074 A 
ATOM     88  C   UNL A   1      42.323  34.457  31.650  1.00  0.00    -0.034 C 
ATOM     89  H   UNL A   1      43.875  33.735  30.357  1.00  0.00     0.065 H 
ATOM     90  H   UNL A   1      40.834  34.801  29.826  1.00  0.00     0.065 H 
ATOM     91  C   UNL A   1      40.127  33.680  32.568  1.00  0.00     0.037 A 
ATOM     92  H   UNL A   1      42.222  35.452  31.392  1.00  0.00     0.065 H 
BRANCH  73  93
ATOM     93  C   UNL A   1      35.286  33.730  29.856  1.00  0.00     0.064 A 
ATOM     94  C   UNL A   1      34.684  33.851  31.113  1.00  0.00     0.173 A 
ATOM     95  C   UNL A   1      34.689  34.475  28.806  1.00  0.00     0.173 A 
ATOM     96  F   UNL A   1      35.175  33.209  32.180  1.00  0.00    -0.203 F 
ATOM     97  C   UNL A   1      33.612  34.728  31.326  1.00  0.00     0.198 A 
ATOM     98  C   UNL A   1      33.655  35.381  29.030  1.00  0.00     0.198 A 
ATOM     99  F   UNL A   1      35.158  34.392  27.550  1.00  0.00    -0.203 F 
ATOM    100  F   UNL A   1      33.097  34.856  32.557  1.00  0.00    -0.200 F 
ATOM    101  C   UNL A   1      33.127  35.520  30.298  1.00  0.00     0.200 A 
ATOM    102  F   UNL A   1      33.219  36.163  28.031  1.00  0.00    -0.200 F 
ATOM    103  F   UNL A   1      32.181  36.438  30.537  1.00  0.00    -0.200 F 
ENDBRANCH  73  93
BRANCH  76 104
ATOM    104  C   UNL A   1      45.366  31.345  32.098  1.00  0.00     0.064 A 
ATOM    105  C   UNL A   1      46.237  31.318  30.971  1.00  0.00     0.173 A 
ATOM    106  C   UNL A   1      46.035  31.318  33.328  1.00  0.00     0.173 A 
ATOM    107  F   UNL A   1      45.785  31.523  29.728  1.00  0.00    -0.203 F 
ATOM    108  C   UNL A   1      47.608  31.074  31.062  1.00  0.00     0.198 A 
ATOM    109  C   UNL A   1      47.426  31.119  33.423  1.00  0.00     0.198 A 
ATOM    110  F   UNL A   1      45.387  31.511  34.480  1.00  0.00    -0.203 F 
ATOM    111  F   UNL A   1      48.333  30.939  29.941  1.00  0.00    -0.200 F 
ATOM    112  C   UNL A   1      48.202  30.948  32.292  1.00  0.00     0.200 A 
ATOM    113  F   UNL A   1      48.008  31.076  34.630  1.00  0.00    -0.200 F 
ATOM    114  F   UNL A   1      49.511  30.684  32.389  1.00  0.00    -0.200 F 
ENDBRANCH  76 104
BRANCH  91 115
ATOM    115  C   UNL A   1      39.540  32.735  33.596  1.00  0.00     0.064 A 
ATOM    116  C   UNL A   1      38.969  31.490  33.287  1.00  0.00     0.173 A 
ATOM    117  C   UNL A   1      39.646  33.041  34.961  1.00  0.00     0.173 A 
ATOM    118  F   UNL A   1      38.821  31.106  32.022  1.00  0.00    -0.203 F 
ATOM    119  C   UNL A   1      38.531  30.601  34.271  1.00  0.00     0.198 A 
ATOM    120  C   UNL A   1      39.216  32.151  35.950  1.00  0.00     0.198 A 
ATOM    121  F   UNL A   1      40.167  34.217  35.343  1.00  0.00    -0.203 F 
ATOM    122  F   UNL A   1      37.978  29.429  33.919  1.00  0.00    -0.200 F 
ATOM    123  C   UNL A   1      38.659  30.931  35.604  1.00  0.00     0.200 A 
ATOM    124  F   UNL A   1      39.335  32.484  37.242  1.00  0.00    -0.200 F 
ATOM    125  F   UNL A   1      38.231  30.085  36.553  1.00  0.00    -0.200 F 
ENDBRANCH  91 115
ENDBRANCH  56  59
ENDBRANCH  46  49
ENDBRANCH  42  45
ENDBRANCH  39  42
ENDBRANCH  36  39
ENDBRANCH   1  36
TORSDOF 15
ENDMDL
MODEL 8
REMARK VINA RESULT:     -11.6      4.616      9.626
REMARK SMILES O=C(Cc1cccn1-c1ccccc1F)NCCCCCCNC(=O)c1ccc(-c2c3nc(c(-c4c(F)c(F)c(F)c(F)c4F)c4ccc([nH]4)c(-c4c(F)c(F)c(F)c(F)c4F)c4nc(c(-c5c(F)c(F)c(F)c(F)c5F)c5ccc2[nH]5)C=C4)C=C3)cc1
REMARK SMILES IDX 19 1 18 4 17 7 16 10 1 11 2 12 3 14 4 17 5 18 8 19 6 20 7 22
REMARK SMILES IDX 9 25 10 26 14 27 11 28 13 30 15 31 12 32 20 36 21 39 22 42
REMARK SMILES IDX 23 45 24 46 25 48 26 49 27 50 88 51 28 52 87 54 29 56 30 59
REMARK SMILES IDX 31 60 81 61 32 62 86 63 80 64 82 65 33 66 85 67 79 69 78 71
REMARK SMILES IDX 34 73 66 76 46 77 65 78 47 79 50 80 64 81 83 82 48 83 49 85
REMARK SMILES IDX 63 87 84 88 51 91 35 93 36 94 44 95 37 96 38 97 42 98 45 99
REMARK SMILES IDX 39 100 40 101 43 102 41 103 67 104 68 105 76 106 69 107
REMARK SMILES IDX 70 108 74 109 77 110 71 111 72 112 75 113 73 114 52 115
REMARK SMILES IDX 53 116 61 117 54 118 55 119 59 120 62 121 56 122 57 123
REMARK SMILES IDX 60 124 58 125
REMARK H PARENT 19 2 19 3 18 5 18 6 17 8 17 9 16 13 3 15 3 16 5 21 6 23 7 24
REMARK H PARENT 10 29 11 33 13 34 12 35 20 37 20 38 21 40 21 41 22 43 22 44
REMARK H PARENT 23 47 27 53 88 55 28 57 87 58 86 68 80 70 82 72 85 74 79 75
REMARK H PARENT 47 84 50 86 83 89 48 90 84 92
REMARK Flexibility Score: inf
ROOT
ATOM      1  C   UNL A   1      34.407  23.282  24.541  1.00  0.00    -0.052 C 
ATOM      2  H   UNL A   1      34.252  22.974  25.554  1.00  0.00     0.027 H 
ATOM      3  H   UNL A   1      33.875  24.162  24.243  1.00  0.00     0.027 H 
ENDROOT
BRANCH   1   4
ATOM      4  C   UNL A   1      33.863  22.171  23.634  1.00  0.00    -0.036 C 
ATOM      5  H   UNL A   1      34.655  21.873  22.979  1.00  0.00     0.028 H 
ATOM      6  H   UNL A   1      33.519  21.412  24.304  1.00  0.00     0.028 H 
BRANCH   4   7
ATOM      7  C   UNL A   1      32.648  22.508  22.763  1.00  0.00     0.017 C 
ATOM      8  H   UNL A   1      32.630  21.831  21.935  1.00  0.00     0.049 H 
ATOM      9  H   UNL A   1      31.785  22.420  23.389  1.00  0.00     0.049 H 
BRANCH   7  10
ATOM     10  N   UNL A   1      32.651  23.864  22.243  1.00  0.00    -0.356 N 
ATOM     11  O   UNL A   1      30.653  24.456  23.220  1.00  0.00    -0.275 OA
ATOM     12  C   UNL A   1      31.639  24.762  22.553  1.00  0.00     0.225 C 
ATOM     13  H   UNL A   1      33.387  24.153  21.658  1.00  0.00     0.163 HD
BRANCH  12  14
ATOM     14  C   UNL A   1      31.852  26.162  21.992  1.00  0.00     0.067 C 
ATOM     15  H   UNL A   1      30.941  26.468  21.521  1.00  0.00     0.043 H 
ATOM     16  H   UNL A   1      32.683  26.084  21.323  1.00  0.00     0.043 H 
BRANCH  14  17
ATOM     17  C   UNL A   1      32.231  27.218  22.997  1.00  0.00     0.032 A 
ATOM     18  C   UNL A   1      33.305  27.172  23.880  1.00  0.00    -0.040 A 
ATOM     19  N   UNL A   1      31.565  28.409  23.242  1.00  0.00    -0.318 N 
ATOM     20  C   UNL A   1      33.295  28.348  24.661  1.00  0.00    -0.044 A 
ATOM     21  H   UNL A   1      33.993  26.407  23.952  1.00  0.00     0.064 H 
ATOM     22  C   UNL A   1      32.241  29.109  24.220  1.00  0.00     0.009 A 
ATOM     23  H   UNL A   1      33.954  28.589  25.418  1.00  0.00     0.064 H 
ATOM     24  H   UNL A   1      31.995  30.050  24.564  1.00  0.00     0.082 H 
BRANCH  19  25
ATOM     25  C   UNL A   1      30.285  28.797  22.824  1.00  0.00     0.081 A 
ATOM     26  C   UNL A   1      30.126  29.914  21.999  1.00  0.00    -0.035 A 
ATOM     27  C   UNL A   1      29.186  28.147  23.372  1.00  0.00     0.147 A 
ATOM     28  C   UNL A   1      28.835  30.342  21.685  1.00  0.00    -0.060 A 
ATOM     29  H   UNL A   1      30.949  30.413  21.628  1.00  0.00     0.065 H 
ATOM     30  C   UNL A   1      27.910  28.628  23.126  1.00  0.00    -0.024 A 
ATOM     31  F   UNL A   1      29.335  27.065  24.150  1.00  0.00    -0.205 F 
ATOM     32  C   UNL A   1      27.729  29.707  22.256  1.00  0.00    -0.059 A 
ATOM     33  H   UNL A   1      28.697  31.127  21.030  1.00  0.00     0.062 H 
ATOM     34  H   UNL A   1      27.096  28.192  23.585  1.00  0.00     0.065 H 
ATOM     35  H   UNL A   1      26.776  30.036  22.035  1.00  0.00     0.062 H 
ENDBRANCH  19  25
ENDBRANCH  14  17
ENDBRANCH  12  14
ENDBRANCH   7  10
ENDBRANCH   4   7
ENDBRANCH   1   4
BRANCH   1  36
ATOM     36  C   UNL A   1      35.884  23.656  24.397  1.00  0.00    -0.052 C 
ATOM     37  H   UNL A   1      35.953  24.715  24.533  1.00  0.00     0.027 H 
ATOM     38  H   UNL A   1      36.151  23.278  23.433  1.00  0.00     0.027 H 
BRANCH  36  39
ATOM     39  C   UNL A   1      36.909  23.015  25.338  1.00  0.00    -0.036 C 
ATOM     40  H   UNL A   1      37.575  22.416  24.753  1.00  0.00     0.028 H 
ATOM     41  H   UNL A   1      36.359  22.439  26.052  1.00  0.00     0.028 H 
BRANCH  39  42
ATOM     42  C   UNL A   1      37.737  24.023  26.126  1.00  0.00     0.018 C 
ATOM     43  H   UNL A   1      37.232  24.247  27.042  1.00  0.00     0.049 H 
ATOM     44  H   UNL A   1      37.852  24.903  25.528  1.00  0.00     0.049 H 
BRANCH  42  45
ATOM     45  N   UNL A   1      39.065  23.500  26.433  1.00  0.00    -0.352 N 
ATOM     46  C   UNL A   1      40.189  24.163  26.873  1.00  0.00     0.251 C 
ATOM     47  H   UNL A   1      39.174  22.531  26.305  1.00  0.00     0.163 HD
ATOM     48  O   UNL A   1      41.285  23.636  26.825  1.00  0.00    -0.269 OA
BRANCH  46  49
ATOM     49  C   UNL A   1      40.055  25.546  27.361  1.00  0.00     0.039 A 
ATOM     50  C   UNL A   1      39.654  25.746  28.686  1.00  0.00    -0.049 A 
ATOM     51  C   UNL A   1      40.349  26.623  26.521  1.00  0.00    -0.049 A 
ATOM     52  C   UNL A   1      39.652  27.034  29.201  1.00  0.00    -0.053 A 
ATOM     53  H   UNL A   1      39.363  24.948  29.271  1.00  0.00     0.063 H 
ATOM     54  C   UNL A   1      40.403  27.902  27.047  1.00  0.00    -0.053 A 
ATOM     55  H   UNL A   1      40.525  26.466  25.516  1.00  0.00     0.063 H 
ATOM     56  C   UNL A   1      40.073  28.099  28.392  1.00  0.00    -0.014 A 
ATOM     57  H   UNL A   1      39.344  27.206  30.170  1.00  0.00     0.063 H 
ATOM     58  H   UNL A   1      40.681  28.700  26.453  1.00  0.00     0.063 H 
BRANCH  56  59
ATOM     59  C   UNL A   1      40.283  29.418  29.018  1.00  0.00     0.031 A 
ATOM     60  C   UNL A   1      38.958  30.161  29.257  1.00  0.00     0.074 A 
ATOM     61  C   UNL A   1      41.584  29.761  29.251  1.00  0.00     0.049 A 
ATOM     62  N   UNL A   1      38.709  31.434  29.297  1.00  0.00    -0.248 NA
ATOM     63  C   UNL A   1      37.705  29.370  29.407  1.00  0.00    -0.034 C 
ATOM     64  C   UNL A   1      42.732  28.869  28.989  1.00  0.00    -0.036 A 
ATOM     65  N   UNL A   1      42.217  30.888  29.733  1.00  0.00    -0.354 N 
ATOM     66  C   UNL A   1      37.346  31.599  29.636  1.00  0.00     0.074 A 
ATOM     67  C   UNL A   1      36.758  30.296  29.579  1.00  0.00    -0.034 C 
ATOM     68  H   UNL A   1      37.594  28.344  29.382  1.00  0.00     0.065 H 
ATOM     69  C   UNL A   1      43.896  29.501  29.230  1.00  0.00    -0.036 A 
ATOM     70  H   UNL A   1      42.652  27.894  28.664  1.00  0.00     0.065 H 
ATOM     71  C   UNL A   1      43.636  30.856  29.666  1.00  0.00     0.049 A 
ATOM     72  H   UNL A   1      41.722  31.658  30.096  1.00  0.00     0.167 HD
ATOM     73  C   UNL A   1      36.824  32.790  30.062  1.00  0.00     0.037 A 
ATOM     74  H   UNL A   1      35.748  30.100  29.659  1.00  0.00     0.065 H 
ATOM     75  H   UNL A   1      44.834  29.081  29.121  1.00  0.00     0.065 H 
ATOM     76  C   UNL A   1      44.535  31.865  29.880  1.00  0.00     0.037 A 
ATOM     77  C   UNL A   1      37.840  33.787  30.064  1.00  0.00     0.049 A 
ATOM     78  C   UNL A   1      43.734  33.003  30.363  1.00  0.00     0.074 A 
ATOM     79  C   UNL A   1      38.464  34.465  29.051  1.00  0.00    -0.036 A 
ATOM     80  N   UNL A   1      38.579  33.918  31.214  1.00  0.00    -0.354 N 
ATOM     81  N   UNL A   1      43.174  33.074  31.535  1.00  0.00    -0.248 NA
ATOM     82  C   UNL A   1      43.426  34.090  29.425  1.00  0.00    -0.034 C 
ATOM     83  C   UNL A   1      39.794  34.578  29.504  1.00  0.00    -0.036 A 
ATOM     84  H   UNL A   1      38.057  34.811  28.167  1.00  0.00     0.065 H 
ATOM     85  C   UNL A   1      39.875  34.166  30.839  1.00  0.00     0.049 A 
ATOM     86  H   UNL A   1      38.241  33.846  32.136  1.00  0.00     0.167 HD
ATOM     87  C   UNL A   1      42.204  34.030  31.336  1.00  0.00     0.074 A 
ATOM     88  C   UNL A   1      42.608  34.807  30.188  1.00  0.00    -0.034 C 
ATOM     89  H   UNL A   1      43.749  34.250  28.458  1.00  0.00     0.065 H 
ATOM     90  H   UNL A   1      40.587  34.914  28.936  1.00  0.00     0.065 H 
ATOM     91  C   UNL A   1      40.933  33.787  31.744  1.00  0.00     0.037 A 
ATOM     92  H   UNL A   1      42.306  35.774  29.990  1.00  0.00     0.065 H 
BRANCH  73  93
ATOM     93  C   UNL A   1      35.517  33.162  30.711  1.00  0.00     0.064 A 
ATOM     94  C   UNL A   1      35.174  32.809  32.021  1.00  0.00     0.173 A 
ATOM     95  C   UNL A   1      34.746  34.198  30.123  1.00  0.00     0.173 A 
ATOM     96  F   UNL A   1      35.848  31.858  32.680  1.00  0.00    -0.203 F 
ATOM     97  C   UNL A   1      34.186  33.506  32.727  1.00  0.00     0.198 A 
ATOM     98  C   UNL A   1      33.797  34.920  30.844  1.00  0.00     0.198 A 
ATOM     99  F   UNL A   1      34.960  34.580  28.854  1.00  0.00    -0.203 F 
ATOM    100  F   UNL A   1      33.923  33.172  33.999  1.00  0.00    -0.200 F 
ATOM    101  C   UNL A   1      33.530  34.584  32.156  1.00  0.00     0.200 A 
ATOM    102  F   UNL A   1      33.195  35.981  30.286  1.00  0.00    -0.200 F 
ATOM    103  F   UNL A   1      32.670  35.316  32.878  1.00  0.00    -0.200 F 
ENDBRANCH  73  93
BRANCH  76 104
ATOM    104  C   UNL A   1      46.004  32.111  29.601  1.00  0.00     0.064 A 
ATOM    105  C   UNL A   1      46.453  32.264  28.258  1.00  0.00     0.173 A 
ATOM    106  C   UNL A   1      47.040  32.109  30.544  1.00  0.00     0.173 A 
ATOM    107  F   UNL A   1      45.597  32.473  27.249  1.00  0.00    -0.203 F 
ATOM    108  C   UNL A   1      47.796  32.204  27.881  1.00  0.00     0.198 A 
ATOM    109  C   UNL A   1      48.397  32.095  30.170  1.00  0.00     0.198 A 
ATOM    110  F   UNL A   1      46.790  32.149  31.855  1.00  0.00    -0.203 F 
ATOM    111  F   UNL A   1      48.121  32.230  26.580  1.00  0.00    -0.200 F 
ATOM    112  C   UNL A   1      48.772  32.093  28.839  1.00  0.00     0.200 A 
ATOM    113  F   UNL A   1      49.345  32.067  31.118  1.00  0.00    -0.200 F 
ATOM    114  F   UNL A   1      50.060  32.005  28.486  1.00  0.00    -0.200 F 
ENDBRANCH  76 104
BRANCH  91 115
ATOM    115  C   UNL A   1      40.826  32.804  32.891  1.00  0.00     0.064 A 
ATOM    116  C   UNL A   1      40.380  31.479  32.756  1.00  0.00     0.173 A 
ATOM    117  C   UNL A   1      41.290  33.169  34.164  1.00  0.00     0.173 A 
ATOM    118  F   UNL A   1      39.919  31.034  31.590  1.00  0.00    -0.203 F 
ATOM    119  C   UNL A   1      40.392  30.571  33.817  1.00  0.00     0.198 A 
ATOM    120  C   UNL A   1      41.311  32.261  35.228  1.00  0.00     0.198 A 
ATOM    121  F   UNL A   1      41.721  34.421  34.384  1.00  0.00    -0.203 F 
ATOM    122  F   UNL A   1      39.939  29.320  33.636  1.00  0.00    -0.200 F 
ATOM    123  C   UNL A   1      40.862  30.962  35.053  1.00  0.00     0.200 A 
ATOM    124  F   UNL A   1      41.760  32.652  36.428  1.00  0.00    -0.200 F 
ATOM    125  F   UNL A   1      40.868  30.097  36.078  1.00  0.00    -0.200 F 
ENDBRANCH  91 115
ENDBRANCH  56  59
ENDBRANCH  46  49
ENDBRANCH  42  45
ENDBRANCH  39  42
ENDBRANCH  36  39
ENDBRANCH   1  36
TORSDOF 15
ENDMDL
MODEL 9
REMARK VINA RESULT:     -11.5      4.656      9.622
REMARK SMILES O=C(Cc1cccn1-c1ccccc1F)NCCCCCCNC(=O)c1ccc(-c2c3nc(c(-c4c(F)c(F)c(F)c(F)c4F)c4ccc([nH]4)c(-c4c(F)c(F)c(F)c(F)c4F)c4nc(c(-c5c(F)c(F)c(F)c(F)c5F)c5ccc2[nH]5)C=C4)C=C3)cc1
REMARK SMILES IDX 19 1 18 4 17 7 16 10 1 11 2 12 3 14 4 17 5 18 8 19 6 20 7 22
REMARK SMILES IDX 9 25 10 26 14 27 11 28 13 30 15 31 12 32 20 36 21 39 22 42
REMARK SMILES IDX 23 45 24 46 25 48 26 49 27 50 88 51 28 52 87 54 29 56 30 59
REMARK SMILES IDX 31 60 81 61 32 62 86 63 80 64 82 65 33 66 85 67 79 69 78 71
REMARK SMILES IDX 34 73 66 76 46 77 65 78 47 79 50 80 64 81 83 82 48 83 49 85
REMARK SMILES IDX 63 87 84 88 51 91 35 93 36 94 44 95 37 96 38 97 42 98 45 99
REMARK SMILES IDX 39 100 40 101 43 102 41 103 67 104 68 105 76 106 69 107
REMARK SMILES IDX 70 108 74 109 77 110 71 111 72 112 75 113 73 114 52 115
REMARK SMILES IDX 53 116 61 117 54 118 55 119 59 120 62 121 56 122 57 123
REMARK SMILES IDX 60 124 58 125
REMARK H PARENT 19 2 19 3 18 5 18 6 17 8 17 9 16 13 3 15 3 16 5 21 6 23 7 24
REMARK H PARENT 10 29 11 33 13 34 12 35 20 37 20 38 21 40 21 41 22 43 22 44
REMARK H PARENT 23 47 27 53 88 55 28 57 87 58 86 68 80 70 82 72 85 74 79 75
REMARK H PARENT 47 84 50 86 83 89 48 90 84 92
REMARK Flexibility Score: inf
ROOT
ATOM      1  C   UNL A   1      34.683  24.415  25.553  1.00  0.00    -0.052 C 
ATOM      2  H   UNL A   1      33.938  23.706  25.850  1.00  0.00     0.027 H 
ATOM      3  H   UNL A   1      35.339  24.745  26.332  1.00  0.00     0.027 H 
ENDROOT
BRANCH   1   4
ATOM      4  C   UNL A   1      33.952  25.685  25.096  1.00  0.00    -0.036 C 
ATOM      5  H   UNL A   1      34.365  25.971  24.151  1.00  0.00     0.028 H 
ATOM      6  H   UNL A   1      32.917  25.415  25.076  1.00  0.00     0.028 H 
BRANCH   4   7
ATOM      7  C   UNL A   1      34.023  26.906  26.019  1.00  0.00     0.017 C 
ATOM      8  H   UNL A   1      34.235  26.566  27.011  1.00  0.00     0.049 H 
ATOM      9  H   UNL A   1      34.787  27.545  25.628  1.00  0.00     0.049 H 
BRANCH   7  10
ATOM     10  N   UNL A   1      32.802  27.690  26.057  1.00  0.00    -0.356 N 
ATOM     11  O   UNL A   1      33.440  29.136  24.384  1.00  0.00    -0.275 OA
ATOM     12  C   UNL A   1      32.593  28.750  25.186  1.00  0.00     0.225 C 
ATOM     13  H   UNL A   1      32.106  27.465  26.715  1.00  0.00     0.163 HD
BRANCH  12  14
ATOM     14  C   UNL A   1      31.221  29.401  25.312  1.00  0.00     0.067 C 
ATOM     15  H   UNL A   1      31.360  30.385  25.710  1.00  0.00     0.043 H 
ATOM     16  H   UNL A   1      30.649  28.754  25.942  1.00  0.00     0.043 H 
BRANCH  14  17
ATOM     17  C   UNL A   1      30.437  29.527  24.031  1.00  0.00     0.032 A 
ATOM     18  C   UNL A   1      29.622  30.591  23.662  1.00  0.00    -0.040 A 
ATOM     19  N   UNL A   1      30.365  28.595  23.008  1.00  0.00    -0.318 N 
ATOM     20  C   UNL A   1      29.057  30.306  22.400  1.00  0.00    -0.044 A 
ATOM     21  H   UNL A   1      29.457  31.444  24.217  1.00  0.00     0.064 H 
ATOM     22  C   UNL A   1      29.563  29.094  22.002  1.00  0.00     0.009 A 
ATOM     23  H   UNL A   1      28.391  30.897  21.878  1.00  0.00     0.064 H 
ATOM     24  H   UNL A   1      29.374  28.632  21.099  1.00  0.00     0.082 H 
BRANCH  19  25
ATOM     25  C   UNL A   1      30.772  27.254  23.014  1.00  0.00     0.081 A 
ATOM     26  C   UNL A   1      31.799  26.829  22.167  1.00  0.00    -0.035 A 
ATOM     27  C   UNL A   1      30.033  26.344  23.759  1.00  0.00     0.147 A 
ATOM     28  C   UNL A   1      32.112  25.470  22.116  1.00  0.00    -0.060 A 
ATOM     29  H   UNL A   1      32.317  27.508  21.589  1.00  0.00     0.065 H 
ATOM     30  C   UNL A   1      30.291  24.988  23.639  1.00  0.00    -0.024 A 
ATOM     31  F   UNL A   1      29.058  26.750  24.586  1.00  0.00    -0.205 F 
ATOM     32  C   UNL A   1      31.353  24.550  22.843  1.00  0.00    -0.059 A 
ATOM     33  H   UNL A   1      32.905  25.144  21.542  1.00  0.00     0.062 H 
ATOM     34  H   UNL A   1      29.701  24.304  24.137  1.00  0.00     0.065 H 
ATOM     35  H   UNL A   1      31.575  23.542  22.790  1.00  0.00     0.062 H 
ENDBRANCH  19  25
ENDBRANCH  14  17
ENDBRANCH  12  14
ENDBRANCH   7  10
ENDBRANCH   4   7
ENDBRANCH   1   4
BRANCH   1  36
ATOM     36  C   UNL A   1      35.599  23.721  24.543  1.00  0.00    -0.052 C 
ATOM     37  H   UNL A   1      35.597  24.320  23.656  1.00  0.00     0.027 H 
ATOM     38  H   UNL A   1      35.187  22.738  24.458  1.00  0.00     0.027 H 
BRANCH  36  39
ATOM     39  C   UNL A   1      37.064  23.474  24.915  1.00  0.00    -0.036 C 
ATOM     40  H   UNL A   1      37.681  23.861  24.130  1.00  0.00     0.028 H 
ATOM     41  H   UNL A   1      37.179  22.418  25.044  1.00  0.00     0.028 H 
BRANCH  39  42
ATOM     42  C   UNL A   1      37.487  24.129  26.224  1.00  0.00     0.018 C 
ATOM     43  H   UNL A   1      36.689  24.039  26.931  1.00  0.00     0.049 H 
ATOM     44  H   UNL A   1      37.709  25.157  26.028  1.00  0.00     0.049 H 
BRANCH  42  45
ATOM     45  N   UNL A   1      38.683  23.499  26.775  1.00  0.00    -0.352 N 
ATOM     46  C   UNL A   1      39.745  24.067  27.442  1.00  0.00     0.251 C 
ATOM     47  H   UNL A   1      38.740  22.525  26.650  1.00  0.00     0.163 HD
ATOM     48  O   UNL A   1      40.784  23.454  27.600  1.00  0.00    -0.269 OA
BRANCH  46  49
ATOM     49  C   UNL A   1      39.625  25.453  27.926  1.00  0.00     0.039 A 
ATOM     50  C   UNL A   1      39.102  25.667  29.204  1.00  0.00    -0.049 A 
ATOM     51  C   UNL A   1      40.050  26.518  27.127  1.00  0.00    -0.049 A 
ATOM     52  C   UNL A   1      39.105  26.952  29.727  1.00  0.00    -0.053 A 
ATOM     53  H   UNL A   1      38.718  24.881  29.752  1.00  0.00     0.063 H 
ATOM     54  C   UNL A   1      40.107  27.792  27.665  1.00  0.00    -0.053 A 
ATOM     55  H   UNL A   1      40.318  26.356  26.144  1.00  0.00     0.063 H 
ATOM     56  C   UNL A   1      39.653  27.999  28.972  1.00  0.00    -0.014 A 
ATOM     57  H   UNL A   1      38.710  27.135  30.661  1.00  0.00     0.063 H 
ATOM     58  H   UNL A   1      40.479  28.578  27.108  1.00  0.00     0.063 H 
BRANCH  56  59
ATOM     59  C   UNL A   1      39.857  29.306  29.626  1.00  0.00     0.031 A 
ATOM     60  C   UNL A   1      38.618  30.209  29.512  1.00  0.00     0.074 A 
ATOM     61  C   UNL A   1      41.088  29.500  30.185  1.00  0.00     0.049 A 
ATOM     62  N   UNL A   1      38.527  31.502  29.482  1.00  0.00    -0.248 NA
ATOM     63  C   UNL A   1      37.280  29.577  29.336  1.00  0.00    -0.034 C 
ATOM     64  C   UNL A   1      42.145  28.469  30.232  1.00  0.00    -0.036 A 
ATOM     65  N   UNL A   1      41.711  30.560  30.810  1.00  0.00    -0.354 N 
ATOM     66  C   UNL A   1      37.154  31.840  29.456  1.00  0.00     0.074 A 
ATOM     67  C   UNL A   1      36.443  30.615  29.254  1.00  0.00    -0.034 C 
ATOM     68  H   UNL A   1      37.054  28.572  29.288  1.00  0.00     0.065 H 
ATOM     69  C   UNL A   1      43.278  28.966  30.763  1.00  0.00    -0.036 A 
ATOM     70  H   UNL A   1      42.031  27.499  29.901  1.00  0.00     0.065 H 
ATOM     71  C   UNL A   1      43.084  30.357  31.111  1.00  0.00     0.049 A 
ATOM     72  H   UNL A   1      41.239  31.396  31.030  1.00  0.00     0.167 HD
ATOM     73  C   UNL A   1      36.692  33.099  29.729  1.00  0.00     0.037 A 
ATOM     74  H   UNL A   1      35.430  30.543  29.072  1.00  0.00     0.065 H 
ATOM     75  H   UNL A   1      44.153  28.435  30.901  1.00  0.00     0.065 H 
ATOM     76  C   UNL A   1      44.017  31.260  31.546  1.00  0.00     0.037 A 
ATOM     77  C   UNL A   1      37.789  33.968  29.988  1.00  0.00     0.049 A 
ATOM     78  C   UNL A   1      43.267  32.501  31.802  1.00  0.00     0.074 A 
ATOM     79  C   UNL A   1      38.730  34.531  29.168  1.00  0.00    -0.036 A 
ATOM     80  N   UNL A   1      38.219  34.052  31.290  1.00  0.00    -0.354 N 
ATOM     81  N   UNL A   1      42.438  32.680  32.789  1.00  0.00    -0.248 NA
ATOM     82  C   UNL A   1      43.345  33.583  30.812  1.00  0.00    -0.034 C 
ATOM     83  C   UNL A   1      39.904  34.501  29.949  1.00  0.00    -0.036 A 
ATOM     84  H   UNL A   1      38.609  34.890  28.208  1.00  0.00     0.065 H 
ATOM     85  C   UNL A   1      39.589  34.131  31.261  1.00  0.00     0.049 A 
ATOM     86  H   UNL A   1      37.651  34.053  32.094  1.00  0.00     0.167 HD
ATOM     87  C   UNL A   1      41.678  33.736  32.343  1.00  0.00     0.074 A 
ATOM     88  C   UNL A   1      42.455  34.419  31.335  1.00  0.00    -0.034 C 
ATOM     89  H   UNL A   1      43.922  33.669  29.961  1.00  0.00     0.065 H 
ATOM     90  H   UNL A   1      40.851  34.721  29.604  1.00  0.00     0.065 H 
ATOM     91  C   UNL A   1      40.325  33.661  32.410  1.00  0.00     0.037 A 
ATOM     92  H   UNL A   1      42.336  35.407  31.062  1.00  0.00     0.065 H 
BRANCH  73  93
ATOM     93  C   UNL A   1      35.319  33.646  30.016  1.00  0.00     0.064 A 
ATOM     94  C   UNL A   1      34.783  33.757  31.304  1.00  0.00     0.173 A 
ATOM     95  C   UNL A   1      34.672  34.404  29.006  1.00  0.00     0.173 A 
ATOM     96  F   UNL A   1      35.326  33.102  32.338  1.00  0.00    -0.203 F 
ATOM     97  C   UNL A   1      33.728  34.636  31.581  1.00  0.00     0.198 A 
ATOM     98  C   UNL A   1      33.655  35.313  29.293  1.00  0.00     0.198 A 
ATOM     99  F   UNL A   1      35.075  34.332  27.727  1.00  0.00    -0.203 F 
ATOM    100  F   UNL A   1      33.277  34.753  32.838  1.00  0.00    -0.200 F 
ATOM    101  C   UNL A   1      33.194  35.441  30.587  1.00  0.00     0.200 A 
ATOM    102  F   UNL A   1      33.172  36.107  28.326  1.00  0.00    -0.200 F 
ATOM    103  F   UNL A   1      32.266  36.360  30.885  1.00  0.00    -0.200 F 
ENDBRANCH  73  93
BRANCH  76 104
ATOM    104  C   UNL A   1      45.527  31.320  31.655  1.00  0.00     0.064 A 
ATOM    105  C   UNL A   1      46.138  31.490  32.931  1.00  0.00     0.173 A 
ATOM    106  C   UNL A   1      46.437  31.326  30.591  1.00  0.00     0.173 A 
ATOM    107  F   UNL A   1      45.449  31.326  34.068  1.00  0.00    -0.203 F 
ATOM    108  C   UNL A   1      47.477  31.843  33.105  1.00  0.00     0.198 A 
ATOM    109  C   UNL A   1      47.800  31.635  30.767  1.00  0.00     0.198 A 
ATOM    110  F   UNL A   1      46.061  31.007  29.350  1.00  0.00    -0.203 F 
ATOM    111  F   UNL A   1      47.938  32.109  34.336  1.00  0.00    -0.200 F 
ATOM    112  C   UNL A   1      48.306  31.942  32.017  1.00  0.00     0.200 A 
ATOM    113  F   UNL A   1      48.618  31.652  29.706  1.00  0.00    -0.200 F 
ATOM    114  F   UNL A   1      49.585  32.308  32.171  1.00  0.00    -0.200 F 
ENDBRANCH  76 104
BRANCH  91 115
ATOM    115  C   UNL A   1      39.808  32.739  33.495  1.00  0.00     0.064 A 
ATOM    116  C   UNL A   1      39.853  33.032  34.867  1.00  0.00     0.173 A 
ATOM    117  C   UNL A   1      39.141  31.556  33.141  1.00  0.00     0.173 A 
ATOM    118  F   UNL A   1      40.464  34.130  35.307  1.00  0.00    -0.203 F 
ATOM    119  C   UNL A   1      39.274  32.205  35.831  1.00  0.00     0.198 A 
ATOM    120  C   UNL A   1      38.553  30.728  34.101  1.00  0.00     0.198 A 
ATOM    121  F   UNL A   1      39.064  31.194  31.851  1.00  0.00    -0.203 F 
ATOM    122  F   UNL A   1      39.361  32.525  37.132  1.00  0.00    -0.200 F 
ATOM    123  C   UNL A   1      38.619  31.053  35.447  1.00  0.00     0.200 A 
ATOM    124  F   UNL A   1      37.928  29.606  33.720  1.00  0.00    -0.200 F 
ATOM    125  F   UNL A   1      38.069  30.249  36.368  1.00  0.00    -0.200 F 
ENDBRANCH  91 115
ENDBRANCH  56  59
ENDBRANCH  46  49
ENDBRANCH  42  45
ENDBRANCH  39  42
ENDBRANCH  36  39
ENDBRANCH   1  36
TORSDOF 15
ENDMDL
MODEL 10
REMARK VINA RESULT:     -11.4      9.120     14.325
REMARK SMILES O=C(Cc1cccn1-c1ccccc1F)NCCCCCCNC(=O)c1ccc(-c2c3nc(c(-c4c(F)c(F)c(F)c(F)c4F)c4ccc([nH]4)c(-c4c(F)c(F)c(F)c(F)c4F)c4nc(c(-c5c(F)c(F)c(F)c(F)c5F)c5ccc2[nH]5)C=C4)C=C3)cc1
REMARK SMILES IDX 19 1 18 4 17 7 16 10 1 11 2 12 3 14 4 17 5 18 8 19 6 20 7 22
REMARK SMILES IDX 9 25 10 26 14 27 11 28 13 30 15 31 12 32 20 36 21 39 22 42
REMARK SMILES IDX 23 45 24 46 25 48 26 49 27 50 88 51 28 52 87 54 29 56 30 59
REMARK SMILES IDX 31 60 81 61 32 62 86 63 80 64 82 65 33 66 85 67 79 69 78 71
REMARK SMILES IDX 34 73 66 76 46 77 65 78 47 79 50 80 64 81 83 82 48 83 49 85
REMARK SMILES IDX 63 87 84 88 51 91 35 93 36 94 44 95 37 96 38 97 42 98 45 99
REMARK SMILES IDX 39 100 40 101 43 102 41 103 67 104 68 105 76 106 69 107
REMARK SMILES IDX 70 108 74 109 77 110 71 111 72 112 75 113 73 114 52 115
REMARK SMILES IDX 53 116 61 117 54 118 55 119 59 120 62 121 56 122 57 123
REMARK SMILES IDX 60 124 58 125
REMARK H PARENT 19 2 19 3 18 5 18 6 17 8 17 9 16 13 3 15 3 16 5 21 6 23 7 24
REMARK H PARENT 10 29 11 33 13 34 12 35 20 37 20 38 21 40 21 41 22 43 22 44
REMARK H PARENT 23 47 27 53 88 55 28 57 87 58 86 68 80 70 82 72 85 74 79 75
REMARK H PARENT 47 84 50 86 83 89 48 90 84 92
REMARK Flexibility Score: inf
ROOT
ATOM      1  C   UNL A   1      41.370  40.636  26.948  1.00  0.00    -0.052 C 
ATOM      2  H   UNL A   1      40.394  40.491  26.534  1.00  0.00     0.027 H 
ATOM      3  H   UNL A   1      41.458  41.445  27.644  1.00  0.00     0.027 H 
ENDROOT
BRANCH   1   4
ATOM      4  C   UNL A   1      42.308  41.012  25.794  1.00  0.00    -0.036 C 
ATOM      5  H   UNL A   1      43.004  41.735  26.167  1.00  0.00     0.028 H 
ATOM      6  H   UNL A   1      42.742  40.087  25.478  1.00  0.00     0.028 H 
BRANCH   4   7
ATOM      7  C   UNL A   1      41.667  41.599  24.531  1.00  0.00     0.017 C 
ATOM      8  H   UNL A   1      41.561  40.814  23.812  1.00  0.00     0.049 H 
ATOM      9  H   UNL A   1      40.729  42.019  24.828  1.00  0.00     0.049 H 
BRANCH   7  10
ATOM     10  N   UNL A   1      42.432  42.673  23.924  1.00  0.00    -0.356 N 
ATOM     11  O   UNL A   1      42.448  41.742  21.820  1.00  0.00    -0.275 OA
ATOM     12  C   UNL A   1      42.738  42.670  22.570  1.00  0.00     0.225 C 
ATOM     13  H   UNL A   1      42.741  43.420  24.485  1.00  0.00     0.163 HD
BRANCH  12  14
ATOM     14  C   UNL A   1      43.471  43.917  22.092  1.00  0.00     0.067 C 
ATOM     15  H   UNL A   1      43.839  44.432  22.955  1.00  0.00     0.043 H 
ATOM     16  H   UNL A   1      42.755  44.475  21.526  1.00  0.00     0.043 H 
BRANCH  14  17
ATOM     17  C   UNL A   1      44.633  43.677  21.164  1.00  0.00     0.032 A 
ATOM     18  C   UNL A   1      45.902  43.238  21.525  1.00  0.00    -0.040 A 
ATOM     19  N   UNL A   1      44.655  43.877  19.793  1.00  0.00    -0.318 N 
ATOM     20  C   UNL A   1      46.699  43.163  20.362  1.00  0.00    -0.044 A 
ATOM     21  H   UNL A   1      46.210  43.007  22.482  1.00  0.00     0.064 H 
ATOM     22  C   UNL A   1      45.897  43.520  19.307  1.00  0.00     0.009 A 
ATOM     23  H   UNL A   1      47.694  42.892  20.315  1.00  0.00     0.064 H 
ATOM     24  H   UNL A   1      46.176  43.522  18.314  1.00  0.00     0.082 H 
BRANCH  19  25
ATOM     25  C   UNL A   1      43.733  44.567  18.994  1.00  0.00     0.081 A 
ATOM     26  C   UNL A   1      43.943  45.914  18.685  1.00  0.00    -0.035 A 
ATOM     27  C   UNL A   1      42.547  43.929  18.655  1.00  0.00     0.147 A 
ATOM     28  C   UNL A   1      42.958  46.605  17.978  1.00  0.00    -0.060 A 
ATOM     29  H   UNL A   1      44.812  46.389  18.974  1.00  0.00     0.065 H 
ATOM     30  C   UNL A   1      41.537  44.644  18.029  1.00  0.00    -0.024 A 
ATOM     31  F   UNL A   1      42.349  42.633  18.935  1.00  0.00    -0.205 F 
ATOM     32  C   UNL A   1      41.753  45.974  17.660  1.00  0.00    -0.059 A 
ATOM     33  H   UNL A   1      43.120  47.582  17.690  1.00  0.00     0.062 H 
ATOM     34  H   UNL A   1      40.629  44.194  17.837  1.00  0.00     0.065 H 
ATOM     35  H   UNL A   1      41.018  46.492  17.152  1.00  0.00     0.062 H 
ENDBRANCH  19  25
ENDBRANCH  14  17
ENDBRANCH  12  14
ENDBRANCH   7  10
ENDBRANCH   4   7
ENDBRANCH   1   4
BRANCH   1  36
ATOM     36  C   UNL A   1      41.713  39.386  27.762  1.00  0.00    -0.052 C 
ATOM     37  H   UNL A   1      40.997  38.636  27.498  1.00  0.00     0.027 H 
ATOM     38  H   UNL A   1      41.696  39.729  28.776  1.00  0.00     0.027 H 
BRANCH  36  39
ATOM     39  C   UNL A   1      43.101  38.757  27.610  1.00  0.00    -0.036 C 
ATOM     40  H   UNL A   1      43.507  38.598  28.587  1.00  0.00     0.028 H 
ATOM     41  H   UNL A   1      43.688  39.435  27.027  1.00  0.00     0.028 H 
BRANCH  39  42
ATOM     42  C   UNL A   1      43.097  37.425  26.870  1.00  0.00     0.018 C 
ATOM     43  H   UNL A   1      42.577  37.545  25.942  1.00  0.00     0.049 H 
ATOM     44  H   UNL A   1      42.612  36.699  27.488  1.00  0.00     0.049 H 
BRANCH  42  45
ATOM     45  N   UNL A   1      44.454  36.962  26.596  1.00  0.00    -0.352 N 
ATOM     46  C   UNL A   1      45.191  35.985  27.227  1.00  0.00     0.251 C 
ATOM     47  H   UNL A   1      44.909  37.414  25.851  1.00  0.00     0.163 HD
ATOM     48  O   UNL A   1      46.393  35.901  27.057  1.00  0.00    -0.269 OA
BRANCH  46  49
ATOM     49  C   UNL A   1      44.510  35.065  28.153  1.00  0.00     0.039 A 
ATOM     50  C   UNL A   1      44.288  35.489  29.467  1.00  0.00    -0.049 A 
ATOM     51  C   UNL A   1      44.079  33.811  27.713  1.00  0.00    -0.049 A 
ATOM     52  C   UNL A   1      43.534  34.692  30.314  1.00  0.00    -0.053 A 
ATOM     53  H   UNL A   1      44.681  36.383  29.802  1.00  0.00     0.063 H 
ATOM     54  C   UNL A   1      43.278  33.038  28.536  1.00  0.00    -0.053 A 
ATOM     55  H   UNL A   1      44.355  33.463  26.781  1.00  0.00     0.063 H 
ATOM     56  C   UNL A   1      42.992  33.493  29.827  1.00  0.00    -0.014 A 
ATOM     57  H   UNL A   1      43.372  34.977  31.291  1.00  0.00     0.063 H 
ATOM     58  H   UNL A   1      42.899  32.138  28.201  1.00  0.00     0.063 H 
BRANCH  56  59
ATOM     59  C   UNL A   1      42.010  32.775  30.662  1.00  0.00     0.031 A 
ATOM     60  C   UNL A   1      42.630  31.557  31.366  1.00  0.00     0.074 A 
ATOM     61  C   UNL A   1      40.742  33.282  30.650  1.00  0.00     0.049 A 
ATOM     62  N   UNL A   1      42.084  30.443  31.745  1.00  0.00    -0.248 NA
ATOM     63  C   UNL A   1      44.097  31.547  31.630  1.00  0.00    -0.034 C 
ATOM     64  C   UNL A   1      40.352  34.514  29.932  1.00  0.00    -0.036 A 
ATOM     65  N   UNL A   1      39.539  32.897  31.205  1.00  0.00    -0.354 N 
ATOM     66  C   UNL A   1      43.067  29.688  32.425  1.00  0.00     0.074 A 
ATOM     67  C   UNL A   1      44.309  30.369  32.222  1.00  0.00    -0.034 C 
ATOM     68  H   UNL A   1      44.787  32.280  31.406  1.00  0.00     0.065 H 
ATOM     69  C   UNL A   1      39.026  34.725  30.025  1.00  0.00    -0.036 A 
ATOM     70  H   UNL A   1      41.009  35.129  29.428  1.00  0.00     0.065 H 
ATOM     71  C   UNL A   1      38.415  33.666  30.798  1.00  0.00     0.049 A 
ATOM     72  H   UNL A   1      39.465  32.146  31.836  1.00  0.00     0.167 HD
ATOM     73  C   UNL A   1      42.765  28.612  33.216  1.00  0.00     0.037 A 
ATOM     74  H   UNL A   1      45.235  30.003  32.495  1.00  0.00     0.065 H 
ATOM     75  H   UNL A   1      38.521  35.523  29.606  1.00  0.00     0.065 H 
ATOM     76  C   UNL A   1      37.084  33.430  31.010  1.00  0.00     0.037 A 
ATOM     77  C   UNL A   1      41.360  28.382  33.197  1.00  0.00     0.049 A 
ATOM     78  C   UNL A   1      37.034  32.264  31.909  1.00  0.00     0.074 A 
ATOM     79  C   UNL A   1      40.526  27.867  32.241  1.00  0.00    -0.036 A 
ATOM     80  N   UNL A   1      40.611  29.043  34.139  1.00  0.00    -0.354 N 
ATOM     81  N   UNL A   1      37.369  32.279  33.166  1.00  0.00    -0.248 NA
ATOM     82  C   UNL A   1      36.709  30.952  31.336  1.00  0.00    -0.034 C 
ATOM     83  C   UNL A   1      39.355  28.640  32.379  1.00  0.00    -0.036 A 
ATOM     84  H   UNL A   1      40.710  27.098  31.578  1.00  0.00     0.065 H 
ATOM     85  C   UNL A   1      39.442  29.428  33.531  1.00  0.00     0.049 A 
ATOM     86  H   UNL A   1      40.865  29.210  35.075  1.00  0.00     0.167 HD
ATOM     87  C   UNL A   1      37.606  30.948  33.420  1.00  0.00     0.074 A 
ATOM     88  C   UNL A   1      36.901  30.194  32.410  1.00  0.00    -0.034 C 
ATOM     89  H   UNL A   1      36.418  30.694  30.380  1.00  0.00     0.065 H 
ATOM     90  H   UNL A   1      38.554  28.624  31.729  1.00  0.00     0.065 H 
ATOM     91  C   UNL A   1      38.749  30.582  34.054  1.00  0.00     0.037 A 
ATOM     92  H   UNL A   1      36.592  29.214  32.509  1.00  0.00     0.065 H 
BRANCH  73  93
ATOM     93  C   UNL A   1      43.561  27.824  34.221  1.00  0.00     0.064 A 
ATOM     94  C   UNL A   1      43.751  28.228  35.547  1.00  0.00     0.173 A 
ATOM     95  C   UNL A   1      43.837  26.460  33.940  1.00  0.00     0.173 A 
ATOM     96  F   UNL A   1      43.503  29.487  35.929  1.00  0.00    -0.203 F 
ATOM     97  C   UNL A   1      44.108  27.310  36.544  1.00  0.00     0.198 A 
ATOM     98  C   UNL A   1      44.144  25.541  34.942  1.00  0.00     0.198 A 
ATOM     99  F   UNL A   1      43.734  25.981  32.690  1.00  0.00    -0.203 F 
ATOM    100  F   UNL A   1      44.229  27.726  37.813  1.00  0.00    -0.200 F 
ATOM    101  C   UNL A   1      44.262  25.965  36.250  1.00  0.00     0.200 A 
ATOM    102  F   UNL A   1      44.259  24.238  34.644  1.00  0.00    -0.200 F 
ATOM    103  F   UNL A   1      44.488  25.078  37.228  1.00  0.00    -0.200 F 
ENDBRANCH  73  93
BRANCH  76 104
ATOM    104  C   UNL A   1      35.771  33.941  30.453  1.00  0.00     0.064 A 
ATOM    105  C   UNL A   1      35.598  34.059  29.044  1.00  0.00     0.173 A 
ATOM    106  C   UNL A   1      34.687  34.428  31.195  1.00  0.00     0.173 A 
ATOM    107  F   UNL A   1      36.445  33.482  28.181  1.00  0.00    -0.203 F 
ATOM    108  C   UNL A   1      34.560  34.777  28.450  1.00  0.00     0.198 A 
ATOM    109  C   UNL A   1      33.613  35.113  30.596  1.00  0.00     0.198 A 
ATOM    110  F   UNL A   1      34.604  34.240  32.515  1.00  0.00    -0.203 F 
ATOM    111  F   UNL A   1      34.544  34.945  27.120  1.00  0.00    -0.200 F 
ATOM    112  C   UNL A   1      33.575  35.329  29.231  1.00  0.00     0.200 A 
ATOM    113  F   UNL A   1      32.616  35.580  31.361  1.00  0.00    -0.200 F 
ATOM    114  F   UNL A   1      32.590  36.045  28.674  1.00  0.00    -0.200 F 
ENDBRANCH  76 104
BRANCH  91 115
ATOM    115  C   UNL A   1      39.335  31.656  34.946  1.00  0.00     0.064 A 
ATOM    116  C   UNL A   1      40.457  32.432  34.615  1.00  0.00     0.173 A 
ATOM    117  C   UNL A   1      38.684  31.997  36.141  1.00  0.00     0.173 A 
ATOM    118  F   UNL A   1      41.147  32.188  33.503  1.00  0.00    -0.203 F 
ATOM    119  C   UNL A   1      40.907  33.483  35.417  1.00  0.00     0.198 A 
ATOM    120  C   UNL A   1      39.125  33.053  36.945  1.00  0.00     0.198 A 
ATOM    121  F   UNL A   1      37.611  31.296  36.540  1.00  0.00    -0.203 F 
ATOM    122  F   UNL A   1      41.996  34.182  35.059  1.00  0.00    -0.200 F 
ATOM    123  C   UNL A   1      40.237  33.796  36.582  1.00  0.00     0.200 A 
ATOM    124  F   UNL A   1      38.475  33.344  38.079  1.00  0.00    -0.200 F 
ATOM    125  F   UNL A   1      40.670  34.797  37.361  1.00  0.00    -0.200 F 
ENDBRANCH  91 115
ENDBRANCH  56  59
ENDBRANCH  46  49
ENDBRANCH  42  45
ENDBRANCH  39  42
ENDBRANCH  36  39
ENDBRANCH   1  36
TORSDOF 15
ENDMDL
