MODEL 1
REMARK VINA RESULT:     -12.1      0.000      0.000
REMARK SMILES C[C@@H](C(=O)NCCCCCCNC(=O)c1ccc(-c2c3nc(c(-c4c(F)c(F)c(F)c(F)c4F)c4ccc([nH]4)c(-c4c(F)c(F)c(F)c(F)c4F)c4nc(c(-c5c(F)c(F)c(F)c(F)c5F)c5ccc2[nH]5)C=C4)C=C3)cc1)c1ccc(C(=O)c2cccs2)cc1
REMARK SMILES IDX 8 1 7 4 6 7 5 10 3 11 4 12 2 14 1 16 78 20 79 21 90 22 80 23
REMARK SMILES IDX 89 25 81 27 82 30 83 31 84 32 85 33 88 34 86 35 87 37 9 40
REMARK SMILES IDX 10 43 11 46 12 49 13 50 14 52 15 53 16 54 77 55 17 56 76 58
REMARK SMILES IDX 18 60 19 63 20 64 70 65 21 66 75 67 69 68 71 69 22 70 74 71
REMARK SMILES IDX 68 73 67 75 23 77 55 80 35 81 54 82 36 83 39 84 53 85 72 86
REMARK SMILES IDX 37 87 38 89 52 91 73 92 40 95 24 97 25 98 33 99 26 100
REMARK SMILES IDX 27 101 31 102 34 103 28 104 29 105 32 106 30 107 56 108
REMARK SMILES IDX 57 109 65 110 58 111 59 112 63 113 66 114 60 115 61 116
REMARK SMILES IDX 64 117 62 118 41 119 42 120 50 121 43 122 44 123 48 124
REMARK SMILES IDX 51 125 45 126 46 127 49 128 47 129
REMARK H PARENT 8 2 8 3 7 5 7 6 6 8 6 9 5 13 2 15 1 17 1 18 1 19 79 24 90 26
REMARK H PARENT 80 28 89 29 85 36 86 38 87 39 9 41 9 42 10 44 10 45 11 47
REMARK H PARENT 11 48 12 51 16 57 77 59 17 61 76 62 75 72 69 74 71 76 74 78
REMARK H PARENT 68 79 36 88 39 90 72 93 37 94 73 96
REMARK Flexibility Score: inf
ROOT
ATOM      1  C   UNL A   1      32.631  29.403  26.431  1.00  0.00    -0.052 C 
ATOM      2  H   UNL A   1      33.160  29.910  27.211  1.00  0.00     0.027 H 
ATOM      3  H   UNL A   1      31.994  28.620  26.787  1.00  0.00     0.027 H 
ENDROOT
BRANCH   1   4
ATOM      4  C   UNL A   1      33.663  28.730  25.514  1.00  0.00    -0.036 C 
ATOM      5  H   UNL A   1      33.464  29.032  24.507  1.00  0.00     0.028 H 
ATOM      6  H   UNL A   1      34.628  29.040  25.857  1.00  0.00     0.028 H 
BRANCH   4   7
ATOM      7  C   UNL A   1      33.649  27.200  25.568  1.00  0.00     0.017 C 
ATOM      8  H   UNL A   1      34.365  26.866  26.289  1.00  0.00     0.049 H 
ATOM      9  H   UNL A   1      32.668  26.872  25.844  1.00  0.00     0.049 H 
BRANCH   7  10
ATOM     10  N   UNL A   1      33.980  26.644  24.276  1.00  0.00    -0.356 N 
ATOM     11  C   UNL A   1      33.342  25.717  23.510  1.00  0.00     0.227 C 
ATOM     12  O   UNL A   1      33.951  25.362  22.499  1.00  0.00    -0.274 OA
ATOM     13  H   UNL A   1      34.812  26.994  23.883  1.00  0.00     0.163 HD
BRANCH  11  14
ATOM     14  C   UNL A   1      31.932  25.229  23.896  1.00  0.00     0.060 C 
ATOM     15  H   UNL A   1      32.022  25.124  24.956  1.00  0.00     0.045 H 
BRANCH  14  16
ATOM     16  C   UNL A   1      31.559  23.890  23.255  1.00  0.00    -0.049 C 
ATOM     17  H   UNL A   1      32.099  23.770  22.339  1.00  0.00     0.024 H 
ATOM     18  H   UNL A   1      30.508  23.869  23.055  1.00  0.00     0.024 H 
ATOM     19  H   UNL A   1      31.811  23.093  23.923  1.00  0.00     0.024 H 
ENDBRANCH  14  16
BRANCH  14  20
ATOM     20  C   UNL A   1      30.793  26.214  23.616  1.00  0.00    -0.036 A 
ATOM     21  C   UNL A   1      29.485  26.014  24.078  1.00  0.00    -0.058 A 
ATOM     22  C   UNL A   1      31.082  27.419  22.959  1.00  0.00    -0.058 A 
ATOM     23  C   UNL A   1      28.484  26.956  23.834  1.00  0.00    -0.051 A 
ATOM     24  H   UNL A   1      29.259  25.157  24.606  1.00  0.00     0.063 H 
ATOM     25  C   UNL A   1      30.090  28.385  22.752  1.00  0.00    -0.051 A 
ATOM     26  H   UNL A   1      32.041  27.597  22.622  1.00  0.00     0.063 H 
ATOM     27  C   UNL A   1      28.774  28.153  23.172  1.00  0.00     0.023 A 
ATOM     28  H   UNL A   1      27.519  26.767  24.148  1.00  0.00     0.063 H 
ATOM     29  H   UNL A   1      30.330  29.274  22.288  1.00  0.00     0.063 H 
BRANCH  27  30
ATOM     30  C   UNL A   1      27.662  29.147  23.001  1.00  0.00     0.202 C 
ATOM     31  O   UNL A   1      26.504  28.754  23.135  1.00  0.00    -0.288 OA
BRANCH  30  32
ATOM     32  C   UNL A   1      27.984  30.534  22.734  1.00  0.00     0.075 A 
ATOM     33  C   UNL A   1      28.301  31.554  23.609  1.00  0.00    -0.040 A 
ATOM     34  S   UNL A   1      28.028  31.058  21.105  1.00  0.00    -0.140 S 
ATOM     35  C   UNL A   1      28.525  32.790  22.934  1.00  0.00    -0.051 A 
ATOM     36  H   UNL A   1      28.369  31.436  24.633  1.00  0.00     0.064 H 
ATOM     37  C   UNL A   1      28.403  32.660  21.568  1.00  0.00    -0.009 A 
ATOM     38  H   UNL A   1      28.751  33.676  23.412  1.00  0.00     0.063 H 
ATOM     39  H   UNL A   1      28.524  33.440  20.902  1.00  0.00     0.074 H 
ENDBRANCH  30  32
ENDBRANCH  27  30
ENDBRANCH  14  20
ENDBRANCH  11  14
ENDBRANCH   7  10
ENDBRANCH   4   7
ENDBRANCH   1   4
BRANCH   1  40
ATOM     40  C   UNL A   1      31.715  30.418  25.741  1.00  0.00    -0.052 C 
ATOM     41  H   UNL A   1      30.795  29.927  25.501  1.00  0.00     0.027 H 
ATOM     42  H   UNL A   1      32.246  30.764  24.879  1.00  0.00     0.027 H 
BRANCH  40  43
ATOM     43  C   UNL A   1      31.391  31.658  26.575  1.00  0.00    -0.036 C 
ATOM     44  H   UNL A   1      30.749  31.362  27.379  1.00  0.00     0.028 H 
ATOM     45  H   UNL A   1      30.932  32.360  25.912  1.00  0.00     0.028 H 
BRANCH  43  46
ATOM     46  C   UNL A   1      32.609  32.353  27.171  1.00  0.00     0.018 C 
ATOM     47  H   UNL A   1      33.428  32.260  26.487  1.00  0.00     0.049 H 
ATOM     48  H   UNL A   1      32.832  31.884  28.106  1.00  0.00     0.049 H 
BRANCH  46  49
ATOM     49  N   UNL A   1      32.365  33.763  27.422  1.00  0.00    -0.352 N 
ATOM     50  C   UNL A   1      32.944  34.592  28.348  1.00  0.00     0.251 C 
ATOM     51  H   UNL A   1      31.687  34.184  26.845  1.00  0.00     0.163 HD
ATOM     52  O   UNL A   1      32.475  35.707  28.563  1.00  0.00    -0.269 OA
BRANCH  50  53
ATOM     53  C   UNL A   1      34.125  34.131  29.110  1.00  0.00     0.039 A 
ATOM     54  C   UNL A   1      33.928  33.393  30.278  1.00  0.00    -0.049 A 
ATOM     55  C   UNL A   1      35.420  34.424  28.671  1.00  0.00    -0.049 A 
ATOM     56  C   UNL A   1      35.031  32.890  30.971  1.00  0.00    -0.053 A 
ATOM     57  H   UNL A   1      32.972  33.219  30.627  1.00  0.00     0.063 H 
ATOM     58  C   UNL A   1      36.515  33.859  29.320  1.00  0.00    -0.053 A 
ATOM     59  H   UNL A   1      35.564  35.057  27.868  1.00  0.00     0.063 H 
ATOM     60  C   UNL A   1      36.331  33.084  30.475  1.00  0.00    -0.014 A 
ATOM     61  H   UNL A   1      34.889  32.372  31.852  1.00  0.00     0.063 H 
ATOM     62  H   UNL A   1      37.465  34.012  28.950  1.00  0.00     0.063 H 
BRANCH  60  63
ATOM     63  C   UNL A   1      37.505  32.465  31.143  1.00  0.00     0.031 A 
ATOM     64  C   UNL A   1      38.246  31.334  30.486  1.00  0.00     0.074 A 
ATOM     65  C   UNL A   1      37.865  32.886  32.372  1.00  0.00     0.049 A 
ATOM     66  N   UNL A   1      39.255  30.633  30.940  1.00  0.00    -0.248 NA
ATOM     67  C   UNL A   1      37.781  30.921  29.152  1.00  0.00    -0.034 C 
ATOM     68  C   UNL A   1      37.194  33.943  33.134  1.00  0.00    -0.036 A 
ATOM     69  N   UNL A   1      38.875  32.472  33.204  1.00  0.00    -0.354 N 
ATOM     70  C   UNL A   1      39.536  29.693  29.957  1.00  0.00     0.074 A 
ATOM     71  C   UNL A   1      38.563  29.879  28.903  1.00  0.00    -0.034 C 
ATOM     72  H   UNL A   1      37.041  31.333  28.564  1.00  0.00     0.065 H 
ATOM     73  C   UNL A   1      37.824  34.108  34.308  1.00  0.00    -0.036 A 
ATOM     74  H   UNL A   1      36.369  34.475  32.818  1.00  0.00     0.065 H 
ATOM     75  C   UNL A   1      38.913  33.140  34.403  1.00  0.00     0.049 A 
ATOM     76  H   UNL A   1      39.514  31.761  32.963  1.00  0.00     0.167 HD
ATOM     77  C   UNL A   1      40.529  28.773  29.929  1.00  0.00     0.037 A 
ATOM     78  H   UNL A   1      38.486  29.279  28.066  1.00  0.00     0.065 H 
ATOM     79  H   UNL A   1      37.578  34.806  35.026  1.00  0.00     0.065 H 
ATOM     80  C   UNL A   1      39.724  32.983  35.467  1.00  0.00     0.037 A 
ATOM     81  C   UNL A   1      41.511  28.609  30.969  1.00  0.00     0.049 A 
ATOM     82  C   UNL A   1      40.809  31.939  35.410  1.00  0.00     0.074 A 
ATOM     83  C   UNL A   1      42.596  27.751  31.001  1.00  0.00    -0.036 A 
ATOM     84  N   UNL A   1      41.524  29.313  32.164  1.00  0.00    -0.354 N 
ATOM     85  N   UNL A   1      41.114  31.112  34.441  1.00  0.00    -0.248 NA
ATOM     86  C   UNL A   1      41.667  31.812  36.597  1.00  0.00    -0.034 C 
ATOM     87  C   UNL A   1      43.230  27.891  32.238  1.00  0.00    -0.036 A 
ATOM     88  H   UNL A   1      42.888  27.116  30.241  1.00  0.00     0.065 H 
ATOM     89  C   UNL A   1      42.580  28.885  32.952  1.00  0.00     0.049 A 
ATOM     90  H   UNL A   1      40.879  30.013  32.415  1.00  0.00     0.167 HD
ATOM     91  C   UNL A   1      42.215  30.392  34.885  1.00  0.00     0.074 A 
ATOM     92  C   UNL A   1      42.537  30.894  36.204  1.00  0.00    -0.034 C 
ATOM     93  H   UNL A   1      41.608  32.307  37.500  1.00  0.00     0.065 H 
ATOM     94  H   UNL A   1      44.045  27.348  32.564  1.00  0.00     0.065 H 
ATOM     95  C   UNL A   1      42.896  29.402  34.259  1.00  0.00     0.037 A 
ATOM     96  H   UNL A   1      43.343  30.577  36.766  1.00  0.00     0.065 H 
BRANCH  77  97
ATOM     97  C   UNL A   1      40.618  27.868  28.735  1.00  0.00     0.064 A 
ATOM     98  C   UNL A   1      39.896  26.666  28.666  1.00  0.00     0.173 A 
ATOM     99  C   UNL A   1      41.370  28.245  27.612  1.00  0.00     0.173 A 
ATOM    100  F   UNL A   1      39.169  26.253  29.715  1.00  0.00    -0.203 F 
ATOM    101  C   UNL A   1      39.937  25.870  27.524  1.00  0.00     0.198 A 
ATOM    102  C   UNL A   1      41.384  27.461  26.461  1.00  0.00     0.198 A 
ATOM    103  F   UNL A   1      42.075  29.387  27.622  1.00  0.00    -0.203 F 
ATOM    104  F   UNL A   1      39.268  24.709  27.494  1.00  0.00    -0.200 F 
ATOM    105  C   UNL A   1      40.672  26.273  26.419  1.00  0.00     0.200 A 
ATOM    106  F   UNL A   1      42.081  27.862  25.389  1.00  0.00    -0.200 F 
ATOM    107  F   UNL A   1      40.694  25.516  25.314  1.00  0.00    -0.200 F 
ENDBRANCH  77  97
BRANCH  80 108
ATOM    108  C   UNL A   1      39.550  33.829  36.679  1.00  0.00     0.064 A 
ATOM    109  C   UNL A   1      40.174  35.080  36.783  1.00  0.00     0.173 A 
ATOM    110  C   UNL A   1      38.792  33.387  37.774  1.00  0.00     0.173 A 
ATOM    111  F   UNL A   1      40.927  35.540  35.772  1.00  0.00    -0.203 F 
ATOM    112  C   UNL A   1      40.078  35.840  37.948  1.00  0.00     0.198 A 
ATOM    113  C   UNL A   1      38.667  34.163  38.924  1.00  0.00     0.198 A 
ATOM    114  F   UNL A   1      38.169  32.201  37.725  1.00  0.00    -0.203 F 
ATOM    115  F   UNL A   1      40.741  36.999  38.045  1.00  0.00    -0.200 F 
ATOM    116  C   UNL A   1      39.322  35.382  39.016  1.00  0.00     0.200 A 
ATOM    117  F   UNL A   1      37.920  33.725  39.947  1.00  0.00    -0.200 F 
ATOM    118  F   UNL A   1      39.233  36.109  40.138  1.00  0.00    -0.200 F 
ENDBRANCH  80 108
BRANCH  95 119
ATOM    119  C   UNL A   1      44.084  28.823  34.973  1.00  0.00     0.064 A 
ATOM    120  C   UNL A   1      43.970  27.705  35.812  1.00  0.00     0.173 A 
ATOM    121  C   UNL A   1      45.361  29.376  34.787  1.00  0.00     0.173 A 
ATOM    122  F   UNL A   1      42.770  27.148  36.035  1.00  0.00    -0.203 F 
ATOM    123  C   UNL A   1      45.084  27.180  36.462  1.00  0.00     0.198 A 
ATOM    124  C   UNL A   1      46.478  28.826  35.410  1.00  0.00     0.198 A 
ATOM    125  F   UNL A   1      45.528  30.441  33.989  1.00  0.00    -0.203 F 
ATOM    126  F   UNL A   1      44.941  26.146  37.303  1.00  0.00    -0.200 F 
ATOM    127  C   UNL A   1      46.338  27.735  36.254  1.00  0.00     0.200 A 
ATOM    128  F   UNL A   1      47.692  29.354  35.193  1.00  0.00    -0.200 F 
ATOM    129  F   UNL A   1      47.409  27.224  36.875  1.00  0.00    -0.200 F 
ENDBRANCH  95 119
ENDBRANCH  60  63
ENDBRANCH  50  53
ENDBRANCH  46  49
ENDBRANCH  43  46
ENDBRANCH  40  43
ENDBRANCH   1  40
TORSDOF 17
ENDMDL
MODEL 2
REMARK VINA RESULT:     -12.1      0.703      2.151
REMARK SMILES C[C@@H](C(=O)NCCCCCCNC(=O)c1ccc(-c2c3nc(c(-c4c(F)c(F)c(F)c(F)c4F)c4ccc([nH]4)c(-c4c(F)c(F)c(F)c(F)c4F)c4nc(c(-c5c(F)c(F)c(F)c(F)c5F)c5ccc2[nH]5)C=C4)C=C3)cc1)c1ccc(C(=O)c2cccs2)cc1
REMARK SMILES IDX 8 1 7 4 6 7 5 10 3 11 4 12 2 14 1 16 78 20 79 21 90 22 80 23
REMARK SMILES IDX 89 25 81 27 82 30 83 31 84 32 85 33 88 34 86 35 87 37 9 40
REMARK SMILES IDX 10 43 11 46 12 49 13 50 14 52 15 53 16 54 77 55 17 56 76 58
REMARK SMILES IDX 18 60 19 63 20 64 70 65 21 66 75 67 69 68 71 69 22 70 74 71
REMARK SMILES IDX 68 73 67 75 23 77 55 80 35 81 54 82 36 83 39 84 53 85 72 86
REMARK SMILES IDX 37 87 38 89 52 91 73 92 40 95 24 97 25 98 33 99 26 100
REMARK SMILES IDX 27 101 31 102 34 103 28 104 29 105 32 106 30 107 56 108
REMARK SMILES IDX 57 109 65 110 58 111 59 112 63 113 66 114 60 115 61 116
REMARK SMILES IDX 64 117 62 118 41 119 42 120 50 121 43 122 44 123 48 124
REMARK SMILES IDX 51 125 45 126 46 127 49 128 47 129
REMARK H PARENT 8 2 8 3 7 5 7 6 6 8 6 9 5 13 2 15 1 17 1 18 1 19 79 24 90 26
REMARK H PARENT 80 28 89 29 85 36 86 38 87 39 9 41 9 42 10 44 10 45 11 47
REMARK H PARENT 11 48 12 51 16 57 77 59 17 61 76 62 75 72 69 74 71 76 74 78
REMARK H PARENT 68 79 36 88 39 90 72 93 37 94 73 96
REMARK Flexibility Score: inf
ROOT
ATOM      1  C   UNL A   1      31.925  29.351  27.191  1.00  0.00    -0.052 C 
ATOM      2  H   UNL A   1      32.930  29.533  27.507  1.00  0.00     0.027 H 
ATOM      3  H   UNL A   1      31.198  29.535  27.954  1.00  0.00     0.027 H 
ENDROOT
BRANCH   1   4
ATOM      4  C   UNL A   1      31.799  27.863  26.830  1.00  0.00    -0.036 C 
ATOM      5  H   UNL A   1      31.696  27.306  27.738  1.00  0.00     0.028 H 
ATOM      6  H   UNL A   1      30.948  27.774  26.189  1.00  0.00     0.028 H 
BRANCH   4   7
ATOM      7  C   UNL A   1      32.994  27.302  26.056  1.00  0.00     0.017 C 
ATOM      8  H   UNL A   1      32.963  27.665  25.049  1.00  0.00     0.049 H 
ATOM      9  H   UNL A   1      33.897  27.618  26.534  1.00  0.00     0.049 H 
BRANCH   7  10
ATOM     10  N   UNL A   1      32.955  25.857  26.041  1.00  0.00    -0.356 N 
ATOM     11  C   UNL A   1      32.576  24.982  25.069  1.00  0.00     0.227 C 
ATOM     12  O   UNL A   1      32.543  23.798  25.412  1.00  0.00    -0.274 OA
ATOM     13  H   UNL A   1      33.251  25.433  26.878  1.00  0.00     0.163 HD
BRANCH  11  14
ATOM     14  C   UNL A   1      32.281  25.486  23.643  1.00  0.00     0.060 C 
ATOM     15  H   UNL A   1      31.982  24.584  23.152  1.00  0.00     0.045 H 
BRANCH  14  16
ATOM     16  C   UNL A   1      33.504  26.091  22.950  1.00  0.00    -0.049 C 
ATOM     17  H   UNL A   1      33.928  26.851  23.574  1.00  0.00     0.024 H 
ATOM     18  H   UNL A   1      33.210  26.521  22.015  1.00  0.00     0.024 H 
ATOM     19  H   UNL A   1      34.232  25.325  22.778  1.00  0.00     0.024 H 
ENDBRANCH  14  16
BRANCH  14  20
ATOM     20  C   UNL A   1      31.132  26.490  23.522  1.00  0.00    -0.036 A 
ATOM     21  C   UNL A   1      31.258  27.712  22.848  1.00  0.00    -0.058 A 
ATOM     22  C   UNL A   1      29.866  26.137  24.014  1.00  0.00    -0.058 A 
ATOM     23  C   UNL A   1      30.173  28.583  22.728  1.00  0.00    -0.051 A 
ATOM     24  H   UNL A   1      32.166  27.973  22.436  1.00  0.00     0.063 H 
ATOM     25  C   UNL A   1      28.766  26.989  23.856  1.00  0.00    -0.051 A 
ATOM     26  H   UNL A   1      29.743  25.235  24.501  1.00  0.00     0.063 H 
ATOM     27  C   UNL A   1      28.914  28.231  23.226  1.00  0.00     0.023 A 
ATOM     28  H   UNL A   1      30.301  29.496  22.264  1.00  0.00     0.063 H 
ATOM     29  H   UNL A   1      27.839  26.699  24.204  1.00  0.00     0.063 H 
BRANCH  27  30
ATOM     30  C   UNL A   1      27.780  29.189  23.004  1.00  0.00     0.202 C 
ATOM     31  O   UNL A   1      26.630  28.769  23.127  1.00  0.00    -0.288 OA
BRANCH  30  32
ATOM     32  C   UNL A   1      28.070  30.576  22.700  1.00  0.00     0.075 A 
ATOM     33  C   UNL A   1      28.416  31.613  23.544  1.00  0.00    -0.040 A 
ATOM     34  S   UNL A   1      28.028  31.075  21.064  1.00  0.00    -0.140 S 
ATOM     35  C   UNL A   1      28.590  32.841  22.840  1.00  0.00    -0.051 A 
ATOM     36  H   UNL A   1      28.536  31.511  24.564  1.00  0.00     0.064 H 
ATOM     37  C   UNL A   1      28.403  32.688  21.483  1.00  0.00    -0.009 A 
ATOM     38  H   UNL A   1      28.828  33.737  23.293  1.00  0.00     0.063 H 
ATOM     39  H   UNL A   1      28.482  33.459  20.801  1.00  0.00     0.074 H 
ENDBRANCH  30  32
ENDBRANCH  27  30
ENDBRANCH  14  20
ENDBRANCH  11  14
ENDBRANCH   7  10
ENDBRANCH   4   7
ENDBRANCH   1   4
BRANCH   1  40
ATOM     40  C   UNL A   1      31.602  30.323  26.052  1.00  0.00    -0.052 C 
ATOM     41  H   UNL A   1      30.704  29.991  25.575  1.00  0.00     0.027 H 
ATOM     42  H   UNL A   1      32.452  30.318  25.402  1.00  0.00     0.027 H 
BRANCH  40  43
ATOM     43  C   UNL A   1      31.402  31.775  26.488  1.00  0.00    -0.036 C 
ATOM     44  H   UNL A   1      30.616  31.801  27.214  1.00  0.00     0.028 H 
ATOM     45  H   UNL A   1      31.171  32.330  25.603  1.00  0.00     0.028 H 
BRANCH  43  46
ATOM     46  C   UNL A   1      32.637  32.425  27.100  1.00  0.00     0.018 C 
ATOM     47  H   UNL A   1      33.445  32.356  26.401  1.00  0.00     0.049 H 
ATOM     48  H   UNL A   1      32.866  31.909  28.008  1.00  0.00     0.049 H 
BRANCH  46  49
ATOM     49  N   UNL A   1      32.415  33.825  27.423  1.00  0.00    -0.352 N 
ATOM     50  C   UNL A   1      32.994  34.592  28.400  1.00  0.00     0.251 C 
ATOM     51  H   UNL A   1      31.754  34.289  26.859  1.00  0.00     0.163 HD
ATOM     52  O   UNL A   1      32.542  35.702  28.668  1.00  0.00    -0.269 OA
BRANCH  50  53
ATOM     53  C   UNL A   1      34.154  34.069  29.153  1.00  0.00     0.039 A 
ATOM     54  C   UNL A   1      33.930  33.175  30.202  1.00  0.00    -0.049 A 
ATOM     55  C   UNL A   1      35.457  34.456  28.824  1.00  0.00    -0.049 A 
ATOM     56  C   UNL A   1      35.017  32.617  30.877  1.00  0.00    -0.053 A 
ATOM     57  H   UNL A   1      32.966  32.928  30.475  1.00  0.00     0.063 H 
ATOM     58  C   UNL A   1      36.540  33.843  29.447  1.00  0.00    -0.053 A 
ATOM     59  H   UNL A   1      35.615  35.195  28.120  1.00  0.00     0.063 H 
ATOM     60  C   UNL A   1      36.331  32.915  30.479  1.00  0.00    -0.014 A 
ATOM     61  H   UNL A   1      34.853  31.982  31.674  1.00  0.00     0.063 H 
ATOM     62  H   UNL A   1      37.500  34.072  29.150  1.00  0.00     0.063 H 
BRANCH  60  63
ATOM     63  C   UNL A   1      37.494  32.247  31.118  1.00  0.00     0.031 A 
ATOM     64  C   UNL A   1      38.253  31.175  30.387  1.00  0.00     0.074 A 
ATOM     65  C   UNL A   1      37.827  32.569  32.385  1.00  0.00     0.049 A 
ATOM     66  N   UNL A   1      39.256  30.443  30.803  1.00  0.00    -0.248 NA
ATOM     67  C   UNL A   1      37.817  30.869  29.015  1.00  0.00    -0.034 C 
ATOM     68  C   UNL A   1      37.137  33.558  33.215  1.00  0.00    -0.036 A 
ATOM     69  N   UNL A   1      38.823  32.091  33.200  1.00  0.00    -0.354 N 
ATOM     70  C   UNL A   1      39.560  29.586  29.754  1.00  0.00     0.074 A 
ATOM     71  C   UNL A   1      38.607  29.854  28.699  1.00  0.00    -0.034 C 
ATOM     72  H   UNL A   1      37.086  31.326  28.448  1.00  0.00     0.065 H 
ATOM     73  C   UNL A   1      37.743  33.629  34.411  1.00  0.00    -0.036 A 
ATOM     74  H   UNL A   1      36.316  34.112  32.927  1.00  0.00     0.065 H 
ATOM     75  C   UNL A   1      38.834  32.661  34.450  1.00  0.00     0.049 A 
ATOM     76  H   UNL A   1      39.470  31.404  32.916  1.00  0.00     0.167 HD
ATOM     77  C   UNL A   1      40.558  28.674  29.671  1.00  0.00     0.037 A 
ATOM     78  H   UNL A   1      38.550  29.323  27.815  1.00  0.00     0.065 H 
ATOM     79  H   UNL A   1      37.479  34.266  35.179  1.00  0.00     0.065 H 
ATOM     80  C   UNL A   1      39.625  32.420  35.513  1.00  0.00     0.037 A 
ATOM     81  C   UNL A   1      41.520  28.429  30.714  1.00  0.00     0.049 A 
ATOM     82  C   UNL A   1      40.716  31.388  35.395  1.00  0.00     0.074 A 
ATOM     83  C   UNL A   1      42.608  27.574  30.698  1.00  0.00    -0.036 A 
ATOM     84  N   UNL A   1      41.507  29.035  31.962  1.00  0.00    -0.354 N 
ATOM     85  N   UNL A   1      41.043  30.643  34.368  1.00  0.00    -0.248 NA
ATOM     86  C   UNL A   1      41.550  31.167  36.584  1.00  0.00    -0.034 C 
ATOM     87  C   UNL A   1      43.217  27.617  31.955  1.00  0.00    -0.036 A 
ATOM     88  H   UNL A   1      42.918  27.004  29.896  1.00  0.00     0.065 H 
ATOM     89  C   UNL A   1      42.548  28.547  32.734  1.00  0.00     0.049 A 
ATOM     90  H   UNL A   1      40.853  29.710  32.255  1.00  0.00     0.167 HD
ATOM     91  C   UNL A   1      42.139  29.892  34.774  1.00  0.00     0.074 A 
ATOM     92  C   UNL A   1      42.432  30.287  36.135  1.00  0.00    -0.034 C 
ATOM     93  H   UNL A   1      41.471  31.588  37.523  1.00  0.00     0.065 H 
ATOM     94  H   UNL A   1      44.027  27.051  32.253  1.00  0.00     0.065 H 
ATOM     95  C   UNL A   1      42.836  28.958  34.084  1.00  0.00     0.037 A 
ATOM     96  H   UNL A   1      43.228  29.928  36.686  1.00  0.00     0.065 H 
BRANCH  77  97
ATOM     97  C   UNL A   1      40.674  27.868  28.410  1.00  0.00     0.064 A 
ATOM     98  C   UNL A   1      41.451  28.304  27.325  1.00  0.00     0.173 A 
ATOM     99  C   UNL A   1      40.066  26.606  28.316  1.00  0.00     0.173 A 
ATOM    100  F   UNL A   1      42.044  29.506  27.359  1.00  0.00    -0.203 F 
ATOM    101  C   UNL A   1      41.601  27.514  26.188  1.00  0.00     0.198 A 
ATOM    102  C   UNL A   1      40.245  25.806  27.190  1.00  0.00     0.198 A 
ATOM    103  F   UNL A   1      39.318  26.139  29.327  1.00  0.00    -0.203 F 
ATOM    104  F   UNL A   1      42.319  27.966  25.151  1.00  0.00    -0.200 F 
ATOM    105  C   UNL A   1      41.008  26.261  26.126  1.00  0.00     0.200 A 
ATOM    106  F   UNL A   1      39.684  24.590  27.140  1.00  0.00    -0.200 F 
ATOM    107  F   UNL A   1      41.170  25.495  25.040  1.00  0.00    -0.200 F 
ENDBRANCH  77  97
BRANCH  80 108
ATOM    108  C   UNL A   1      39.423  33.165  36.786  1.00  0.00     0.064 A 
ATOM    109  C   UNL A   1      38.525  32.705  37.759  1.00  0.00     0.173 A 
ATOM    110  C   UNL A   1      40.090  34.374  37.037  1.00  0.00     0.173 A 
ATOM    111  F   UNL A   1      37.846  31.565  37.558  1.00  0.00    -0.203 F 
ATOM    112  C   UNL A   1      38.274  33.441  38.916  1.00  0.00     0.198 A 
ATOM    113  C   UNL A   1      39.866  35.091  38.211  1.00  0.00     0.198 A 
ATOM    114  F   UNL A   1      40.965  34.857  36.143  1.00  0.00    -0.203 F 
ATOM    115  F   UNL A   1      37.359  33.011  39.795  1.00  0.00    -0.200 F 
ATOM    116  C   UNL A   1      38.947  34.631  39.142  1.00  0.00     0.200 A 
ATOM    117  F   UNL A   1      40.532  36.232  38.433  1.00  0.00    -0.200 F 
ATOM    118  F   UNL A   1      38.702  35.342  40.251  1.00  0.00    -0.200 F 
ENDBRANCH  80 108
BRANCH  95 119
ATOM    119  C   UNL A   1      44.012  28.327  34.773  1.00  0.00     0.064 A 
ATOM    120  C   UNL A   1      45.290  28.904  34.732  1.00  0.00     0.173 A 
ATOM    121  C   UNL A   1      43.850  27.147  35.516  1.00  0.00     0.173 A 
ATOM    122  F   UNL A   1      45.502  30.024  34.024  1.00  0.00    -0.203 F 
ATOM    123  C   UNL A   1      46.368  28.306  35.380  1.00  0.00     0.198 A 
ATOM    124  C   UNL A   1      44.921  26.572  36.193  1.00  0.00     0.198 A 
ATOM    125  F   UNL A   1      42.647  26.558  35.596  1.00  0.00    -0.203 F 
ATOM    126  F   UNL A   1      47.591  28.845  35.279  1.00  0.00    -0.200 F 
ATOM    127  C   UNL A   1      46.181  27.146  36.118  1.00  0.00     0.200 A 
ATOM    128  F   UNL A   1      44.734  25.461  36.920  1.00  0.00    -0.200 F 
ATOM    129  F   UNL A   1      47.217  26.577  36.747  1.00  0.00    -0.200 F 
ENDBRANCH  95 119
ENDBRANCH  60  63
ENDBRANCH  50  53
ENDBRANCH  46  49
ENDBRANCH  43  46
ENDBRANCH  40  43
ENDBRANCH   1  40
TORSDOF 17
ENDMDL
MODEL 3
REMARK VINA RESULT:     -12.0      0.529      7.285
REMARK SMILES C[C@@H](C(=O)NCCCCCCNC(=O)c1ccc(-c2c3nc(c(-c4c(F)c(F)c(F)c(F)c4F)c4ccc([nH]4)c(-c4c(F)c(F)c(F)c(F)c4F)c4nc(c(-c5c(F)c(F)c(F)c(F)c5F)c5ccc2[nH]5)C=C4)C=C3)cc1)c1ccc(C(=O)c2cccs2)cc1
REMARK SMILES IDX 8 1 7 4 6 7 5 10 3 11 4 12 2 14 1 16 78 20 79 21 90 22 80 23
REMARK SMILES IDX 89 25 81 27 82 30 83 31 84 32 85 33 88 34 86 35 87 37 9 40
REMARK SMILES IDX 10 43 11 46 12 49 13 50 14 52 15 53 16 54 77 55 17 56 76 58
REMARK SMILES IDX 18 60 19 63 20 64 70 65 21 66 75 67 69 68 71 69 22 70 74 71
REMARK SMILES IDX 68 73 67 75 23 77 55 80 35 81 54 82 36 83 39 84 53 85 72 86
REMARK SMILES IDX 37 87 38 89 52 91 73 92 40 95 24 97 25 98 33 99 26 100
REMARK SMILES IDX 27 101 31 102 34 103 28 104 29 105 32 106 30 107 56 108
REMARK SMILES IDX 57 109 65 110 58 111 59 112 63 113 66 114 60 115 61 116
REMARK SMILES IDX 64 117 62 118 41 119 42 120 50 121 43 122 44 123 48 124
REMARK SMILES IDX 51 125 45 126 46 127 49 128 47 129
REMARK H PARENT 8 2 8 3 7 5 7 6 6 8 6 9 5 13 2 15 1 17 1 18 1 19 79 24 90 26
REMARK H PARENT 80 28 89 29 85 36 86 38 87 39 9 41 9 42 10 44 10 45 11 47
REMARK H PARENT 11 48 12 51 16 57 77 59 17 61 76 62 75 72 69 74 71 76 74 78
REMARK H PARENT 68 79 36 88 39 90 72 93 37 94 73 96
REMARK Flexibility Score: inf
ROOT
ATOM      1  C   UNL A   1      32.996  29.816  26.128  1.00  0.00    -0.052 C 
ATOM      2  H   UNL A   1      33.674  30.608  26.372  1.00  0.00     0.027 H 
ATOM      3  H   UNL A   1      32.871  29.104  26.917  1.00  0.00     0.027 H 
ENDROOT
BRANCH   1   4
ATOM      4  C   UNL A   1      33.580  29.039  24.939  1.00  0.00    -0.036 C 
ATOM      5  H   UNL A   1      32.953  29.206  24.089  1.00  0.00     0.028 H 
ATOM      6  H   UNL A   1      34.577  29.400  24.796  1.00  0.00     0.028 H 
BRANCH   4   7
ATOM      7  C   UNL A   1      33.688  27.529  25.167  1.00  0.00     0.017 C 
ATOM      8  H   UNL A   1      34.452  27.336  25.891  1.00  0.00     0.049 H 
ATOM      9  H   UNL A   1      32.746  27.164  25.521  1.00  0.00     0.049 H 
BRANCH   7  10
ATOM     10  N   UNL A   1      34.018  26.852  23.934  1.00  0.00    -0.356 N 
ATOM     11  C   UNL A   1      33.401  25.829  23.282  1.00  0.00     0.227 C 
ATOM     12  O   UNL A   1      34.006  25.390  22.301  1.00  0.00    -0.274 OA
ATOM     13  H   UNL A   1      34.830  27.187  23.491  1.00  0.00     0.163 HD
BRANCH  11  14
ATOM     14  C   UNL A   1      32.016  25.337  23.744  1.00  0.00     0.060 C 
ATOM     15  H   UNL A   1      32.156  25.255  24.801  1.00  0.00     0.045 H 
BRANCH  14  16
ATOM     16  C   UNL A   1      31.627  23.980  23.151  1.00  0.00    -0.049 C 
ATOM     17  H   UNL A   1      31.389  23.299  23.943  1.00  0.00     0.024 H 
ATOM     18  H   UNL A   1      32.444  23.591  22.581  1.00  0.00     0.024 H 
ATOM     19  H   UNL A   1      30.773  24.099  22.517  1.00  0.00     0.024 H 
ENDBRANCH  14  16
BRANCH  14  20
ATOM     20  C   UNL A   1      30.855  26.304  23.498  1.00  0.00    -0.036 A 
ATOM     21  C   UNL A   1      29.597  26.150  24.096  1.00  0.00    -0.058 A 
ATOM     22  C   UNL A   1      31.080  27.452  22.723  1.00  0.00    -0.058 A 
ATOM     23  C   UNL A   1      28.576  27.078  23.875  1.00  0.00    -0.051 A 
ATOM     24  H   UNL A   1      29.422  25.339  24.708  1.00  0.00     0.063 H 
ATOM     25  C   UNL A   1      30.072  28.406  22.536  1.00  0.00    -0.051 A 
ATOM     26  H   UNL A   1      32.002  27.597  22.284  1.00  0.00     0.063 H 
ATOM     27  C   UNL A   1      28.802  28.217  23.096  1.00  0.00     0.023 A 
ATOM     28  H   UNL A   1      27.646  26.920  24.292  1.00  0.00     0.063 H 
ATOM     29  H   UNL A   1      30.266  29.255  21.983  1.00  0.00     0.063 H 
BRANCH  27  30
ATOM     30  C   UNL A   1      27.678  29.202  22.954  1.00  0.00     0.202 C 
ATOM     31  O   UNL A   1      26.528  28.806  23.141  1.00  0.00    -0.288 OA
BRANCH  30  32
ATOM     32  C   UNL A   1      27.981  30.587  22.651  1.00  0.00     0.075 A 
ATOM     33  C   UNL A   1      28.278  31.634  23.501  1.00  0.00    -0.040 A 
ATOM     34  S   UNL A   1      28.028  31.067  21.010  1.00  0.00    -0.140 S 
ATOM     35  C   UNL A   1      28.487  32.855  22.794  1.00  0.00    -0.051 A 
ATOM     36  H   UNL A   1      28.341  31.545  24.527  1.00  0.00     0.064 H 
ATOM     37  C   UNL A   1      28.375  32.686  21.431  1.00  0.00    -0.009 A 
ATOM     38  H   UNL A   1      28.697  33.756  23.249  1.00  0.00     0.063 H 
ATOM     39  H   UNL A   1      28.490  33.450  20.746  1.00  0.00     0.074 H 
ENDBRANCH  30  32
ENDBRANCH  27  30
ENDBRANCH  14  20
ENDBRANCH  11  14
ENDBRANCH   7  10
ENDBRANCH   4   7
ENDBRANCH   1   4
BRANCH   1  40
ATOM     40  C   UNL A   1      31.615  30.432  25.885  1.00  0.00    -0.052 C 
ATOM     41  H   UNL A   1      30.880  29.773  26.297  1.00  0.00     0.027 H 
ATOM     42  H   UNL A   1      31.523  30.556  24.826  1.00  0.00     0.027 H 
BRANCH  40  43
ATOM     43  C   UNL A   1      31.414  31.816  26.501  1.00  0.00    -0.036 C 
ATOM     44  H   UNL A   1      30.654  31.742  27.251  1.00  0.00     0.028 H 
ATOM     45  H   UNL A   1      31.146  32.471  25.699  1.00  0.00     0.028 H 
BRANCH  43  46
ATOM     46  C   UNL A   1      32.663  32.406  27.146  1.00  0.00     0.018 C 
ATOM     47  H   UNL A   1      33.483  32.306  26.465  1.00  0.00     0.049 H 
ATOM     48  H   UNL A   1      32.847  31.873  28.056  1.00  0.00     0.049 H 
BRANCH  46  49
ATOM     49  N   UNL A   1      32.495  33.812  27.476  1.00  0.00    -0.352 N 
ATOM     50  C   UNL A   1      33.114  34.554  28.448  1.00  0.00     0.251 C 
ATOM     51  H   UNL A   1      31.844  34.301  26.921  1.00  0.00     0.163 HD
ATOM     52  O   UNL A   1      32.706  35.680  28.724  1.00  0.00    -0.269 OA
BRANCH  50  53
ATOM     53  C   UNL A   1      34.263  33.987  29.185  1.00  0.00     0.039 A 
ATOM     54  C   UNL A   1      34.019  33.146  30.272  1.00  0.00    -0.049 A 
ATOM     55  C   UNL A   1      35.576  34.281  28.803  1.00  0.00    -0.049 A 
ATOM     56  C   UNL A   1      35.091  32.546  30.935  1.00  0.00    -0.053 A 
ATOM     57  H   UNL A   1      33.051  32.969  30.583  1.00  0.00     0.063 H 
ATOM     58  C   UNL A   1      36.639  33.624  29.416  1.00  0.00    -0.053 A 
ATOM     59  H   UNL A   1      35.756  34.984  28.068  1.00  0.00     0.063 H 
ATOM     60  C   UNL A   1      36.407  32.748  30.487  1.00  0.00    -0.014 A 
ATOM     61  H   UNL A   1      34.915  31.951  31.760  1.00  0.00     0.063 H 
ATOM     62  H   UNL A   1      37.602  33.782  29.082  1.00  0.00     0.063 H 
BRANCH  60  63
ATOM     63  C   UNL A   1      37.547  32.032  31.116  1.00  0.00     0.031 A 
ATOM     64  C   UNL A   1      38.025  32.418  32.489  1.00  0.00     0.074 A 
ATOM     65  C   UNL A   1      38.190  31.072  30.422  1.00  0.00     0.049 A 
ATOM     66  N   UNL A   1      39.036  31.948  33.174  1.00  0.00    -0.248 NA
ATOM     67  C   UNL A   1      37.282  33.487  33.175  1.00  0.00    -0.034 C 
ATOM     68  C   UNL A   1      37.851  30.641  29.063  1.00  0.00    -0.036 A 
ATOM     69  N   UNL A   1      39.268  30.291  30.755  1.00  0.00    -0.354 N 
ATOM     70  C   UNL A   1      39.058  32.669  34.361  1.00  0.00     0.074 A 
ATOM     71  C   UNL A   1      37.990  33.641  34.285  1.00  0.00    -0.034 C 
ATOM     72  H   UNL A   1      36.432  33.987  32.871  1.00  0.00     0.065 H 
ATOM     73  C   UNL A   1      38.689  29.661  28.690  1.00  0.00    -0.036 A 
ATOM     74  H   UNL A   1      37.090  31.030  28.485  1.00  0.00     0.065 H 
ATOM     75  C   UNL A   1      39.651  29.424  29.761  1.00  0.00     0.049 A 
ATOM     76  H   UNL A   1      39.725  30.346  31.627  1.00  0.00     0.167 HD
ATOM     77  C   UNL A   1      39.882  32.517  35.425  1.00  0.00     0.037 A 
ATOM     78  H   UNL A   1      37.804  34.361  35.001  1.00  0.00     0.065 H 
ATOM     79  H   UNL A   1      38.657  29.156  27.791  1.00  0.00     0.065 H 
ATOM     80  C   UNL A   1      40.672  28.546  29.712  1.00  0.00     0.037 A 
ATOM     81  C   UNL A   1      40.927  31.531  35.507  1.00  0.00     0.049 A 
ATOM     82  C   UNL A   1      41.580  28.413  30.906  1.00  0.00     0.074 A 
ATOM     83  C   UNL A   1      41.770  31.255  36.569  1.00  0.00    -0.036 A 
ATOM     84  N   UNL A   1      41.278  30.662  34.484  1.00  0.00    -0.354 N 
ATOM     85  N   UNL A   1      41.539  29.045  32.053  1.00  0.00    -0.248 NA
ATOM     86  C   UNL A   1      42.676  27.440  30.799  1.00  0.00    -0.034 C 
ATOM     87  C   UNL A   1      42.669  30.263  36.169  1.00  0.00    -0.036 A 
ATOM     88  H   UNL A   1      41.740  31.704  37.498  1.00  0.00     0.065 H 
ATOM     89  C   UNL A   1      42.346  29.873  34.880  1.00  0.00     0.049 A 
ATOM     90  H   UNL A   1      40.834  30.614  33.606  1.00  0.00     0.167 HD
ATOM     91  C   UNL A   1      42.577  28.524  32.814  1.00  0.00     0.074 A 
ATOM     92  C   UNL A   1      43.218  27.509  32.005  1.00  0.00    -0.034 C 
ATOM     93  H   UNL A   1      42.951  26.854  29.995  1.00  0.00     0.065 H 
ATOM     94  H   UNL A   1      43.443  29.884  36.738  1.00  0.00     0.065 H 
ATOM     95  C   UNL A   1      42.966  28.858  34.068  1.00  0.00     0.037 A 
ATOM     96  H   UNL A   1      43.998  26.916  32.328  1.00  0.00     0.065 H 
BRANCH  77  97
ATOM     97  C   UNL A   1      39.692  33.433  36.599  1.00  0.00     0.064 A 
ATOM     98  C   UNL A   1      40.317  34.688  36.664  1.00  0.00     0.173 A 
ATOM     99  C   UNL A   1      38.811  33.086  37.635  1.00  0.00     0.173 A 
ATOM    100  F   UNL A   1      41.177  35.065  35.706  1.00  0.00    -0.203 F 
ATOM    101  C   UNL A   1      40.079  35.553  37.729  1.00  0.00     0.198 A 
ATOM    102  C   UNL A   1      38.551  33.967  38.682  1.00  0.00     0.198 A 
ATOM    103  F   UNL A   1      38.182  31.901  37.619  1.00  0.00    -0.203 F 
ATOM    104  F   UNL A   1      40.714  36.732  37.787  1.00  0.00    -0.200 F 
ATOM    105  C   UNL A   1      39.188  35.197  38.731  1.00  0.00     0.200 A 
ATOM    106  F   UNL A   1      37.677  33.627  39.639  1.00  0.00    -0.200 F 
ATOM    107  F   UNL A   1      38.944  36.039  39.744  1.00  0.00    -0.200 F 
ENDBRANCH  77  97
BRANCH  80 108
ATOM    108  C   UNL A   1      40.897  27.721  28.494  1.00  0.00     0.064 A 
ATOM    109  C   UNL A   1      41.762  28.151  27.478  1.00  0.00     0.173 A 
ATOM    110  C   UNL A   1      40.220  26.507  28.301  1.00  0.00     0.173 A 
ATOM    111  F   UNL A   1      42.418  29.314  27.605  1.00  0.00    -0.203 F 
ATOM    112  C   UNL A   1      41.913  27.419  26.301  1.00  0.00     0.198 A 
ATOM    113  C   UNL A   1      40.399  25.758  27.139  1.00  0.00     0.198 A 
ATOM    114  F   UNL A   1      39.385  26.046  29.243  1.00  0.00    -0.203 F 
ATOM    115  F   UNL A   1      42.693  27.889  25.319  1.00  0.00    -0.200 F 
ATOM    116  C   UNL A   1      41.235  26.222  26.135  1.00  0.00     0.200 A 
ATOM    117  F   UNL A   1      39.755  24.593  26.991  1.00  0.00    -0.200 F 
ATOM    118  F   UNL A   1      41.375  25.521  25.002  1.00  0.00    -0.200 F 
ENDBRANCH  80 108
BRANCH  95 119
ATOM    119  C   UNL A   1      44.113  28.091  34.661  1.00  0.00     0.064 A 
ATOM    120  C   UNL A   1      43.918  26.889  35.358  1.00  0.00     0.173 A 
ATOM    121  C   UNL A   1      45.431  28.547  34.499  1.00  0.00     0.173 A 
ATOM    122  F   UNL A   1      42.677  26.416  35.553  1.00  0.00    -0.203 F 
ATOM    123  C   UNL A   1      44.994  26.190  35.897  1.00  0.00     0.198 A 
ATOM    124  C   UNL A   1      46.508  27.827  35.008  1.00  0.00     0.198 A 
ATOM    125  F   UNL A   1      45.675  29.686  33.834  1.00  0.00    -0.203 F 
ATOM    126  F   UNL A   1      44.778  25.073  36.607  1.00  0.00    -0.200 F 
ATOM    127  C   UNL A   1      46.289  26.654  35.714  1.00  0.00     0.200 A 
ATOM    128  F   UNL A   1      47.759  28.269  34.814  1.00  0.00    -0.200 F 
ATOM    129  F   UNL A   1      47.324  25.976  36.227  1.00  0.00    -0.200 F 
ENDBRANCH  95 119
ENDBRANCH  60  63
ENDBRANCH  50  53
ENDBRANCH  46  49
ENDBRANCH  43  46
ENDBRANCH  40  43
ENDBRANCH   1  40
TORSDOF 17
ENDMDL
MODEL 4
REMARK VINA RESULT:     -12.0      6.079     11.547
REMARK SMILES C[C@@H](C(=O)NCCCCCCNC(=O)c1ccc(-c2c3nc(c(-c4c(F)c(F)c(F)c(F)c4F)c4ccc([nH]4)c(-c4c(F)c(F)c(F)c(F)c4F)c4nc(c(-c5c(F)c(F)c(F)c(F)c5F)c5ccc2[nH]5)C=C4)C=C3)cc1)c1ccc(C(=O)c2cccs2)cc1
REMARK SMILES IDX 8 1 7 4 6 7 5 10 3 11 4 12 2 14 1 16 78 20 79 21 90 22 80 23
REMARK SMILES IDX 89 25 81 27 82 30 83 31 84 32 85 33 88 34 86 35 87 37 9 40
REMARK SMILES IDX 10 43 11 46 12 49 13 50 14 52 15 53 16 54 77 55 17 56 76 58
REMARK SMILES IDX 18 60 19 63 20 64 70 65 21 66 75 67 69 68 71 69 22 70 74 71
REMARK SMILES IDX 68 73 67 75 23 77 55 80 35 81 54 82 36 83 39 84 53 85 72 86
REMARK SMILES IDX 37 87 38 89 52 91 73 92 40 95 24 97 25 98 33 99 26 100
REMARK SMILES IDX 27 101 31 102 34 103 28 104 29 105 32 106 30 107 56 108
REMARK SMILES IDX 57 109 65 110 58 111 59 112 63 113 66 114 60 115 61 116
REMARK SMILES IDX 64 117 62 118 41 119 42 120 50 121 43 122 44 123 48 124
REMARK SMILES IDX 51 125 45 126 46 127 49 128 47 129
REMARK H PARENT 8 2 8 3 7 5 7 6 6 8 6 9 5 13 2 15 1 17 1 18 1 19 79 24 90 26
REMARK H PARENT 80 28 89 29 85 36 86 38 87 39 9 41 9 42 10 44 10 45 11 47
REMARK H PARENT 11 48 12 51 16 57 77 59 17 61 76 62 75 72 69 74 71 76 74 78
REMARK H PARENT 68 79 36 88 39 90 72 93 37 94 73 96
REMARK Flexibility Score: inf
ROOT
ATOM      1  C   UNL A   1      36.776  22.232  24.734  1.00  0.00    -0.052 C 
ATOM      2  H   UNL A   1      37.818  22.459  24.639  1.00  0.00     0.027 H 
ATOM      3  H   UNL A   1      36.219  22.402  23.836  1.00  0.00     0.027 H 
ENDROOT
BRANCH   1   4
ATOM      4  C   UNL A   1      36.178  23.170  25.792  1.00  0.00    -0.036 C 
ATOM      5  H   UNL A   1      35.662  22.574  26.515  1.00  0.00     0.028 H 
ATOM      6  H   UNL A   1      36.995  23.718  26.213  1.00  0.00     0.028 H 
BRANCH   4   7
ATOM      7  C   UNL A   1      35.197  24.203  25.233  1.00  0.00     0.017 C 
ATOM      8  H   UNL A   1      35.686  25.153  25.167  1.00  0.00     0.049 H 
ATOM      9  H   UNL A   1      34.875  23.887  24.263  1.00  0.00     0.049 H 
BRANCH   7  10
ATOM     10  N   UNL A   1      34.042  24.323  26.094  1.00  0.00    -0.356 N 
ATOM     11  C   UNL A   1      32.710  24.305  25.811  1.00  0.00     0.227 C 
ATOM     12  O   UNL A   1      31.968  24.555  26.763  1.00  0.00    -0.274 OA
ATOM     13  H   UNL A   1      34.254  24.439  27.047  1.00  0.00     0.163 HD
BRANCH  11  14
ATOM     14  C   UNL A   1      32.222  23.931  24.398  1.00  0.00     0.060 C 
ATOM     15  H   UNL A   1      32.938  24.431  23.781  1.00  0.00     0.045 H 
BRANCH  14  16
ATOM     16  C   UNL A   1      30.809  24.437  24.093  1.00  0.00    -0.049 C 
ATOM     17  H   UNL A   1      30.538  25.189  24.805  1.00  0.00     0.024 H 
ATOM     18  H   UNL A   1      30.117  23.623  24.154  1.00  0.00     0.024 H 
ATOM     19  H   UNL A   1      30.785  24.854  23.108  1.00  0.00     0.024 H 
ENDBRANCH  14  16
BRANCH  14  20
ATOM     20  C   UNL A   1      32.267  22.440  24.056  1.00  0.00    -0.036 A 
ATOM     21  C   UNL A   1      32.094  21.952  22.754  1.00  0.00    -0.058 A 
ATOM     22  C   UNL A   1      32.598  21.521  25.064  1.00  0.00    -0.058 A 
ATOM     23  C   UNL A   1      32.182  20.586  22.479  1.00  0.00    -0.051 A 
ATOM     24  H   UNL A   1      31.897  22.613  21.987  1.00  0.00     0.063 H 
ATOM     25  C   UNL A   1      32.731  20.156  24.782  1.00  0.00    -0.051 A 
ATOM     26  H   UNL A   1      32.747  21.856  26.029  1.00  0.00     0.063 H 
ATOM     27  C   UNL A   1      32.504  19.672  23.487  1.00  0.00     0.023 A 
ATOM     28  H   UNL A   1      32.008  20.247  21.519  1.00  0.00     0.063 H 
ATOM     29  H   UNL A   1      32.998  19.501  25.533  1.00  0.00     0.063 H 
BRANCH  27  30
ATOM     30  C   UNL A   1      32.644  18.227  23.105  1.00  0.00     0.202 C 
ATOM     31  O   UNL A   1      32.152  17.856  22.040  1.00  0.00    -0.288 OA
BRANCH  30  32
ATOM     32  C   UNL A   1      33.388  17.333  23.970  1.00  0.00     0.075 A 
ATOM     33  C   UNL A   1      34.751  17.145  24.087  1.00  0.00    -0.040 A 
ATOM     34  S   UNL A   1      32.514  16.349  25.063  1.00  0.00    -0.140 S 
ATOM     35  C   UNL A   1      35.073  16.139  25.045  1.00  0.00    -0.051 A 
ATOM     36  H   UNL A   1      35.455  17.671  23.545  1.00  0.00     0.064 H 
ATOM     37  C   UNL A   1      33.947  15.621  25.646  1.00  0.00    -0.009 A 
ATOM     38  H   UNL A   1      36.035  15.836  25.262  1.00  0.00     0.063 H 
ATOM     39  H   UNL A   1      33.968  14.880  26.365  1.00  0.00     0.074 H 
ENDBRANCH  30  32
ENDBRANCH  27  30
ENDBRANCH  14  20
ENDBRANCH  11  14
ENDBRANCH   7  10
ENDBRANCH   4   7
ENDBRANCH   1   4
BRANCH   1  40
ATOM     40  C   UNL A   1      36.642  20.738  25.042  1.00  0.00    -0.052 C 
ATOM     41  H   UNL A   1      35.879  20.334  24.410  1.00  0.00     0.027 H 
ATOM     42  H   UNL A   1      36.408  20.665  26.083  1.00  0.00     0.027 H 
BRANCH  40  43
ATOM     43  C   UNL A   1      37.918  19.923  24.828  1.00  0.00    -0.036 C 
ATOM     44  H   UNL A   1      38.234  20.056  23.815  1.00  0.00     0.028 H 
ATOM     45  H   UNL A   1      37.674  18.907  25.058  1.00  0.00     0.028 H 
BRANCH  43  46
ATOM     46  C   UNL A   1      39.074  20.311  25.743  1.00  0.00     0.018 C 
ATOM     47  H   UNL A   1      38.682  20.551  26.710  1.00  0.00     0.049 H 
ATOM     48  H   UNL A   1      39.571  21.153  25.307  1.00  0.00     0.049 H 
BRANCH  46  49
ATOM     49  N   UNL A   1      40.044  19.238  25.882  1.00  0.00    -0.352 N 
ATOM     50  C   UNL A   1      41.400  19.315  26.075  1.00  0.00     0.251 C 
ATOM     51  H   UNL A   1      39.676  18.326  25.830  1.00  0.00     0.163 HD
ATOM     52  O   UNL A   1      42.100  18.311  25.966  1.00  0.00    -0.269 OA
BRANCH  50  53
ATOM     53  C   UNL A   1      42.024  20.617  26.392  1.00  0.00     0.039 A 
ATOM     54  C   UNL A   1      42.430  21.444  25.343  1.00  0.00    -0.049 A 
ATOM     55  C   UNL A   1      42.205  21.022  27.718  1.00  0.00    -0.049 A 
ATOM     56  C   UNL A   1      42.956  22.706  25.622  1.00  0.00    -0.053 A 
ATOM     57  H   UNL A   1      42.340  21.123  24.366  1.00  0.00     0.063 H 
ATOM     58  C   UNL A   1      42.660  22.308  27.993  1.00  0.00    -0.053 A 
ATOM     59  H   UNL A   1      42.003  20.368  28.491  1.00  0.00     0.063 H 
ATOM     60  C   UNL A   1      43.037  23.164  26.948  1.00  0.00    -0.014 A 
ATOM     61  H   UNL A   1      43.287  23.305  24.850  1.00  0.00     0.063 H 
ATOM     62  H   UNL A   1      42.720  22.634  28.970  1.00  0.00     0.063 H 
BRANCH  60  63
ATOM     63  C   UNL A   1      43.496  24.545  27.253  1.00  0.00     0.031 A 
ATOM     64  C   UNL A   1      42.530  25.568  27.784  1.00  0.00     0.074 A 
ATOM     65  C   UNL A   1      44.773  24.890  26.993  1.00  0.00     0.049 A 
ATOM     66  N   UNL A   1      42.732  26.833  28.054  1.00  0.00    -0.248 NA
ATOM     67  C   UNL A   1      41.150  25.117  28.024  1.00  0.00    -0.034 C 
ATOM     68  C   UNL A   1      45.792  24.000  26.432  1.00  0.00    -0.036 A 
ATOM     69  N   UNL A   1      45.431  26.084  27.155  1.00  0.00    -0.354 N 
ATOM     70  C   UNL A   1      41.508  27.330  28.482  1.00  0.00     0.074 A 
ATOM     71  C   UNL A   1      40.556  26.244  28.391  1.00  0.00    -0.034 C 
ATOM     72  H   UNL A   1      40.748  24.171  27.931  1.00  0.00     0.065 H 
ATOM     73  C   UNL A   1      46.949  24.671  26.318  1.00  0.00    -0.036 A 
ATOM     74  H   UNL A   1      45.643  23.014  26.167  1.00  0.00     0.065 H 
ATOM     75  C   UNL A   1      46.745  26.049  26.754  1.00  0.00     0.049 A 
ATOM     76  H   UNL A   1      45.002  26.890  27.525  1.00  0.00     0.167 HD
ATOM     77  C   UNL A   1      41.212  28.573  28.930  1.00  0.00     0.037 A 
ATOM     78  H   UNL A   1      39.546  26.336  28.587  1.00  0.00     0.065 H 
ATOM     79  H   UNL A   1      47.839  24.277  25.978  1.00  0.00     0.065 H 
ATOM     80  C   UNL A   1      47.676  27.022  26.727  1.00  0.00     0.037 A 
ATOM     81  C   UNL A   1      42.169  29.642  29.043  1.00  0.00     0.049 A 
ATOM     82  C   UNL A   1      47.310  28.399  27.217  1.00  0.00     0.074 A 
ATOM     83  C   UNL A   1      41.981  30.917  29.548  1.00  0.00    -0.036 A 
ATOM     84  N   UNL A   1      43.494  29.566  28.638  1.00  0.00    -0.354 N 
ATOM     85  N   UNL A   1      46.170  28.832  27.696  1.00  0.00    -0.248 NA
ATOM     86  C   UNL A   1      48.365  29.421  27.167  1.00  0.00    -0.034 C 
ATOM     87  C   UNL A   1      43.172  31.630  29.395  1.00  0.00    -0.036 A 
ATOM     88  H   UNL A   1      41.110  31.278  29.968  1.00  0.00     0.065 H 
ATOM     89  C   UNL A   1      44.124  30.781  28.853  1.00  0.00     0.049 A 
ATOM     90  H   UNL A   1      43.922  28.767  28.254  1.00  0.00     0.167 HD
ATOM     91  C   UNL A   1      46.379  30.163  28.034  1.00  0.00     0.074 A 
ATOM     92  C   UNL A   1      47.761  30.459  27.725  1.00  0.00    -0.034 C 
ATOM     93  H   UNL A   1      49.325  29.348  26.796  1.00  0.00     0.065 H 
ATOM     94  H   UNL A   1      43.319  32.621  29.643  1.00  0.00     0.065 H 
ATOM     95  C   UNL A   1      45.504  31.059  28.551  1.00  0.00     0.037 A 
ATOM     96  H   UNL A   1      48.218  31.365  27.915  1.00  0.00     0.065 H 
BRANCH  77  97
ATOM     97  C   UNL A   1      39.797  28.855  29.341  1.00  0.00     0.064 A 
ATOM     98  C   UNL A   1      38.841  29.318  28.423  1.00  0.00     0.173 A 
ATOM     99  C   UNL A   1      39.370  28.583  30.651  1.00  0.00     0.173 A 
ATOM    100  F   UNL A   1      39.197  29.603  27.163  1.00  0.00    -0.203 F 
ATOM    101  C   UNL A   1      37.516  29.512  28.806  1.00  0.00     0.198 A 
ATOM    102  C   UNL A   1      38.037  28.749  31.021  1.00  0.00     0.198 A 
ATOM    103  F   UNL A   1      40.241  28.133  31.566  1.00  0.00    -0.203 F 
ATOM    104  F   UNL A   1      36.628  29.988  27.922  1.00  0.00    -0.200 F 
ATOM    105  C   UNL A   1      37.113  29.217  30.100  1.00  0.00     0.200 A 
ATOM    106  F   UNL A   1      37.648  28.448  32.267  1.00  0.00    -0.200 F 
ATOM    107  F   UNL A   1      35.833  29.386  30.460  1.00  0.00    -0.200 F 
ENDBRANCH  77  97
BRANCH  80 108
ATOM    108  C   UNL A   1      49.046  26.738  26.220  1.00  0.00     0.064 A 
ATOM    109  C   UNL A   1      49.400  27.021  24.893  1.00  0.00     0.173 A 
ATOM    110  C   UNL A   1      50.017  26.139  27.038  1.00  0.00     0.173 A 
ATOM    111  F   UNL A   1      48.501  27.574  24.064  1.00  0.00    -0.203 F 
ATOM    112  C   UNL A   1      50.656  26.682  24.393  1.00  0.00     0.198 A 
ATOM    113  C   UNL A   1      51.285  25.835  26.547  1.00  0.00     0.198 A 
ATOM    114  F   UNL A   1      49.734  25.854  28.317  1.00  0.00    -0.203 F 
ATOM    115  F   UNL A   1      50.942  26.901  23.103  1.00  0.00    -0.200 F 
ATOM    116  C   UNL A   1      51.598  26.093  25.221  1.00  0.00     0.200 A 
ATOM    117  F   UNL A   1      52.198  25.282  27.357  1.00  0.00    -0.200 F 
ATOM    118  F   UNL A   1      52.804  25.763  24.740  1.00  0.00    -0.200 F 
ENDBRANCH  80 108
BRANCH  95 119
ATOM    119  C   UNL A   1      46.025  32.434  28.856  1.00  0.00     0.064 A 
ATOM    120  C   UNL A   1      46.613  32.746  30.090  1.00  0.00     0.173 A 
ATOM    121  C   UNL A   1      45.967  33.445  27.884  1.00  0.00     0.173 A 
ATOM    122  F   UNL A   1      46.680  31.819  31.059  1.00  0.00    -0.203 F 
ATOM    123  C   UNL A   1      47.094  34.026  30.353  1.00  0.00     0.198 A 
ATOM    124  C   UNL A   1      46.482  34.714  28.136  1.00  0.00     0.198 A 
ATOM    125  F   UNL A   1      45.423  33.199  26.683  1.00  0.00    -0.203 F 
ATOM    126  F   UNL A   1      47.601  34.315  31.560  1.00  0.00    -0.200 F 
ATOM    127  C   UNL A   1      47.037  35.006  29.373  1.00  0.00     0.200 A 
ATOM    128  F   UNL A   1      46.442  35.654  27.181  1.00  0.00    -0.200 F 
ATOM    129  F   UNL A   1      47.508  36.235  29.624  1.00  0.00    -0.200 F 
ENDBRANCH  95 119
ENDBRANCH  60  63
ENDBRANCH  50  53
ENDBRANCH  46  49
ENDBRANCH  43  46
ENDBRANCH  40  43
ENDBRANCH   1  40
TORSDOF 17
ENDMDL
MODEL 5
REMARK VINA RESULT:     -11.9      0.828      7.422
REMARK SMILES C[C@@H](C(=O)NCCCCCCNC(=O)c1ccc(-c2c3nc(c(-c4c(F)c(F)c(F)c(F)c4F)c4ccc([nH]4)c(-c4c(F)c(F)c(F)c(F)c4F)c4nc(c(-c5c(F)c(F)c(F)c(F)c5F)c5ccc2[nH]5)C=C4)C=C3)cc1)c1ccc(C(=O)c2cccs2)cc1
REMARK SMILES IDX 8 1 7 4 6 7 5 10 3 11 4 12 2 14 1 16 78 20 79 21 90 22 80 23
REMARK SMILES IDX 89 25 81 27 82 30 83 31 84 32 85 33 88 34 86 35 87 37 9 40
REMARK SMILES IDX 10 43 11 46 12 49 13 50 14 52 15 53 16 54 77 55 17 56 76 58
REMARK SMILES IDX 18 60 19 63 20 64 70 65 21 66 75 67 69 68 71 69 22 70 74 71
REMARK SMILES IDX 68 73 67 75 23 77 55 80 35 81 54 82 36 83 39 84 53 85 72 86
REMARK SMILES IDX 37 87 38 89 52 91 73 92 40 95 24 97 25 98 33 99 26 100
REMARK SMILES IDX 27 101 31 102 34 103 28 104 29 105 32 106 30 107 56 108
REMARK SMILES IDX 57 109 65 110 58 111 59 112 63 113 66 114 60 115 61 116
REMARK SMILES IDX 64 117 62 118 41 119 42 120 50 121 43 122 44 123 48 124
REMARK SMILES IDX 51 125 45 126 46 127 49 128 47 129
REMARK H PARENT 8 2 8 3 7 5 7 6 6 8 6 9 5 13 2 15 1 17 1 18 1 19 79 24 90 26
REMARK H PARENT 80 28 89 29 85 36 86 38 87 39 9 41 9 42 10 44 10 45 11 47
REMARK H PARENT 11 48 12 51 16 57 77 59 17 61 76 62 75 72 69 74 71 76 74 78
REMARK H PARENT 68 79 36 88 39 90 72 93 37 94 73 96
REMARK Flexibility Score: inf
ROOT
ATOM      1  C   UNL A   1      31.911  29.396  27.238  1.00  0.00    -0.052 C 
ATOM      2  H   UNL A   1      32.921  29.601  27.524  1.00  0.00     0.027 H 
ATOM      3  H   UNL A   1      31.201  29.576  28.019  1.00  0.00     0.027 H 
ENDROOT
BRANCH   1   4
ATOM      4  C   UNL A   1      31.805  27.901  26.902  1.00  0.00    -0.036 C 
ATOM      5  H   UNL A   1      31.741  27.355  27.820  1.00  0.00     0.028 H 
ATOM      6  H   UNL A   1      30.936  27.784  26.289  1.00  0.00     0.028 H 
BRANCH   4   7
ATOM      7  C   UNL A   1      32.987  27.353  26.098  1.00  0.00     0.017 C 
ATOM      8  H   UNL A   1      32.912  27.692  25.086  1.00  0.00     0.049 H 
ATOM      9  H   UNL A   1      33.897  27.702  26.538  1.00  0.00     0.049 H 
BRANCH   7  10
ATOM     10  N   UNL A   1      32.985  25.907  26.116  1.00  0.00    -0.356 N 
ATOM     11  C   UNL A   1      32.618  25.001  25.168  1.00  0.00     0.227 C 
ATOM     12  O   UNL A   1      32.620  23.825  25.538  1.00  0.00    -0.274 OA
ATOM     13  H   UNL A   1      33.302  25.510  26.959  1.00  0.00     0.163 HD
BRANCH  11  14
ATOM     14  C   UNL A   1      32.293  25.465  23.735  1.00  0.00     0.060 C 
ATOM     15  H   UNL A   1      32.008  24.546  23.269  1.00  0.00     0.045 H 
BRANCH  14  16
ATOM     16  C   UNL A   1      33.493  26.081  23.012  1.00  0.00    -0.049 C 
ATOM     17  H   UNL A   1      34.264  25.345  22.909  1.00  0.00     0.024 H 
ATOM     18  H   UNL A   1      33.866  26.909  23.579  1.00  0.00     0.024 H 
ATOM     19  H   UNL A   1      33.191  26.419  22.043  1.00  0.00     0.024 H 
ENDBRANCH  14  16
BRANCH  14  20
ATOM     20  C   UNL A   1      31.120  26.440  23.607  1.00  0.00    -0.036 A 
ATOM     21  C   UNL A   1      31.233  27.687  22.977  1.00  0.00    -0.058 A 
ATOM     22  C   UNL A   1      29.849  26.037  24.045  1.00  0.00    -0.058 A 
ATOM     23  C   UNL A   1      30.128  28.531  22.847  1.00  0.00    -0.051 A 
ATOM     24  H   UNL A   1      32.147  27.986  22.604  1.00  0.00     0.063 H 
ATOM     25  C   UNL A   1      28.731  26.863  23.876  1.00  0.00    -0.051 A 
ATOM     26  H   UNL A   1      29.736  25.117  24.499  1.00  0.00     0.063 H 
ATOM     27  C   UNL A   1      28.864  28.129  23.291  1.00  0.00     0.023 A 
ATOM     28  H   UNL A   1      30.245  29.462  22.417  1.00  0.00     0.063 H 
ATOM     29  H   UNL A   1      27.802  26.536  24.183  1.00  0.00     0.063 H 
BRANCH  27  30
ATOM     30  C   UNL A   1      27.711  29.061  23.061  1.00  0.00     0.202 C 
ATOM     31  O   UNL A   1      26.571  28.630  23.227  1.00  0.00    -0.288 OA
BRANCH  30  32
ATOM     32  C   UNL A   1      27.973  30.439  22.698  1.00  0.00     0.075 A 
ATOM     33  C   UNL A   1      28.223  31.534  23.503  1.00  0.00    -0.040 A 
ATOM     34  S   UNL A   1      28.029  30.846  21.038  1.00  0.00    -0.140 S 
ATOM     35  C   UNL A   1      28.403  32.727  22.743  1.00  0.00    -0.051 A 
ATOM     36  H   UNL A   1      28.274  31.493  24.533  1.00  0.00     0.064 H 
ATOM     37  C   UNL A   1      28.317  32.494  21.389  1.00  0.00    -0.009 A 
ATOM     38  H   UNL A   1      28.577  33.655  23.160  1.00  0.00     0.063 H 
ATOM     39  H   UNL A   1      28.417  33.229  20.671  1.00  0.00     0.074 H 
ENDBRANCH  30  32
ENDBRANCH  27  30
ENDBRANCH  14  20
ENDBRANCH  11  14
ENDBRANCH   7  10
ENDBRANCH   4   7
ENDBRANCH   1   4
BRANCH   1  40
ATOM     40  C   UNL A   1      31.537  30.345  26.096  1.00  0.00    -0.052 C 
ATOM     41  H   UNL A   1      30.602  30.024  25.688  1.00  0.00     0.027 H 
ATOM     42  H   UNL A   1      32.342  30.298  25.391  1.00  0.00     0.027 H 
BRANCH  40  43
ATOM     43  C   UNL A   1      31.403  31.813  26.501  1.00  0.00    -0.036 C 
ATOM     44  H   UNL A   1      30.652  31.883  27.259  1.00  0.00     0.028 H 
ATOM     45  H   UNL A   1      31.151  32.353  25.613  1.00  0.00     0.028 H 
BRANCH  43  46
ATOM     46  C   UNL A   1      32.685  32.437  27.041  1.00  0.00     0.018 C 
ATOM     47  H   UNL A   1      33.441  32.379  26.286  1.00  0.00     0.049 H 
ATOM     48  H   UNL A   1      32.971  31.894  27.918  1.00  0.00     0.049 H 
BRANCH  46  49
ATOM     49  N   UNL A   1      32.499  33.829  27.415  1.00  0.00    -0.352 N 
ATOM     50  C   UNL A   1      33.101  34.545  28.417  1.00  0.00     0.251 C 
ATOM     51  H   UNL A   1      31.848  34.329  26.871  1.00  0.00     0.163 HD
ATOM     52  O   UNL A   1      32.678  35.657  28.726  1.00  0.00    -0.269 OA
BRANCH  50  53
ATOM     53  C   UNL A   1      34.250  33.967  29.146  1.00  0.00     0.039 A 
ATOM     54  C   UNL A   1      34.005  33.112  30.223  1.00  0.00    -0.049 A 
ATOM     55  C   UNL A   1      35.563  34.262  28.766  1.00  0.00    -0.049 A 
ATOM     56  C   UNL A   1      35.076  32.501  30.877  1.00  0.00    -0.053 A 
ATOM     57  H   UNL A   1      33.036  32.934  30.532  1.00  0.00     0.063 H 
ATOM     58  C   UNL A   1      36.625  33.595  29.370  1.00  0.00    -0.053 A 
ATOM     59  H   UNL A   1      35.744  34.974  28.040  1.00  0.00     0.063 H 
ATOM     60  C   UNL A   1      36.392  32.706  30.431  1.00  0.00    -0.014 A 
ATOM     61  H   UNL A   1      34.899  31.896  31.694  1.00  0.00     0.063 H 
ATOM     62  H   UNL A   1      37.588  33.756  29.038  1.00  0.00     0.063 H 
BRANCH  60  63
ATOM     63  C   UNL A   1      37.531  31.980  31.049  1.00  0.00     0.031 A 
ATOM     64  C   UNL A   1      38.001  32.338  32.432  1.00  0.00     0.074 A 
ATOM     65  C   UNL A   1      38.179  31.036  30.338  1.00  0.00     0.049 A 
ATOM     66  N   UNL A   1      39.011  31.855  33.112  1.00  0.00    -0.248 NA
ATOM     67  C   UNL A   1      37.252  33.390  33.137  1.00  0.00    -0.034 C 
ATOM     68  C   UNL A   1      37.848  30.634  28.968  1.00  0.00    -0.036 A 
ATOM     69  N   UNL A   1      39.258  30.251  30.659  1.00  0.00    -0.354 N 
ATOM     70  C   UNL A   1      39.025  32.551  34.314  1.00  0.00     0.074 A 
ATOM     71  C   UNL A   1      37.955  33.522  34.254  1.00  0.00    -0.034 C 
ATOM     72  H   UNL A   1      36.402  33.894  32.841  1.00  0.00     0.065 H 
ATOM     73  C   UNL A   1      38.690  29.664  28.578  1.00  0.00    -0.036 A 
ATOM     74  H   UNL A   1      37.088  31.033  28.396  1.00  0.00     0.065 H 
ATOM     75  C   UNL A   1      39.648  29.406  29.649  1.00  0.00     0.049 A 
ATOM     76  H   UNL A   1      39.710  30.289  31.534  1.00  0.00     0.167 HD
ATOM     77  C   UNL A   1      39.845  32.379  35.379  1.00  0.00     0.037 A 
ATOM     78  H   UNL A   1      37.764  34.226  34.984  1.00  0.00     0.065 H 
ATOM     79  H   UNL A   1      38.663  29.179  27.668  1.00  0.00     0.065 H 
ATOM     80  C   UNL A   1      40.671  28.533  29.586  1.00  0.00     0.037 A 
ATOM     81  C   UNL A   1      40.892  31.393  35.444  1.00  0.00     0.049 A 
ATOM     82  C   UNL A   1      41.574  28.377  30.781  1.00  0.00     0.074 A 
ATOM     83  C   UNL A   1      41.731  31.097  36.504  1.00  0.00    -0.036 A 
ATOM     84  N   UNL A   1      41.250  30.547  34.404  1.00  0.00    -0.354 N 
ATOM     85  N   UNL A   1      41.526  28.983  31.941  1.00  0.00    -0.248 NA
ATOM     86  C   UNL A   1      42.673  27.408  30.658  1.00  0.00    -0.034 C 
ATOM     87  C   UNL A   1      42.634  30.116  36.087  1.00  0.00    -0.036 A 
ATOM     88  H   UNL A   1      41.695  31.526  37.442  1.00  0.00     0.065 H 
ATOM     89  C   UNL A   1      42.317  29.753  34.789  1.00  0.00     0.049 A 
ATOM     90  H   UNL A   1      40.810  30.517  33.524  1.00  0.00     0.167 HD
ATOM     91  C   UNL A   1      42.562  28.449  32.696  1.00  0.00     0.074 A 
ATOM     92  C   UNL A   1      43.209  27.453  31.868  1.00  0.00    -0.034 C 
ATOM     93  H   UNL A   1      42.953  26.841  29.843  1.00  0.00     0.065 H 
ATOM     94  H   UNL A   1      43.406  29.727  36.652  1.00  0.00     0.065 H 
ATOM     95  C   UNL A   1      42.944  28.757  33.958  1.00  0.00     0.037 A 
ATOM     96  H   UNL A   1      43.989  26.855  32.182  1.00  0.00     0.065 H 
BRANCH  77  97
ATOM     97  C   UNL A   1      39.647  33.269  36.571  1.00  0.00     0.064 A 
ATOM     98  C   UNL A   1      38.766  32.927  37.609  1.00  0.00     0.173 A 
ATOM     99  C   UNL A   1      40.408  34.439  36.717  1.00  0.00     0.173 A 
ATOM    100  F   UNL A   1      38.007  31.825  37.515  1.00  0.00    -0.203 F 
ATOM    101  C   UNL A   1      38.643  33.731  38.739  1.00  0.00     0.198 A 
ATOM    102  C   UNL A   1      40.305  35.224  37.863  1.00  0.00     0.198 A 
ATOM    103  F   UNL A   1      41.270  34.809  35.758  1.00  0.00    -0.203 F 
ATOM    104  F   UNL A   1      37.770  33.403  39.701  1.00  0.00    -0.200 F 
ATOM    105  C   UNL A   1      39.421  34.872  38.871  1.00  0.00     0.200 A 
ATOM    106  F   UNL A   1      41.070  36.317  37.995  1.00  0.00    -0.200 F 
ATOM    107  F   UNL A   1      39.316  35.633  39.968  1.00  0.00    -0.200 F 
ENDBRANCH  77  97
BRANCH  80 108
ATOM    108  C   UNL A   1      40.904  27.734  28.351  1.00  0.00     0.064 A 
ATOM    109  C   UNL A   1      40.331  26.464  28.193  1.00  0.00     0.173 A 
ATOM    110  C   UNL A   1      41.736  28.204  27.324  1.00  0.00     0.173 A 
ATOM    111  F   UNL A   1      39.544  25.959  29.156  1.00  0.00    -0.203 F 
ATOM    112  C   UNL A   1      40.611  25.680  27.075  1.00  0.00     0.198 A 
ATOM    113  C   UNL A   1      41.986  27.435  26.190  1.00  0.00     0.198 A 
ATOM    114  F   UNL A   1      42.304  29.415  27.421  1.00  0.00    -0.203 F 
ATOM    115  F   UNL A   1      40.105  24.443  26.984  1.00  0.00    -0.200 F 
ATOM    116  C   UNL A   1      41.435  26.168  26.073  1.00  0.00     0.200 A 
ATOM    117  F   UNL A   1      42.769  27.918  25.215  1.00  0.00    -0.200 F 
ATOM    118  F   UNL A   1      41.709  25.413  25.000  1.00  0.00    -0.200 F 
ENDBRANCH  80 108
BRANCH  95 119
ATOM    119  C   UNL A   1      44.091  27.980  34.540  1.00  0.00     0.064 A 
ATOM    120  C   UNL A   1      45.413  28.442  34.461  1.00  0.00     0.173 A 
ATOM    121  C   UNL A   1      43.858  26.773  35.219  1.00  0.00     0.173 A 
ATOM    122  F   UNL A   1      45.691  29.582  33.811  1.00  0.00    -0.203 F 
ATOM    123  C   UNL A   1      46.462  27.710  35.010  1.00  0.00     0.198 A 
ATOM    124  C   UNL A   1      44.905  26.062  35.798  1.00  0.00     0.198 A 
ATOM    125  F   UNL A   1      42.611  26.291  35.332  1.00  0.00    -0.203 F 
ATOM    126  F   UNL A   1      47.723  28.143  34.872  1.00  0.00    -0.200 F 
ATOM    127  C   UNL A   1      46.206  26.525  35.686  1.00  0.00     0.200 A 
ATOM    128  F   UNL A   1      44.653  24.927  36.466  1.00  0.00    -0.200 F 
ATOM    129  F   UNL A   1      47.217  25.827  36.220  1.00  0.00    -0.200 F 
ENDBRANCH  95 119
ENDBRANCH  60  63
ENDBRANCH  50  53
ENDBRANCH  46  49
ENDBRANCH  43  46
ENDBRANCH  40  43
ENDBRANCH   1  40
TORSDOF 17
ENDMDL
MODEL 6
REMARK VINA RESULT:     -11.5      6.212     10.614
REMARK SMILES C[C@@H](C(=O)NCCCCCCNC(=O)c1ccc(-c2c3nc(c(-c4c(F)c(F)c(F)c(F)c4F)c4ccc([nH]4)c(-c4c(F)c(F)c(F)c(F)c4F)c4nc(c(-c5c(F)c(F)c(F)c(F)c5F)c5ccc2[nH]5)C=C4)C=C3)cc1)c1ccc(C(=O)c2cccs2)cc1
REMARK SMILES IDX 8 1 7 4 6 7 5 10 3 11 4 12 2 14 1 16 78 20 79 21 90 22 80 23
REMARK SMILES IDX 89 25 81 27 82 30 83 31 84 32 85 33 88 34 86 35 87 37 9 40
REMARK SMILES IDX 10 43 11 46 12 49 13 50 14 52 15 53 16 54 77 55 17 56 76 58
REMARK SMILES IDX 18 60 19 63 20 64 70 65 21 66 75 67 69 68 71 69 22 70 74 71
REMARK SMILES IDX 68 73 67 75 23 77 55 80 35 81 54 82 36 83 39 84 53 85 72 86
REMARK SMILES IDX 37 87 38 89 52 91 73 92 40 95 24 97 25 98 33 99 26 100
REMARK SMILES IDX 27 101 31 102 34 103 28 104 29 105 32 106 30 107 56 108
REMARK SMILES IDX 57 109 65 110 58 111 59 112 63 113 66 114 60 115 61 116
REMARK SMILES IDX 64 117 62 118 41 119 42 120 50 121 43 122 44 123 48 124
REMARK SMILES IDX 51 125 45 126 46 127 49 128 47 129
REMARK H PARENT 8 2 8 3 7 5 7 6 6 8 6 9 5 13 2 15 1 17 1 18 1 19 79 24 90 26
REMARK H PARENT 80 28 89 29 85 36 86 38 87 39 9 41 9 42 10 44 10 45 11 47
REMARK H PARENT 11 48 12 51 16 57 77 59 17 61 76 62 75 72 69 74 71 76 74 78
REMARK H PARENT 68 79 36 88 39 90 72 93 37 94 73 96
REMARK Flexibility Score: inf
ROOT
ATOM      1  C   UNL A   1      39.870  21.878  26.711  1.00  0.00    -0.052 C 
ATOM      2  H   UNL A   1      39.160  21.434  26.045  1.00  0.00     0.027 H 
ATOM      3  H   UNL A   1      39.751  21.568  27.729  1.00  0.00     0.027 H 
ENDROOT
BRANCH   1   4
ATOM      4  C   UNL A   1      39.651  23.398  26.699  1.00  0.00    -0.036 C 
ATOM      5  H   UNL A   1      39.970  23.790  27.641  1.00  0.00     0.028 H 
ATOM      6  H   UNL A   1      40.216  23.783  25.876  1.00  0.00     0.028 H 
BRANCH   4   7
ATOM      7  C   UNL A   1      38.198  23.821  26.470  1.00  0.00     0.017 C 
ATOM      8  H   UNL A   1      37.559  23.251  27.112  1.00  0.00     0.049 H 
ATOM      9  H   UNL A   1      38.103  24.865  26.688  1.00  0.00     0.049 H 
BRANCH   7  10
ATOM     10  N   UNL A   1      37.814  23.594  25.095  1.00  0.00    -0.356 N 
ATOM     11  C   UNL A   1      36.753  22.931  24.560  1.00  0.00     0.227 C 
ATOM     12  O   UNL A   1      36.773  22.811  23.333  1.00  0.00    -0.274 OA
ATOM     13  H   UNL A   1      38.427  23.985  24.431  1.00  0.00     0.163 HD
BRANCH  11  14
ATOM     14  C   UNL A   1      35.607  22.441  25.466  1.00  0.00     0.060 C 
ATOM     15  H   UNL A   1      36.119  22.265  26.388  1.00  0.00     0.045 H 
BRANCH  14  16
ATOM     16  C   UNL A   1      34.949  21.152  24.966  1.00  0.00    -0.049 C 
ATOM     17  H   UNL A   1      35.050  21.090  23.902  1.00  0.00     0.024 H 
ATOM     18  H   UNL A   1      33.911  21.156  25.226  1.00  0.00     0.024 H 
ATOM     19  H   UNL A   1      35.428  20.309  25.419  1.00  0.00     0.024 H 
ENDBRANCH  14  16
BRANCH  14  20
ATOM     20  C   UNL A   1      34.495  23.459  25.733  1.00  0.00    -0.036 A 
ATOM     21  C   UNL A   1      34.580  24.799  25.332  1.00  0.00    -0.058 A 
ATOM     22  C   UNL A   1      33.295  23.020  26.311  1.00  0.00    -0.058 A 
ATOM     23  C   UNL A   1      33.526  25.687  25.560  1.00  0.00    -0.051 A 
ATOM     24  H   UNL A   1      35.434  25.135  24.862  1.00  0.00     0.063 H 
ATOM     25  C   UNL A   1      32.220  23.898  26.501  1.00  0.00    -0.051 A 
ATOM     26  H   UNL A   1      33.201  22.034  26.601  1.00  0.00     0.063 H 
ATOM     27  C   UNL A   1      32.334  25.247  26.144  1.00  0.00     0.023 A 
ATOM     28  H   UNL A   1      33.628  26.679  25.294  1.00  0.00     0.063 H 
ATOM     29  H   UNL A   1      31.338  23.548  26.906  1.00  0.00     0.063 H 
BRANCH  27  30
ATOM     30  C   UNL A   1      31.221  26.243  26.300  1.00  0.00     0.202 C 
ATOM     31  O   UNL A   1      30.070  25.819  26.399  1.00  0.00    -0.288 OA
BRANCH  30  32
ATOM     32  C   UNL A   1      31.537  27.655  26.376  1.00  0.00     0.075 A 
ATOM     33  C   UNL A   1      31.925  28.418  27.460  1.00  0.00    -0.040 A 
ATOM     34  S   UNL A   1      31.472  28.580  24.938  1.00  0.00    -0.140 S 
ATOM     35  C   UNL A   1      32.112  29.788  27.110  1.00  0.00    -0.051 A 
ATOM     36  H   UNL A   1      32.063  28.042  28.411  1.00  0.00     0.064 H 
ATOM     37  C   UNL A   1      31.893  30.012  25.769  1.00  0.00    -0.009 A 
ATOM     38  H   UNL A   1      32.380  30.523  27.783  1.00  0.00     0.063 H 
ATOM     39  H   UNL A   1      31.975  30.938  25.320  1.00  0.00     0.074 H 
ENDBRANCH  30  32
ENDBRANCH  27  30
ENDBRANCH  14  20
ENDBRANCH  11  14
ENDBRANCH   7  10
ENDBRANCH   4   7
ENDBRANCH   1   4
BRANCH   1  40
ATOM     40  C   UNL A   1      41.269  21.420  26.288  1.00  0.00    -0.052 C 
ATOM     41  H   UNL A   1      41.945  21.631  27.089  1.00  0.00     0.027 H 
ATOM     42  H   UNL A   1      41.501  21.954  25.389  1.00  0.00     0.027 H 
BRANCH  40  43
ATOM     43  C   UNL A   1      41.381  19.934  25.948  1.00  0.00    -0.036 C 
ATOM     44  H   UNL A   1      41.254  19.822  24.891  1.00  0.00     0.028 H 
ATOM     45  H   UNL A   1      40.624  19.434  26.514  1.00  0.00     0.028 H 
BRANCH  43  46
ATOM     46  C   UNL A   1      42.709  19.297  26.338  1.00  0.00     0.018 C 
ATOM     47  H   UNL A   1      42.514  18.427  26.930  1.00  0.00     0.049 H 
ATOM     48  H   UNL A   1      43.273  20.021  26.889  1.00  0.00     0.049 H 
BRANCH  46  49
ATOM     49  N   UNL A   1      43.491  18.908  25.176  1.00  0.00    -0.352 N 
ATOM     50  C   UNL A   1      44.293  19.677  24.373  1.00  0.00     0.251 C 
ATOM     51  H   UNL A   1      43.438  17.955  24.931  1.00  0.00     0.163 HD
ATOM     52  O   UNL A   1      44.719  19.231  23.311  1.00  0.00    -0.269 OA
BRANCH  50  53
ATOM     53  C   UNL A   1      44.625  21.060  24.776  1.00  0.00     0.039 A 
ATOM     54  C   UNL A   1      44.265  22.113  23.933  1.00  0.00    -0.049 A 
ATOM     55  C   UNL A   1      45.286  21.318  25.981  1.00  0.00    -0.049 A 
ATOM     56  C   UNL A   1      44.507  23.430  24.330  1.00  0.00    -0.053 A 
ATOM     57  H   UNL A   1      43.821  21.919  23.022  1.00  0.00     0.063 H 
ATOM     58  C   UNL A   1      45.459  22.631  26.409  1.00  0.00    -0.053 A 
ATOM     59  H   UNL A   1      45.645  20.535  26.552  1.00  0.00     0.063 H 
ATOM     60  C   UNL A   1      45.069  23.700  25.589  1.00  0.00    -0.014 A 
ATOM     61  H   UNL A   1      44.272  24.208  23.694  1.00  0.00     0.063 H 
ATOM     62  H   UNL A   1      45.876  22.819  27.334  1.00  0.00     0.063 H 
BRANCH  60  63
ATOM     63  C   UNL A   1      45.234  25.097  26.068  1.00  0.00     0.031 A 
ATOM     64  C   UNL A   1      46.587  25.754  26.049  1.00  0.00     0.074 A 
ATOM     65  C   UNL A   1      44.171  25.752  26.577  1.00  0.00     0.049 A 
ATOM     66  N   UNL A   1      46.935  26.941  26.477  1.00  0.00    -0.248 NA
ATOM     67  C   UNL A   1      47.699  24.967  25.494  1.00  0.00    -0.034 C 
ATOM     68  C   UNL A   1      42.818  25.204  26.695  1.00  0.00    -0.036 A 
ATOM     69  N   UNL A   1      44.062  27.016  27.102  1.00  0.00    -0.354 N 
ATOM     70  C   UNL A   1      48.302  27.038  26.256  1.00  0.00     0.074 A 
ATOM     71  C   UNL A   1      48.732  25.774  25.699  1.00  0.00    -0.034 C 
ATOM     72  H   UNL A   1      47.682  24.032  25.058  1.00  0.00     0.065 H 
ATOM     73  C   UNL A   1      42.012  26.132  27.234  1.00  0.00    -0.036 A 
ATOM     74  H   UNL A   1      42.530  24.255  26.409  1.00  0.00     0.065 H 
ATOM     75  C   UNL A   1      42.797  27.324  27.542  1.00  0.00     0.049 A 
ATOM     76  H   UNL A   1      44.819  27.644  27.157  1.00  0.00     0.167 HD
ATOM     77  C   UNL A   1      49.120  28.095  26.477  1.00  0.00     0.037 A 
ATOM     78  H   UNL A   1      49.713  25.531  25.491  1.00  0.00     0.065 H 
ATOM     79  H   UNL A   1      41.000  26.022  27.403  1.00  0.00     0.065 H 
ATOM     80  C   UNL A   1      42.327  28.435  28.141  1.00  0.00     0.037 A 
ATOM     81  C   UNL A   1      48.683  29.360  27.007  1.00  0.00     0.049 A 
ATOM     82  C   UNL A   1      43.266  29.586  28.388  1.00  0.00     0.074 A 
ATOM     83  C   UNL A   1      49.424  30.512  27.204  1.00  0.00    -0.036 A 
ATOM     84  N   UNL A   1      47.392  29.638  27.430  1.00  0.00    -0.354 N 
ATOM     85  N   UNL A   1      44.539  29.694  28.098  1.00  0.00    -0.248 NA
ATOM     86  C   UNL A   1      42.698  30.774  29.041  1.00  0.00    -0.034 C 
ATOM     87  C   UNL A   1      48.597  31.467  27.802  1.00  0.00    -0.036 A 
ATOM     88  H   UNL A   1      50.416  30.645  26.952  1.00  0.00     0.065 H 
ATOM     89  C   UNL A   1      47.324  30.933  27.918  1.00  0.00     0.049 A 
ATOM     90  H   UNL A   1      46.636  29.008  27.391  1.00  0.00     0.167 HD
ATOM     91  C   UNL A   1      44.916  30.968  28.502  1.00  0.00     0.074 A 
ATOM     92  C   UNL A   1      43.731  31.603  29.038  1.00  0.00    -0.034 C 
ATOM     93  H   UNL A   1      41.745  30.924  29.406  1.00  0.00     0.065 H 
ATOM     94  H   UNL A   1      48.886  32.411  28.105  1.00  0.00     0.065 H 
ATOM     95  C   UNL A   1      46.135  31.557  28.437  1.00  0.00     0.037 A 
ATOM     96  H   UNL A   1      43.697  32.578  29.375  1.00  0.00     0.065 H 
BRANCH  77  97
ATOM     97  C   UNL A   1      50.576  27.941  26.145  1.00  0.00     0.064 A 
ATOM     98  C   UNL A   1      51.057  28.119  24.838  1.00  0.00     0.173 A 
ATOM     99  C   UNL A   1      51.513  27.691  27.160  1.00  0.00     0.173 A 
ATOM    100  F   UNL A   1      50.204  28.350  23.830  1.00  0.00    -0.203 F 
ATOM    101  C   UNL A   1      52.419  28.038  24.559  1.00  0.00     0.198 A 
ATOM    102  C   UNL A   1      52.877  27.641  26.881  1.00  0.00     0.198 A 
ATOM    103  F   UNL A   1      51.107  27.518  28.427  1.00  0.00    -0.203 F 
ATOM    104  F   UNL A   1      52.852  28.177  23.299  1.00  0.00    -0.200 F 
ATOM    105  C   UNL A   1      53.328  27.811  25.582  1.00  0.00     0.200 A 
ATOM    106  F   UNL A   1      53.754  27.438  27.874  1.00  0.00    -0.200 F 
ATOM    107  F   UNL A   1      54.640  27.753  25.314  1.00  0.00    -0.200 F 
ENDBRANCH  77  97
BRANCH  80 108
ATOM    108  C   UNL A   1      40.898  28.521  28.550  1.00  0.00     0.064 A 
ATOM    109  C   UNL A   1      39.924  29.020  27.674  1.00  0.00     0.173 A 
ATOM    110  C   UNL A   1      40.485  28.148  29.838  1.00  0.00     0.173 A 
ATOM    111  F   UNL A   1      40.271  29.411  26.438  1.00  0.00    -0.203 F 
ATOM    112  C   UNL A   1      38.600  29.177  28.082  1.00  0.00     0.198 A 
ATOM    113  C   UNL A   1      39.154  28.271  30.232  1.00  0.00     0.198 A 
ATOM    114  F   UNL A   1      41.374  27.658  30.714  1.00  0.00    -0.203 F 
ATOM    115  F   UNL A   1      37.705  29.721  27.247  1.00  0.00    -0.200 F 
ATOM    116  C   UNL A   1      38.216  28.799  29.359  1.00  0.00     0.200 A 
ATOM    117  F   UNL A   1      38.784  27.888  31.462  1.00  0.00    -0.200 F 
ATOM    118  F   UNL A   1      36.945  28.955  29.753  1.00  0.00    -0.200 F 
ENDBRANCH  80 108
BRANCH  95 119
ATOM    119  C   UNL A   1      46.241  32.975  28.920  1.00  0.00     0.064 A 
ATOM    120  C   UNL A   1      46.572  33.282  30.248  1.00  0.00     0.173 A 
ATOM    121  C   UNL A   1      46.043  34.043  28.031  1.00  0.00     0.173 A 
ATOM    122  F   UNL A   1      46.758  32.298  31.142  1.00  0.00    -0.203 F 
ATOM    123  C   UNL A   1      46.670  34.603  30.677  1.00  0.00     0.198 A 
ATOM    124  C   UNL A   1      46.178  35.363  28.453  1.00  0.00     0.198 A 
ATOM    125  F   UNL A   1      45.733  33.807  26.748  1.00  0.00    -0.203 F 
ATOM    126  F   UNL A   1      46.933  34.871  31.963  1.00  0.00    -0.200 F 
ATOM    127  C   UNL A   1      46.482  35.642  29.777  1.00  0.00     0.200 A 
ATOM    128  F   UNL A   1      46.012  36.365  27.578  1.00  0.00    -0.200 F 
ATOM    129  F   UNL A   1      46.584  36.913  30.189  1.00  0.00    -0.200 F 
ENDBRANCH  95 119
ENDBRANCH  60  63
ENDBRANCH  50  53
ENDBRANCH  46  49
ENDBRANCH  43  46
ENDBRANCH  40  43
ENDBRANCH   1  40
TORSDOF 17
ENDMDL
MODEL 7
REMARK VINA RESULT:     -11.5      5.872     10.226
REMARK SMILES C[C@@H](C(=O)NCCCCCCNC(=O)c1ccc(-c2c3nc(c(-c4c(F)c(F)c(F)c(F)c4F)c4ccc([nH]4)c(-c4c(F)c(F)c(F)c(F)c4F)c4nc(c(-c5c(F)c(F)c(F)c(F)c5F)c5ccc2[nH]5)C=C4)C=C3)cc1)c1ccc(C(=O)c2cccs2)cc1
REMARK SMILES IDX 8 1 7 4 6 7 5 10 3 11 4 12 2 14 1 16 78 20 79 21 90 22 80 23
REMARK SMILES IDX 89 25 81 27 82 30 83 31 84 32 85 33 88 34 86 35 87 37 9 40
REMARK SMILES IDX 10 43 11 46 12 49 13 50 14 52 15 53 16 54 77 55 17 56 76 58
REMARK SMILES IDX 18 60 19 63 20 64 70 65 21 66 75 67 69 68 71 69 22 70 74 71
REMARK SMILES IDX 68 73 67 75 23 77 55 80 35 81 54 82 36 83 39 84 53 85 72 86
REMARK SMILES IDX 37 87 38 89 52 91 73 92 40 95 24 97 25 98 33 99 26 100
REMARK SMILES IDX 27 101 31 102 34 103 28 104 29 105 32 106 30 107 56 108
REMARK SMILES IDX 57 109 65 110 58 111 59 112 63 113 66 114 60 115 61 116
REMARK SMILES IDX 64 117 62 118 41 119 42 120 50 121 43 122 44 123 48 124
REMARK SMILES IDX 51 125 45 126 46 127 49 128 47 129
REMARK H PARENT 8 2 8 3 7 5 7 6 6 8 6 9 5 13 2 15 1 17 1 18 1 19 79 24 90 26
REMARK H PARENT 80 28 89 29 85 36 86 38 87 39 9 41 9 42 10 44 10 45 11 47
REMARK H PARENT 11 48 12 51 16 57 77 59 17 61 76 62 75 72 69 74 71 76 74 78
REMARK H PARENT 68 79 36 88 39 90 72 93 37 94 73 96
REMARK Flexibility Score: inf
ROOT
ATOM      1  C   UNL A   1      36.669  22.060  24.241  1.00  0.00    -0.052 C 
ATOM      2  H   UNL A   1      37.626  22.244  23.799  1.00  0.00     0.027 H 
ATOM      3  H   UNL A   1      35.879  21.971  23.525  1.00  0.00     0.027 H 
ENDROOT
BRANCH   1   4
ATOM      4  C   UNL A   1      36.312  23.265  25.124  1.00  0.00    -0.036 C 
ATOM      5  H   UNL A   1      36.033  22.902  26.090  1.00  0.00     0.028 H 
ATOM      6  H   UNL A   1      37.178  23.893  25.150  1.00  0.00     0.028 H 
BRANCH   4   7
ATOM      7  C   UNL A   1      35.164  24.121  24.583  1.00  0.00     0.017 C 
ATOM      8  H   UNL A   1      35.557  25.045  24.213  1.00  0.00     0.049 H 
ATOM      9  H   UNL A   1      34.675  23.588  23.795  1.00  0.00     0.049 H 
BRANCH   7  10
ATOM     10  N   UNL A   1      34.203  24.398  25.627  1.00  0.00    -0.356 N 
ATOM     11  C   UNL A   1      32.843  24.453  25.599  1.00  0.00     0.227 C 
ATOM     12  O   UNL A   1      32.312  24.837  26.644  1.00  0.00    -0.274 OA
ATOM     13  H   UNL A   1      34.601  24.579  26.509  1.00  0.00     0.163 HD
BRANCH  11  14
ATOM     14  C   UNL A   1      32.073  23.997  24.345  1.00  0.00     0.060 C 
ATOM     15  H   UNL A   1      32.592  24.520  23.570  1.00  0.00     0.045 H 
BRANCH  14  16
ATOM     16  C   UNL A   1      30.595  24.398  24.363  1.00  0.00    -0.049 C 
ATOM     17  H   UNL A   1      30.163  24.210  23.402  1.00  0.00     0.024 H 
ATOM     18  H   UNL A   1      30.510  25.439  24.595  1.00  0.00     0.024 H 
ATOM     19  H   UNL A   1      30.079  23.823  25.104  1.00  0.00     0.024 H 
ENDBRANCH  14  16
BRANCH  14  20
ATOM     20  C   UNL A   1      32.147  22.500  24.034  1.00  0.00    -0.036 A 
ATOM     21  C   UNL A   1      32.325  22.002  22.736  1.00  0.00    -0.058 A 
ATOM     22  C   UNL A   1      32.139  21.583  25.096  1.00  0.00    -0.058 A 
ATOM     23  C   UNL A   1      32.426  20.629  22.499  1.00  0.00    -0.051 A 
ATOM     24  H   UNL A   1      32.381  22.659  21.943  1.00  0.00     0.063 H 
ATOM     25  C   UNL A   1      32.285  20.209  24.865  1.00  0.00    -0.051 A 
ATOM     26  H   UNL A   1      32.025  21.926  26.062  1.00  0.00     0.063 H 
ATOM     27  C   UNL A   1      32.410  19.717  23.560  1.00  0.00     0.023 A 
ATOM     28  H   UNL A   1      32.514  20.284  21.531  1.00  0.00     0.063 H 
ATOM     29  H   UNL A   1      32.301  19.555  25.663  1.00  0.00     0.063 H 
BRANCH  27  30
ATOM     30  C   UNL A   1      32.588  18.262  23.236  1.00  0.00     0.202 C 
ATOM     31  O   UNL A   1      31.974  17.800  22.275  1.00  0.00    -0.288 OA
BRANCH  30  32
ATOM     32  C   UNL A   1      33.503  17.465  24.027  1.00  0.00     0.075 A 
ATOM     33  C   UNL A   1      34.848  17.652  24.281  1.00  0.00    -0.040 A 
ATOM     34  S   UNL A   1      32.893  16.081  24.825  1.00  0.00    -0.140 S 
ATOM     35  C   UNL A   1      35.390  16.612  25.092  1.00  0.00    -0.051 A 
ATOM     36  H   UNL A   1      35.397  18.451  23.925  1.00  0.00     0.064 H 
ATOM     37  C   UNL A   1      34.433  15.690  25.455  1.00  0.00    -0.009 A 
ATOM     38  H   UNL A   1      36.381  16.558  25.375  1.00  0.00     0.063 H 
ATOM     39  H   UNL A   1      34.625  14.860  26.039  1.00  0.00     0.074 H 
ENDBRANCH  30  32
ENDBRANCH  27  30
ENDBRANCH  14  20
ENDBRANCH  11  14
ENDBRANCH   7  10
ENDBRANCH   4   7
ENDBRANCH   1   4
BRANCH   1  40
ATOM     40  C   UNL A   1      36.734  20.717  24.973  1.00  0.00    -0.052 C 
ATOM     41  H   UNL A   1      35.956  20.090  24.591  1.00  0.00     0.027 H 
ATOM     42  H   UNL A   1      36.624  20.936  26.015  1.00  0.00     0.027 H 
BRANCH  40  43
ATOM     43  C   UNL A   1      38.062  19.972  24.827  1.00  0.00    -0.036 C 
ATOM     44  H   UNL A   1      38.521  20.284  23.913  1.00  0.00     0.028 H 
ATOM     45  H   UNL A   1      37.829  18.928  24.843  1.00  0.00     0.028 H 
BRANCH  43  46
ATOM     46  C   UNL A   1      39.048  20.215  25.963  1.00  0.00     0.018 C 
ATOM     47  H   UNL A   1      38.521  20.172  26.894  1.00  0.00     0.049 H 
ATOM     48  H   UNL A   1      39.492  21.177  25.814  1.00  0.00     0.049 H 
BRANCH  46  49
ATOM     49  N   UNL A   1      40.114  19.227  25.982  1.00  0.00    -0.352 N 
ATOM     50  C   UNL A   1      41.469  19.414  26.080  1.00  0.00     0.251 C 
ATOM     51  H   UNL A   1      39.822  18.288  25.914  1.00  0.00     0.163 HD
ATOM     52  O   UNL A   1      42.241  18.481  25.873  1.00  0.00    -0.269 OA
BRANCH  50  53
ATOM     53  C   UNL A   1      42.003  20.752  26.410  1.00  0.00     0.039 A 
ATOM     54  C   UNL A   1      42.252  21.654  25.374  1.00  0.00    -0.049 A 
ATOM     55  C   UNL A   1      42.254  21.117  27.737  1.00  0.00    -0.049 A 
ATOM     56  C   UNL A   1      42.690  22.946  25.674  1.00  0.00    -0.053 A 
ATOM     57  H   UNL A   1      42.113  21.368  24.393  1.00  0.00     0.063 H 
ATOM     58  C   UNL A   1      42.618  22.426  28.038  1.00  0.00    -0.053 A 
ATOM     59  H   UNL A   1      42.171  20.416  28.491  1.00  0.00     0.063 H 
ATOM     60  C   UNL A   1      42.837  23.355  27.010  1.00  0.00    -0.014 A 
ATOM     61  H   UNL A   1      42.906  23.604  24.908  1.00  0.00     0.063 H 
ATOM     62  H   UNL A   1      42.727  22.715  29.023  1.00  0.00     0.063 H 
BRANCH  60  63
ATOM     63  C   UNL A   1      43.199  24.756  27.345  1.00  0.00     0.031 A 
ATOM     64  C   UNL A   1      44.613  25.239  27.178  1.00  0.00     0.074 A 
ATOM     65  C   UNL A   1      42.260  25.578  27.857  1.00  0.00     0.049 A 
ATOM     66  N   UNL A   1      45.128  26.406  27.471  1.00  0.00    -0.248 NA
ATOM     67  C   UNL A   1      45.583  24.277  26.630  1.00  0.00    -0.034 C 
ATOM     68  C   UNL A   1      40.864  25.211  28.111  1.00  0.00    -0.036 A 
ATOM     69  N   UNL A   1      42.337  26.885  28.267  1.00  0.00    -0.354 N 
ATOM     70  C   UNL A   1      46.477  26.316  27.155  1.00  0.00     0.074 A 
ATOM     71  C   UNL A   1      46.714  24.966  26.694  1.00  0.00    -0.034 C 
ATOM     72  H   UNL A   1      45.424  23.317  26.286  1.00  0.00     0.065 H 
ATOM     73  C   UNL A   1      40.214  26.274  28.610  1.00  0.00    -0.036 A 
ATOM     74  H   UNL A   1      40.448  24.284  27.933  1.00  0.00     0.065 H 
ATOM     75  C   UNL A   1      41.153  27.382  28.755  1.00  0.00     0.049 A 
ATOM     76  H   UNL A   1      43.164  27.419  28.215  1.00  0.00     0.167 HD
ATOM     77  C   UNL A   1      47.426  27.280  27.224  1.00  0.00     0.037 A 
ATOM     78  H   UNL A   1      47.642  24.588  26.447  1.00  0.00     0.065 H 
ATOM     79  H   UNL A   1      39.211  26.303  28.852  1.00  0.00     0.065 H 
ATOM     80  C   UNL A   1      40.860  28.590  29.276  1.00  0.00     0.037 A 
ATOM     81  C   UNL A   1      47.180  28.629  27.660  1.00  0.00     0.049 A 
ATOM     82  C   UNL A   1      41.943  29.634  29.354  1.00  0.00     0.074 A 
ATOM     83  C   UNL A   1      48.062  29.695  27.702  1.00  0.00    -0.036 A 
ATOM     84  N   UNL A   1      45.965  29.099  28.137  1.00  0.00    -0.354 N 
ATOM     85  N   UNL A   1      43.195  29.560  28.976  1.00  0.00    -0.248 NA
ATOM     86  C   UNL A   1      41.567  30.934  29.928  1.00  0.00    -0.034 C 
ATOM     87  C   UNL A   1      47.399  30.792  28.259  1.00  0.00    -0.036 A 
ATOM     88  H   UNL A   1      49.041  29.683  27.376  1.00  0.00     0.065 H 
ATOM     89  C   UNL A   1      46.084  30.429  28.504  1.00  0.00     0.049 A 
ATOM     90  H   UNL A   1      45.140  28.565  28.204  1.00  0.00     0.167 HD
ATOM     91  C   UNL A   1      43.747  30.808  29.234  1.00  0.00     0.074 A 
ATOM     92  C   UNL A   1      42.687  31.626  29.782  1.00  0.00    -0.034 C 
ATOM     93  H   UNL A   1      40.668  31.230  30.337  1.00  0.00     0.065 H 
ATOM     94  H   UNL A   1      47.817  31.715  28.453  1.00  0.00     0.065 H 
ATOM     95  C   UNL A   1      45.017  31.236  29.038  1.00  0.00     0.037 A 
ATOM     96  H   UNL A   1      42.790  32.624  30.028  1.00  0.00     0.065 H 
BRANCH  77  97
ATOM     97  C   UNL A   1      48.826  26.921  26.817  1.00  0.00     0.064 A 
ATOM     98  C   UNL A   1      49.766  26.448  27.745  1.00  0.00     0.173 A 
ATOM     99  C   UNL A   1      49.207  26.974  25.467  1.00  0.00     0.173 A 
ATOM    100  F   UNL A   1      49.457  26.388  29.049  1.00  0.00    -0.203 F 
ATOM    101  C   UNL A   1      51.040  26.057  27.340  1.00  0.00     0.198 A 
ATOM    102  C   UNL A   1      50.471  26.552  25.061  1.00  0.00     0.198 A 
ATOM    103  F   UNL A   1      48.345  27.412  24.537  1.00  0.00    -0.203 F 
ATOM    104  F   UNL A   1      51.932  25.642  28.249  1.00  0.00    -0.200 F 
ATOM    105  C   UNL A   1      51.387  26.099  25.997  1.00  0.00     0.200 A 
ATOM    106  F   UNL A   1      50.798  26.578  23.762  1.00  0.00    -0.200 F 
ATOM    107  F   UNL A   1      52.606  25.703  25.607  1.00  0.00    -0.200 F 
ENDBRANCH  77  97
BRANCH  80 108
ATOM    108  C   UNL A   1      39.486  28.885  29.765  1.00  0.00     0.064 A 
ATOM    109  C   UNL A   1      38.521  29.446  28.916  1.00  0.00     0.173 A 
ATOM    110  C   UNL A   1      39.121  28.653  31.100  1.00  0.00     0.173 A 
ATOM    111  F   UNL A   1      38.826  29.707  27.636  1.00  0.00    -0.203 F 
ATOM    112  C   UNL A   1      37.259  29.798  29.392  1.00  0.00     0.198 A 
ATOM    113  C   UNL A   1      37.847  28.971  31.565  1.00  0.00     0.198 A 
ATOM    114  F   UNL A   1      40.003  28.112  31.953  1.00  0.00    -0.203 F 
ATOM    115  F   UNL A   1      36.382  30.396  28.575  1.00  0.00    -0.200 F 
ATOM    116  C   UNL A   1      36.922  29.557  30.714  1.00  0.00     0.200 A 
ATOM    117  F   UNL A   1      37.520  28.720  32.840  1.00  0.00    -0.200 F 
ATOM    118  F   UNL A   1      35.711  29.900  31.173  1.00  0.00    -0.200 F 
ENDBRANCH  80 108
BRANCH  95 119
ATOM    119  C   UNL A   1      45.323  32.666  29.378  1.00  0.00     0.064 A 
ATOM    120  C   UNL A   1      45.137  33.703  28.452  1.00  0.00     0.173 A 
ATOM    121  C   UNL A   1      45.775  33.008  30.662  1.00  0.00     0.173 A 
ATOM    122  F   UNL A   1      44.720  33.428  27.206  1.00  0.00    -0.203 F 
ATOM    123  C   UNL A   1      45.422  35.024  28.787  1.00  0.00     0.198 A 
ATOM    124  C   UNL A   1      46.024  34.334  31.006  1.00  0.00     0.198 A 
ATOM    125  F   UNL A   1      45.962  32.058  31.589  1.00  0.00    -0.203 F 
ATOM    126  F   UNL A   1      45.290  35.990  27.867  1.00  0.00    -0.200 F 
ATOM    127  C   UNL A   1      45.857  35.340  30.066  1.00  0.00     0.200 A 
ATOM    128  F   UNL A   1      46.428  34.639  32.248  1.00  0.00    -0.200 F 
ATOM    129  F   UNL A   1      46.123  36.612  30.389  1.00  0.00    -0.200 F 
ENDBRANCH  95 119
ENDBRANCH  60  63
ENDBRANCH  50  53
ENDBRANCH  46  49
ENDBRANCH  43  46
ENDBRANCH  40  43
ENDBRANCH   1  40
TORSDOF 17
ENDMDL
MODEL 8
REMARK VINA RESULT:     -11.3      3.216      9.030
REMARK SMILES C[C@@H](C(=O)NCCCCCCNC(=O)c1ccc(-c2c3nc(c(-c4c(F)c(F)c(F)c(F)c4F)c4ccc([nH]4)c(-c4c(F)c(F)c(F)c(F)c4F)c4nc(c(-c5c(F)c(F)c(F)c(F)c5F)c5ccc2[nH]5)C=C4)C=C3)cc1)c1ccc(C(=O)c2cccs2)cc1
REMARK SMILES IDX 8 1 7 4 6 7 5 10 3 11 4 12 2 14 1 16 78 20 79 21 90 22 80 23
REMARK SMILES IDX 89 25 81 27 82 30 83 31 84 32 85 33 88 34 86 35 87 37 9 40
REMARK SMILES IDX 10 43 11 46 12 49 13 50 14 52 15 53 16 54 77 55 17 56 76 58
REMARK SMILES IDX 18 60 19 63 20 64 70 65 21 66 75 67 69 68 71 69 22 70 74 71
REMARK SMILES IDX 68 73 67 75 23 77 55 80 35 81 54 82 36 83 39 84 53 85 72 86
REMARK SMILES IDX 37 87 38 89 52 91 73 92 40 95 24 97 25 98 33 99 26 100
REMARK SMILES IDX 27 101 31 102 34 103 28 104 29 105 32 106 30 107 56 108
REMARK SMILES IDX 57 109 65 110 58 111 59 112 63 113 66 114 60 115 61 116
REMARK SMILES IDX 64 117 62 118 41 119 42 120 50 121 43 122 44 123 48 124
REMARK SMILES IDX 51 125 45 126 46 127 49 128 47 129
REMARK H PARENT 8 2 8 3 7 5 7 6 6 8 6 9 5 13 2 15 1 17 1 18 1 19 79 24 90 26
REMARK H PARENT 80 28 89 29 85 36 86 38 87 39 9 41 9 42 10 44 10 45 11 47
REMARK H PARENT 11 48 12 51 16 57 77 59 17 61 76 62 75 72 69 74 71 76 74 78
REMARK H PARENT 68 79 36 88 39 90 72 93 37 94 73 96
REMARK Flexibility Score: inf
ROOT
ATOM      1  C   UNL A   1      32.351  27.803  22.868  1.00  0.00    -0.052 C 
ATOM      2  H   UNL A   1      32.807  27.865  21.903  1.00  0.00     0.027 H 
ATOM      3  H   UNL A   1      32.582  26.899  23.392  1.00  0.00     0.027 H 
ENDROOT
BRANCH   1   4
ATOM      4  C   UNL A   1      30.827  27.807  22.677  1.00  0.00    -0.036 C 
ATOM      5  H   UNL A   1      30.462  28.786  22.910  1.00  0.00     0.028 H 
ATOM      6  H   UNL A   1      30.644  27.527  21.661  1.00  0.00     0.028 H 
BRANCH   4   7
ATOM      7  C   UNL A   1      30.081  26.797  23.552  1.00  0.00     0.017 C 
ATOM      8  H   UNL A   1      29.027  26.943  23.441  1.00  0.00     0.049 H 
ATOM      9  H   UNL A   1      30.349  25.807  23.245  1.00  0.00     0.049 H 
BRANCH   7  10
ATOM     10  N   UNL A   1      30.440  26.967  24.943  1.00  0.00    -0.356 N 
ATOM     11  C   UNL A   1      30.743  26.056  25.907  1.00  0.00     0.227 C 
ATOM     12  O   UNL A   1      30.890  26.519  27.039  1.00  0.00    -0.274 OA
ATOM     13  H   UNL A   1      30.467  27.904  25.243  1.00  0.00     0.163 HD
BRANCH  11  14
ATOM     14  C   UNL A   1      30.938  24.572  25.539  1.00  0.00     0.060 C 
ATOM     15  H   UNL A   1      30.342  24.488  24.655  1.00  0.00     0.045 H 
BRANCH  14  16
ATOM     16  C   UNL A   1      30.432  23.610  26.617  1.00  0.00    -0.049 C 
ATOM     17  H   UNL A   1      31.202  22.905  26.856  1.00  0.00     0.024 H 
ATOM     18  H   UNL A   1      29.571  23.088  26.256  1.00  0.00     0.024 H 
ATOM     19  H   UNL A   1      30.173  24.164  27.496  1.00  0.00     0.024 H 
ENDBRANCH  14  16
BRANCH  14  20
ATOM     20  C   UNL A   1      32.369  24.163  25.182  1.00  0.00    -0.036 A 
ATOM     21  C   UNL A   1      32.728  22.843  24.874  1.00  0.00    -0.058 A 
ATOM     22  C   UNL A   1      33.350  25.158  25.055  1.00  0.00    -0.058 A 
ATOM     23  C   UNL A   1      34.038  22.519  24.514  1.00  0.00    -0.051 A 
ATOM     24  H   UNL A   1      32.013  22.101  24.913  1.00  0.00     0.063 H 
ATOM     25  C   UNL A   1      34.653  24.841  24.652  1.00  0.00    -0.051 A 
ATOM     26  H   UNL A   1      33.107  26.140  25.261  1.00  0.00     0.063 H 
ATOM     27  C   UNL A   1      35.015  23.513  24.396  1.00  0.00     0.023 A 
ATOM     28  H   UNL A   1      34.287  21.534  24.333  1.00  0.00     0.063 H 
ATOM     29  H   UNL A   1      35.351  25.592  24.542  1.00  0.00     0.063 H 
BRANCH  27  30
ATOM     30  C   UNL A   1      36.385  23.098  23.944  1.00  0.00     0.202 C 
ATOM     31  O   UNL A   1      36.590  22.983  22.737  1.00  0.00    -0.288 OA
BRANCH  30  32
ATOM     32  C   UNL A   1      37.426  22.894  24.931  1.00  0.00     0.075 A 
ATOM     33  C   UNL A   1      38.022  23.798  25.790  1.00  0.00    -0.040 A 
ATOM     34  S   UNL A   1      38.044  21.313  25.144  1.00  0.00    -0.140 S 
ATOM     35  C   UNL A   1      39.035  23.190  26.588  1.00  0.00    -0.051 A 
ATOM     36  H   UNL A   1      37.763  24.796  25.847  1.00  0.00     0.064 H 
ATOM     37  C   UNL A   1      39.153  21.842  26.333  1.00  0.00    -0.009 A 
ATOM     38  H   UNL A   1      39.611  23.701  27.275  1.00  0.00     0.063 H 
ATOM     39  H   UNL A   1      39.831  21.224  26.806  1.00  0.00     0.074 H 
ENDBRANCH  30  32
ENDBRANCH  27  30
ENDBRANCH  14  20
ENDBRANCH  11  14
ENDBRANCH   7  10
ENDBRANCH   4   7
ENDBRANCH   1   4
BRANCH   1  40
ATOM     40  C   UNL A   1      32.899  28.946  23.727  1.00  0.00    -0.052 C 
ATOM     41  H   UNL A   1      32.112  29.292  24.364  1.00  0.00     0.027 H 
ATOM     42  H   UNL A   1      33.249  29.693  23.045  1.00  0.00     0.027 H 
BRANCH  40  43
ATOM     43  C   UNL A   1      34.093  28.570  24.606  1.00  0.00    -0.036 C 
ATOM     44  H   UNL A   1      34.917  29.199  24.337  1.00  0.00     0.028 H 
ATOM     45  H   UNL A   1      34.286  27.533  24.431  1.00  0.00     0.028 H 
BRANCH  43  46
ATOM     46  C   UNL A   1      33.846  28.722  26.102  1.00  0.00     0.018 C 
ATOM     47  H   UNL A   1      34.669  28.290  26.633  1.00  0.00     0.049 H 
ATOM     48  H   UNL A   1      32.929  28.223  26.337  1.00  0.00     0.049 H 
BRANCH  46  49
ATOM     49  N   UNL A   1      33.713  30.115  26.495  1.00  0.00    -0.352 N 
ATOM     50  C   UNL A   1      34.436  30.829  27.415  1.00  0.00     0.251 C 
ATOM     51  H   UNL A   1      33.001  30.617  26.036  1.00  0.00     0.163 HD
ATOM     52  O   UNL A   1      34.058  31.942  27.774  1.00  0.00    -0.269 OA
BRANCH  50  53
ATOM     53  C   UNL A   1      35.664  30.247  27.996  1.00  0.00     0.039 A 
ATOM     54  C   UNL A   1      36.850  30.299  27.260  1.00  0.00    -0.049 A 
ATOM     55  C   UNL A   1      35.648  29.655  29.263  1.00  0.00    -0.049 A 
ATOM     56  C   UNL A   1      38.033  29.818  27.822  1.00  0.00    -0.053 A 
ATOM     57  H   UNL A   1      36.850  30.692  26.305  1.00  0.00     0.063 H 
ATOM     58  C   UNL A   1      36.841  29.245  29.851  1.00  0.00    -0.053 A 
ATOM     59  H   UNL A   1      34.753  29.523  29.761  1.00  0.00     0.063 H 
ATOM     60  C   UNL A   1      38.046  29.325  29.137  1.00  0.00    -0.014 A 
ATOM     61  H   UNL A   1      38.904  29.825  27.267  1.00  0.00     0.063 H 
ATOM     62  H   UNL A   1      36.839  28.881  30.816  1.00  0.00     0.063 H 
BRANCH  60  63
ATOM     63  C   UNL A   1      39.317  28.909  29.785  1.00  0.00     0.031 A 
ATOM     64  C   UNL A   1      39.846  29.659  30.977  1.00  0.00     0.074 A 
ATOM     65  C   UNL A   1      40.025  27.888  29.260  1.00  0.00     0.049 A 
ATOM     66  N   UNL A   1      40.961  29.479  31.638  1.00  0.00    -0.248 NA
ATOM     67  C   UNL A   1      39.024  30.771  31.480  1.00  0.00    -0.034 C 
ATOM     68  C   UNL A   1      39.640  27.114  28.077  1.00  0.00    -0.036 A 
ATOM     69  N   UNL A   1      41.220  27.333  29.643  1.00  0.00    -0.354 N 
ATOM     70  C   UNL A   1      40.981  30.458  32.623  1.00  0.00     0.074 A 
ATOM     71  C   UNL A   1      39.791  31.260  32.445  1.00  0.00    -0.034 C 
ATOM     72  H   UNL A   1      38.094  31.087  31.165  1.00  0.00     0.065 H 
ATOM     73  C   UNL A   1      40.569  26.172  27.846  1.00  0.00    -0.036 A 
ATOM     74  H   UNL A   1      38.791  27.269  27.512  1.00  0.00     0.065 H 
ATOM     75  C   UNL A   1      41.636  26.303  28.834  1.00  0.00     0.049 A 
ATOM     76  H   UNL A   1      41.732  27.643  30.426  1.00  0.00     0.167 HD
ATOM     77  C   UNL A   1      41.898  30.654  33.599  1.00  0.00     0.037 A 
ATOM     78  H   UNL A   1      39.567  32.104  32.996  1.00  0.00     0.065 H 
ATOM     79  H   UNL A   1      40.534  25.469  27.092  1.00  0.00     0.065 H 
ATOM     80  C   UNL A   1      42.757  25.558  28.874  1.00  0.00     0.037 A 
ATOM     81  C   UNL A   1      43.068  29.837  33.788  1.00  0.00     0.049 A 
ATOM     82  C   UNL A   1      43.766  25.812  29.963  1.00  0.00     0.074 A 
ATOM     83  C   UNL A   1      44.021  29.915  34.788  1.00  0.00    -0.036 A 
ATOM     84  N   UNL A   1      43.450  28.795  32.955  1.00  0.00    -0.354 N 
ATOM     85  N   UNL A   1      43.731  26.688  30.937  1.00  0.00    -0.248 NA
ATOM     86  C   UNL A   1      44.969  24.968  29.961  1.00  0.00    -0.034 C 
ATOM     87  C   UNL A   1      45.009  28.962  34.528  1.00  0.00    -0.036 A 
ATOM     88  H   UNL A   1      44.004  30.565  35.590  1.00  0.00     0.065 H 
ATOM     89  C   UNL A   1      44.640  28.245  33.402  1.00  0.00     0.049 A 
ATOM     90  H   UNL A   1      42.948  28.492  32.164  1.00  0.00     0.167 HD
ATOM     91  C   UNL A   1      44.885  26.480  31.680  1.00  0.00     0.074 A 
ATOM     92  C   UNL A   1      45.589  25.381  31.056  1.00  0.00    -0.034 C 
ATOM     93  H   UNL A   1      45.255  24.244  29.285  1.00  0.00     0.065 H 
ATOM     94  H   UNL A   1      45.868  28.817  35.081  1.00  0.00     0.065 H 
ATOM     95  C   UNL A   1      45.324  27.142  32.778  1.00  0.00     0.037 A 
ATOM     96  H   UNL A   1      46.464  24.970  31.419  1.00  0.00     0.065 H 
BRANCH  77  97
ATOM     97  C   UNL A   1      41.682  31.795  34.551  1.00  0.00     0.064 A 
ATOM     98  C   UNL A   1      40.906  31.649  35.712  1.00  0.00     0.173 A 
ATOM     99  C   UNL A   1      42.323  33.026  34.341  1.00  0.00     0.173 A 
ATOM    100  F   UNL A   1      40.264  30.498  35.955  1.00  0.00    -0.203 F 
ATOM    101  C   UNL A   1      40.769  32.698  36.617  1.00  0.00     0.198 A 
ATOM    102  C   UNL A   1      42.209  34.062  35.265  1.00  0.00     0.198 A 
ATOM    103  F   UNL A   1      43.081  33.216  33.250  1.00  0.00    -0.203 F 
ATOM    104  F   UNL A   1      39.996  32.548  37.701  1.00  0.00    -0.200 F 
ATOM    105  C   UNL A   1      41.429  33.899  36.400  1.00  0.00     0.200 A 
ATOM    106  F   UNL A   1      42.860  35.214  35.060  1.00  0.00    -0.200 F 
ATOM    107  F   UNL A   1      41.312  34.899  37.282  1.00  0.00    -0.200 F 
ENDBRANCH  77  97
BRANCH  80 108
ATOM    108  C   UNL A   1      42.992  24.497  27.857  1.00  0.00     0.064 A 
ATOM    109  C   UNL A   1      43.570  24.802  26.616  1.00  0.00     0.173 A 
ATOM    110  C   UNL A   1      42.607  23.168  28.086  1.00  0.00     0.173 A 
ATOM    111  F   UNL A   1      43.937  26.062  26.339  1.00  0.00    -0.203 F 
ATOM    112  C   UNL A   1      43.718  23.827  25.630  1.00  0.00     0.198 A 
ATOM    113  C   UNL A   1      42.789  22.187  27.113  1.00  0.00     0.198 A 
ATOM    114  F   UNL A   1      42.056  22.820  29.257  1.00  0.00    -0.203 F 
ATOM    115  F   UNL A   1      44.210  24.161  24.430  1.00  0.00    -0.200 F 
ATOM    116  C   UNL A   1      43.331  22.520  25.881  1.00  0.00     0.200 A 
ATOM    117  F   UNL A   1      42.430  20.921  27.367  1.00  0.00    -0.200 F 
ATOM    118  F   UNL A   1      43.469  21.584  24.933  1.00  0.00    -0.200 F 
ENDBRANCH  80 108
BRANCH  95 119
ATOM    119  C   UNL A   1      46.606  26.669  33.402  1.00  0.00     0.064 A 
ATOM    120  C   UNL A   1      47.846  27.226  33.057  1.00  0.00     0.173 A 
ATOM    121  C   UNL A   1      46.588  25.668  34.385  1.00  0.00     0.173 A 
ATOM    122  F   UNL A   1      47.920  28.176  32.112  1.00  0.00    -0.203 F 
ATOM    123  C   UNL A   1      49.024  26.777  33.649  1.00  0.00     0.198 A 
ATOM    124  C   UNL A   1      47.763  25.247  35.002  1.00  0.00     0.198 A 
ATOM    125  F   UNL A   1      45.428  25.107  34.759  1.00  0.00    -0.203 F 
ATOM    126  F   UNL A   1      50.202  27.285  33.263  1.00  0.00    -0.200 F 
ATOM    127  C   UNL A   1      48.980  25.794  34.627  1.00  0.00     0.200 A 
ATOM    128  F   UNL A   1      47.716  24.309  35.959  1.00  0.00    -0.200 F 
ATOM    129  F   UNL A   1      50.113  25.369  35.202  1.00  0.00    -0.200 F 
ENDBRANCH  95 119
ENDBRANCH  60  63
ENDBRANCH  50  53
ENDBRANCH  46  49
ENDBRANCH  43  46
ENDBRANCH  40  43
ENDBRANCH   1  40
TORSDOF 17
ENDMDL
MODEL 9
REMARK VINA RESULT:     -11.2      2.330      4.214
REMARK SMILES C[C@@H](C(=O)NCCCCCCNC(=O)c1ccc(-c2c3nc(c(-c4c(F)c(F)c(F)c(F)c4F)c4ccc([nH]4)c(-c4c(F)c(F)c(F)c(F)c4F)c4nc(c(-c5c(F)c(F)c(F)c(F)c5F)c5ccc2[nH]5)C=C4)C=C3)cc1)c1ccc(C(=O)c2cccs2)cc1
REMARK SMILES IDX 8 1 7 4 6 7 5 10 3 11 4 12 2 14 1 16 78 20 79 21 90 22 80 23
REMARK SMILES IDX 89 25 81 27 82 30 83 31 84 32 85 33 88 34 86 35 87 37 9 40
REMARK SMILES IDX 10 43 11 46 12 49 13 50 14 52 15 53 16 54 77 55 17 56 76 58
REMARK SMILES IDX 18 60 19 63 20 64 70 65 21 66 75 67 69 68 71 69 22 70 74 71
REMARK SMILES IDX 68 73 67 75 23 77 55 80 35 81 54 82 36 83 39 84 53 85 72 86
REMARK SMILES IDX 37 87 38 89 52 91 73 92 40 95 24 97 25 98 33 99 26 100
REMARK SMILES IDX 27 101 31 102 34 103 28 104 29 105 32 106 30 107 56 108
REMARK SMILES IDX 57 109 65 110 58 111 59 112 63 113 66 114 60 115 61 116
REMARK SMILES IDX 64 117 62 118 41 119 42 120 50 121 43 122 44 123 48 124
REMARK SMILES IDX 51 125 45 126 46 127 49 128 47 129
REMARK H PARENT 8 2 8 3 7 5 7 6 6 8 6 9 5 13 2 15 1 17 1 18 1 19 79 24 90 26
REMARK H PARENT 80 28 89 29 85 36 86 38 87 39 9 41 9 42 10 44 10 45 11 47
REMARK H PARENT 11 48 12 51 16 57 77 59 17 61 76 62 75 72 69 74 71 76 74 78
REMARK H PARENT 68 79 36 88 39 90 72 93 37 94 73 96
REMARK Flexibility Score: inf
ROOT
ATOM      1  C   UNL A   1      31.844  29.561  27.182  1.00  0.00    -0.052 C 
ATOM      2  H   UNL A   1      32.433  29.908  28.005  1.00  0.00     0.027 H 
ATOM      3  H   UNL A   1      30.843  29.299  27.455  1.00  0.00     0.027 H 
ENDROOT
BRANCH   1   4
ATOM      4  C   UNL A   1      32.490  28.278  26.640  1.00  0.00    -0.036 C 
ATOM      5  H   UNL A   1      33.477  28.202  27.046  1.00  0.00     0.028 H 
ATOM      6  H   UNL A   1      31.857  27.467  26.935  1.00  0.00     0.028 H 
BRANCH   4   7
ATOM      7  C   UNL A   1      32.593  28.222  25.114  1.00  0.00     0.017 C 
ATOM      8  H   UNL A   1      32.506  29.213  24.719  1.00  0.00     0.049 H 
ATOM      9  H   UNL A   1      33.540  27.801  24.846  1.00  0.00     0.049 H 
BRANCH   7  10
ATOM     10  N   UNL A   1      31.542  27.397  24.564  1.00  0.00    -0.356 N 
ATOM     11  C   UNL A   1      31.556  26.486  23.552  1.00  0.00     0.227 C 
ATOM     12  O   UNL A   1      30.453  26.032  23.240  1.00  0.00    -0.274 OA
ATOM     13  H   UNL A   1      30.665  27.516  24.994  1.00  0.00     0.163 HD
BRANCH  11  14
ATOM     14  C   UNL A   1      32.891  26.047  22.921  1.00  0.00     0.060 C 
ATOM     15  H   UNL A   1      33.542  26.844  23.213  1.00  0.00     0.045 H 
BRANCH  14  16
ATOM     16  C   UNL A   1      32.832  25.938  21.395  1.00  0.00    -0.049 C 
ATOM     17  H   UNL A   1      32.085  25.224  21.118  1.00  0.00     0.024 H 
ATOM     18  H   UNL A   1      33.784  25.621  21.022  1.00  0.00     0.024 H 
ATOM     19  H   UNL A   1      32.585  26.892  20.979  1.00  0.00     0.024 H 
ENDBRANCH  14  16
BRANCH  14  20
ATOM     20  C   UNL A   1      33.478  24.740  23.461  1.00  0.00    -0.036 A 
ATOM     21  C   UNL A   1      34.078  24.641  24.723  1.00  0.00    -0.058 A 
ATOM     22  C   UNL A   1      33.323  23.564  22.711  1.00  0.00    -0.058 A 
ATOM     23  C   UNL A   1      34.566  23.419  25.194  1.00  0.00    -0.051 A 
ATOM     24  H   UNL A   1      34.161  25.482  25.313  1.00  0.00     0.063 H 
ATOM     25  C   UNL A   1      33.772  22.331  23.200  1.00  0.00    -0.051 A 
ATOM     26  H   UNL A   1      32.870  23.608  21.785  1.00  0.00     0.063 H 
ATOM     27  C   UNL A   1      34.417  22.251  24.441  1.00  0.00     0.023 A 
ATOM     28  H   UNL A   1      35.042  23.379  26.109  1.00  0.00     0.063 H 
ATOM     29  H   UNL A   1      33.626  21.476  22.642  1.00  0.00     0.063 H 
BRANCH  27  30
ATOM     30  C   UNL A   1      34.908  20.964  25.038  1.00  0.00     0.202 C 
ATOM     31  O   UNL A   1      35.963  20.982  25.671  1.00  0.00    -0.288 OA
BRANCH  30  32
ATOM     32  C   UNL A   1      34.112  19.763  24.891  1.00  0.00     0.075 A 
ATOM     33  C   UNL A   1      32.745  19.589  24.991  1.00  0.00    -0.040 A 
ATOM     34  S   UNL A   1      34.911  18.300  24.505  1.00  0.00    -0.140 S 
ATOM     35  C   UNL A   1      32.363  18.228  24.805  1.00  0.00    -0.051 A 
ATOM     36  H   UNL A   1      32.078  20.355  25.178  1.00  0.00     0.064 H 
ATOM     37  C   UNL A   1      33.446  17.421  24.538  1.00  0.00    -0.009 A 
ATOM     38  H   UNL A   1      31.390  17.889  24.864  1.00  0.00     0.063 H 
ATOM     39  H   UNL A   1      33.380  16.403  24.375  1.00  0.00     0.074 H 
ENDBRANCH  30  32
ENDBRANCH  27  30
ENDBRANCH  14  20
ENDBRANCH  11  14
ENDBRANCH   7  10
ENDBRANCH   4   7
ENDBRANCH   1   4
BRANCH   1  40
ATOM     40  C   UNL A   1      31.723  30.704  26.169  1.00  0.00    -0.052 C 
ATOM     41  H   UNL A   1      30.921  30.472  25.500  1.00  0.00     0.027 H 
ATOM     42  H   UNL A   1      32.672  30.774  25.680  1.00  0.00     0.027 H 
BRANCH  40  43
ATOM     43  C   UNL A   1      31.450  32.077  26.783  1.00  0.00    -0.036 C 
ATOM     44  H   UNL A   1      30.808  31.945  27.628  1.00  0.00     0.028 H 
ATOM     45  H   UNL A   1      31.008  32.673  26.012  1.00  0.00     0.028 H 
BRANCH  43  46
ATOM     46  C   UNL A   1      32.699  32.819  27.245  1.00  0.00     0.018 C 
ATOM     47  H   UNL A   1      33.422  32.802  26.456  1.00  0.00     0.049 H 
ATOM     48  H   UNL A   1      33.069  32.328  28.121  1.00  0.00     0.049 H 
BRANCH  46  49
ATOM     49  N   UNL A   1      32.416  34.202  27.592  1.00  0.00    -0.352 N 
ATOM     50  C   UNL A   1      32.954  34.973  28.589  1.00  0.00     0.251 C 
ATOM     51  H   UNL A   1      31.741  34.649  27.030  1.00  0.00     0.163 HD
ATOM     52  O   UNL A   1      32.454  36.059  28.873  1.00  0.00    -0.269 OA
BRANCH  50  53
ATOM     53  C   UNL A   1      34.128  34.485  29.343  1.00  0.00     0.039 A 
ATOM     54  C   UNL A   1      33.934  33.934  30.612  1.00  0.00    -0.049 A 
ATOM     55  C   UNL A   1      35.414  34.565  28.800  1.00  0.00    -0.049 A 
ATOM     56  C   UNL A   1      35.021  33.404  31.308  1.00  0.00    -0.053 A 
ATOM     57  H   UNL A   1      32.991  33.920  31.032  1.00  0.00     0.063 H 
ATOM     58  C   UNL A   1      36.484  33.969  29.462  1.00  0.00    -0.053 A 
ATOM     59  H   UNL A   1      35.570  35.066  27.911  1.00  0.00     0.063 H 
ATOM     60  C   UNL A   1      36.298  33.380  30.722  1.00  0.00    -0.014 A 
ATOM     61  H   UNL A   1      34.886  33.027  32.260  1.00  0.00     0.063 H 
ATOM     62  H   UNL A   1      37.418  33.961  29.025  1.00  0.00     0.063 H 
BRANCH  60  63
ATOM     63  C   UNL A   1      37.441  32.724  31.407  1.00  0.00     0.031 A 
ATOM     64  C   UNL A   1      38.146  31.560  30.767  1.00  0.00     0.074 A 
ATOM     65  C   UNL A   1      37.806  33.143  32.635  1.00  0.00     0.049 A 
ATOM     66  N   UNL A   1      39.123  30.826  31.236  1.00  0.00    -0.248 NA
ATOM     67  C   UNL A   1      37.678  31.152  29.432  1.00  0.00    -0.034 C 
ATOM     68  C   UNL A   1      37.168  34.230  33.381  1.00  0.00    -0.036 A 
ATOM     69  N   UNL A   1      38.792  32.698  33.480  1.00  0.00    -0.354 N 
ATOM     70  C   UNL A   1      39.378  29.867  30.264  1.00  0.00     0.074 A 
ATOM     71  C   UNL A   1      38.422  30.079  29.200  1.00  0.00    -0.034 C 
ATOM     72  H   UNL A   1      36.958  31.586  28.834  1.00  0.00     0.065 H 
ATOM     73  C   UNL A   1      37.794  34.382  34.559  1.00  0.00    -0.036 A 
ATOM     74  H   UNL A   1      36.367  34.790  33.053  1.00  0.00     0.065 H 
ATOM     75  C   UNL A   1      38.845  33.376  34.674  1.00  0.00     0.049 A 
ATOM     76  H   UNL A   1      39.406  31.962  33.251  1.00  0.00     0.167 HD
ATOM     77  C   UNL A   1      40.336  28.910  30.253  1.00  0.00     0.037 A 
ATOM     78  H   UNL A   1      38.330  29.474  28.368  1.00  0.00     0.065 H 
ATOM     79  H   UNL A   1      37.567  35.096  35.269  1.00  0.00     0.065 H 
ATOM     80  C   UNL A   1      39.640  33.198  35.746  1.00  0.00     0.037 A 
ATOM     81  C   UNL A   1      41.302  28.719  31.304  1.00  0.00     0.049 A 
ATOM     82  C   UNL A   1      40.686  32.114  35.709  1.00  0.00     0.074 A 
ATOM     83  C   UNL A   1      42.353  27.821  31.354  1.00  0.00    -0.036 A 
ATOM     84  N   UNL A   1      41.331  29.433  32.493  1.00  0.00    -0.354 N 
ATOM     85  N   UNL A   1      40.968  31.267  34.750  1.00  0.00    -0.248 NA
ATOM     86  C   UNL A   1      41.527  31.966  36.905  1.00  0.00    -0.034 C 
ATOM     87  C   UNL A   1      42.981  27.949  32.596  1.00  0.00    -0.036 A 
ATOM     88  H   UNL A   1      42.628  27.169  30.603  1.00  0.00     0.065 H 
ATOM     89  C   UNL A   1      42.362  28.973  33.295  1.00  0.00     0.049 A 
ATOM     90  H   UNL A   1      40.710  30.159  32.731  1.00  0.00     0.167 HD
ATOM     91  C   UNL A   1      42.037  30.511  35.210  1.00  0.00     0.074 A 
ATOM     92  C   UNL A   1      42.366  31.013  36.527  1.00  0.00    -0.034 C 
ATOM     93  H   UNL A   1      41.479  32.472  37.802  1.00  0.00     0.065 H 
ATOM     94  H   UNL A   1      43.772  27.379  32.934  1.00  0.00     0.065 H 
ATOM     95  C   UNL A   1      42.686  29.490  34.599  1.00  0.00     0.037 A 
ATOM     96  H   UNL A   1      43.154  30.671  37.100  1.00  0.00     0.065 H 
BRANCH  77  97
ATOM     97  C   UNL A   1      40.401  27.991  29.069  1.00  0.00     0.064 A 
ATOM     98  C   UNL A   1      39.634  26.817  29.003  1.00  0.00     0.173 A 
ATOM     99  C   UNL A   1      41.179  28.329  27.950  1.00  0.00     0.173 A 
ATOM    100  F   UNL A   1      38.882  26.443  30.048  1.00  0.00    -0.203 F 
ATOM    101  C   UNL A   1      39.656  26.009  27.869  1.00  0.00     0.198 A 
ATOM    102  C   UNL A   1      41.174  27.534  26.806  1.00  0.00     0.198 A 
ATOM    103  F   UNL A   1      41.926  29.443  27.957  1.00  0.00    -0.203 F 
ATOM    104  F   UNL A   1      38.942  24.876  27.842  1.00  0.00    -0.200 F 
ATOM    105  C   UNL A   1      40.416  26.374  26.767  1.00  0.00     0.200 A 
ATOM    106  F   UNL A   1      41.896  27.898  25.738  1.00  0.00    -0.200 F 
ATOM    107  F   UNL A   1      40.420  25.606  25.670  1.00  0.00    -0.200 F 
ENDBRANCH  77  97
BRANCH  80 108
ATOM    108  C   UNL A   1      39.487  34.061  36.948  1.00  0.00     0.064 A 
ATOM    109  C   UNL A   1      40.130  35.304  37.033  1.00  0.00     0.173 A 
ATOM    110  C   UNL A   1      38.730  33.644  38.054  1.00  0.00     0.173 A 
ATOM    111  F   UNL A   1      40.883  35.740  36.012  1.00  0.00    -0.203 F 
ATOM    112  C   UNL A   1      40.054  36.079  38.190  1.00  0.00     0.198 A 
ATOM    113  C   UNL A   1      38.624  34.436  39.196  1.00  0.00     0.198 A 
ATOM    114  F   UNL A   1      38.089  32.467  38.024  1.00  0.00    -0.203 F 
ATOM    115  F   UNL A   1      40.735  37.229  38.268  1.00  0.00    -0.200 F 
ATOM    116  C   UNL A   1      39.298  35.646  39.268  1.00  0.00     0.200 A 
ATOM    117  F   UNL A   1      37.878  34.022  40.229  1.00  0.00    -0.200 F 
ATOM    118  F   UNL A   1      39.228  36.387  40.382  1.00  0.00    -0.200 F 
ENDBRANCH  80 108
BRANCH  95 119
ATOM    119  C   UNL A   1      43.845  28.874  35.330  1.00  0.00     0.064 A 
ATOM    120  C   UNL A   1      43.669  27.829  36.249  1.00  0.00     0.173 A 
ATOM    121  C   UNL A   1      45.155  29.312  35.079  1.00  0.00     0.173 A 
ATOM    122  F   UNL A   1      42.436  27.383  36.536  1.00  0.00    -0.203 F 
ATOM    123  C   UNL A   1      44.756  27.268  36.914  1.00  0.00     0.198 A 
ATOM    124  C   UNL A   1      46.243  28.724  35.717  1.00  0.00     0.198 A 
ATOM    125  F   UNL A   1      45.381  30.302  34.203  1.00  0.00    -0.203 F 
ATOM    126  F   UNL A   1      44.558  26.310  37.829  1.00  0.00    -0.200 F 
ATOM    127  C   UNL A   1      46.043  27.710  36.641  1.00  0.00     0.200 A 
ATOM    128  F   UNL A   1      47.487  29.141  35.439  1.00  0.00    -0.200 F 
ATOM    129  F   UNL A   1      47.088  27.163  37.275  1.00  0.00    -0.200 F 
ENDBRANCH  95 119
ENDBRANCH  60  63
ENDBRANCH  50  53
ENDBRANCH  46  49
ENDBRANCH  43  46
ENDBRANCH  40  43
ENDBRANCH   1  40
TORSDOF 17
ENDMDL
MODEL 10
REMARK VINA RESULT:     -11.2      6.281     11.405
REMARK SMILES C[C@@H](C(=O)NCCCCCCNC(=O)c1ccc(-c2c3nc(c(-c4c(F)c(F)c(F)c(F)c4F)c4ccc([nH]4)c(-c4c(F)c(F)c(F)c(F)c4F)c4nc(c(-c5c(F)c(F)c(F)c(F)c5F)c5ccc2[nH]5)C=C4)C=C3)cc1)c1ccc(C(=O)c2cccs2)cc1
REMARK SMILES IDX 8 1 7 4 6 7 5 10 3 11 4 12 2 14 1 16 78 20 79 21 90 22 80 23
REMARK SMILES IDX 89 25 81 27 82 30 83 31 84 32 85 33 88 34 86 35 87 37 9 40
REMARK SMILES IDX 10 43 11 46 12 49 13 50 14 52 15 53 16 54 77 55 17 56 76 58
REMARK SMILES IDX 18 60 19 63 20 64 70 65 21 66 75 67 69 68 71 69 22 70 74 71
REMARK SMILES IDX 68 73 67 75 23 77 55 80 35 81 54 82 36 83 39 84 53 85 72 86
REMARK SMILES IDX 37 87 38 89 52 91 73 92 40 95 24 97 25 98 33 99 26 100
REMARK SMILES IDX 27 101 31 102 34 103 28 104 29 105 32 106 30 107 56 108
REMARK SMILES IDX 57 109 65 110 58 111 59 112 63 113 66 114 60 115 61 116
REMARK SMILES IDX 64 117 62 118 41 119 42 120 50 121 43 122 44 123 48 124
REMARK SMILES IDX 51 125 45 126 46 127 49 128 47 129
REMARK H PARENT 8 2 8 3 7 5 7 6 6 8 6 9 5 13 2 15 1 17 1 18 1 19 79 24 90 26
REMARK H PARENT 80 28 89 29 85 36 86 38 87 39 9 41 9 42 10 44 10 45 11 47
REMARK H PARENT 11 48 12 51 16 57 77 59 17 61 76 62 75 72 69 74 71 76 74 78
REMARK H PARENT 68 79 36 88 39 90 72 93 37 94 73 96
REMARK Flexibility Score: inf
ROOT
ATOM      1  C   UNL A   1      39.879  21.884  26.721  1.00  0.00    -0.052 C 
ATOM      2  H   UNL A   1      39.232  21.384  26.031  1.00  0.00     0.027 H 
ATOM      3  H   UNL A   1      39.670  21.654  27.746  1.00  0.00     0.027 H 
ENDROOT
BRANCH   1   4
ATOM      4  C   UNL A   1      39.661  23.397  26.569  1.00  0.00    -0.036 C 
ATOM      5  H   UNL A   1      40.032  23.879  27.449  1.00  0.00     0.028 H 
ATOM      6  H   UNL A   1      40.179  23.695  25.683  1.00  0.00     0.028 H 
BRANCH   4   7
ATOM      7  C   UNL A   1      38.197  23.804  26.380  1.00  0.00     0.017 C 
ATOM      8  H   UNL A   1      37.580  23.213  27.024  1.00  0.00     0.049 H 
ATOM      9  H   UNL A   1      38.092  24.842  26.620  1.00  0.00     0.049 H 
BRANCH   7  10
ATOM     10  N   UNL A   1      37.787  23.598  25.009  1.00  0.00    -0.356 N 
ATOM     11  C   UNL A   1      36.665  23.030  24.487  1.00  0.00     0.227 C 
ATOM     12  O   UNL A   1      36.668  22.895  23.261  1.00  0.00    -0.274 OA
ATOM     13  H   UNL A   1      38.430  23.923  24.339  1.00  0.00     0.163 HD
BRANCH  11  14
ATOM     14  C   UNL A   1      35.484  22.659  25.403  1.00  0.00     0.060 C 
ATOM     15  H   UNL A   1      35.982  22.455  26.327  1.00  0.00     0.045 H 
BRANCH  14  16
ATOM     16  C   UNL A   1      34.713  21.425  24.927  1.00  0.00    -0.049 C 
ATOM     17  H   UNL A   1      33.703  21.700  24.701  1.00  0.00     0.024 H 
ATOM     18  H   UNL A   1      34.716  20.682  25.698  1.00  0.00     0.024 H 
ATOM     19  H   UNL A   1      35.180  21.030  24.049  1.00  0.00     0.024 H 
ENDBRANCH  14  16
BRANCH  14  20
ATOM     20  C   UNL A   1      34.467  23.776  25.654  1.00  0.00    -0.036 A 
ATOM     21  C   UNL A   1      34.692  25.107  25.278  1.00  0.00    -0.058 A 
ATOM     22  C   UNL A   1      33.213  23.447  26.190  1.00  0.00    -0.058 A 
ATOM     23  C   UNL A   1      33.722  26.089  25.490  1.00  0.00    -0.051 A 
ATOM     24  H   UNL A   1      35.589  25.366  24.839  1.00  0.00     0.063 H 
ATOM     25  C   UNL A   1      32.222  24.421  26.362  1.00  0.00    -0.051 A 
ATOM     26  H   UNL A   1      33.016  22.470  26.461  1.00  0.00     0.063 H 
ATOM     27  C   UNL A   1      32.476  25.758  26.031  1.00  0.00     0.023 A 
ATOM     28  H   UNL A   1      33.927  27.070  25.243  1.00  0.00     0.063 H 
ATOM     29  H   UNL A   1      31.299  24.152  26.735  1.00  0.00     0.063 H 
BRANCH  27  30
ATOM     30  C   UNL A   1      31.459  26.854  26.171  1.00  0.00     0.202 C 
ATOM     31  O   UNL A   1      31.058  27.136  27.300  1.00  0.00    -0.288 OA
BRANCH  30  32
ATOM     32  C   UNL A   1      31.020  27.571  24.991  1.00  0.00     0.075 A 
ATOM     33  C   UNL A   1      31.198  28.896  24.643  1.00  0.00    -0.040 A 
ATOM     34  S   UNL A   1      30.173  26.705  23.783  1.00  0.00    -0.140 S 
ATOM     35  C   UNL A   1      30.579  29.210  23.398  1.00  0.00    -0.051 A 
ATOM     36  H   UNL A   1      31.718  29.579  25.217  1.00  0.00     0.064 H 
ATOM     37  C   UNL A   1      29.981  28.108  22.826  1.00  0.00    -0.009 A 
ATOM     38  H   UNL A   1      30.578  30.152  22.975  1.00  0.00     0.063 H 
ATOM     39  H   UNL A   1      29.478  28.129  21.925  1.00  0.00     0.074 H 
ENDBRANCH  30  32
ENDBRANCH  27  30
ENDBRANCH  14  20
ENDBRANCH  11  14
ENDBRANCH   7  10
ENDBRANCH   4   7
ENDBRANCH   1   4
BRANCH   1  40
ATOM     40  C   UNL A   1      41.311  21.407  26.462  1.00  0.00    -0.052 C 
ATOM     41  H   UNL A   1      41.886  21.580  27.347  1.00  0.00     0.027 H 
ATOM     42  H   UNL A   1      41.664  21.959  25.615  1.00  0.00     0.027 H 
BRANCH  40  43
ATOM     43  C   UNL A   1      41.436  19.928  26.093  1.00  0.00    -0.036 C 
ATOM     44  H   UNL A   1      41.229  19.825  25.049  1.00  0.00     0.028 H 
ATOM     45  H   UNL A   1      40.739  19.400  26.710  1.00  0.00     0.028 H 
BRANCH  43  46
ATOM     46  C   UNL A   1      42.807  19.324  26.370  1.00  0.00     0.018 C 
ATOM     47  H   UNL A   1      42.683  18.447  26.971  1.00  0.00     0.049 H 
ATOM     48  H   UNL A   1      43.396  20.060  26.877  1.00  0.00     0.049 H 
BRANCH  46  49
ATOM     49  N   UNL A   1      43.501  18.960  25.146  1.00  0.00    -0.352 N 
ATOM     50  C   UNL A   1      44.268  19.739  24.319  1.00  0.00     0.251 C 
ATOM     51  H   UNL A   1      43.406  18.018  24.870  1.00  0.00     0.163 HD
ATOM     52  O   UNL A   1      44.612  19.322  23.216  1.00  0.00    -0.269 OA
BRANCH  50  53
ATOM     53  C   UNL A   1      44.663  21.097  24.748  1.00  0.00     0.039 A 
ATOM     54  C   UNL A   1      44.231  22.193  23.999  1.00  0.00    -0.049 A 
ATOM     55  C   UNL A   1      45.452  21.289  25.887  1.00  0.00    -0.049 A 
ATOM     56  C   UNL A   1      44.535  23.487  24.429  1.00  0.00    -0.053 A 
ATOM     57  H   UNL A   1      43.690  22.048  23.132  1.00  0.00     0.063 H 
ATOM     58  C   UNL A   1      45.690  22.579  26.355  1.00  0.00    -0.053 A 
ATOM     59  H   UNL A   1      45.857  20.477  26.378  1.00  0.00     0.063 H 
ATOM     60  C   UNL A   1      45.232  23.690  25.631  1.00  0.00    -0.014 A 
ATOM     61  H   UNL A   1      44.246  24.297  23.859  1.00  0.00     0.063 H 
ATOM     62  H   UNL A   1      46.206  22.717  27.237  1.00  0.00     0.063 H 
BRANCH  60  63
ATOM     63  C   UNL A   1      45.469  25.060  26.155  1.00  0.00     0.031 A 
ATOM     64  C   UNL A   1      44.337  25.858  26.741  1.00  0.00     0.074 A 
ATOM     65  C   UNL A   1      46.697  25.607  26.046  1.00  0.00     0.049 A 
ATOM     66  N   UNL A   1      44.340  27.086  27.195  1.00  0.00    -0.248 NA
ATOM     67  C   UNL A   1      43.024  25.198  26.809  1.00  0.00    -0.034 C 
ATOM     68  C   UNL A   1      47.864  24.951  25.452  1.00  0.00    -0.036 A 
ATOM     69  N   UNL A   1      47.167  26.842  26.419  1.00  0.00    -0.354 N 
ATOM     70  C   UNL A   1      43.034  27.349  27.588  1.00  0.00     0.074 A 
ATOM     71  C   UNL A   1      42.255  26.170  27.277  1.00  0.00    -0.034 C 
ATOM     72  H   UNL A   1      42.768  24.230  26.558  1.00  0.00     0.065 H 
ATOM     73  C   UNL A   1      48.918  25.780  25.521  1.00  0.00    -0.036 A 
ATOM     74  H   UNL A   1      47.874  24.003  25.045  1.00  0.00     0.065 H 
ATOM     75  C   UNL A   1      48.493  27.041  26.122  1.00  0.00     0.049 A 
ATOM     76  H   UNL A   1      46.605  27.522  26.859  1.00  0.00     0.167 HD
ATOM     77  C   UNL A   1      42.538  28.463  28.176  1.00  0.00     0.037 A 
ATOM     78  H   UNL A   1      41.232  26.097  27.403  1.00  0.00     0.065 H 
ATOM     79  H   UNL A   1      49.874  25.561  25.202  1.00  0.00     0.065 H 
ATOM     80  C   UNL A   1      49.276  28.123  26.300  1.00  0.00     0.037 A 
ATOM     81  C   UNL A   1      43.323  29.623  28.507  1.00  0.00     0.049 A 
ATOM     82  C   UNL A   1      48.689  29.353  26.941  1.00  0.00     0.074 A 
ATOM     83  C   UNL A   1      42.925  30.774  29.163  1.00  0.00    -0.036 A 
ATOM     84  N   UNL A   1      44.667  29.784  28.201  1.00  0.00    -0.354 N 
ATOM     85  N   UNL A   1      47.472  29.557  27.382  1.00  0.00    -0.248 NA
ATOM     86  C   UNL A   1      49.588  30.503  27.112  1.00  0.00    -0.034 C 
ATOM     87  C   UNL A   1      44.009  31.655  29.201  1.00  0.00    -0.036 A 
ATOM     88  H   UNL A   1      41.988  30.952  29.558  1.00  0.00     0.065 H 
ATOM     89  C   UNL A   1      45.102  31.028  28.627  1.00  0.00     0.049 A 
ATOM     90  H   UNL A   1      45.227  29.113  27.748  1.00  0.00     0.167 HD
ATOM     91  C   UNL A   1      47.468  30.840  27.913  1.00  0.00     0.074 A 
ATOM     92  C   UNL A   1      48.809  31.360  27.756  1.00  0.00    -0.034 C 
ATOM     93  H   UNL A   1      50.568  30.613  26.812  1.00  0.00     0.065 H 
ATOM     94  H   UNL A   1      43.997  32.610  29.592  1.00  0.00     0.065 H 
ATOM     95  C   UNL A   1      46.444  31.527  28.475  1.00  0.00     0.037 A 
ATOM     96  H   UNL A   1      49.120  32.281  28.101  1.00  0.00     0.065 H 
BRANCH  77  97
ATOM     97  C   UNL A   1      41.074  28.492  28.508  1.00  0.00     0.064 A 
ATOM     98  C   UNL A   1      40.594  28.080  29.761  1.00  0.00     0.173 A 
ATOM     99  C   UNL A   1      40.148  29.014  27.591  1.00  0.00     0.173 A 
ATOM    100  F   UNL A   1      41.435  27.564  30.670  1.00  0.00    -0.203 F 
ATOM    101  C   UNL A   1      39.241  28.175  30.077  1.00  0.00     0.198 A 
ATOM    102  C   UNL A   1      38.801  29.136  27.923  1.00  0.00     0.198 A 
ATOM    103  F   UNL A   1      40.554  29.428  26.381  1.00  0.00    -0.203 F 
ATOM    104  F   UNL A   1      38.801  27.743  31.267  1.00  0.00    -0.200 F 
ATOM    105  C   UNL A   1      38.348  28.713  29.163  1.00  0.00     0.200 A 
ATOM    106  F   UNL A   1      37.943  29.672  27.043  1.00  0.00    -0.200 F 
ATOM    107  F   UNL A   1      37.050  28.822  29.476  1.00  0.00    -0.200 F 
ENDBRANCH  77  97
BRANCH  80 108
ATOM    108  C   UNL A   1      50.700  28.100  25.868  1.00  0.00     0.064 A 
ATOM    109  C   UNL A   1      51.737  27.976  26.804  1.00  0.00     0.173 A 
ATOM    110  C   UNL A   1      51.056  28.245  24.519  1.00  0.00     0.173 A 
ATOM    111  F   UNL A   1      51.451  27.856  28.109  1.00  0.00    -0.203 F 
ATOM    112  C   UNL A   1      53.073  28.035  26.412  1.00  0.00     0.198 A 
ATOM    113  C   UNL A   1      52.392  28.267  24.124  1.00  0.00     0.198 A 
ATOM    114  F   UNL A   1      50.104  28.361  23.582  1.00  0.00    -0.203 F 
ATOM    115  F   UNL A   1      54.042  27.983  27.335  1.00  0.00    -0.200 F 
ATOM    116  C   UNL A   1      53.399  28.177  25.072  1.00  0.00     0.200 A 
ATOM    117  F   UNL A   1      52.702  28.386  22.826  1.00  0.00    -0.200 F 
ATOM    118  F   UNL A   1      54.684  28.239  24.695  1.00  0.00    -0.200 F 
ENDBRANCH  80 108
BRANCH  95 119
ATOM    119  C   UNL A   1      46.744  32.901  29.002  1.00  0.00     0.064 A 
ATOM    120  C   UNL A   1      46.589  34.048  28.210  1.00  0.00     0.173 A 
ATOM    121  C   UNL A   1      47.159  33.075  30.332  1.00  0.00     0.173 A 
ATOM    122  F   UNL A   1      46.209  33.936  26.928  1.00  0.00    -0.203 F 
ATOM    123  C   UNL A   1      46.868  35.314  28.717  1.00  0.00     0.198 A 
ATOM    124  C   UNL A   1      47.402  34.345  30.848  1.00  0.00     0.198 A 
ATOM    125  F   UNL A   1      47.316  32.014  31.137  1.00  0.00    -0.203 F 
ATOM    126  F   UNL A   1      46.767  36.390  27.924  1.00  0.00    -0.200 F 
ATOM    127  C   UNL A   1      47.266  35.463  30.038  1.00  0.00     0.200 A 
ATOM    128  F   UNL A   1      47.769  34.488  32.129  1.00  0.00    -0.200 F 
ATOM    129  F   UNL A   1      47.526  36.682  30.527  1.00  0.00    -0.200 F 
ENDBRANCH  95 119
ENDBRANCH  60  63
ENDBRANCH  50  53
ENDBRANCH  46  49
ENDBRANCH  43  46
ENDBRANCH  40  43
ENDBRANCH   1  40
TORSDOF 17
ENDMDL
