MODEL 1
REMARK VINA RESULT:     -13.2      0.000      0.000
REMARK SMILES [NH3+][C@@H](Cc1cn(-c2nc(Cl)nc(N3CCOCC3)n2)c2ccccc12)C(=O)NCCCCCCNC(=O)c1ccc(-c2c3nc(c(-c4c(F)c(F)c(F)c(F)c4F)c4ccc([nH]4)c(-c4c(F)c(F)c(F)c(F)c4F)c4nc(c(-c5c(F)c(F)c(F)c(F)c5F)c5ccc2[nH]5)C=C4)C=C3)cc1
REMARK SMILES IDX 30 1 29 4 28 7 26 8 27 9 2 11 1 13 3 17 4 20 5 21 25 22 6 23
REMARK SMILES IDX 20 25 24 26 21 27 23 28 22 30 7 34 8 35 19 36 9 37 12 38
REMARK SMILES IDX 10 39 11 40 13 41 14 42 18 43 15 44 17 47 16 50 31 55 32 58
REMARK SMILES IDX 33 61 34 64 35 67 36 68 37 70 38 71 39 72 100 73 40 74 99 76
REMARK SMILES IDX 41 78 42 81 43 82 93 83 44 84 98 85 92 86 94 87 45 88 97 89
REMARK SMILES IDX 91 91 90 93 46 95 78 98 58 99 77 100 59 101 62 102 76 103
REMARK SMILES IDX 95 104 60 105 61 107 75 109 96 110 63 113 47 115 48 116
REMARK SMILES IDX 56 117 49 118 50 119 54 120 57 121 51 122 52 123 55 124
REMARK SMILES IDX 53 125 79 126 80 127 88 128 81 129 82 130 86 131 89 132
REMARK SMILES IDX 83 133 84 134 87 135 85 136 64 137 65 138 73 139 66 140
REMARK SMILES IDX 67 141 71 142 74 143 68 144 69 145 72 146 70 147
REMARK H PARENT 30 2 30 3 29 5 29 6 28 10 2 12 1 14 1 15 1 16 3 18 3 19 5 24
REMARK H PARENT 24 29 21 31 23 32 22 33 14 45 14 46 18 48 18 49 15 51 15 52
REMARK H PARENT 17 53 17 54 31 56 31 57 32 59 32 60 33 62 33 63 34 65 34 66
REMARK H PARENT 35 69 39 75 100 77 40 79 99 80 98 90 92 92 94 94 97 96 91 97
REMARK H PARENT 59 106 62 108 95 111 60 112 96 114
REMARK Flexibility Score: inf
ROOT
ATOM      1  C   UNL A   1      39.082  22.641  26.179  1.00  0.00    -0.036 C 
ATOM      2  H   UNL A   1      38.913  22.966  27.185  1.00  0.00     0.028 H 
ATOM      3  H   UNL A   1      39.574  23.365  25.563  1.00  0.00     0.028 H 
ENDROOT
BRANCH   1   4
ATOM      4  C   UNL A   1      37.734  22.407  25.537  1.00  0.00     0.018 C 
ATOM      5  H   UNL A   1      37.556  23.213  24.856  1.00  0.00     0.049 H 
ATOM      6  H   UNL A   1      37.808  21.441  25.083  1.00  0.00     0.049 H 
BRANCH   4   7
ATOM      7  N   UNL A   1      36.601  22.322  26.411  1.00  0.00    -0.351 N 
ATOM      8  C   UNL A   1      35.388  21.740  26.149  1.00  0.00     0.278 C 
ATOM      9  O   UNL A   1      34.649  21.536  27.119  1.00  0.00    -0.268 OA
ATOM     10  H   UNL A   1      36.706  22.726  27.302  1.00  0.00     0.163 HD
BRANCH   8  11
ATOM     11  C   UNL A   1      34.918  21.362  24.710  1.00  0.00     0.168 C 
ATOM     12  H   UNL A   1      35.825  21.275  24.149  1.00  0.00     0.107 H 
BRANCH  11  13
ATOM     13  N   UNL A   1      34.277  20.027  24.675  1.00  0.00    -0.347 N 
ATOM     14  H   UNL A   1      34.160  19.681  25.627  1.00  0.00     0.345 HD
ATOM     15  H   UNL A   1      34.864  19.382  24.147  1.00  0.00     0.345 HD
ATOM     16  H   UNL A   1      33.364  20.100  24.226  1.00  0.00     0.345 HD
ENDBRANCH  11  13
BRANCH  11  17
ATOM     17  C   UNL A   1      34.234  22.467  23.869  1.00  0.00     0.036 C 
ATOM     18  H   UNL A   1      33.557  21.976  23.201  1.00  0.00     0.038 H 
ATOM     19  H   UNL A   1      35.055  22.992  23.427  1.00  0.00     0.038 H 
BRANCH  17  20
ATOM     20  C   UNL A   1      33.451  23.553  24.567  1.00  0.00    -0.015 A 
ATOM     21  C   UNL A   1      33.670  24.923  24.554  1.00  0.00     0.017 A 
ATOM     22  C   UNL A   1      32.267  23.351  25.350  1.00  0.00     0.004 A 
ATOM     23  N   UNL A   1      32.605  25.572  25.163  1.00  0.00    -0.285 N 
ATOM     24  H   UNL A   1      34.499  25.388  24.153  1.00  0.00     0.083 H 
ATOM     25  C   UNL A   1      31.785  24.606  25.752  1.00  0.00     0.056 A 
ATOM     26  C   UNL A   1      31.524  22.193  25.682  1.00  0.00    -0.053 A 
ATOM     27  C   UNL A   1      30.581  24.720  26.478  1.00  0.00    -0.037 A 
ATOM     28  C   UNL A   1      30.314  22.310  26.366  1.00  0.00    -0.062 A 
ATOM     29  H   UNL A   1      31.878  21.261  25.417  1.00  0.00     0.063 H 
ATOM     30  C   UNL A   1      29.849  23.559  26.757  1.00  0.00    -0.060 A 
ATOM     31  H   UNL A   1      30.245  25.642  26.798  1.00  0.00     0.065 H 
ATOM     32  H   UNL A   1      29.762  21.465  26.583  1.00  0.00     0.062 H 
ATOM     33  H   UNL A   1      28.951  23.633  27.260  1.00  0.00     0.062 H 
BRANCH  23  34
ATOM     34  C   UNL A   1      32.316  26.978  25.046  1.00  0.00     0.240 A 
ATOM     35  N   UNL A   1      32.939  27.811  25.865  1.00  0.00    -0.181 NA
ATOM     36  N   UNL A   1      31.382  27.363  24.153  1.00  0.00    -0.176 NA
ATOM     37  C   UNL A   1      32.614  29.080  25.654  1.00  0.00     0.228 A 
ATOM     38  C   UNL A   1      31.046  28.663  24.132  1.00  0.00     0.231 A 
ATOM     39  Cl  UNL A   1      33.548  30.229  26.508  1.00  0.00    -0.041 Cl
ATOM     40  N   UNL A   1      31.677  29.573  24.850  1.00  0.00    -0.182 NA
BRANCH  38  41
ATOM     41  N   UNL A   1      30.043  29.050  23.280  1.00  0.00    -0.336 N 
ATOM     42  C   UNL A   1      30.298  29.702  21.990  1.00  0.00     0.044 C 
ATOM     43  C   UNL A   1      28.851  28.208  23.185  1.00  0.00     0.044 C 
ATOM     44  C   UNL A   1      29.124  30.652  21.725  1.00  0.00     0.064 C 
ATOM     45  H   UNL A   1      30.359  28.967  21.214  1.00  0.00     0.052 H 
ATOM     46  H   UNL A   1      31.225  30.237  22.011  1.00  0.00     0.052 H 
ATOM     47  C   UNL A   1      27.665  29.130  22.821  1.00  0.00     0.064 C 
ATOM     48  H   UNL A   1      28.668  27.726  24.123  1.00  0.00     0.052 H 
ATOM     49  H   UNL A   1      28.983  27.449  22.443  1.00  0.00     0.052 H 
ATOM     50  O   UNL A   1      27.902  29.903  21.624  1.00  0.00    -0.378 OA
ATOM     51  H   UNL A   1      29.293  31.179  20.808  1.00  0.00     0.059 H 
ATOM     52  H   UNL A   1      29.044  31.350  22.533  1.00  0.00     0.059 H 
ATOM     53  H   UNL A   1      26.796  28.524  22.671  1.00  0.00     0.059 H 
ATOM     54  H   UNL A   1      27.535  29.820  23.628  1.00  0.00     0.059 H 
ENDBRANCH  38  41
ENDBRANCH  23  34
ENDBRANCH  17  20
ENDBRANCH  11  17
ENDBRANCH   8  11
ENDBRANCH   4   7
ENDBRANCH   1   4
BRANCH   1  55
ATOM     55  C   UNL A   1      40.018  21.438  26.229  1.00  0.00    -0.052 C 
ATOM     56  H   UNL A   1      40.500  21.373  25.276  1.00  0.00     0.027 H 
ATOM     57  H   UNL A   1      39.380  20.619  26.488  1.00  0.00     0.027 H 
BRANCH  55  58
ATOM     58  C   UNL A   1      41.122  21.417  27.303  1.00  0.00    -0.052 C 
ATOM     59  H   UNL A   1      40.652  21.182  28.235  1.00  0.00     0.027 H 
ATOM     60  H   UNL A   1      41.573  22.384  27.233  1.00  0.00     0.027 H 
BRANCH  58  61
ATOM     61  C   UNL A   1      42.294  20.445  27.130  1.00  0.00    -0.036 C 
ATOM     62  H   UNL A   1      42.312  19.795  27.979  1.00  0.00     0.028 H 
ATOM     63  H   UNL A   1      43.170  21.052  27.035  1.00  0.00     0.028 H 
BRANCH  61  64
ATOM     64  C   UNL A   1      42.244  19.589  25.888  1.00  0.00     0.018 C 
ATOM     65  H   UNL A   1      41.380  19.878  25.329  1.00  0.00     0.049 H 
ATOM     66  H   UNL A   1      42.228  18.579  26.242  1.00  0.00     0.049 H 
BRANCH  64  67
ATOM     67  N   UNL A   1      43.387  19.665  25.003  1.00  0.00    -0.352 N 
ATOM     68  C   UNL A   1      44.428  20.534  24.845  1.00  0.00     0.251 C 
ATOM     69  H   UNL A   1      43.422  18.916  24.367  1.00  0.00     0.163 HD
ATOM     70  O   UNL A   1      45.371  20.151  24.146  1.00  0.00    -0.269 OA
BRANCH  68  71
ATOM     71  C   UNL A   1      44.417  21.933  25.325  1.00  0.00     0.039 A 
ATOM     72  C   UNL A   1      45.211  22.435  26.350  1.00  0.00    -0.049 A 
ATOM     73  C   UNL A   1      43.442  22.766  24.747  1.00  0.00    -0.049 A 
ATOM     74  C   UNL A   1      44.874  23.637  26.950  1.00  0.00    -0.053 A 
ATOM     75  H   UNL A   1      46.047  21.916  26.661  1.00  0.00     0.063 H 
ATOM     76  C   UNL A   1      43.145  24.000  25.299  1.00  0.00    -0.053 A 
ATOM     77  H   UNL A   1      42.942  22.453  23.899  1.00  0.00     0.063 H 
ATOM     78  C   UNL A   1      43.792  24.382  26.464  1.00  0.00    -0.014 A 
ATOM     79  H   UNL A   1      45.419  23.982  27.756  1.00  0.00     0.063 H 
ATOM     80  H   UNL A   1      42.454  24.623  24.852  1.00  0.00     0.063 H 
BRANCH  78  81
ATOM     81  C   UNL A   1      43.478  25.645  27.118  1.00  0.00     0.031 A 
ATOM     82  C   UNL A   1      44.462  26.711  26.792  1.00  0.00     0.074 A 
ATOM     83  C   UNL A   1      42.393  25.844  27.899  1.00  0.00     0.049 A 
ATOM     84  N   UNL A   1      45.318  27.247  27.597  1.00  0.00    -0.248 NA
ATOM     85  C   UNL A   1      44.661  27.073  25.379  1.00  0.00    -0.034 C 
ATOM     86  C   UNL A   1      41.265  24.947  28.157  1.00  0.00    -0.036 A 
ATOM     87  N   UNL A   1      42.054  26.955  28.617  1.00  0.00    -0.354 N 
ATOM     88  C   UNL A   1      46.039  28.160  26.836  1.00  0.00     0.074 A 
ATOM     89  C   UNL A   1      45.707  27.897  25.460  1.00  0.00    -0.034 C 
ATOM     90  H   UNL A   1      44.133  26.769  24.547  1.00  0.00     0.065 H 
ATOM     91  C   UNL A   1      40.270  25.629  28.775  1.00  0.00    -0.036 A 
ATOM     92  H   UNL A   1      41.232  23.947  27.906  1.00  0.00     0.065 H 
ATOM     93  C   UNL A   1      40.744  26.962  29.098  1.00  0.00     0.049 A 
ATOM     94  H   UNL A   1      42.684  27.694  28.780  1.00  0.00     0.167 HD
ATOM     95  C   UNL A   1      46.658  29.215  27.432  1.00  0.00     0.037 A 
ATOM     96  H   UNL A   1      46.208  28.293  24.649  1.00  0.00     0.065 H 
ATOM     97  H   UNL A   1      39.329  25.261  28.982  1.00  0.00     0.065 H 
ATOM     98  C   UNL A   1      40.110  28.004  29.705  1.00  0.00     0.037 A 
ATOM     99  C   UNL A   1      46.866  28.960  28.835  1.00  0.00     0.049 A 
ATOM    100  C   UNL A   1      41.170  28.894  30.243  1.00  0.00     0.074 A 
ATOM    101  C   UNL A   1      47.608  28.046  29.559  1.00  0.00    -0.036 A 
ATOM    102  N   UNL A   1      45.947  29.473  29.713  1.00  0.00    -0.354 N 
ATOM    103  N   UNL A   1      41.963  28.548  31.218  1.00  0.00    -0.248 NA
ATOM    104  C   UNL A   1      41.664  29.940  29.361  1.00  0.00    -0.034 C 
ATOM    105  C   UNL A   1      46.792  27.711  30.679  1.00  0.00    -0.036 A 
ATOM    106  H   UNL A   1      48.549  27.684  29.336  1.00  0.00     0.065 H 
ATOM    107  C   UNL A   1      45.640  28.495  30.622  1.00  0.00     0.049 A 
ATOM    108  H   UNL A   1      45.573  30.383  29.694  1.00  0.00     0.167 HD
ATOM    109  C   UNL A   1      43.212  28.998  30.822  1.00  0.00     0.074 A 
ATOM    110  C   UNL A   1      42.958  29.885  29.686  1.00  0.00    -0.034 C 
ATOM    111  H   UNL A   1      41.164  30.543  28.689  1.00  0.00     0.065 H 
ATOM    112  H   UNL A   1      47.015  27.012  31.404  1.00  0.00     0.065 H 
ATOM    113  C   UNL A   1      44.348  28.380  31.255  1.00  0.00     0.037 A 
ATOM    114  H   UNL A   1      43.696  30.409  29.192  1.00  0.00     0.065 H 
BRANCH  95 115
ATOM    115  C   UNL A   1      46.668  30.611  26.859  1.00  0.00     0.064 A 
ATOM    116  C   UNL A   1      47.871  31.346  26.873  1.00  0.00     0.173 A 
ATOM    117  C   UNL A   1      45.501  31.365  26.607  1.00  0.00     0.173 A 
ATOM    118  F   UNL A   1      49.041  30.738  27.122  1.00  0.00    -0.203 F 
ATOM    119  C   UNL A   1      47.889  32.737  26.735  1.00  0.00     0.198 A 
ATOM    120  C   UNL A   1      45.527  32.746  26.421  1.00  0.00     0.198 A 
ATOM    121  F   UNL A   1      44.277  30.826  26.643  1.00  0.00    -0.203 F 
ATOM    122  F   UNL A   1      49.039  33.406  26.889  1.00  0.00    -0.200 F 
ATOM    123  C   UNL A   1      46.716  33.435  26.518  1.00  0.00     0.200 A 
ATOM    124  F   UNL A   1      44.376  33.406  26.237  1.00  0.00    -0.200 F 
ATOM    125  F   UNL A   1      46.721  34.772  26.452  1.00  0.00    -0.200 F 
ENDBRANCH  95 115
BRANCH  98 126
ATOM    126  C   UNL A   1      38.717  28.491  29.515  1.00  0.00     0.064 A 
ATOM    127  C   UNL A   1      37.888  28.781  30.617  1.00  0.00     0.173 A 
ATOM    128  C   UNL A   1      38.284  28.989  28.271  1.00  0.00     0.173 A 
ATOM    129  F   UNL A   1      38.245  28.390  31.850  1.00  0.00    -0.203 F 
ATOM    130  C   UNL A   1      36.720  29.545  30.486  1.00  0.00     0.198 A 
ATOM    131  C   UNL A   1      37.120  29.752  28.141  1.00  0.00     0.198 A 
ATOM    132  F   UNL A   1      39.036  28.831  27.173  1.00  0.00    -0.203 F 
ATOM    133  F   UNL A   1      35.994  29.853  31.571  1.00  0.00    -0.200 F 
ATOM    134  C   UNL A   1      36.346  30.042  29.250  1.00  0.00     0.200 A 
ATOM    135  F   UNL A   1      36.790  30.263  26.946  1.00  0.00    -0.200 F 
ATOM    136  F   UNL A   1      35.269  30.832  29.133  1.00  0.00    -0.200 F 
ENDBRANCH  98 126
BRANCH 113 137
ATOM    137  C   UNL A   1      44.222  27.350  32.341  1.00  0.00     0.064 A 
ATOM    138  C   UNL A   1      44.149  25.964  32.110  1.00  0.00     0.173 A 
ATOM    139  C   UNL A   1      44.367  27.775  33.667  1.00  0.00     0.173 A 
ATOM    140  F   UNL A   1      44.094  25.474  30.864  1.00  0.00    -0.203 F 
ATOM    141  C   UNL A   1      44.205  25.052  33.164  1.00  0.00     0.198 A 
ATOM    142  C   UNL A   1      44.455  26.862  34.714  1.00  0.00     0.198 A 
ATOM    143  F   UNL A   1      44.490  29.083  33.941  1.00  0.00    -0.203 F 
ATOM    144  F   UNL A   1      44.148  23.734  32.920  1.00  0.00    -0.200 F 
ATOM    145  C   UNL A   1      44.371  25.502  34.464  1.00  0.00     0.200 A 
ATOM    146  F   UNL A   1      44.666  27.302  35.962  1.00  0.00    -0.200 F 
ATOM    147  F   UNL A   1      44.484  24.626  35.472  1.00  0.00    -0.200 F 
ENDBRANCH 113 137
ENDBRANCH  78  81
ENDBRANCH  68  71
ENDBRANCH  64  67
ENDBRANCH  61  64
ENDBRANCH  58  61
ENDBRANCH  55  58
ENDBRANCH   1  55
TORSDOF 18
ENDMDL
MODEL 2
REMARK VINA RESULT:     -13.0      3.120      9.112
REMARK SMILES [NH3+][C@@H](Cc1cn(-c2nc(Cl)nc(N3CCOCC3)n2)c2ccccc12)C(=O)NCCCCCCNC(=O)c1ccc(-c2c3nc(c(-c4c(F)c(F)c(F)c(F)c4F)c4ccc([nH]4)c(-c4c(F)c(F)c(F)c(F)c4F)c4nc(c(-c5c(F)c(F)c(F)c(F)c5F)c5ccc2[nH]5)C=C4)C=C3)cc1
REMARK SMILES IDX 30 1 29 4 28 7 26 8 27 9 2 11 1 13 3 17 4 20 5 21 25 22 6 23
REMARK SMILES IDX 20 25 24 26 21 27 23 28 22 30 7 34 8 35 19 36 9 37 12 38
REMARK SMILES IDX 10 39 11 40 13 41 14 42 18 43 15 44 17 47 16 50 31 55 32 58
REMARK SMILES IDX 33 61 34 64 35 67 36 68 37 70 38 71 39 72 100 73 40 74 99 76
REMARK SMILES IDX 41 78 42 81 43 82 93 83 44 84 98 85 92 86 94 87 45 88 97 89
REMARK SMILES IDX 91 91 90 93 46 95 78 98 58 99 77 100 59 101 62 102 76 103
REMARK SMILES IDX 95 104 60 105 61 107 75 109 96 110 63 113 47 115 48 116
REMARK SMILES IDX 56 117 49 118 50 119 54 120 57 121 51 122 52 123 55 124
REMARK SMILES IDX 53 125 79 126 80 127 88 128 81 129 82 130 86 131 89 132
REMARK SMILES IDX 83 133 84 134 87 135 85 136 64 137 65 138 73 139 66 140
REMARK SMILES IDX 67 141 71 142 74 143 68 144 69 145 72 146 70 147
REMARK H PARENT 30 2 30 3 29 5 29 6 28 10 2 12 1 14 1 15 1 16 3 18 3 19 5 24
REMARK H PARENT 24 29 21 31 23 32 22 33 14 45 14 46 18 48 18 49 15 51 15 52
REMARK H PARENT 17 53 17 54 31 56 31 57 32 59 32 60 33 62 33 63 34 65 34 66
REMARK H PARENT 35 69 39 75 100 77 40 79 99 80 98 90 92 92 94 94 97 96 91 97
REMARK H PARENT 59 106 62 108 95 111 60 112 96 114
REMARK Flexibility Score: inf
ROOT
ATOM      1  C   UNL A   1      33.599  27.369  26.126  1.00  0.00    -0.036 C 
ATOM      2  H   UNL A   1      34.214  28.233  25.986  1.00  0.00     0.028 H 
ATOM      3  H   UNL A   1      33.813  26.820  27.019  1.00  0.00     0.028 H 
ENDROOT
BRANCH   1   4
ATOM      4  C   UNL A   1      33.877  26.415  24.986  1.00  0.00     0.018 C 
ATOM      5  H   UNL A   1      34.651  25.748  25.305  1.00  0.00     0.049 H 
ATOM      6  H   UNL A   1      32.937  25.949  24.779  1.00  0.00     0.049 H 
BRANCH   4   7
ATOM      7  N   UNL A   1      34.290  26.991  23.739  1.00  0.00    -0.351 N 
ATOM      8  C   UNL A   1      33.488  27.418  22.714  1.00  0.00     0.278 C 
ATOM      9  O   UNL A   1      34.021  28.126  21.850  1.00  0.00    -0.268 OA
ATOM     10  H   UNL A   1      35.260  27.093  23.606  1.00  0.00     0.163 HD
BRANCH   8  11
ATOM     11  C   UNL A   1      31.981  27.033  22.593  1.00  0.00     0.168 C 
ATOM     12  H   UNL A   1      31.652  26.933  23.606  1.00  0.00     0.107 H 
BRANCH  11  13
ATOM     13  N   UNL A   1      31.180  28.130  22.001  1.00  0.00    -0.347 N 
ATOM     14  H   UNL A   1      31.411  28.223  21.012  1.00  0.00     0.345 HD
ATOM     15  H   UNL A   1      31.390  29.003  22.483  1.00  0.00     0.345 HD
ATOM     16  H   UNL A   1      30.188  27.917  22.100  1.00  0.00     0.345 HD
ENDBRANCH  11  13
BRANCH  11  17
ATOM     17  C   UNL A   1      31.646  25.605  22.101  1.00  0.00     0.036 C 
ATOM     18  H   UNL A   1      32.245  25.425  21.232  1.00  0.00     0.038 H 
ATOM     19  H   UNL A   1      30.586  25.628  21.961  1.00  0.00     0.038 H 
BRANCH  17  20
ATOM     20  C   UNL A   1      31.858  24.432  23.029  1.00  0.00    -0.015 A 
ATOM     21  C   UNL A   1      32.739  23.369  22.895  1.00  0.00     0.017 A 
ATOM     22  C   UNL A   1      31.194  24.237  24.286  1.00  0.00     0.004 A 
ATOM     23  N   UNL A   1      32.751  22.622  24.063  1.00  0.00    -0.285 N 
ATOM     24  H   UNL A   1      33.300  23.166  22.053  1.00  0.00     0.083 H 
ATOM     25  C   UNL A   1      31.723  23.086  24.889  1.00  0.00     0.056 A 
ATOM     26  C   UNL A   1      30.235  25.001  24.991  1.00  0.00    -0.053 A 
ATOM     27  C   UNL A   1      31.309  22.689  26.178  1.00  0.00    -0.037 A 
ATOM     28  C   UNL A   1      29.854  24.629  26.280  1.00  0.00    -0.062 A 
ATOM     29  H   UNL A   1      29.816  25.835  24.551  1.00  0.00     0.063 H 
ATOM     30  C   UNL A   1      30.387  23.488  26.865  1.00  0.00    -0.060 A 
ATOM     31  H   UNL A   1      31.678  21.826  26.606  1.00  0.00     0.065 H 
ATOM     32  H   UNL A   1      29.174  25.204  26.802  1.00  0.00     0.062 H 
ATOM     33  H   UNL A   1      30.100  23.225  27.821  1.00  0.00     0.062 H 
BRANCH  23  34
ATOM     34  C   UNL A   1      33.763  21.661  24.422  1.00  0.00     0.240 A 
ATOM     35  N   UNL A   1      35.005  22.093  24.573  1.00  0.00    -0.181 NA
ATOM     36  N   UNL A   1      33.402  20.366  24.524  1.00  0.00    -0.176 NA
ATOM     37  C   UNL A   1      35.846  21.129  24.925  1.00  0.00     0.228 A 
ATOM     38  C   UNL A   1      34.375  19.469  24.752  1.00  0.00     0.231 A 
ATOM     39  Cl  UNL A   1      37.414  21.648  25.366  1.00  0.00    -0.041 Cl
ATOM     40  N   UNL A   1      35.623  19.821  25.001  1.00  0.00    -0.182 NA
BRANCH  38  41
ATOM     41  N   UNL A   1      34.028  18.143  24.781  1.00  0.00    -0.336 N 
ATOM     42  C   UNL A   1      32.657  17.671  24.560  1.00  0.00     0.044 C 
ATOM     43  C   UNL A   1      34.982  17.166  24.255  1.00  0.00     0.044 C 
ATOM     44  C   UNL A   1      32.475  16.401  25.401  1.00  0.00     0.064 C 
ATOM     45  H   UNL A   1      32.508  17.449  23.523  1.00  0.00     0.052 H 
ATOM     46  H   UNL A   1      31.946  18.419  24.842  1.00  0.00     0.052 H 
ATOM     47  C   UNL A   1      34.754  15.843  25.021  1.00  0.00     0.064 C 
ATOM     48  H   UNL A   1      35.983  17.512  24.410  1.00  0.00     0.052 H 
ATOM     49  H   UNL A   1      34.838  17.025  23.205  1.00  0.00     0.052 H 
ATOM     50  O   UNL A   1      33.387  15.384  24.953  1.00  0.00    -0.378 OA
ATOM     51  H   UNL A   1      31.470  16.047  25.298  1.00  0.00     0.059 H 
ATOM     52  H   UNL A   1      32.675  16.626  26.428  1.00  0.00     0.059 H 
ATOM     53  H   UNL A   1      35.388  15.092  24.601  1.00  0.00     0.059 H 
ATOM     54  H   UNL A   1      34.981  16.025  26.052  1.00  0.00     0.059 H 
ENDBRANCH  38  41
ENDBRANCH  23  34
ENDBRANCH  17  20
ENDBRANCH  11  17
ENDBRANCH   8  11
ENDBRANCH   4   7
ENDBRANCH   1   4
BRANCH   1  55
ATOM     55  C   UNL A   1      32.156  27.840  26.266  1.00  0.00    -0.052 C 
ATOM     56  H   UNL A   1      31.572  26.991  26.551  1.00  0.00     0.027 H 
ATOM     57  H   UNL A   1      31.925  28.269  25.313  1.00  0.00     0.027 H 
BRANCH  55  58
ATOM     58  C   UNL A   1      31.851  28.964  27.274  1.00  0.00    -0.052 C 
ATOM     59  H   UNL A   1      32.407  28.752  28.163  1.00  0.00     0.027 H 
ATOM     60  H   UNL A   1      30.785  28.948  27.369  1.00  0.00     0.027 H 
BRANCH  58  61
ATOM     61  C   UNL A   1      32.168  30.410  26.878  1.00  0.00    -0.036 C 
ATOM     62  H   UNL A   1      31.561  31.057  27.477  1.00  0.00     0.028 H 
ATOM     63  H   UNL A   1      31.966  30.481  25.830  1.00  0.00     0.028 H 
BRANCH  61  64
ATOM     64  C   UNL A   1      33.607  30.827  27.055  1.00  0.00     0.018 C 
ATOM     65  H   UNL A   1      33.854  31.492  26.254  1.00  0.00     0.049 H 
ATOM     66  H   UNL A   1      34.167  29.915  27.065  1.00  0.00     0.049 H 
BRANCH  64  67
ATOM     67  N   UNL A   1      33.940  31.493  28.297  1.00  0.00    -0.352 N 
ATOM     68  C   UNL A   1      35.097  31.744  28.977  1.00  0.00     0.251 C 
ATOM     69  H   UNL A   1      33.147  31.848  28.759  1.00  0.00     0.163 HD
ATOM     70  O   UNL A   1      35.036  32.569  29.894  1.00  0.00    -0.269 OA
BRANCH  68  71
ATOM     71  C   UNL A   1      36.352  30.985  28.781  1.00  0.00     0.039 A 
ATOM     72  C   UNL A   1      36.432  29.672  28.332  1.00  0.00    -0.049 A 
ATOM     73  C   UNL A   1      37.528  31.642  29.188  1.00  0.00    -0.049 A 
ATOM     74  C   UNL A   1      37.601  28.955  28.524  1.00  0.00    -0.053 A 
ATOM     75  H   UNL A   1      35.626  29.234  27.860  1.00  0.00     0.063 H 
ATOM     76  C   UNL A   1      38.719  30.948  29.316  1.00  0.00    -0.053 A 
ATOM     77  H   UNL A   1      37.503  32.653  29.392  1.00  0.00     0.063 H 
ATOM     78  C   UNL A   1      38.722  29.581  29.084  1.00  0.00    -0.014 A 
ATOM     79  H   UNL A   1      37.646  27.959  28.255  1.00  0.00     0.063 H 
ATOM     80  H   UNL A   1      39.587  31.439  29.581  1.00  0.00     0.063 H 
BRANCH  78  81
ATOM     81  C   UNL A   1      39.934  28.793  29.260  1.00  0.00     0.031 A 
ATOM     82  C   UNL A   1      40.302  28.631  30.692  1.00  0.00     0.074 A 
ATOM     83  C   UNL A   1      40.628  28.233  28.244  1.00  0.00     0.049 A 
ATOM     84  N   UNL A   1      41.322  29.148  31.293  1.00  0.00    -0.248 NA
ATOM     85  C   UNL A   1      39.326  28.005  31.599  1.00  0.00    -0.034 C 
ATOM     86  C   UNL A   1      40.285  28.164  26.822  1.00  0.00    -0.036 A 
ATOM     87  N   UNL A   1      41.810  27.550  28.295  1.00  0.00    -0.354 N 
ATOM     88  C   UNL A   1      41.224  28.751  32.622  1.00  0.00     0.074 A 
ATOM     89  C   UNL A   1      39.908  28.192  32.785  1.00  0.00    -0.034 C 
ATOM     90  H   UNL A   1      38.430  27.544  31.377  1.00  0.00     0.065 H 
ATOM     91  C   UNL A   1      41.110  27.288  26.195  1.00  0.00    -0.036 A 
ATOM     92  H   UNL A   1      39.532  28.700  26.366  1.00  0.00     0.065 H 
ATOM     93  C   UNL A   1      42.133  26.855  27.129  1.00  0.00     0.049 A 
ATOM     94  H   UNL A   1      42.387  27.548  29.092  1.00  0.00     0.167 HD
ATOM     95  C   UNL A   1      42.335  28.695  33.406  1.00  0.00     0.037 A 
ATOM     96  H   UNL A   1      39.474  27.968  33.695  1.00  0.00     0.065 H 
ATOM     97  H   UNL A   1      41.023  26.980  25.214  1.00  0.00     0.065 H 
ATOM     98  C   UNL A   1      43.165  25.981  26.967  1.00  0.00     0.037 A 
ATOM     99  C   UNL A   1      43.386  29.519  32.863  1.00  0.00     0.049 A 
ATOM    100  C   UNL A   1      44.166  26.304  28.015  1.00  0.00     0.074 A 
ATOM    101  C   UNL A   1      43.545  30.872  32.640  1.00  0.00    -0.036 A 
ATOM    102  N   UNL A   1      44.341  28.899  32.098  1.00  0.00    -0.354 N 
ATOM    103  N   UNL A   1      44.847  27.416  28.032  1.00  0.00    -0.248 NA
ATOM    104  C   UNL A   1      44.025  25.624  29.294  1.00  0.00    -0.034 C 
ATOM    105  C   UNL A   1      44.250  30.963  31.404  1.00  0.00    -0.036 A 
ATOM    106  H   UNL A   1      43.223  31.650  33.238  1.00  0.00     0.065 H 
ATOM    107  C   UNL A   1      44.553  29.669  30.984  1.00  0.00     0.049 A 
ATOM    108  H   UNL A   1      44.794  28.052  32.311  1.00  0.00     0.167 HD
ATOM    109  C   UNL A   1      44.838  27.805  29.362  1.00  0.00     0.074 A 
ATOM    110  C   UNL A   1      44.350  26.639  30.100  1.00  0.00    -0.034 C 
ATOM    111  H   UNL A   1      43.756  24.652  29.512  1.00  0.00     0.065 H 
ATOM    112  H   UNL A   1      44.494  31.834  30.907  1.00  0.00     0.065 H 
ATOM    113  C   UNL A   1      44.939  29.120  29.707  1.00  0.00     0.037 A 
ATOM    114  H   UNL A   1      44.267  26.605  31.127  1.00  0.00     0.065 H 
BRANCH  95 115
ATOM    115  C   UNL A   1      42.611  27.581  34.385  1.00  0.00     0.064 A 
ATOM    116  C   UNL A   1      43.115  26.357  33.902  1.00  0.00     0.173 A 
ATOM    117  C   UNL A   1      42.103  27.549  35.702  1.00  0.00     0.173 A 
ATOM    118  F   UNL A   1      43.606  26.263  32.656  1.00  0.00    -0.203 F 
ATOM    119  C   UNL A   1      43.031  25.177  34.647  1.00  0.00     0.198 A 
ATOM    120  C   UNL A   1      42.065  26.381  36.461  1.00  0.00     0.198 A 
ATOM    121  F   UNL A   1      41.518  28.609  36.272  1.00  0.00    -0.203 F 
ATOM    122  F   UNL A   1      43.399  24.014  34.094  1.00  0.00    -0.200 F 
ATOM    123  C   UNL A   1      42.498  25.189  35.922  1.00  0.00     0.200 A 
ATOM    124  F   UNL A   1      41.522  26.410  37.686  1.00  0.00    -0.200 F 
ATOM    125  F   UNL A   1      42.354  24.051  36.612  1.00  0.00    -0.200 F 
ENDBRANCH  95 115
BRANCH  98 126
ATOM    126  C   UNL A   1      43.181  24.670  26.264  1.00  0.00     0.064 A 
ATOM    127  C   UNL A   1      44.103  24.405  25.233  1.00  0.00     0.173 A 
ATOM    128  C   UNL A   1      42.518  23.549  26.801  1.00  0.00     0.173 A 
ATOM    129  F   UNL A   1      44.818  25.405  24.695  1.00  0.00    -0.203 F 
ATOM    130  C   UNL A   1      44.369  23.101  24.791  1.00  0.00     0.198 A 
ATOM    131  C   UNL A   1      42.784  22.249  26.361  1.00  0.00     0.198 A 
ATOM    132  F   UNL A   1      41.675  23.684  27.834  1.00  0.00    -0.203 F 
ATOM    133  F   UNL A   1      45.302  22.887  23.853  1.00  0.00    -0.200 F 
ATOM    134  C   UNL A   1      43.720  22.024  25.366  1.00  0.00     0.200 A 
ATOM    135  F   UNL A   1      42.180  21.209  26.955  1.00  0.00    -0.200 F 
ATOM    136  F   UNL A   1      44.022  20.771  24.997  1.00  0.00    -0.200 F 
ENDBRANCH  98 126
BRANCH 113 137
ATOM    137  C   UNL A   1      45.283  30.109  28.629  1.00  0.00     0.064 A 
ATOM    138  C   UNL A   1      44.335  30.732  27.797  1.00  0.00     0.173 A 
ATOM    139  C   UNL A   1      46.602  30.576  28.565  1.00  0.00     0.173 A 
ATOM    140  F   UNL A   1      43.039  30.401  27.860  1.00  0.00    -0.203 F 
ATOM    141  C   UNL A   1      44.700  31.765  26.934  1.00  0.00     0.198 A 
ATOM    142  C   UNL A   1      46.957  31.627  27.726  1.00  0.00     0.198 A 
ATOM    143  F   UNL A   1      47.538  30.049  29.371  1.00  0.00    -0.203 F 
ATOM    144  F   UNL A   1      43.777  32.356  26.159  1.00  0.00    -0.200 F 
ATOM    145  C   UNL A   1      46.008  32.220  26.908  1.00  0.00     0.200 A 
ATOM    146  F   UNL A   1      48.213  32.095  27.744  1.00  0.00    -0.200 F 
ATOM    147  F   UNL A   1      46.350  33.251  26.123  1.00  0.00    -0.200 F 
ENDBRANCH 113 137
ENDBRANCH  78  81
ENDBRANCH  68  71
ENDBRANCH  64  67
ENDBRANCH  61  64
ENDBRANCH  58  61
ENDBRANCH  55  58
ENDBRANCH   1  55
TORSDOF 18
ENDMDL
MODEL 3
REMARK VINA RESULT:     -12.8      2.916      8.987
REMARK SMILES [NH3+][C@@H](Cc1cn(-c2nc(Cl)nc(N3CCOCC3)n2)c2ccccc12)C(=O)NCCCCCCNC(=O)c1ccc(-c2c3nc(c(-c4c(F)c(F)c(F)c(F)c4F)c4ccc([nH]4)c(-c4c(F)c(F)c(F)c(F)c4F)c4nc(c(-c5c(F)c(F)c(F)c(F)c5F)c5ccc2[nH]5)C=C4)C=C3)cc1
REMARK SMILES IDX 30 1 29 4 28 7 26 8 27 9 2 11 1 13 3 17 4 20 5 21 25 22 6 23
REMARK SMILES IDX 20 25 24 26 21 27 23 28 22 30 7 34 8 35 19 36 9 37 12 38
REMARK SMILES IDX 10 39 11 40 13 41 14 42 18 43 15 44 17 47 16 50 31 55 32 58
REMARK SMILES IDX 33 61 34 64 35 67 36 68 37 70 38 71 39 72 100 73 40 74 99 76
REMARK SMILES IDX 41 78 42 81 43 82 93 83 44 84 98 85 92 86 94 87 45 88 97 89
REMARK SMILES IDX 91 91 90 93 46 95 78 98 58 99 77 100 59 101 62 102 76 103
REMARK SMILES IDX 95 104 60 105 61 107 75 109 96 110 63 113 47 115 48 116
REMARK SMILES IDX 56 117 49 118 50 119 54 120 57 121 51 122 52 123 55 124
REMARK SMILES IDX 53 125 79 126 80 127 88 128 81 129 82 130 86 131 89 132
REMARK SMILES IDX 83 133 84 134 87 135 85 136 64 137 65 138 73 139 66 140
REMARK SMILES IDX 67 141 71 142 74 143 68 144 69 145 72 146 70 147
REMARK H PARENT 30 2 30 3 29 5 29 6 28 10 2 12 1 14 1 15 1 16 3 18 3 19 5 24
REMARK H PARENT 24 29 21 31 23 32 22 33 14 45 14 46 18 48 18 49 15 51 15 52
REMARK H PARENT 17 53 17 54 31 56 31 57 32 59 32 60 33 62 33 63 34 65 34 66
REMARK H PARENT 35 69 39 75 100 77 40 79 99 80 98 90 92 92 94 94 97 96 91 97
REMARK H PARENT 59 106 62 108 95 111 60 112 96 114
REMARK Flexibility Score: inf
ROOT
ATOM      1  C   UNL A   1      32.750  28.012  26.090  1.00  0.00    -0.036 C 
ATOM      2  H   UNL A   1      31.866  27.532  26.454  1.00  0.00     0.028 H 
ATOM      3  H   UNL A   1      32.563  28.871  25.481  1.00  0.00     0.028 H 
ENDROOT
BRANCH   1   4
ATOM      4  C   UNL A   1      33.475  27.030  25.198  1.00  0.00     0.018 C 
ATOM      5  H   UNL A   1      34.281  26.612  25.765  1.00  0.00     0.049 H 
ATOM      6  H   UNL A   1      32.726  26.329  24.893  1.00  0.00     0.049 H 
BRANCH   4   7
ATOM      7  N   UNL A   1      34.026  27.542  23.977  1.00  0.00    -0.351 N 
ATOM      8  C   UNL A   1      33.343  27.963  22.867  1.00  0.00     0.278 C 
ATOM      9  O   UNL A   1      33.983  28.615  22.034  1.00  0.00    -0.268 OA
ATOM     10  H   UNL A   1      35.008  27.599  23.932  1.00  0.00     0.163 HD
BRANCH   8  11
ATOM     11  C   UNL A   1      31.838  27.635  22.618  1.00  0.00     0.168 C 
ATOM     12  H   UNL A   1      31.422  27.537  23.599  1.00  0.00     0.107 H 
BRANCH  11  13
ATOM     13  N   UNL A   1      31.128  28.766  21.976  1.00  0.00    -0.347 N 
ATOM     14  H   UNL A   1      30.518  28.411  21.240  1.00  0.00     0.345 HD
ATOM     15  H   UNL A   1      31.809  29.409  21.573  1.00  0.00     0.345 HD
ATOM     16  H   UNL A   1      30.570  29.257  22.674  1.00  0.00     0.345 HD
ENDBRANCH  11  13
BRANCH  11  17
ATOM     17  C   UNL A   1      31.493  26.225  22.081  1.00  0.00     0.036 C 
ATOM     18  H   UNL A   1      32.092  26.068  21.208  1.00  0.00     0.038 H 
ATOM     19  H   UNL A   1      30.433  26.260  21.942  1.00  0.00     0.038 H 
BRANCH  17  20
ATOM     20  C   UNL A   1      31.695  25.022  22.972  1.00  0.00    -0.015 A 
ATOM     21  C   UNL A   1      32.593  23.975  22.824  1.00  0.00     0.017 A 
ATOM     22  C   UNL A   1      31.002  24.775  24.204  1.00  0.00     0.004 A 
ATOM     23  N   UNL A   1      32.584  23.187  23.966  1.00  0.00    -0.285 N 
ATOM     24  H   UNL A   1      33.177  23.808  21.991  1.00  0.00     0.083 H 
ATOM     25  C   UNL A   1      31.530  23.609  24.780  1.00  0.00     0.056 A 
ATOM     26  C   UNL A   1      30.015  25.503  24.910  1.00  0.00    -0.053 A 
ATOM     27  C   UNL A   1      31.087  23.162  26.043  1.00  0.00    -0.037 A 
ATOM     28  C   UNL A   1      29.606  25.081  26.175  1.00  0.00    -0.062 A 
ATOM     29  H   UNL A   1      29.598  26.347  24.489  1.00  0.00     0.063 H 
ATOM     30  C   UNL A   1      30.137  23.926  26.734  1.00  0.00    -0.060 A 
ATOM     31  H   UNL A   1      31.456  22.289  26.450  1.00  0.00     0.065 H 
ATOM     32  H   UNL A   1      28.905  25.629  26.699  1.00  0.00     0.062 H 
ATOM     33  H   UNL A   1      29.829  23.625  27.672  1.00  0.00     0.062 H 
BRANCH  23  34
ATOM     34  C   UNL A   1      33.598  22.226  24.317  1.00  0.00     0.240 A 
ATOM     35  N   UNL A   1      33.253  20.949  24.368  1.00  0.00    -0.181 NA
ATOM     36  N   UNL A   1      34.826  22.684  24.633  1.00  0.00    -0.176 NA
ATOM     37  C   UNL A   1      34.269  20.153  24.678  1.00  0.00     0.228 A 
ATOM     38  C   UNL A   1      35.728  21.788  25.062  1.00  0.00     0.231 A 
ATOM     39  Cl  UNL A   1      33.959  18.479  24.534  1.00  0.00    -0.041 Cl
ATOM     40  N   UNL A   1      35.497  20.488  25.061  1.00  0.00    -0.182 NA
BRANCH  38  41
ATOM     41  N   UNL A   1      36.956  22.255  25.459  1.00  0.00    -0.336 N 
ATOM     42  C   UNL A   1      38.206  21.528  25.208  1.00  0.00     0.044 C 
ATOM     43  C   UNL A   1      37.199  23.696  25.405  1.00  0.00     0.044 C 
ATOM     44  C   UNL A   1      39.153  21.845  26.372  1.00  0.00     0.064 C 
ATOM     45  H   UNL A   1      38.639  21.851  24.284  1.00  0.00     0.052 H 
ATOM     46  H   UNL A   1      38.027  20.475  25.139  1.00  0.00     0.052 H 
ATOM     47  C   UNL A   1      38.228  24.030  26.508  1.00  0.00     0.064 C 
ATOM     48  H   UNL A   1      36.286  24.227  25.580  1.00  0.00     0.052 H 
ATOM     49  H   UNL A   1      37.568  23.982  24.442  1.00  0.00     0.052 H 
ATOM     50  O   UNL A   1      39.440  23.253  26.399  1.00  0.00    -0.378 OA
ATOM     51  H   UNL A   1      40.065  21.300  26.247  1.00  0.00     0.059 H 
ATOM     52  H   UNL A   1      38.687  21.563  27.294  1.00  0.00     0.059 H 
ATOM     53  H   UNL A   1      38.479  25.067  26.438  1.00  0.00     0.059 H 
ATOM     54  H   UNL A   1      37.778  23.792  27.450  1.00  0.00     0.059 H 
ENDBRANCH  38  41
ENDBRANCH  23  34
ENDBRANCH  17  20
ENDBRANCH  11  17
ENDBRANCH   8  11
ENDBRANCH   4   7
ENDBRANCH   1   4
BRANCH   1  55
ATOM     55  C   UNL A   1      33.532  28.524  27.295  1.00  0.00    -0.052 C 
ATOM     56  H   UNL A   1      34.257  27.777  27.542  1.00  0.00     0.027 H 
ATOM     57  H   UNL A   1      32.783  28.712  28.035  1.00  0.00     0.027 H 
BRANCH  55  58
ATOM     58  C   UNL A   1      34.282  29.863  27.162  1.00  0.00    -0.052 C 
ATOM     59  H   UNL A   1      34.588  29.954  26.142  1.00  0.00     0.027 H 
ATOM     60  H   UNL A   1      35.067  29.795  27.886  1.00  0.00     0.027 H 
BRANCH  58  61
ATOM     61  C   UNL A   1      33.546  31.155  27.531  1.00  0.00    -0.036 C 
ATOM     62  H   UNL A   1      32.753  30.903  28.203  1.00  0.00     0.028 H 
ATOM     63  H   UNL A   1      33.208  31.577  26.608  1.00  0.00     0.028 H 
BRANCH  61  64
ATOM     64  C   UNL A   1      34.395  32.215  28.189  1.00  0.00     0.018 C 
ATOM     65  H   UNL A   1      33.966  33.167  27.955  1.00  0.00     0.049 H 
ATOM     66  H   UNL A   1      35.382  32.066  27.806  1.00  0.00     0.049 H 
BRANCH  64  67
ATOM     67  N   UNL A   1      34.528  32.137  29.629  1.00  0.00    -0.352 N 
ATOM     68  C   UNL A   1      35.528  31.780  30.487  1.00  0.00     0.251 C 
ATOM     69  H   UNL A   1      33.705  32.402  30.099  1.00  0.00     0.163 HD
ATOM     70  O   UNL A   1      35.373  32.076  31.676  1.00  0.00    -0.269 OA
BRANCH  68  71
ATOM     71  C   UNL A   1      36.686  30.944  30.104  1.00  0.00     0.039 A 
ATOM     72  C   UNL A   1      36.666  29.560  29.970  1.00  0.00    -0.049 A 
ATOM     73  C   UNL A   1      37.910  31.625  29.973  1.00  0.00    -0.049 A 
ATOM     74  C   UNL A   1      37.859  28.857  29.962  1.00  0.00    -0.053 A 
ATOM     75  H   UNL A   1      35.768  29.061  29.878  1.00  0.00     0.063 H 
ATOM     76  C   UNL A   1      39.104  30.929  29.895  1.00  0.00    -0.053 A 
ATOM     77  H   UNL A   1      37.918  32.656  29.934  1.00  0.00     0.063 H 
ATOM     78  C   UNL A   1      39.077  29.546  29.997  1.00  0.00    -0.014 A 
ATOM     79  H   UNL A   1      37.849  27.825  29.932  1.00  0.00     0.063 H 
ATOM     80  H   UNL A   1      39.997  31.430  29.764  1.00  0.00     0.063 H 
BRANCH  78  81
ATOM     81  C   UNL A   1      40.309  28.768  29.977  1.00  0.00     0.031 A 
ATOM     82  C   UNL A   1      40.918  28.639  31.328  1.00  0.00     0.074 A 
ATOM     83  C   UNL A   1      40.822  28.190  28.869  1.00  0.00     0.049 A 
ATOM     84  N   UNL A   1      42.021  29.174  31.734  1.00  0.00    -0.248 NA
ATOM     85  C   UNL A   1      40.118  28.027  32.402  1.00  0.00    -0.034 C 
ATOM     86  C   UNL A   1      40.241  28.089  27.529  1.00  0.00    -0.036 A 
ATOM     87  N   UNL A   1      42.001  27.515  28.730  1.00  0.00    -0.354 N 
ATOM     88  C   UNL A   1      42.157  28.804  33.068  1.00  0.00     0.074 A 
ATOM     89  C   UNL A   1      40.893  28.243  33.466  1.00  0.00    -0.034 C 
ATOM     90  H   UNL A   1      39.201  27.557  32.346  1.00  0.00     0.065 H 
ATOM     91  C   UNL A   1      40.953  27.205  26.787  1.00  0.00    -0.036 A 
ATOM     92  H   UNL A   1      39.416  28.611  27.198  1.00  0.00     0.065 H 
ATOM     93  C   UNL A   1      42.125  26.797  27.540  1.00  0.00     0.049 A 
ATOM     94  H   UNL A   1      42.707  27.532  29.416  1.00  0.00     0.167 HD
ATOM     95  C   UNL A   1      43.386  28.771  33.650  1.00  0.00     0.037 A 
ATOM     96  H   UNL A   1      40.623  28.035  34.441  1.00  0.00     0.065 H 
ATOM     97  H   UNL A   1      40.703  26.876  25.842  1.00  0.00     0.065 H 
ATOM     98  C   UNL A   1      43.122  25.925  27.220  1.00  0.00     0.037 A 
ATOM     99  C   UNL A   1      44.321  29.588  32.918  1.00  0.00     0.049 A 
ATOM    100  C   UNL A   1      44.285  26.275  28.075  1.00  0.00     0.074 A 
ATOM    101  C   UNL A   1      44.428  30.937  32.644  1.00  0.00    -0.036 A 
ATOM    102  N   UNL A   1      45.136  28.957  32.014  1.00  0.00    -0.354 N 
ATOM    103  N   UNL A   1      44.949  27.391  27.952  1.00  0.00    -0.248 NA
ATOM    104  C   UNL A   1      44.371  25.622  29.372  1.00  0.00    -0.034 C 
ATOM    105  C   UNL A   1      44.910  31.006  31.304  1.00  0.00    -0.036 A 
ATOM    106  H   UNL A   1      44.206  31.726  33.273  1.00  0.00     0.065 H 
ATOM    107  C   UNL A   1      45.147  29.704  30.865  1.00  0.00     0.049 A 
ATOM    108  H   UNL A   1      45.626  28.117  32.162  1.00  0.00     0.167 HD
ATOM    109  C   UNL A   1      45.166  27.807  29.255  1.00  0.00     0.074 A 
ATOM    110  C   UNL A   1      44.821  26.655  30.089  1.00  0.00    -0.034 C 
ATOM    111  H   UNL A   1      44.153  24.653  29.652  1.00  0.00     0.065 H 
ATOM    112  H   UNL A   1      45.057  31.867  30.756  1.00  0.00     0.065 H 
ATOM    113  C   UNL A   1      45.313  29.130  29.551  1.00  0.00     0.037 A 
ATOM    114  H   UNL A   1      44.917  26.642  31.116  1.00  0.00     0.065 H 
BRANCH  95 115
ATOM    115  C   UNL A   1      43.836  27.679  34.590  1.00  0.00     0.064 A 
ATOM    116  C   UNL A   1      43.819  26.343  34.142  1.00  0.00     0.173 A 
ATOM    117  C   UNL A   1      43.965  27.848  35.986  1.00  0.00     0.173 A 
ATOM    118  F   UNL A   1      43.681  26.061  32.837  1.00  0.00    -0.203 F 
ATOM    119  C   UNL A   1      43.837  25.264  35.031  1.00  0.00     0.198 A 
ATOM    120  C   UNL A   1      44.031  26.770  36.867  1.00  0.00     0.198 A 
ATOM    121  F   UNL A   1      43.915  29.050  36.571  1.00  0.00    -0.203 F 
ATOM    122  F   UNL A   1      43.682  24.017  34.567  1.00  0.00    -0.200 F 
ATOM    123  C   UNL A   1      43.934  25.481  36.393  1.00  0.00     0.200 A 
ATOM    124  F   UNL A   1      44.101  27.002  38.185  1.00  0.00    -0.200 F 
ATOM    125  F   UNL A   1      43.884  24.454  37.251  1.00  0.00    -0.200 F 
ENDBRANCH  95 115
BRANCH  98 126
ATOM    126  C   UNL A   1      43.028  24.599  26.552  1.00  0.00     0.064 A 
ATOM    127  C   UNL A   1      43.663  24.357  25.317  1.00  0.00     0.173 A 
ATOM    128  C   UNL A   1      42.594  23.459  27.255  1.00  0.00     0.173 A 
ATOM    129  F   UNL A   1      44.155  25.380  24.601  1.00  0.00    -0.203 F 
ATOM    130  C   UNL A   1      43.878  23.059  24.835  1.00  0.00     0.198 A 
ATOM    131  C   UNL A   1      42.809  22.164  26.774  1.00  0.00     0.198 A 
ATOM    132  F   UNL A   1      42.043  23.575  28.471  1.00  0.00    -0.203 F 
ATOM    133  F   UNL A   1      44.545  22.870  23.688  1.00  0.00    -0.200 F 
ATOM    134  C   UNL A   1      43.463  21.963  25.572  1.00  0.00     0.200 A 
ATOM    135  F   UNL A   1      42.440  21.110  27.516  1.00  0.00    -0.200 F 
ATOM    136  F   UNL A   1      43.729  20.719  25.149  1.00  0.00    -0.200 F 
ENDBRANCH  98 126
BRANCH 113 137
ATOM    137  C   UNL A   1      45.458  30.098  28.411  1.00  0.00     0.064 A 
ATOM    138  C   UNL A   1      44.377  30.730  27.769  1.00  0.00     0.173 A 
ATOM    139  C   UNL A   1      46.747  30.536  28.084  1.00  0.00     0.173 A 
ATOM    140  F   UNL A   1      43.113  30.427  28.088  1.00  0.00    -0.203 F 
ATOM    141  C   UNL A   1      44.586  31.744  26.834  1.00  0.00     0.198 A 
ATOM    142  C   UNL A   1      46.951  31.569  27.175  1.00  0.00     0.198 A 
ATOM    143  F   UNL A   1      47.813  30.001  28.701  1.00  0.00    -0.203 F 
ATOM    144  F   UNL A   1      43.541  32.344  26.244  1.00  0.00    -0.200 F 
ATOM    145  C   UNL A   1      45.872  32.171  26.547  1.00  0.00     0.200 A 
ATOM    146  F   UNL A   1      48.194  32.011  26.940  1.00  0.00    -0.200 F 
ATOM    147  F   UNL A   1      46.073  33.184  25.693  1.00  0.00    -0.200 F 
ENDBRANCH 113 137
ENDBRANCH  78  81
ENDBRANCH  68  71
ENDBRANCH  64  67
ENDBRANCH  61  64
ENDBRANCH  58  61
ENDBRANCH  55  58
ENDBRANCH   1  55
TORSDOF 18
ENDMDL
MODEL 4
REMARK VINA RESULT:     -12.5      3.846      9.831
REMARK SMILES [NH3+][C@@H](Cc1cn(-c2nc(Cl)nc(N3CCOCC3)n2)c2ccccc12)C(=O)NCCCCCCNC(=O)c1ccc(-c2c3nc(c(-c4c(F)c(F)c(F)c(F)c4F)c4ccc([nH]4)c(-c4c(F)c(F)c(F)c(F)c4F)c4nc(c(-c5c(F)c(F)c(F)c(F)c5F)c5ccc2[nH]5)C=C4)C=C3)cc1
REMARK SMILES IDX 30 1 29 4 28 7 26 8 27 9 2 11 1 13 3 17 4 20 5 21 25 22 6 23
REMARK SMILES IDX 20 25 24 26 21 27 23 28 22 30 7 34 8 35 19 36 9 37 12 38
REMARK SMILES IDX 10 39 11 40 13 41 14 42 18 43 15 44 17 47 16 50 31 55 32 58
REMARK SMILES IDX 33 61 34 64 35 67 36 68 37 70 38 71 39 72 100 73 40 74 99 76
REMARK SMILES IDX 41 78 42 81 43 82 93 83 44 84 98 85 92 86 94 87 45 88 97 89
REMARK SMILES IDX 91 91 90 93 46 95 78 98 58 99 77 100 59 101 62 102 76 103
REMARK SMILES IDX 95 104 60 105 61 107 75 109 96 110 63 113 47 115 48 116
REMARK SMILES IDX 56 117 49 118 50 119 54 120 57 121 51 122 52 123 55 124
REMARK SMILES IDX 53 125 79 126 80 127 88 128 81 129 82 130 86 131 89 132
REMARK SMILES IDX 83 133 84 134 87 135 85 136 64 137 65 138 73 139 66 140
REMARK SMILES IDX 67 141 71 142 74 143 68 144 69 145 72 146 70 147
REMARK H PARENT 30 2 30 3 29 5 29 6 28 10 2 12 1 14 1 15 1 16 3 18 3 19 5 24
REMARK H PARENT 24 29 21 31 23 32 22 33 14 45 14 46 18 48 18 49 15 51 15 52
REMARK H PARENT 17 53 17 54 31 56 31 57 32 59 32 60 33 62 33 63 34 65 34 66
REMARK H PARENT 35 69 39 75 100 77 40 79 99 80 98 90 92 92 94 94 97 96 91 97
REMARK H PARENT 59 106 62 108 95 111 60 112 96 114
REMARK Flexibility Score: inf
ROOT
ATOM      1  C   UNL A   1      34.577  31.184  27.831  1.00  0.00    -0.036 C 
ATOM      2  H   UNL A   1      35.346  31.458  27.138  1.00  0.00     0.028 H 
ATOM      3  H   UNL A   1      34.907  30.539  28.618  1.00  0.00     0.028 H 
ENDROOT
BRANCH   1   4
ATOM      4  C   UNL A   1      33.530  30.400  27.073  1.00  0.00     0.018 C 
ATOM      5  H   UNL A   1      33.267  29.552  27.670  1.00  0.00     0.049 H 
ATOM      6  H   UNL A   1      32.735  31.096  26.901  1.00  0.00     0.049 H 
BRANCH   4   7
ATOM      7  N   UNL A   1      33.891  29.918  25.772  1.00  0.00    -0.351 N 
ATOM      8  C   UNL A   1      33.054  29.434  24.801  1.00  0.00     0.278 C 
ATOM      9  O   UNL A   1      33.528  29.324  23.664  1.00  0.00    -0.268 OA
ATOM     10  H   UNL A   1      34.850  29.938  25.550  1.00  0.00     0.163 HD
BRANCH   8  11
ATOM     11  C   UNL A   1      31.580  29.008  25.082  1.00  0.00     0.168 C 
ATOM     12  H   UNL A   1      31.384  29.369  26.070  1.00  0.00     0.107 H 
BRANCH  11  13
ATOM     13  N   UNL A   1      30.627  29.705  24.187  1.00  0.00    -0.347 N 
ATOM     14  H   UNL A   1      30.163  29.022  23.588  1.00  0.00     0.345 HD
ATOM     15  H   UNL A   1      31.132  30.377  23.610  1.00  0.00     0.345 HD
ATOM     16  H   UNL A   1      29.930  30.194  24.748  1.00  0.00     0.345 HD
ENDBRANCH  11  13
BRANCH  11  17
ATOM     17  C   UNL A   1      31.305  27.505  25.330  1.00  0.00     0.036 C 
ATOM     18  H   UNL A   1      30.315  27.306  24.974  1.00  0.00     0.038 H 
ATOM     19  H   UNL A   1      31.475  27.387  26.379  1.00  0.00     0.038 H 
BRANCH  17  20
ATOM     20  C   UNL A   1      32.212  26.472  24.704  1.00  0.00    -0.015 A 
ATOM     21  C   UNL A   1      33.082  25.591  25.329  1.00  0.00     0.017 A 
ATOM     22  C   UNL A   1      32.292  26.176  23.303  1.00  0.00     0.004 A 
ATOM     23  N   UNL A   1      33.574  24.684  24.403  1.00  0.00    -0.285 N 
ATOM     24  H   UNL A   1      33.326  25.609  26.332  1.00  0.00     0.083 H 
ATOM     25  C   UNL A   1      33.176  25.101  23.129  1.00  0.00     0.056 A 
ATOM     26  C   UNL A   1      31.614  26.696  22.174  1.00  0.00    -0.053 A 
ATOM     27  C   UNL A   1      33.394  24.542  21.852  1.00  0.00    -0.037 A 
ATOM     28  C   UNL A   1      31.801  26.118  20.918  1.00  0.00    -0.062 A 
ATOM     29  H   UNL A   1      30.981  27.503  22.281  1.00  0.00     0.063 H 
ATOM     30  C   UNL A   1      32.679  25.053  20.762  1.00  0.00    -0.060 A 
ATOM     31  H   UNL A   1      34.067  23.771  21.724  1.00  0.00     0.065 H 
ATOM     32  H   UNL A   1      31.285  26.483  20.102  1.00  0.00     0.062 H 
ATOM     33  H   UNL A   1      32.807  24.632  19.828  1.00  0.00     0.062 H 
BRANCH  23  34
ATOM     34  C   UNL A   1      34.226  23.440  24.726  1.00  0.00     0.240 A 
ATOM     35  N   UNL A   1      35.531  23.462  24.947  1.00  0.00    -0.181 NA
ATOM     36  N   UNL A   1      33.484  22.315  24.725  1.00  0.00    -0.176 NA
ATOM     37  C   UNL A   1      36.020  22.268  25.257  1.00  0.00     0.228 A 
ATOM     38  C   UNL A   1      34.125  21.152  24.921  1.00  0.00     0.231 A 
ATOM     39  Cl  UNL A   1      37.646  22.255  25.783  1.00  0.00    -0.041 Cl
ATOM     40  N   UNL A   1      35.406  21.089  25.235  1.00  0.00    -0.182 NA
BRANCH  38  41
ATOM     41  N   UNL A   1      33.391  19.995  24.846  1.00  0.00    -0.336 N 
ATOM     42  C   UNL A   1      32.827  19.330  26.027  1.00  0.00     0.044 C 
ATOM     43  C   UNL A   1      32.501  19.814  23.700  1.00  0.00     0.044 C 
ATOM     44  C   UNL A   1      32.814  17.824  25.731  1.00  0.00     0.064 C 
ATOM     45  H   UNL A   1      31.831  19.678  26.204  1.00  0.00     0.052 H 
ATOM     46  H   UNL A   1      33.411  19.542  26.898  1.00  0.00     0.052 H 
ATOM     47  C   UNL A   1      32.391  18.294  23.441  1.00  0.00     0.064 C 
ATOM     48  H   UNL A   1      32.906  20.305  22.840  1.00  0.00     0.052 H 
ATOM     49  H   UNL A   1      31.537  20.235  23.898  1.00  0.00     0.052 H 
ATOM     50  O   UNL A   1      31.963  17.555  24.605  1.00  0.00    -0.378 OA
ATOM     51  H   UNL A   1      32.446  17.298  26.588  1.00  0.00     0.059 H 
ATOM     52  H   UNL A   1      33.809  17.499  25.507  1.00  0.00     0.059 H 
ATOM     53  H   UNL A   1      31.684  18.132  22.654  1.00  0.00     0.059 H 
ATOM     54  H   UNL A   1      33.367  17.941  23.178  1.00  0.00     0.059 H 
ENDBRANCH  38  41
ENDBRANCH  23  34
ENDBRANCH  17  20
ENDBRANCH  11  17
ENDBRANCH   8  11
ENDBRANCH   4   7
ENDBRANCH   1   4
BRANCH   1  55
ATOM     55  C   UNL A   1      34.093  32.457  28.517  1.00  0.00    -0.052 C 
ATOM     56  H   UNL A   1      33.878  32.205  29.535  1.00  0.00     0.027 H 
ATOM     57  H   UNL A   1      33.259  32.774  27.927  1.00  0.00     0.027 H 
BRANCH  55  58
ATOM     58  C   UNL A   1      35.033  33.677  28.537  1.00  0.00    -0.052 C 
ATOM     59  H   UNL A   1      35.293  33.893  27.522  1.00  0.00     0.027 H 
ATOM     60  H   UNL A   1      35.837  33.377  29.176  1.00  0.00     0.027 H 
BRANCH  58  61
ATOM     61  C   UNL A   1      34.527  34.982  29.161  1.00  0.00    -0.036 C 
ATOM     62  H   UNL A   1      34.617  35.756  28.428  1.00  0.00     0.028 H 
ATOM     63  H   UNL A   1      35.126  35.145  30.033  1.00  0.00     0.028 H 
BRANCH  61  64
ATOM     64  C   UNL A   1      33.096  34.956  29.638  1.00  0.00     0.018 C 
ATOM     65  H   UNL A   1      32.715  33.971  29.471  1.00  0.00     0.049 H 
ATOM     66  H   UNL A   1      32.599  35.725  29.085  1.00  0.00     0.049 H 
BRANCH  64  67
ATOM     67  N   UNL A   1      32.872  35.283  31.031  1.00  0.00    -0.352 N 
ATOM     68  C   UNL A   1      33.630  35.243  32.165  1.00  0.00     0.251 C 
ATOM     69  H   UNL A   1      31.959  35.611  31.199  1.00  0.00     0.163 HD
ATOM     70  O   UNL A   1      33.189  35.840  33.151  1.00  0.00    -0.269 OA
BRANCH  68  71
ATOM     71  C   UNL A   1      34.845  34.413  32.318  1.00  0.00     0.039 A 
ATOM     72  C   UNL A   1      36.134  34.903  32.490  1.00  0.00    -0.049 A 
ATOM     73  C   UNL A   1      34.656  33.027  32.169  1.00  0.00    -0.049 A 
ATOM     74  C   UNL A   1      37.218  34.071  32.265  1.00  0.00    -0.053 A 
ATOM     75  H   UNL A   1      36.283  35.881  32.784  1.00  0.00     0.063 H 
ATOM     76  C   UNL A   1      35.737  32.176  32.013  1.00  0.00    -0.053 A 
ATOM     77  H   UNL A   1      33.699  32.639  32.178  1.00  0.00     0.063 H 
ATOM     78  C   UNL A   1      37.010  32.721  31.955  1.00  0.00    -0.014 A 
ATOM     79  H   UNL A   1      38.178  34.446  32.325  1.00  0.00     0.063 H 
ATOM     80  H   UNL A   1      35.597  31.156  31.938  1.00  0.00     0.063 H 
BRANCH  78  81
ATOM     81  C   UNL A   1      38.178  31.878  31.736  1.00  0.00     0.031 A 
ATOM     82  C   UNL A   1      38.934  31.621  32.991  1.00  0.00     0.074 A 
ATOM     83  C   UNL A   1      38.518  31.351  30.539  1.00  0.00     0.049 A 
ATOM     84  N   UNL A   1      40.110  32.064  33.291  1.00  0.00    -0.248 NA
ATOM     85  C   UNL A   1      38.230  30.982  34.114  1.00  0.00    -0.034 C 
ATOM     86  C   UNL A   1      37.777  31.377  29.277  1.00  0.00    -0.036 A 
ATOM     87  N   UNL A   1      39.627  30.622  30.214  1.00  0.00    -0.354 N 
ATOM     88  C   UNL A   1      40.379  31.594  34.572  1.00  0.00     0.074 A 
ATOM     89  C   UNL A   1      39.138  31.078  35.087  1.00  0.00    -0.034 C 
ATOM     90  H   UNL A   1      37.285  30.569  34.143  1.00  0.00     0.065 H 
ATOM     91  C   UNL A   1      38.338  30.508  28.399  1.00  0.00    -0.036 A 
ATOM     92  H   UNL A   1      36.954  31.966  29.083  1.00  0.00     0.065 H 
ATOM     93  C   UNL A   1      39.562  29.984  28.975  1.00  0.00     0.049 A 
ATOM     94  H   UNL A   1      40.409  30.552  30.808  1.00  0.00     0.167 HD
ATOM     95  C   UNL A   1      41.664  31.452  34.996  1.00  0.00     0.037 A 
ATOM     96  H   UNL A   1      38.973  30.818  36.072  1.00  0.00     0.065 H 
ATOM     97  H   UNL A   1      37.956  30.260  27.473  1.00  0.00     0.065 H 
ATOM     98  C   UNL A   1      40.456  29.082  28.482  1.00  0.00     0.037 A 
ATOM     99  C   UNL A   1      42.556  32.264  34.207  1.00  0.00     0.049 A 
ATOM    100  C   UNL A   1      41.732  29.305  29.207  1.00  0.00     0.074 A 
ATOM    101  C   UNL A   1      42.715  33.622  34.007  1.00  0.00    -0.036 A 
ATOM    102  N   UNL A   1      43.216  31.654  33.172  1.00  0.00    -0.354 N 
ATOM    103  N   UNL A   1      42.447  30.388  29.073  1.00  0.00    -0.248 NA
ATOM    104  C   UNL A   1      41.930  28.559  30.441  1.00  0.00    -0.034 C 
ATOM    105  C   UNL A   1      43.038  33.756  32.625  1.00  0.00    -0.036 A 
ATOM    106  H   UNL A   1      42.621  34.375  34.707  1.00  0.00     0.065 H 
ATOM    107  C   UNL A   1      43.138  32.477  32.079  1.00  0.00     0.049 A 
ATOM    108  H   UNL A   1      43.665  30.779  33.206  1.00  0.00     0.167 HD
ATOM    109  C   UNL A   1      42.843  30.700  30.364  1.00  0.00     0.074 A 
ATOM    110  C   UNL A   1      42.528  29.513  31.160  1.00  0.00    -0.034 C 
ATOM    111  H   UNL A   1      41.685  27.587  30.684  1.00  0.00     0.065 H 
ATOM    112  H   UNL A   1      43.174  34.645  32.118  1.00  0.00     0.065 H 
ATOM    113  C   UNL A   1      43.109  31.989  30.722  1.00  0.00     0.037 A 
ATOM    114  H   UNL A   1      42.743  29.423  32.165  1.00  0.00     0.065 H 
BRANCH  95 115
ATOM    115  C   UNL A   1      42.152  30.274  35.803  1.00  0.00     0.064 A 
ATOM    116  C   UNL A   1      43.115  30.489  36.810  1.00  0.00     0.173 A 
ATOM    117  C   UNL A   1      41.967  28.928  35.419  1.00  0.00     0.173 A 
ATOM    118  F   UNL A   1      43.389  31.730  37.241  1.00  0.00    -0.203 F 
ATOM    119  C   UNL A   1      43.893  29.447  37.323  1.00  0.00     0.198 A 
ATOM    120  C   UNL A   1      42.711  27.885  35.968  1.00  0.00     0.198 A 
ATOM    121  F   UNL A   1      41.150  28.572  34.422  1.00  0.00    -0.203 F 
ATOM    122  F   UNL A   1      44.887  29.719  38.179  1.00  0.00    -0.200 F 
ATOM    123  C   UNL A   1      43.696  28.148  36.894  1.00  0.00     0.200 A 
ATOM    124  F   UNL A   1      42.521  26.636  35.520  1.00  0.00    -0.200 F 
ATOM    125  F   UNL A   1      44.483  27.158  37.333  1.00  0.00    -0.200 F 
ENDBRANCH  95 115
BRANCH  98 126
ATOM    126  C   UNL A   1      40.199  27.813  27.748  1.00  0.00     0.064 A 
ATOM    127  C   UNL A   1      40.903  27.495  26.569  1.00  0.00     0.173 A 
ATOM    128  C   UNL A   1      39.502  26.750  28.355  1.00  0.00     0.173 A 
ATOM    129  F   UNL A   1      41.635  28.433  25.949  1.00  0.00    -0.203 F 
ATOM    130  C   UNL A   1      40.933  26.193  26.052  1.00  0.00     0.198 A 
ATOM    131  C   UNL A   1      39.535  25.451  27.839  1.00  0.00     0.198 A 
ATOM    132  F   UNL A   1      38.861  26.929  29.518  1.00  0.00    -0.203 F 
ATOM    133  F   UNL A   1      41.669  25.920  24.964  1.00  0.00    -0.200 F 
ATOM    134  C   UNL A   1      40.261  25.169  26.696  1.00  0.00     0.200 A 
ATOM    135  F   UNL A   1      38.914  24.460  28.495  1.00  0.00    -0.200 F 
ATOM    136  F   UNL A   1      40.345  23.910  26.244  1.00  0.00    -0.200 F 
ENDBRANCH  98 126
BRANCH 113 137
ATOM    137  C   UNL A   1      43.180  33.024  29.635  1.00  0.00     0.064 A 
ATOM    138  C   UNL A   1      42.137  33.917  29.326  1.00  0.00     0.173 A 
ATOM    139  C   UNL A   1      44.415  33.235  29.011  1.00  0.00     0.173 A 
ATOM    140  F   UNL A   1      40.952  33.833  29.944  1.00  0.00    -0.203 F 
ATOM    141  C   UNL A   1      42.327  34.963  28.424  1.00  0.00     0.198 A 
ATOM    142  C   UNL A   1      44.611  34.299  28.136  1.00  0.00     0.198 A 
ATOM    143  F   UNL A   1      45.458  32.442  29.305  1.00  0.00    -0.203 F 
ATOM    144  F   UNL A   1      41.324  35.813  28.155  1.00  0.00    -0.200 F 
ATOM    145  C   UNL A   1      43.567  35.161  27.839  1.00  0.00     0.200 A 
ATOM    146  F   UNL A   1      45.826  34.514  27.614  1.00  0.00    -0.200 F 
ATOM    147  F   UNL A   1      43.768  36.200  27.017  1.00  0.00    -0.200 F 
ENDBRANCH 113 137
ENDBRANCH  78  81
ENDBRANCH  68  71
ENDBRANCH  64  67
ENDBRANCH  61  64
ENDBRANCH  58  61
ENDBRANCH  55  58
ENDBRANCH   1  55
TORSDOF 18
ENDMDL
MODEL 5
REMARK VINA RESULT:     -12.5      1.667      2.417
REMARK SMILES [NH3+][C@@H](Cc1cn(-c2nc(Cl)nc(N3CCOCC3)n2)c2ccccc12)C(=O)NCCCCCCNC(=O)c1ccc(-c2c3nc(c(-c4c(F)c(F)c(F)c(F)c4F)c4ccc([nH]4)c(-c4c(F)c(F)c(F)c(F)c4F)c4nc(c(-c5c(F)c(F)c(F)c(F)c5F)c5ccc2[nH]5)C=C4)C=C3)cc1
REMARK SMILES IDX 30 1 29 4 28 7 26 8 27 9 2 11 1 13 3 17 4 20 5 21 25 22 6 23
REMARK SMILES IDX 20 25 24 26 21 27 23 28 22 30 7 34 8 35 19 36 9 37 12 38
REMARK SMILES IDX 10 39 11 40 13 41 14 42 18 43 15 44 17 47 16 50 31 55 32 58
REMARK SMILES IDX 33 61 34 64 35 67 36 68 37 70 38 71 39 72 100 73 40 74 99 76
REMARK SMILES IDX 41 78 42 81 43 82 93 83 44 84 98 85 92 86 94 87 45 88 97 89
REMARK SMILES IDX 91 91 90 93 46 95 78 98 58 99 77 100 59 101 62 102 76 103
REMARK SMILES IDX 95 104 60 105 61 107 75 109 96 110 63 113 47 115 48 116
REMARK SMILES IDX 56 117 49 118 50 119 54 120 57 121 51 122 52 123 55 124
REMARK SMILES IDX 53 125 79 126 80 127 88 128 81 129 82 130 86 131 89 132
REMARK SMILES IDX 83 133 84 134 87 135 85 136 64 137 65 138 73 139 66 140
REMARK SMILES IDX 67 141 71 142 74 143 68 144 69 145 72 146 70 147
REMARK H PARENT 30 2 30 3 29 5 29 6 28 10 2 12 1 14 1 15 1 16 3 18 3 19 5 24
REMARK H PARENT 24 29 21 31 23 32 22 33 14 45 14 46 18 48 18 49 15 51 15 52
REMARK H PARENT 17 53 17 54 31 56 31 57 32 59 32 60 33 62 33 63 34 65 34 66
REMARK H PARENT 35 69 39 75 100 77 40 79 99 80 98 90 92 92 94 94 97 96 91 97
REMARK H PARENT 59 106 62 108 95 111 60 112 96 114
REMARK Flexibility Score: inf
ROOT
ATOM      1  C   UNL A   1      41.420  21.834  27.277  1.00  0.00    -0.036 C 
ATOM      2  H   UNL A   1      41.571  22.473  28.122  1.00  0.00     0.028 H 
ATOM      3  H   UNL A   1      42.215  21.858  26.562  1.00  0.00     0.028 H 
ENDROOT
BRANCH   1   4
ATOM      4  C   UNL A   1      40.193  22.323  26.541  1.00  0.00     0.018 C 
ATOM      5  H   UNL A   1      39.673  22.995  27.192  1.00  0.00     0.049 H 
ATOM      6  H   UNL A   1      40.569  22.766  25.642  1.00  0.00     0.049 H 
BRANCH   4   7
ATOM      7  N   UNL A   1      39.255  21.331  26.104  1.00  0.00    -0.351 N 
ATOM      8  C   UNL A   1      38.054  21.538  25.480  1.00  0.00     0.278 C 
ATOM      9  O   UNL A   1      37.527  20.554  24.949  1.00  0.00    -0.268 OA
ATOM     10  H   UNL A   1      39.504  20.393  26.272  1.00  0.00     0.163 HD
BRANCH   8  11
ATOM     11  C   UNL A   1      37.342  22.926  25.441  1.00  0.00     0.168 C 
ATOM     12  H   UNL A   1      37.894  23.526  26.133  1.00  0.00     0.107 H 
BRANCH  11  13
ATOM     13  N   UNL A   1      37.483  23.579  24.118  1.00  0.00    -0.347 N 
ATOM     14  H   UNL A   1      37.531  22.866  23.391  1.00  0.00     0.345 HD
ATOM     15  H   UNL A   1      38.336  24.137  24.104  1.00  0.00     0.345 HD
ATOM     16  H   UNL A   1      36.680  24.183  23.950  1.00  0.00     0.345 HD
ENDBRANCH  11  13
BRANCH  11  17
ATOM     17  C   UNL A   1      35.949  23.033  26.106  1.00  0.00     0.036 C 
ATOM     18  H   UNL A   1      35.969  23.900  26.734  1.00  0.00     0.038 H 
ATOM     19  H   UNL A   1      35.827  22.088  26.591  1.00  0.00     0.038 H 
BRANCH  17  20
ATOM     20  C   UNL A   1      34.719  23.149  25.238  1.00  0.00    -0.015 A 
ATOM     21  C   UNL A   1      34.137  24.291  24.707  1.00  0.00     0.017 A 
ATOM     22  C   UNL A   1      33.941  22.047  24.748  1.00  0.00     0.004 A 
ATOM     23  N   UNL A   1      33.142  23.934  23.809  1.00  0.00    -0.285 N 
ATOM     24  H   UNL A   1      34.405  25.258  24.944  1.00  0.00     0.083 H 
ATOM     25  C   UNL A   1      32.939  22.554  23.906  1.00  0.00     0.056 A 
ATOM     26  C   UNL A   1      34.065  20.646  24.899  1.00  0.00    -0.053 A 
ATOM     27  C   UNL A   1      32.064  21.688  23.219  1.00  0.00    -0.037 A 
ATOM     28  C   UNL A   1      33.223  19.788  24.190  1.00  0.00    -0.062 A 
ATOM     29  H   UNL A   1      34.778  20.257  25.535  1.00  0.00     0.063 H 
ATOM     30  C   UNL A   1      32.237  20.305  23.359  1.00  0.00    -0.060 A 
ATOM     31  H   UNL A   1      31.310  22.065  22.624  1.00  0.00     0.065 H 
ATOM     32  H   UNL A   1      33.334  18.766  24.282  1.00  0.00     0.062 H 
ATOM     33  H   UNL A   1      31.623  19.660  22.837  1.00  0.00     0.062 H 
BRANCH  23  34
ATOM     34  C   UNL A   1      32.555  24.813  22.830  1.00  0.00     0.240 A 
ATOM     35  N   UNL A   1      32.999  24.741  21.585  1.00  0.00    -0.181 NA
ATOM     36  N   UNL A   1      31.631  25.702  23.246  1.00  0.00    -0.176 NA
ATOM     37  C   UNL A   1      32.374  25.578  20.766  1.00  0.00     0.228 A 
ATOM     38  C   UNL A   1      31.173  26.586  22.345  1.00  0.00     0.231 A 
ATOM     39  Cl  UNL A   1      32.726  25.380  19.106  1.00  0.00    -0.041 Cl
ATOM     40  N   UNL A   1      31.496  26.530  21.066  1.00  0.00    -0.182 NA
BRANCH  38  41
ATOM     41  N   UNL A   1      30.290  27.542  22.778  1.00  0.00    -0.336 N 
ATOM     42  C   UNL A   1      29.076  27.222  23.539  1.00  0.00     0.044 C 
ATOM     43  C   UNL A   1      30.824  28.832  23.213  1.00  0.00     0.044 C 
ATOM     44  C   UNL A   1      28.020  28.270  23.164  1.00  0.00     0.064 C 
ATOM     45  H   UNL A   1      29.280  27.265  24.589  1.00  0.00     0.052 H 
ATOM     46  H   UNL A   1      28.732  26.235  23.309  1.00  0.00     0.052 H 
ATOM     47  C   UNL A   1      29.738  29.896  22.936  1.00  0.00     0.064 C 
ATOM     48  H   UNL A   1      31.713  29.063  22.664  1.00  0.00     0.052 H 
ATOM     49  H   UNL A   1      31.074  28.807  24.253  1.00  0.00     0.052 H 
ATOM     50  O   UNL A   1      28.471  29.578  23.552  1.00  0.00    -0.378 OA
ATOM     51  H   UNL A   1      27.104  28.046  23.670  1.00  0.00     0.059 H 
ATOM     52  H   UNL A   1      27.863  28.250  22.105  1.00  0.00     0.059 H 
ATOM     53  H   UNL A   1      30.077  30.836  23.316  1.00  0.00     0.059 H 
ATOM     54  H   UNL A   1      29.581  29.928  21.877  1.00  0.00     0.059 H 
ENDBRANCH  38  41
ENDBRANCH  23  34
ENDBRANCH  17  20
ENDBRANCH  11  17
ENDBRANCH   8  11
ENDBRANCH   4   7
ENDBRANCH   1   4
BRANCH   1  55
ATOM     55  C   UNL A   1      41.366  20.397  27.784  1.00  0.00    -0.052 C 
ATOM     56  H   UNL A   1      40.351  20.070  27.701  1.00  0.00     0.027 H 
ATOM     57  H   UNL A   1      41.760  20.453  28.778  1.00  0.00     0.027 H 
BRANCH  55  58
ATOM     58  C   UNL A   1      42.245  19.343  27.084  1.00  0.00    -0.052 C 
ATOM     59  H   UNL A   1      41.637  18.477  26.930  1.00  0.00     0.027 H 
ATOM     60  H   UNL A   1      43.081  19.222  27.741  1.00  0.00     0.027 H 
BRANCH  58  61
ATOM     61  C   UNL A   1      42.879  19.697  25.734  1.00  0.00    -0.036 C 
ATOM     62  H   UNL A   1      42.923  20.763  25.659  1.00  0.00     0.028 H 
ATOM     63  H   UNL A   1      42.263  19.239  24.989  1.00  0.00     0.028 H 
BRANCH  61  64
ATOM     64  C   UNL A   1      44.271  19.157  25.514  1.00  0.00     0.018 C 
ATOM     65  H   UNL A   1      44.177  18.194  25.058  1.00  0.00     0.049 H 
ATOM     66  H   UNL A   1      44.727  19.148  26.482  1.00  0.00     0.049 H 
BRANCH  64  67
ATOM     67  N   UNL A   1      45.150  19.953  24.684  1.00  0.00    -0.352 N 
ATOM     68  C   UNL A   1      45.569  21.252  24.692  1.00  0.00     0.251 C 
ATOM     69  H   UNL A   1      45.535  19.437  23.940  1.00  0.00     0.163 HD
ATOM     70  O   UNL A   1      46.530  21.531  23.969  1.00  0.00    -0.269 OA
BRANCH  68  71
ATOM     71  C   UNL A   1      44.854  22.347  25.383  1.00  0.00     0.039 A 
ATOM     72  C   UNL A   1      43.864  23.141  24.816  1.00  0.00    -0.049 A 
ATOM     73  C   UNL A   1      45.309  22.645  26.680  1.00  0.00    -0.049 A 
ATOM     74  C   UNL A   1      43.523  24.341  25.416  1.00  0.00    -0.053 A 
ATOM     75  H   UNL A   1      43.386  22.838  23.953  1.00  0.00     0.063 H 
ATOM     76  C   UNL A   1      44.919  23.810  27.318  1.00  0.00    -0.053 A 
ATOM     77  H   UNL A   1      45.941  21.987  27.163  1.00  0.00     0.063 H 
ATOM     78  C   UNL A   1      44.109  24.704  26.635  1.00  0.00    -0.014 A 
ATOM     79  H   UNL A   1      42.838  24.968  24.965  1.00  0.00     0.063 H 
ATOM     80  H   UNL A   1      45.227  24.010  28.283  1.00  0.00     0.063 H 
BRANCH  78  81
ATOM     81  C   UNL A   1      43.715  25.971  27.237  1.00  0.00     0.031 A 
ATOM     82  C   UNL A   1      44.631  27.083  26.867  1.00  0.00     0.074 A 
ATOM     83  C   UNL A   1      42.619  26.134  28.011  1.00  0.00     0.049 A 
ATOM     84  N   UNL A   1      45.451  27.704  27.649  1.00  0.00    -0.248 NA
ATOM     85  C   UNL A   1      44.810  27.398  25.440  1.00  0.00    -0.034 C 
ATOM     86  C   UNL A   1      41.549  25.179  28.306  1.00  0.00    -0.036 A 
ATOM     87  N   UNL A   1      42.210  27.251  28.682  1.00  0.00    -0.354 N 
ATOM     88  C   UNL A   1      46.115  28.628  26.849  1.00  0.00     0.074 A 
ATOM     89  C   UNL A   1      45.801  28.289  25.486  1.00  0.00    -0.034 C 
ATOM     90  H   UNL A   1      44.303  27.028  24.621  1.00  0.00     0.065 H 
ATOM     91  C   UNL A   1      40.512  25.823  28.897  1.00  0.00    -0.036 A 
ATOM     92  H   UNL A   1      41.579  24.170  28.096  1.00  0.00     0.065 H 
ATOM     93  C   UNL A   1      40.901  27.195  29.164  1.00  0.00     0.049 A 
ATOM     94  H   UNL A   1      42.792  28.033  28.815  1.00  0.00     0.167 HD
ATOM     95  C   UNL A   1      46.665  29.743  27.401  1.00  0.00     0.037 A 
ATOM     96  H   UNL A   1      46.278  28.681  24.659  1.00  0.00     0.065 H 
ATOM     97  H   UNL A   1      39.595  25.405  29.119  1.00  0.00     0.065 H 
ATOM     98  C   UNL A   1      40.202  28.219  29.728  1.00  0.00     0.037 A 
ATOM     99  C   UNL A   1      46.887  29.560  28.814  1.00  0.00     0.049 A 
ATOM    100  C   UNL A   1      41.203  29.195  30.228  1.00  0.00     0.074 A 
ATOM    101  C   UNL A   1      47.683  28.725  29.573  1.00  0.00    -0.036 A 
ATOM    102  N   UNL A   1      45.935  30.050  29.671  1.00  0.00    -0.354 N 
ATOM    103  N   UNL A   1      42.015  28.940  31.216  1.00  0.00    -0.248 NA
ATOM    104  C   UNL A   1      41.632  30.233  29.303  1.00  0.00    -0.034 C 
ATOM    105  C   UNL A   1      46.888  28.386  30.707  1.00  0.00    -0.036 A 
ATOM    106  H   UNL A   1      48.645  28.414  29.365  1.00  0.00     0.065 H 
ATOM    107  C   UNL A   1      45.689  29.092  30.619  1.00  0.00     0.049 A 
ATOM    108  H   UNL A   1      45.505  30.933  29.615  1.00  0.00     0.167 HD
ATOM    109  C   UNL A   1      43.234  29.451  30.801  1.00  0.00     0.074 A 
ATOM    110  C   UNL A   1      42.926  30.272  29.629  1.00  0.00    -0.034 C 
ATOM    111  H   UNL A   1      41.097  30.775  28.607  1.00  0.00     0.065 H 
ATOM    112  H   UNL A   1      47.153  27.733  31.460  1.00  0.00     0.065 H 
ATOM    113  C   UNL A   1      44.406  28.924  31.257  1.00  0.00     0.037 A 
ATOM    114  H   UNL A   1      43.631  30.821  29.113  1.00  0.00     0.065 H 
BRANCH  95 115
ATOM    115  C   UNL A   1      46.588  31.113  26.771  1.00  0.00     0.064 A 
ATOM    116  C   UNL A   1      47.745  31.918  26.746  1.00  0.00     0.173 A 
ATOM    117  C   UNL A   1      45.377  31.784  26.496  1.00  0.00     0.173 A 
ATOM    118  F   UNL A   1      48.951  31.392  27.012  1.00  0.00    -0.203 F 
ATOM    119  C   UNL A   1      47.679  33.301  26.551  1.00  0.00     0.198 A 
ATOM    120  C   UNL A   1      45.320  33.155  26.254  1.00  0.00     0.198 A 
ATOM    121  F   UNL A   1      44.188  31.174  26.562  1.00  0.00    -0.203 F 
ATOM    122  F   UNL A   1      48.788  34.043  26.670  1.00  0.00    -0.200 F 
ATOM    123  C   UNL A   1      46.465  33.918  26.314  1.00  0.00     0.200 A 
ATOM    124  F   UNL A   1      44.130  33.737  26.050  1.00  0.00    -0.200 F 
ATOM    125  F   UNL A   1      46.389  35.249  26.194  1.00  0.00    -0.200 F 
ENDBRANCH  95 115
BRANCH  98 126
ATOM    126  C   UNL A   1      38.782  28.610  29.519  1.00  0.00     0.064 A 
ATOM    127  C   UNL A   1      37.934  28.891  30.609  1.00  0.00     0.173 A 
ATOM    128  C   UNL A   1      38.321  29.029  28.256  1.00  0.00     0.173 A 
ATOM    129  F   UNL A   1      38.313  28.574  31.857  1.00  0.00    -0.203 F 
ATOM    130  C   UNL A   1      36.721  29.575  30.449  1.00  0.00     0.198 A 
ATOM    131  C   UNL A   1      37.112  29.712  28.097  1.00  0.00     0.198 A 
ATOM    132  F   UNL A   1      39.083  28.874  27.165  1.00  0.00    -0.203 F 
ATOM    133  F   UNL A   1      35.975  29.880  31.520  1.00  0.00    -0.200 F 
ATOM    134  C   UNL A   1      36.318  29.997  29.194  1.00  0.00     0.200 A 
ATOM    135  F   UNL A   1      36.752  30.153  26.883  1.00  0.00    -0.200 F 
ATOM    136  F   UNL A   1      35.194  30.713  29.045  1.00  0.00    -0.200 F 
ENDBRANCH  98 126
BRANCH 113 137
ATOM    137  C   UNL A   1      44.343  27.933  32.385  1.00  0.00     0.064 A 
ATOM    138  C   UNL A   1      44.163  28.283  33.735  1.00  0.00     0.173 A 
ATOM    139  C   UNL A   1      44.279  26.573  32.058  1.00  0.00     0.173 A 
ATOM    140  F   UNL A   1      44.126  29.567  34.115  1.00  0.00    -0.203 F 
ATOM    141  C   UNL A   1      43.942  27.311  34.710  1.00  0.00     0.198 A 
ATOM    142  C   UNL A   1      44.027  25.607  33.028  1.00  0.00     0.198 A 
ATOM    143  F   UNL A   1      44.397  26.185  30.778  1.00  0.00    -0.203 F 
ATOM    144  F   UNL A   1      43.757  27.667  35.991  1.00  0.00    -0.200 F 
ATOM    145  C   UNL A   1      43.862  25.974  34.354  1.00  0.00     0.200 A 
ATOM    146  F   UNL A   1      43.901  24.322  32.668  1.00  0.00    -0.200 F 
ATOM    147  F   UNL A   1      43.592  25.044  35.279  1.00  0.00    -0.200 F 
ENDBRANCH 113 137
ENDBRANCH  78  81
ENDBRANCH  68  71
ENDBRANCH  64  67
ENDBRANCH  61  64
ENDBRANCH  58  61
ENDBRANCH  55  58
ENDBRANCH   1  55
TORSDOF 18
ENDMDL
MODEL 6
REMARK VINA RESULT:     -12.2      2.333      3.106
REMARK SMILES [NH3+][C@@H](Cc1cn(-c2nc(Cl)nc(N3CCOCC3)n2)c2ccccc12)C(=O)NCCCCCCNC(=O)c1ccc(-c2c3nc(c(-c4c(F)c(F)c(F)c(F)c4F)c4ccc([nH]4)c(-c4c(F)c(F)c(F)c(F)c4F)c4nc(c(-c5c(F)c(F)c(F)c(F)c5F)c5ccc2[nH]5)C=C4)C=C3)cc1
REMARK SMILES IDX 30 1 29 4 28 7 26 8 27 9 2 11 1 13 3 17 4 20 5 21 25 22 6 23
REMARK SMILES IDX 20 25 24 26 21 27 23 28 22 30 7 34 8 35 19 36 9 37 12 38
REMARK SMILES IDX 10 39 11 40 13 41 14 42 18 43 15 44 17 47 16 50 31 55 32 58
REMARK SMILES IDX 33 61 34 64 35 67 36 68 37 70 38 71 39 72 100 73 40 74 99 76
REMARK SMILES IDX 41 78 42 81 43 82 93 83 44 84 98 85 92 86 94 87 45 88 97 89
REMARK SMILES IDX 91 91 90 93 46 95 78 98 58 99 77 100 59 101 62 102 76 103
REMARK SMILES IDX 95 104 60 105 61 107 75 109 96 110 63 113 47 115 48 116
REMARK SMILES IDX 56 117 49 118 50 119 54 120 57 121 51 122 52 123 55 124
REMARK SMILES IDX 53 125 79 126 80 127 88 128 81 129 82 130 86 131 89 132
REMARK SMILES IDX 83 133 84 134 87 135 85 136 64 137 65 138 73 139 66 140
REMARK SMILES IDX 67 141 71 142 74 143 68 144 69 145 72 146 70 147
REMARK H PARENT 30 2 30 3 29 5 29 6 28 10 2 12 1 14 1 15 1 16 3 18 3 19 5 24
REMARK H PARENT 24 29 21 31 23 32 22 33 14 45 14 46 18 48 18 49 15 51 15 52
REMARK H PARENT 17 53 17 54 31 56 31 57 32 59 32 60 33 62 33 63 34 65 34 66
REMARK H PARENT 35 69 39 75 100 77 40 79 99 80 98 90 92 92 94 94 97 96 91 97
REMARK H PARENT 59 106 62 108 95 111 60 112 96 114
REMARK Flexibility Score: inf
ROOT
ATOM      1  C   UNL A   1      38.786  21.016  25.766  1.00  0.00    -0.036 C 
ATOM      2  H   UNL A   1      38.274  21.097  26.702  1.00  0.00     0.028 H 
ATOM      3  H   UNL A   1      39.562  21.739  25.628  1.00  0.00     0.028 H 
ENDROOT
BRANCH   1   4
ATOM      4  C   UNL A   1      37.782  21.281  24.666  1.00  0.00     0.018 C 
ATOM      5  H   UNL A   1      37.723  22.342  24.533  1.00  0.00     0.049 H 
ATOM      6  H   UNL A   1      38.150  20.739  23.820  1.00  0.00     0.049 H 
BRANCH   4   7
ATOM      7  N   UNL A   1      36.449  20.796  24.870  1.00  0.00    -0.351 N 
ATOM      8  C   UNL A   1      35.275  21.437  24.574  1.00  0.00     0.278 C 
ATOM      9  O   UNL A   1      34.249  20.746  24.574  1.00  0.00    -0.268 OA
ATOM     10  H   UNL A   1      36.367  19.899  25.267  1.00  0.00     0.163 HD
BRANCH   8  11
ATOM     11  C   UNL A   1      35.192  22.965  24.269  1.00  0.00     0.168 C 
ATOM     12  H   UNL A   1      36.137  23.199  23.826  1.00  0.00     0.107 H 
BRANCH  11  13
ATOM     13  N   UNL A   1      34.166  23.266  23.244  1.00  0.00    -0.347 N 
ATOM     14  H   UNL A   1      34.615  23.665  22.421  1.00  0.00     0.345 HD
ATOM     15  H   UNL A   1      33.493  23.933  23.622  1.00  0.00     0.345 HD
ATOM     16  H   UNL A   1      33.682  22.407  22.985  1.00  0.00     0.345 HD
ENDBRANCH  11  13
BRANCH  11  17
ATOM     17  C   UNL A   1      35.257  23.937  25.472  1.00  0.00     0.036 C 
ATOM     18  H   UNL A   1      36.087  24.591  25.300  1.00  0.00     0.038 H 
ATOM     19  H   UNL A   1      35.321  23.287  26.319  1.00  0.00     0.038 H 
BRANCH  17  20
ATOM     20  C   UNL A   1      34.067  24.812  25.784  1.00  0.00    -0.015 A 
ATOM     21  C   UNL A   1      33.986  26.197  25.785  1.00  0.00     0.017 A 
ATOM     22  C   UNL A   1      32.747  24.341  26.092  1.00  0.00     0.004 A 
ATOM     23  N   UNL A   1      32.663  26.588  25.933  1.00  0.00    -0.285 N 
ATOM     24  H   UNL A   1      34.789  26.838  25.690  1.00  0.00     0.083 H 
ATOM     25  C   UNL A   1      31.903  25.454  26.230  1.00  0.00     0.056 A 
ATOM     26  C   UNL A   1      32.192  23.043  26.187  1.00  0.00    -0.053 A 
ATOM     27  C   UNL A   1      30.521  25.289  26.463  1.00  0.00    -0.037 A 
ATOM     28  C   UNL A   1      30.819  22.881  26.379  1.00  0.00    -0.062 A 
ATOM     29  H   UNL A   1      32.803  22.215  26.115  1.00  0.00     0.063 H 
ATOM     30  C   UNL A   1      29.996  23.992  26.514  1.00  0.00    -0.060 A 
ATOM     31  H   UNL A   1      29.909  26.109  26.594  1.00  0.00     0.065 H 
ATOM     32  H   UNL A   1      30.414  21.933  26.422  1.00  0.00     0.062 H 
ATOM     33  H   UNL A   1      28.982  23.859  26.652  1.00  0.00     0.062 H 
BRANCH  23  34
ATOM     34  C   UNL A   1      32.152  27.905  25.651  1.00  0.00     0.240 A 
ATOM     35  N   UNL A   1      32.448  28.881  26.495  1.00  0.00    -0.181 NA
ATOM     36  N   UNL A   1      31.350  28.059  24.578  1.00  0.00    -0.176 NA
ATOM     37  C   UNL A   1      31.945  30.052  26.124  1.00  0.00     0.228 A 
ATOM     38  C   UNL A   1      30.794  29.267  24.390  1.00  0.00     0.231 A 
ATOM     39  Cl  UNL A   1      32.477  31.399  27.032  1.00  0.00    -0.041 Cl
ATOM     40  N   UNL A   1      31.103  30.315  25.130  1.00  0.00    -0.182 NA
BRANCH  38  41
ATOM     41  N   UNL A   1      29.917  29.412  23.345  1.00  0.00    -0.336 N 
ATOM     42  C   UNL A   1      30.330  29.871  22.014  1.00  0.00     0.044 C 
ATOM     43  C   UNL A   1      28.821  28.452  23.222  1.00  0.00     0.044 C 
ATOM     44  C   UNL A   1      29.149  30.646  21.417  1.00  0.00     0.064 C 
ATOM     45  H   UNL A   1      30.569  29.031  21.394  1.00  0.00     0.052 H 
ATOM     46  H   UNL A   1      31.200  30.491  22.077  1.00  0.00     0.052 H 
ATOM     47  C   UNL A   1      27.646  29.182  22.533  1.00  0.00     0.064 C 
ATOM     48  H   UNL A   1      28.523  28.111  24.192  1.00  0.00     0.052 H 
ATOM     49  H   UNL A   1      29.126  27.600  22.651  1.00  0.00     0.052 H 
ATOM     50  O   UNL A   1      28.017  29.773  21.269  1.00  0.00    -0.378 OA
ATOM     51  H   UNL A   1      29.426  31.033  20.458  1.00  0.00     0.059 H 
ATOM     52  H   UNL A   1      28.889  31.452  22.071  1.00  0.00     0.059 H 
ATOM     53  H   UNL A   1      26.859  28.477  22.363  1.00  0.00     0.059 H 
ATOM     54  H   UNL A   1      27.336  29.976  23.180  1.00  0.00     0.059 H 
ENDBRANCH  38  41
ENDBRANCH  23  34
ENDBRANCH  17  20
ENDBRANCH  11  17
ENDBRANCH   8  11
ENDBRANCH   4   7
ENDBRANCH   1   4
BRANCH   1  55
ATOM     55  C   UNL A   1      39.476  19.658  25.728  1.00  0.00    -0.052 C 
ATOM     56  H   UNL A   1      39.418  19.301  24.721  1.00  0.00     0.027 H 
ATOM     57  H   UNL A   1      38.957  19.077  26.461  1.00  0.00     0.027 H 
BRANCH  55  58
ATOM     58  C   UNL A   1      40.954  19.578  26.155  1.00  0.00    -0.052 C 
ATOM     59  H   UNL A   1      41.514  20.183  25.473  1.00  0.00     0.027 H 
ATOM     60  H   UNL A   1      41.173  18.531  26.146  1.00  0.00     0.027 H 
BRANCH  58  61
ATOM     61  C   UNL A   1      41.333  20.025  27.571  1.00  0.00    -0.036 C 
ATOM     62  H   UNL A   1      41.971  19.278  27.994  1.00  0.00     0.028 H 
ATOM     63  H   UNL A   1      40.411  20.150  28.099  1.00  0.00     0.028 H 
BRANCH  61  64
ATOM     64  C   UNL A   1      42.047  21.352  27.660  1.00  0.00     0.018 C 
ATOM     65  H   UNL A   1      42.966  21.192  28.183  1.00  0.00     0.049 H 
ATOM     66  H   UNL A   1      41.363  22.009  28.153  1.00  0.00     0.049 H 
BRANCH  64  67
ATOM     67  N   UNL A   1      42.364  22.001  26.405  1.00  0.00    -0.352 N 
ATOM     68  C   UNL A   1      42.528  23.296  26.003  1.00  0.00     0.251 C 
ATOM     69  H   UNL A   1      42.491  21.360  25.670  1.00  0.00     0.163 HD
ATOM     70  O   UNL A   1      43.048  23.474  24.898  1.00  0.00    -0.269 OA
BRANCH  68  71
ATOM     71  C   UNL A   1      41.988  24.462  26.735  1.00  0.00     0.039 A 
ATOM     72  C   UNL A   1      40.954  25.279  26.290  1.00  0.00    -0.049 A 
ATOM     73  C   UNL A   1      42.665  24.802  27.920  1.00  0.00    -0.049 A 
ATOM     74  C   UNL A   1      40.772  26.526  26.865  1.00  0.00    -0.053 A 
ATOM     75  H   UNL A   1      40.327  24.958  25.536  1.00  0.00     0.063 H 
ATOM     76  C   UNL A   1      42.440  26.018  28.542  1.00  0.00    -0.053 A 
ATOM     77  H   UNL A   1      43.337  24.136  28.332  1.00  0.00     0.063 H 
ATOM     78  C   UNL A   1      41.569  26.919  27.948  1.00  0.00    -0.014 A 
ATOM     79  H   UNL A   1      40.051  27.165  26.495  1.00  0.00     0.063 H 
ATOM     80  H   UNL A   1      42.912  26.250  29.430  1.00  0.00     0.063 H 
BRANCH  78  81
ATOM     81  C   UNL A   1      41.338  28.235  28.529  1.00  0.00     0.031 A 
ATOM     82  C   UNL A   1      42.421  29.199  28.195  1.00  0.00     0.074 A 
ATOM     83  C   UNL A   1      40.247  28.562  29.255  1.00  0.00     0.049 A 
ATOM     84  N   UNL A   1      43.289  29.701  29.009  1.00  0.00    -0.248 NA
ATOM     85  C   UNL A   1      42.703  29.471  26.776  1.00  0.00    -0.034 C 
ATOM     86  C   UNL A   1      39.038  27.775  29.507  1.00  0.00    -0.036 A 
ATOM     87  N   UNL A   1      39.976  29.732  29.905  1.00  0.00    -0.354 N 
ATOM     88  C   UNL A   1      44.113  30.512  28.236  1.00  0.00     0.074 A 
ATOM     89  C   UNL A   1      43.811  30.210  26.862  1.00  0.00    -0.034 C 
ATOM     90  H   UNL A   1      42.182  29.171  25.938  1.00  0.00     0.065 H 
ATOM     91  C   UNL A   1      38.081  28.567  30.051  1.00  0.00    -0.036 A 
ATOM     92  H   UNL A   1      38.930  26.770  29.302  1.00  0.00     0.065 H 
ATOM     93  C   UNL A   1      38.655  29.871  30.331  1.00  0.00     0.049 A 
ATOM     94  H   UNL A   1      40.660  30.423  30.060  1.00  0.00     0.167 HD
ATOM     95  C   UNL A   1      44.796  31.541  28.808  1.00  0.00     0.037 A 
ATOM     96  H   UNL A   1      44.373  30.521  26.055  1.00  0.00     0.065 H 
ATOM     97  H   UNL A   1      37.105  28.289  30.236  1.00  0.00     0.065 H 
ATOM     98  C   UNL A   1      38.089  30.990  30.862  1.00  0.00     0.037 A 
ATOM     99  C   UNL A   1      44.929  31.339  30.229  1.00  0.00     0.049 A 
ATOM    100  C   UNL A   1      39.199  31.816  31.401  1.00  0.00     0.074 A 
ATOM    101  C   UNL A   1      45.564  30.405  31.024  1.00  0.00    -0.036 A 
ATOM    102  N   UNL A   1      44.024  31.970  31.043  1.00  0.00    -0.354 N 
ATOM    103  N   UNL A   1      39.923  31.454  32.424  1.00  0.00    -0.248 NA
ATOM    104  C   UNL A   1      39.812  32.772  30.492  1.00  0.00    -0.034 C 
ATOM    105  C   UNL A   1      44.681  30.195  32.124  1.00  0.00    -0.036 A 
ATOM    106  H   UNL A   1      46.478  29.955  30.858  1.00  0.00     0.065 H 
ATOM    107  C   UNL A   1      43.602  31.067  31.983  1.00  0.00     0.049 A 
ATOM    108  H   UNL A   1      43.729  32.906  30.967  1.00  0.00     0.167 HD
ATOM    109  C   UNL A   1      41.220  31.779  32.059  1.00  0.00     0.074 A 
ATOM    110  C   UNL A   1      41.084  32.626  30.873  1.00  0.00    -0.034 C 
ATOM    111  H   UNL A   1      39.391  33.380  29.773  1.00  0.00     0.065 H 
ATOM    112  H   UNL A   1      44.817  29.517  32.890  1.00  0.00     0.065 H 
ATOM    113  C   UNL A   1      42.283  31.092  32.567  1.00  0.00     0.037 A 
ATOM    114  H   UNL A   1      41.882  33.062  30.386  1.00  0.00     0.065 H 
BRANCH  95 115
ATOM    115  C   UNL A   1      44.945  32.901  28.172  1.00  0.00     0.064 A 
ATOM    116  C   UNL A   1      46.236  33.363  27.844  1.00  0.00     0.173 A 
ATOM    117  C   UNL A   1      43.932  33.884  28.173  1.00  0.00     0.173 A 
ATOM    118  F   UNL A   1      47.281  32.521  27.830  1.00  0.00    -0.203 F 
ATOM    119  C   UNL A   1      46.503  34.718  27.627  1.00  0.00     0.198 A 
ATOM    120  C   UNL A   1      44.193  35.227  27.908  1.00  0.00     0.198 A 
ATOM    121  F   UNL A   1      42.674  33.618  28.542  1.00  0.00    -0.203 F 
ATOM    122  F   UNL A   1      47.766  35.127  27.452  1.00  0.00    -0.200 F 
ATOM    123  C   UNL A   1      45.482  35.649  27.668  1.00  0.00     0.200 A 
ATOM    124  F   UNL A   1      43.193  36.117  27.977  1.00  0.00    -0.200 F 
ATOM    125  F   UNL A   1      45.744  36.954  27.526  1.00  0.00    -0.200 F 
ENDBRANCH  95 115
BRANCH  98 126
ATOM    126  C   UNL A   1      36.750  31.582  30.592  1.00  0.00     0.064 A 
ATOM    127  C   UNL A   1      35.882  31.935  31.644  1.00  0.00     0.173 A 
ATOM    128  C   UNL A   1      36.430  32.109  29.326  1.00  0.00     0.173 A 
ATOM    129  F   UNL A   1      36.135  31.520  32.895  1.00  0.00    -0.203 F 
ATOM    130  C   UNL A   1      34.785  32.785  31.447  1.00  0.00     0.198 A 
ATOM    131  C   UNL A   1      35.336  32.957  29.130  1.00  0.00     0.198 A 
ATOM    132  F   UNL A   1      37.231  31.893  28.273  1.00  0.00    -0.203 F 
ATOM    133  F   UNL A   1      34.021  33.149  32.488  1.00  0.00    -0.200 F 
ATOM    134  C   UNL A   1      34.522  33.307  30.193  1.00  0.00     0.200 A 
ATOM    135  F   UNL A   1      35.116  33.490  27.920  1.00  0.00    -0.200 F 
ATOM    136  F   UNL A   1      33.517  34.176  30.015  1.00  0.00    -0.200 F 
ENDBRANCH  98 126
BRANCH 113 137
ATOM    137  C   UNL A   1      42.029  30.131  33.693  1.00  0.00     0.064 A 
ATOM    138  C   UNL A   1      41.695  28.776  33.515  1.00  0.00     0.173 A 
ATOM    139  C   UNL A   1      42.317  30.558  34.996  1.00  0.00     0.173 A 
ATOM    140  F   UNL A   1      41.490  28.271  32.292  1.00  0.00    -0.203 F 
ATOM    141  C   UNL A   1      41.641  27.898  34.598  1.00  0.00     0.198 A 
ATOM    142  C   UNL A   1      42.293  29.673  36.069  1.00  0.00     0.198 A 
ATOM    143  F   UNL A   1      42.687  31.829  35.216  1.00  0.00    -0.203 F 
ATOM    144  F   UNL A   1      41.335  26.605  34.404  1.00  0.00    -0.200 F 
ATOM    145  C   UNL A   1      41.952  28.344  35.872  1.00  0.00     0.200 A 
ATOM    146  F   UNL A   1      42.644  30.100  37.289  1.00  0.00    -0.200 F 
ATOM    147  F   UNL A   1      41.958  27.490  36.904  1.00  0.00    -0.200 F 
ENDBRANCH 113 137
ENDBRANCH  78  81
ENDBRANCH  68  71
ENDBRANCH  64  67
ENDBRANCH  61  64
ENDBRANCH  58  61
ENDBRANCH  55  58
ENDBRANCH   1  55
TORSDOF 18
ENDMDL
MODEL 7
REMARK VINA RESULT:     -11.9      4.185     10.043
REMARK SMILES [NH3+][C@@H](Cc1cn(-c2nc(Cl)nc(N3CCOCC3)n2)c2ccccc12)C(=O)NCCCCCCNC(=O)c1ccc(-c2c3nc(c(-c4c(F)c(F)c(F)c(F)c4F)c4ccc([nH]4)c(-c4c(F)c(F)c(F)c(F)c4F)c4nc(c(-c5c(F)c(F)c(F)c(F)c5F)c5ccc2[nH]5)C=C4)C=C3)cc1
REMARK SMILES IDX 30 1 29 4 28 7 26 8 27 9 2 11 1 13 3 17 4 20 5 21 25 22 6 23
REMARK SMILES IDX 20 25 24 26 21 27 23 28 22 30 7 34 8 35 19 36 9 37 12 38
REMARK SMILES IDX 10 39 11 40 13 41 14 42 18 43 15 44 17 47 16 50 31 55 32 58
REMARK SMILES IDX 33 61 34 64 35 67 36 68 37 70 38 71 39 72 100 73 40 74 99 76
REMARK SMILES IDX 41 78 42 81 43 82 93 83 44 84 98 85 92 86 94 87 45 88 97 89
REMARK SMILES IDX 91 91 90 93 46 95 78 98 58 99 77 100 59 101 62 102 76 103
REMARK SMILES IDX 95 104 60 105 61 107 75 109 96 110 63 113 47 115 48 116
REMARK SMILES IDX 56 117 49 118 50 119 54 120 57 121 51 122 52 123 55 124
REMARK SMILES IDX 53 125 79 126 80 127 88 128 81 129 82 130 86 131 89 132
REMARK SMILES IDX 83 133 84 134 87 135 85 136 64 137 65 138 73 139 66 140
REMARK SMILES IDX 67 141 71 142 74 143 68 144 69 145 72 146 70 147
REMARK H PARENT 30 2 30 3 29 5 29 6 28 10 2 12 1 14 1 15 1 16 3 18 3 19 5 24
REMARK H PARENT 24 29 21 31 23 32 22 33 14 45 14 46 18 48 18 49 15 51 15 52
REMARK H PARENT 17 53 17 54 31 56 31 57 32 59 32 60 33 62 33 63 34 65 34 66
REMARK H PARENT 35 69 39 75 100 77 40 79 99 80 98 90 92 92 94 94 97 96 91 97
REMARK H PARENT 59 106 62 108 95 111 60 112 96 114
REMARK Flexibility Score: inf
ROOT
ATOM      1  C   UNL A   1      34.880  31.362  27.704  1.00  0.00    -0.036 C 
ATOM      2  H   UNL A   1      35.450  31.565  26.821  1.00  0.00     0.028 H 
ATOM      3  H   UNL A   1      35.464  31.028  28.535  1.00  0.00     0.028 H 
ENDROOT
BRANCH   1   4
ATOM      4  C   UNL A   1      33.932  30.226  27.390  1.00  0.00     0.018 C 
ATOM      5  H   UNL A   1      34.518  29.338  27.274  1.00  0.00     0.049 H 
ATOM      6  H   UNL A   1      33.241  30.208  28.207  1.00  0.00     0.049 H 
BRANCH   4   7
ATOM      7  N   UNL A   1      33.118  30.362  26.217  1.00  0.00    -0.351 N 
ATOM      8  C   UNL A   1      32.861  29.409  25.267  1.00  0.00     0.278 C 
ATOM      9  O   UNL A   1      31.928  29.638  24.488  1.00  0.00    -0.268 OA
ATOM     10  H   UNL A   1      32.694  31.239  26.080  1.00  0.00     0.163 HD
BRANCH   8  11
ATOM     11  C   UNL A   1      33.697  28.099  25.126  1.00  0.00     0.168 C 
ATOM     12  H   UNL A   1      34.644  28.428  24.753  1.00  0.00     0.107 H 
BRANCH  11  13
ATOM     13  N   UNL A   1      33.963  27.473  26.442  1.00  0.00    -0.347 N 
ATOM     14  H   UNL A   1      33.615  28.080  27.184  1.00  0.00     0.345 HD
ATOM     15  H   UNL A   1      34.966  27.336  26.557  1.00  0.00     0.345 HD
ATOM     16  H   UNL A   1      33.489  26.571  26.492  1.00  0.00     0.345 HD
ENDBRANCH  11  13
BRANCH  11  17
ATOM     17  C   UNL A   1      33.321  27.132  23.977  1.00  0.00     0.036 C 
ATOM     18  H   UNL A   1      34.064  27.251  23.215  1.00  0.00     0.038 H 
ATOM     19  H   UNL A   1      32.321  27.415  23.727  1.00  0.00     0.038 H 
BRANCH  17  20
ATOM     20  C   UNL A   1      33.214  25.652  24.258  1.00  0.00    -0.015 A 
ATOM     21  C   UNL A   1      34.118  24.645  23.956  1.00  0.00     0.017 A 
ATOM     22  C   UNL A   1      32.137  25.017  24.963  1.00  0.00     0.004 A 
ATOM     23  N   UNL A   1      33.721  23.463  24.564  1.00  0.00    -0.285 N 
ATOM     24  H   UNL A   1      34.959  24.759  23.369  1.00  0.00     0.083 H 
ATOM     25  C   UNL A   1      32.444  23.654  25.099  1.00  0.00     0.056 A 
ATOM     26  C   UNL A   1      30.958  25.517  25.564  1.00  0.00    -0.053 A 
ATOM     27  C   UNL A   1      31.594  22.790  25.820  1.00  0.00    -0.037 A 
ATOM     28  C   UNL A   1      30.138  24.670  26.309  1.00  0.00    -0.062 A 
ATOM     29  H   UNL A   1      30.705  26.511  25.450  1.00  0.00     0.063 H 
ATOM     30  C   UNL A   1      30.455  23.324  26.436  1.00  0.00    -0.060 A 
ATOM     31  H   UNL A   1      31.808  21.783  25.893  1.00  0.00     0.065 H 
ATOM     32  H   UNL A   1      29.293  25.044  26.768  1.00  0.00     0.062 H 
ATOM     33  H   UNL A   1      29.843  22.707  26.993  1.00  0.00     0.062 H 
BRANCH  23  34
ATOM     34  C   UNL A   1      34.560  22.307  24.756  1.00  0.00     0.240 A 
ATOM     35  N   UNL A   1      35.865  22.498  24.870  1.00  0.00    -0.181 NA
ATOM     36  N   UNL A   1      33.978  21.091  24.747  1.00  0.00    -0.176 NA
ATOM     37  C   UNL A   1      36.535  21.370  25.066  1.00  0.00     0.228 A 
ATOM     38  C   UNL A   1      34.785  20.020  24.818  1.00  0.00     0.231 A 
ATOM     39  Cl  UNL A   1      38.188  21.557  25.456  1.00  0.00    -0.041 Cl
ATOM     40  N   UNL A   1      36.085  20.120  25.021  1.00  0.00    -0.182 NA
BRANCH  38  41
ATOM     41  N   UNL A   1      34.208  18.778  24.732  1.00  0.00    -0.336 N 
ATOM     42  C   UNL A   1      32.819  18.570  24.305  1.00  0.00     0.044 C 
ATOM     43  C   UNL A   1      35.038  17.658  24.290  1.00  0.00     0.044 C 
ATOM     44  C   UNL A   1      32.299  17.333  25.048  1.00  0.00     0.064 C 
ATOM     45  H   UNL A   1      32.782  18.406  23.247  1.00  0.00     0.052 H 
ATOM     46  H   UNL A   1      32.220  19.428  24.526  1.00  0.00     0.052 H 
ATOM     47  C   UNL A   1      34.474  16.379  24.949  1.00  0.00     0.064 C 
ATOM     48  H   UNL A   1      36.052  17.812  24.595  1.00  0.00     0.052 H 
ATOM     49  H   UNL A   1      35.022  17.574  23.223  1.00  0.00     0.052 H 
ATOM     50  O   UNL A   1      33.070  16.179  24.675  1.00  0.00    -0.378 OA
ATOM     51  H   UNL A   1      31.272  17.171  24.793  1.00  0.00     0.059 H 
ATOM     52  H   UNL A   1      32.389  17.492  26.103  1.00  0.00     0.059 H 
ATOM     53  H   UNL A   1      35.018  15.536  24.580  1.00  0.00     0.059 H 
ATOM     54  H   UNL A   1      34.581  16.490  26.009  1.00  0.00     0.059 H 
ENDBRANCH  38  41
ENDBRANCH  23  34
ENDBRANCH  17  20
ENDBRANCH  11  17
ENDBRANCH   8  11
ENDBRANCH   4   7
ENDBRANCH   1   4
BRANCH   1  55
ATOM     55  C   UNL A   1      34.233  32.668  28.152  1.00  0.00    -0.052 C 
ATOM     56  H   UNL A   1      33.691  32.460  29.051  1.00  0.00     0.027 H 
ATOM     57  H   UNL A   1      33.647  32.974  27.312  1.00  0.00     0.027 H 
BRANCH  55  58
ATOM     58  C   UNL A   1      35.149  33.873  28.440  1.00  0.00    -0.052 C 
ATOM     59  H   UNL A   1      35.566  34.183  27.505  1.00  0.00     0.027 H 
ATOM     60  H   UNL A   1      35.842  33.507  29.168  1.00  0.00     0.027 H 
BRANCH  58  61
ATOM     61  C   UNL A   1      34.539  35.116  29.097  1.00  0.00    -0.036 C 
ATOM     62  H   UNL A   1      34.709  35.949  28.448  1.00  0.00     0.028 H 
ATOM     63  H   UNL A   1      35.016  35.211  30.050  1.00  0.00     0.028 H 
BRANCH  61  64
ATOM     64  C   UNL A   1      33.058  35.037  29.377  1.00  0.00     0.018 C 
ATOM     65  H   UNL A   1      32.729  34.055  29.112  1.00  0.00     0.049 H 
ATOM     66  H   UNL A   1      32.619  35.824  28.800  1.00  0.00     0.049 H 
BRANCH  64  67
ATOM     67  N   UNL A   1      32.644  35.286  30.742  1.00  0.00    -0.352 N 
ATOM     68  C   UNL A   1      33.272  35.298  31.954  1.00  0.00     0.251 C 
ATOM     69  H   UNL A   1      31.685  35.496  30.812  1.00  0.00     0.163 HD
ATOM     70  O   UNL A   1      32.655  35.804  32.895  1.00  0.00    -0.269 OA
BRANCH  68  71
ATOM     71  C   UNL A   1      34.556  34.615  32.225  1.00  0.00     0.039 A 
ATOM     72  C   UNL A   1      35.756  35.252  32.517  1.00  0.00    -0.049 A 
ATOM     73  C   UNL A   1      34.545  33.218  32.067  1.00  0.00    -0.049 A 
ATOM     74  C   UNL A   1      36.947  34.554  32.401  1.00  0.00    -0.053 A 
ATOM     75  H   UNL A   1      35.761  36.240  32.818  1.00  0.00     0.063 H 
ATOM     76  C   UNL A   1      35.728  32.500  32.019  1.00  0.00    -0.053 A 
ATOM     77  H   UNL A   1      33.644  32.720  31.987  1.00  0.00     0.063 H 
ATOM     78  C   UNL A   1      36.928  33.191  32.080  1.00  0.00    -0.014 A 
ATOM     79  H   UNL A   1      37.846  35.038  32.550  1.00  0.00     0.063 H 
ATOM     80  H   UNL A   1      35.716  31.471  31.938  1.00  0.00     0.063 H 
BRANCH  78  81
ATOM     81  C   UNL A   1      38.202  32.492  31.978  1.00  0.00     0.031 A 
ATOM     82  C   UNL A   1      38.951  32.487  33.264  1.00  0.00     0.074 A 
ATOM     83  C   UNL A   1      38.642  31.878  30.857  1.00  0.00     0.049 A 
ATOM     84  N   UNL A   1      40.049  33.115  33.522  1.00  0.00    -0.248 NA
ATOM     85  C   UNL A   1      38.305  31.897  34.447  1.00  0.00    -0.034 C 
ATOM     86  C   UNL A   1      37.939  31.655  29.592  1.00  0.00    -0.036 A 
ATOM     87  N   UNL A   1      39.845  31.271  30.636  1.00  0.00    -0.354 N 
ATOM     88  C   UNL A   1      40.342  32.841  34.854  1.00  0.00     0.074 A 
ATOM     89  C   UNL A   1      39.165  32.228  35.412  1.00  0.00    -0.034 C 
ATOM     90  H   UNL A   1      37.422  31.367  34.514  1.00  0.00     0.065 H 
ATOM     91  C   UNL A   1      38.633  30.772  28.832  1.00  0.00    -0.036 A 
ATOM     92  H   UNL A   1      37.051  32.102  29.320  1.00  0.00     0.065 H 
ATOM     93  C   UNL A   1      39.900  30.487  29.482  1.00  0.00     0.049 A 
ATOM     94  H   UNL A   1      40.613  31.376  31.243  1.00  0.00     0.167 HD
ATOM     95  C   UNL A   1      41.622  32.922  35.307  1.00  0.00     0.037 A 
ATOM     96  H   UNL A   1      39.009  32.066  36.420  1.00  0.00     0.065 H 
ATOM     97  H   UNL A   1      38.313  30.368  27.939  1.00  0.00     0.065 H 
ATOM     98  C   UNL A   1      40.918  29.661  29.112  1.00  0.00     0.037 A 
ATOM     99  C   UNL A   1      42.421  33.748  34.437  1.00  0.00     0.049 A 
ATOM    100  C   UNL A   1      42.133  30.137  29.820  1.00  0.00     0.074 A 
ATOM    101  C   UNL A   1      42.407  35.081  34.077  1.00  0.00    -0.036 A 
ATOM    102  N   UNL A   1      43.184  33.114  33.490  1.00  0.00    -0.354 N 
ATOM    103  N   UNL A   1      42.703  31.282  29.565  1.00  0.00    -0.248 NA
ATOM    104  C   UNL A   1      42.392  29.575  31.136  1.00  0.00    -0.034 C 
ATOM    105  C   UNL A   1      42.747  35.094  32.692  1.00  0.00    -0.036 A 
ATOM    106  H   UNL A   1      42.195  35.893  34.679  1.00  0.00     0.065 H 
ATOM    107  C   UNL A   1      43.029  33.785  32.306  1.00  0.00     0.049 A 
ATOM    108  H   UNL A   1      43.743  32.317  33.635  1.00  0.00     0.167 HD
ATOM    109  C   UNL A   1      43.018  31.794  30.813  1.00  0.00     0.074 A 
ATOM    110  C   UNL A   1      42.839  30.678  31.743  1.00  0.00    -0.034 C 
ATOM    111  H   UNL A   1      42.270  28.614  31.492  1.00  0.00     0.065 H 
ATOM    112  H   UNL A   1      42.779  35.927  32.083  1.00  0.00     0.065 H 
ATOM    113  C   UNL A   1      43.103  33.140  31.017  1.00  0.00     0.037 A 
ATOM    114  H   UNL A   1      43.037  30.737  32.754  1.00  0.00     0.065 H 
BRANCH  95 115
ATOM    115  C   UNL A   1      42.238  31.923  36.256  1.00  0.00     0.064 A 
ATOM    116  C   UNL A   1      42.948  32.396  37.378  1.00  0.00     0.173 A 
ATOM    117  C   UNL A   1      42.441  30.562  35.941  1.00  0.00     0.173 A 
ATOM    118  F   UNL A   1      42.848  33.679  37.760  1.00  0.00    -0.203 F 
ATOM    119  C   UNL A   1      43.857  31.591  38.071  1.00  0.00     0.198 A 
ATOM    120  C   UNL A   1      43.312  29.749  36.663  1.00  0.00     0.198 A 
ATOM    121  F   UNL A   1      41.902  29.988  34.859  1.00  0.00    -0.203 F 
ATOM    122  F   UNL A   1      44.607  32.123  39.045  1.00  0.00    -0.200 F 
ATOM    123  C   UNL A   1      44.044  30.271  37.706  1.00  0.00     0.200 A 
ATOM    124  F   UNL A   1      43.496  28.478  36.278  1.00  0.00    -0.200 F 
ATOM    125  F   UNL A   1      44.961  29.517  38.324  1.00  0.00    -0.200 F 
ENDBRANCH  95 115
BRANCH  98 126
ATOM    126  C   UNL A   1      40.849  28.292  28.533  1.00  0.00     0.064 A 
ATOM    127  C   UNL A   1      40.088  27.277  29.147  1.00  0.00     0.173 A 
ATOM    128  C   UNL A   1      41.258  28.040  27.210  1.00  0.00     0.173 A 
ATOM    129  F   UNL A   1      39.612  27.450  30.389  1.00  0.00    -0.203 F 
ATOM    130  C   UNL A   1      39.732  26.103  28.468  1.00  0.00     0.198 A 
ATOM    131  C   UNL A   1      40.903  26.870  26.533  1.00  0.00     0.198 A 
ATOM    132  F   UNL A   1      41.925  28.970  26.512  1.00  0.00    -0.203 F 
ATOM    133  F   UNL A   1      38.951  25.192  29.066  1.00  0.00    -0.200 F 
ATOM    134  C   UNL A   1      40.128  25.908  27.157  1.00  0.00     0.200 A 
ATOM    135  F   UNL A   1      41.257  26.710  25.250  1.00  0.00    -0.200 F 
ATOM    136  F   UNL A   1      39.731  24.820  26.482  1.00  0.00    -0.200 F 
ENDBRANCH  98 126
BRANCH 113 137
ATOM    137  C   UNL A   1      43.067  34.040  29.814  1.00  0.00     0.064 A 
ATOM    138  C   UNL A   1      44.170  34.281  28.975  1.00  0.00     0.173 A 
ATOM    139  C   UNL A   1      41.822  34.526  29.397  1.00  0.00     0.173 A 
ATOM    140  F   UNL A   1      45.377  33.777  29.261  1.00  0.00    -0.203 F 
ATOM    141  C   UNL A   1      44.027  34.988  27.781  1.00  0.00     0.198 A 
ATOM    142  C   UNL A   1      41.677  35.204  28.190  1.00  0.00     0.198 A 
ATOM    143  F   UNL A   1      40.727  34.284  30.136  1.00  0.00    -0.203 F 
ATOM    144  F   UNL A   1      45.090  35.195  26.988  1.00  0.00    -0.200 F 
ATOM    145  C   UNL A   1      42.779  35.438  27.384  1.00  0.00     0.200 A 
ATOM    146  F   UNL A   1      40.458  35.591  27.789  1.00  0.00    -0.200 F 
ATOM    147  F   UNL A   1      42.629  36.067  26.210  1.00  0.00    -0.200 F 
ENDBRANCH 113 137
ENDBRANCH  78  81
ENDBRANCH  68  71
ENDBRANCH  64  67
ENDBRANCH  61  64
ENDBRANCH  58  61
ENDBRANCH  55  58
ENDBRANCH   1  55
TORSDOF 18
ENDMDL
MODEL 8
REMARK VINA RESULT:     -11.6      2.644      3.530
REMARK SMILES [NH3+][C@@H](Cc1cn(-c2nc(Cl)nc(N3CCOCC3)n2)c2ccccc12)C(=O)NCCCCCCNC(=O)c1ccc(-c2c3nc(c(-c4c(F)c(F)c(F)c(F)c4F)c4ccc([nH]4)c(-c4c(F)c(F)c(F)c(F)c4F)c4nc(c(-c5c(F)c(F)c(F)c(F)c5F)c5ccc2[nH]5)C=C4)C=C3)cc1
REMARK SMILES IDX 30 1 29 4 28 7 26 8 27 9 2 11 1 13 3 17 4 20 5 21 25 22 6 23
REMARK SMILES IDX 20 25 24 26 21 27 23 28 22 30 7 34 8 35 19 36 9 37 12 38
REMARK SMILES IDX 10 39 11 40 13 41 14 42 18 43 15 44 17 47 16 50 31 55 32 58
REMARK SMILES IDX 33 61 34 64 35 67 36 68 37 70 38 71 39 72 100 73 40 74 99 76
REMARK SMILES IDX 41 78 42 81 43 82 93 83 44 84 98 85 92 86 94 87 45 88 97 89
REMARK SMILES IDX 91 91 90 93 46 95 78 98 58 99 77 100 59 101 62 102 76 103
REMARK SMILES IDX 95 104 60 105 61 107 75 109 96 110 63 113 47 115 48 116
REMARK SMILES IDX 56 117 49 118 50 119 54 120 57 121 51 122 52 123 55 124
REMARK SMILES IDX 53 125 79 126 80 127 88 128 81 129 82 130 86 131 89 132
REMARK SMILES IDX 83 133 84 134 87 135 85 136 64 137 65 138 73 139 66 140
REMARK SMILES IDX 67 141 71 142 74 143 68 144 69 145 72 146 70 147
REMARK H PARENT 30 2 30 3 29 5 29 6 28 10 2 12 1 14 1 15 1 16 3 18 3 19 5 24
REMARK H PARENT 24 29 21 31 23 32 22 33 14 45 14 46 18 48 18 49 15 51 15 52
REMARK H PARENT 17 53 17 54 31 56 31 57 32 59 32 60 33 62 33 63 34 65 34 66
REMARK H PARENT 35 69 39 75 100 77 40 79 99 80 98 90 92 92 94 94 97 96 91 97
REMARK H PARENT 59 106 62 108 95 111 60 112 96 114
REMARK Flexibility Score: inf
ROOT
ATOM      1  C   UNL A   1      39.818  23.919  26.710  1.00  0.00    -0.036 C 
ATOM      2  H   UNL A   1      39.938  24.954  26.955  1.00  0.00     0.028 H 
ATOM      3  H   UNL A   1      40.309  23.624  25.806  1.00  0.00     0.028 H 
ENDROOT
BRANCH   1   4
ATOM      4  C   UNL A   1      38.346  23.667  26.475  1.00  0.00     0.018 C 
ATOM      5  H   UNL A   1      37.827  23.929  27.374  1.00  0.00     0.049 H 
ATOM      6  H   UNL A   1      38.096  24.260  25.621  1.00  0.00     0.049 H 
BRANCH   4   7
ATOM      7  N   UNL A   1      37.960  22.330  26.127  1.00  0.00    -0.351 N 
ATOM      8  C   UNL A   1      36.734  21.905  25.691  1.00  0.00     0.278 C 
ATOM      9  O   UNL A   1      36.683  20.775  25.191  1.00  0.00    -0.268 OA
ATOM     10  H   UNL A   1      38.657  21.640  26.209  1.00  0.00     0.163 HD
BRANCH   8  11
ATOM     11  C   UNL A   1      35.437  22.762  25.824  1.00  0.00     0.168 C 
ATOM     12  H   UNL A   1      34.701  22.216  25.273  1.00  0.00     0.107 H 
BRANCH  11  13
ATOM     13  N   UNL A   1      34.955  22.816  27.224  1.00  0.00    -0.347 N 
ATOM     14  H   UNL A   1      35.174  21.937  27.693  1.00  0.00     0.345 HD
ATOM     15  H   UNL A   1      33.946  22.963  27.230  1.00  0.00     0.345 HD
ATOM     16  H   UNL A   1      35.413  23.585  27.712  1.00  0.00     0.345 HD
ENDBRANCH  11  13
BRANCH  11  17
ATOM     17  C   UNL A   1      35.375  24.091  25.033  1.00  0.00     0.036 C 
ATOM     18  H   UNL A   1      35.559  23.851  24.006  1.00  0.00     0.038 H 
ATOM     19  H   UNL A   1      36.097  24.710  25.522  1.00  0.00     0.038 H 
BRANCH  17  20
ATOM     20  C   UNL A   1      34.113  24.919  25.070  1.00  0.00    -0.015 A 
ATOM     21  C   UNL A   1      33.925  26.190  25.593  1.00  0.00     0.017 A 
ATOM     22  C   UNL A   1      32.853  24.538  24.499  1.00  0.00     0.004 A 
ATOM     23  N   UNL A   1      32.667  26.658  25.243  1.00  0.00    -0.285 N 
ATOM     24  H   UNL A   1      34.618  26.708  26.156  1.00  0.00     0.083 H 
ATOM     25  C   UNL A   1      31.956  25.606  24.660  1.00  0.00     0.056 A 
ATOM     26  C   UNL A   1      32.431  23.391  23.788  1.00  0.00    -0.053 A 
ATOM     27  C   UNL A   1      30.652  25.543  24.124  1.00  0.00    -0.037 A 
ATOM     28  C   UNL A   1      31.155  23.345  23.226  1.00  0.00    -0.062 A 
ATOM     29  H   UNL A   1      33.069  22.586  23.684  1.00  0.00     0.063 H 
ATOM     30  C   UNL A   1      30.279  24.409  23.392  1.00  0.00    -0.060 A 
ATOM     31  H   UNL A   1      29.986  26.318  24.270  1.00  0.00     0.065 H 
ATOM     32  H   UNL A   1      30.860  22.516  22.685  1.00  0.00     0.062 H 
ATOM     33  H   UNL A   1      29.338  24.365  22.969  1.00  0.00     0.062 H 
BRANCH  23  34
ATOM     34  C   UNL A   1      32.246  28.034  25.314  1.00  0.00     0.240 A 
ATOM     35  N   UNL A   1      32.771  28.798  26.260  1.00  0.00    -0.181 NA
ATOM     36  N   UNL A   1      31.297  28.453  24.453  1.00  0.00    -0.176 NA
ATOM     37  C   UNL A   1      32.329  30.048  26.216  1.00  0.00     0.228 A 
ATOM     38  C   UNL A   1      30.838  29.706  24.602  1.00  0.00     0.231 A 
ATOM     39  Cl  UNL A   1      33.132  31.146  27.251  1.00  0.00    -0.041 Cl
ATOM     40  N   UNL A   1      31.365  30.560  25.459  1.00  0.00    -0.182 NA
BRANCH  38  41
ATOM     41  N   UNL A   1      29.818  30.116  23.780  1.00  0.00    -0.336 N 
ATOM     42  C   UNL A   1      29.186  31.435  23.890  1.00  0.00     0.044 C 
ATOM     43  C   UNL A   1      29.844  29.691  22.381  1.00  0.00     0.044 C 
ATOM     44  C   UNL A   1      27.720  31.269  23.467  1.00  0.00     0.064 C 
ATOM     45  H   UNL A   1      29.677  32.133  23.243  1.00  0.00     0.052 H 
ATOM     46  H   UNL A   1      29.254  31.809  24.890  1.00  0.00     0.052 H 
ATOM     47  C   UNL A   1      28.377  29.609  21.899  1.00  0.00     0.064 C 
ATOM     48  H   UNL A   1      30.311  28.731  22.298  1.00  0.00     0.052 H 
ATOM     49  H   UNL A   1      30.401  30.383  21.785  1.00  0.00     0.052 H 
ATOM     50  O   UNL A   1      27.652  30.842  22.097  1.00  0.00    -0.378 OA
ATOM     51  H   UNL A   1      27.212  32.205  23.573  1.00  0.00     0.059 H 
ATOM     52  H   UNL A   1      27.255  30.533  24.090  1.00  0.00     0.059 H 
ATOM     53  H   UNL A   1      28.374  29.373  20.856  1.00  0.00     0.059 H 
ATOM     54  H   UNL A   1      27.890  28.853  22.479  1.00  0.00     0.059 H 
ENDBRANCH  38  41
ENDBRANCH  23  34
ENDBRANCH  17  20
ENDBRANCH  11  17
ENDBRANCH   8  11
ENDBRANCH   4   7
ENDBRANCH   1   4
BRANCH   1  55
ATOM     55  C   UNL A   1      40.469  23.099  27.818  1.00  0.00    -0.052 C 
ATOM     56  H   UNL A   1      40.844  22.202  27.370  1.00  0.00     0.027 H 
ATOM     57  H   UNL A   1      39.691  22.970  28.542  1.00  0.00     0.027 H 
BRANCH  55  58
ATOM     58  C   UNL A   1      41.627  23.733  28.611  1.00  0.00    -0.052 C 
ATOM     59  H   UNL A   1      41.219  24.098  29.529  1.00  0.00     0.027 H 
ATOM     60  H   UNL A   1      42.026  24.470  27.946  1.00  0.00     0.027 H 
BRANCH  58  61
ATOM     61  C   UNL A   1      42.835  22.861  28.968  1.00  0.00    -0.036 C 
ATOM     62  H   UNL A   1      42.522  21.838  28.948  1.00  0.00     0.028 H 
ATOM     63  H   UNL A   1      43.163  23.190  29.932  1.00  0.00     0.028 H 
BRANCH  61  64
ATOM     64  C   UNL A   1      44.026  23.002  28.052  1.00  0.00     0.018 C 
ATOM     65  H   UNL A   1      44.601  22.103  28.126  1.00  0.00     0.049 H 
ATOM     66  H   UNL A   1      44.534  23.884  28.382  1.00  0.00     0.049 H 
BRANCH  64  67
ATOM     67  N   UNL A   1      43.741  23.227  26.650  1.00  0.00    -0.352 N 
ATOM     68  C   UNL A   1      43.684  24.326  25.842  1.00  0.00     0.251 C 
ATOM     69  H   UNL A   1      43.542  22.393  26.168  1.00  0.00     0.163 HD
ATOM     70  O   UNL A   1      43.657  24.120  24.625  1.00  0.00    -0.269 OA
BRANCH  68  71
ATOM     71  C   UNL A   1      43.501  25.707  26.338  1.00  0.00     0.039 A 
ATOM     72  C   UNL A   1      44.287  26.323  27.304  1.00  0.00    -0.049 A 
ATOM     73  C   UNL A   1      42.370  26.384  25.844  1.00  0.00    -0.049 A 
ATOM     74  C   UNL A   1      43.821  27.461  27.942  1.00  0.00    -0.053 A 
ATOM     75  H   UNL A   1      45.213  25.935  27.545  1.00  0.00     0.063 H 
ATOM     76  C   UNL A   1      41.935  27.560  26.431  1.00  0.00    -0.053 A 
ATOM     77  H   UNL A   1      41.859  26.000  25.034  1.00  0.00     0.063 H 
ATOM     78  C   UNL A   1      42.606  28.035  27.548  1.00  0.00    -0.014 A 
ATOM     79  H   UNL A   1      44.369  27.884  28.708  1.00  0.00     0.063 H 
ATOM     80  H   UNL A   1      41.126  28.072  26.046  1.00  0.00     0.063 H 
BRANCH  78  81
ATOM     81  C   UNL A   1      42.157  29.236  28.238  1.00  0.00     0.031 A 
ATOM     82  C   UNL A   1      43.109  30.368  28.081  1.00  0.00     0.074 A 
ATOM     83  C   UNL A   1      40.990  29.332  28.912  1.00  0.00     0.049 A 
ATOM     84  N   UNL A   1      43.848  30.892  29.002  1.00  0.00    -0.248 NA
ATOM     85  C   UNL A   1      43.431  30.829  26.720  1.00  0.00    -0.034 C 
ATOM     86  C   UNL A   1      39.892  28.367  28.996  1.00  0.00    -0.036 A 
ATOM     87  N   UNL A   1      40.518  30.378  29.654  1.00  0.00    -0.354 N 
ATOM     88  C   UNL A   1      44.592  31.887  28.375  1.00  0.00     0.074 A 
ATOM     89  C   UNL A   1      44.416  31.697  26.959  1.00  0.00    -0.034 C 
ATOM     90  H   UNL A   1      43.008  30.554  25.820  1.00  0.00     0.065 H 
ATOM     91  C   UNL A   1      38.803  28.958  29.546  1.00  0.00    -0.036 A 
ATOM     92  H   UNL A   1      39.940  27.385  28.685  1.00  0.00     0.065 H 
ATOM     93  C   UNL A   1      39.168  30.289  29.994  1.00  0.00     0.049 A 
ATOM     94  H   UNL A   1      41.086  31.134  29.925  1.00  0.00     0.167 HD
ATOM     95  C   UNL A   1      45.087  32.930  29.094  1.00  0.00     0.037 A 
ATOM     96  H   UNL A   1      44.975  32.167  26.229  1.00  0.00     0.065 H 
ATOM     97  H   UNL A   1      37.867  28.532  29.631  1.00  0.00     0.065 H 
ATOM     98  C   UNL A   1      38.419  31.258  30.591  1.00  0.00     0.037 A 
ATOM     99  C   UNL A   1      45.166  32.596  30.493  1.00  0.00     0.049 A 
ATOM    100  C   UNL A   1      39.367  32.162  31.289  1.00  0.00     0.074 A 
ATOM    101  C   UNL A   1      45.879  31.675  31.236  1.00  0.00    -0.036 A 
ATOM    102  N   UNL A   1      44.134  33.007  31.299  1.00  0.00    -0.354 N 
ATOM    103  N   UNL A   1      40.075  31.794  32.320  1.00  0.00    -0.248 NA
ATOM    104  C   UNL A   1      39.890  33.286  30.526  1.00  0.00    -0.034 C 
ATOM    105  C   UNL A   1      44.973  31.230  32.243  1.00  0.00    -0.036 A 
ATOM    106  H   UNL A   1      46.856  31.375  31.093  1.00  0.00     0.065 H 
ATOM    107  C   UNL A   1      43.791  31.958  32.111  1.00  0.00     0.049 A 
ATOM    108  H   UNL A   1      43.714  33.897  31.294  1.00  0.00     0.167 HD
ATOM    109  C   UNL A   1      41.331  32.329  32.084  1.00  0.00     0.074 A 
ATOM    110  C   UNL A   1      41.146  33.273  30.981  1.00  0.00    -0.034 C 
ATOM    111  H   UNL A   1      39.429  33.906  29.842  1.00  0.00     0.065 H 
ATOM    112  H   UNL A   1      45.159  30.498  32.945  1.00  0.00     0.065 H 
ATOM    113  C   UNL A   1      42.450  31.741  32.597  1.00  0.00     0.037 A 
ATOM    114  H   UNL A   1      41.900  33.863  30.599  1.00  0.00     0.065 H 
BRANCH  95 115
ATOM    115  C   UNL A   1      45.078  34.359  28.608  1.00  0.00     0.064 A 
ATOM    116  C   UNL A   1      46.265  35.115  28.689  1.00  0.00     0.173 A 
ATOM    117  C   UNL A   1      43.901  35.104  28.379  1.00  0.00     0.173 A 
ATOM    118  F   UNL A   1      47.443  34.516  28.923  1.00  0.00    -0.203 F 
ATOM    119  C   UNL A   1      46.257  36.512  28.637  1.00  0.00     0.198 A 
ATOM    120  C   UNL A   1      43.902  36.494  28.280  1.00  0.00     0.198 A 
ATOM    121  F   UNL A   1      42.688  34.539  28.359  1.00  0.00    -0.203 F 
ATOM    122  F   UNL A   1      47.390  37.192  28.854  1.00  0.00    -0.200 F 
ATOM    123  C   UNL A   1      45.074  37.199  28.442  1.00  0.00     0.200 A 
ATOM    124  F   UNL A   1      42.741  37.142  28.114  1.00  0.00    -0.200 F 
ATOM    125  F   UNL A   1      45.052  38.538  28.458  1.00  0.00    -0.200 F 
ENDBRANCH  95 115
BRANCH  98 126
ATOM    126  C   UNL A   1      37.028  31.688  30.284  1.00  0.00     0.064 A 
ATOM    127  C   UNL A   1      36.072  31.852  31.307  1.00  0.00     0.173 A 
ATOM    128  C   UNL A   1      36.700  32.256  29.038  1.00  0.00     0.173 A 
ATOM    129  F   UNL A   1      36.320  31.388  32.541  1.00  0.00    -0.203 F 
ATOM    130  C   UNL A   1      34.882  32.565  31.103  1.00  0.00     0.198 A 
ATOM    131  C   UNL A   1      35.514  32.967  28.836  1.00  0.00     0.198 A 
ATOM    132  F   UNL A   1      37.571  32.219  28.020  1.00  0.00    -0.203 F 
ATOM    133  F   UNL A   1      34.029  32.753  32.121  1.00  0.00    -0.200 F 
ATOM    134  C   UNL A   1      34.612  33.134  29.872  1.00  0.00     0.200 A 
ATOM    135  F   UNL A   1      35.282  33.550  27.650  1.00  0.00    -0.200 F 
ATOM    136  F   UNL A   1      33.509  33.876  29.692  1.00  0.00    -0.200 F 
ENDBRANCH  98 126
BRANCH 113 137
ATOM    137  C   UNL A   1      42.271  30.638  33.602  1.00  0.00     0.064 A 
ATOM    138  C   UNL A   1      42.154  29.276  33.267  1.00  0.00     0.173 A 
ATOM    139  C   UNL A   1      42.408  30.959  34.958  1.00  0.00     0.173 A 
ATOM    140  F   UNL A   1      42.104  28.883  31.988  1.00  0.00    -0.203 F 
ATOM    141  C   UNL A   1      42.162  28.288  34.251  1.00  0.00     0.198 A 
ATOM    142  C   UNL A   1      42.448  29.969  35.934  1.00  0.00     0.198 A 
ATOM    143  F   UNL A   1      42.571  32.238  35.329  1.00  0.00    -0.203 F 
ATOM    144  F   UNL A   1      42.064  26.994  33.910  1.00  0.00    -0.200 F 
ATOM    145  C   UNL A   1      42.321  28.635  35.583  1.00  0.00     0.200 A 
ATOM    146  F   UNL A   1      42.653  30.308  37.215  1.00  0.00    -0.200 F 
ATOM    147  F   UNL A   1      42.388  27.684  36.525  1.00  0.00    -0.200 F 
ENDBRANCH 113 137
ENDBRANCH  78  81
ENDBRANCH  68  71
ENDBRANCH  64  67
ENDBRANCH  61  64
ENDBRANCH  58  61
ENDBRANCH  55  58
ENDBRANCH   1  55
TORSDOF 18
ENDMDL
MODEL 9
REMARK VINA RESULT:     -11.3      5.356      9.379
REMARK SMILES [NH3+][C@@H](Cc1cn(-c2nc(Cl)nc(N3CCOCC3)n2)c2ccccc12)C(=O)NCCCCCCNC(=O)c1ccc(-c2c3nc(c(-c4c(F)c(F)c(F)c(F)c4F)c4ccc([nH]4)c(-c4c(F)c(F)c(F)c(F)c4F)c4nc(c(-c5c(F)c(F)c(F)c(F)c5F)c5ccc2[nH]5)C=C4)C=C3)cc1
REMARK SMILES IDX 30 1 29 4 28 7 26 8 27 9 2 11 1 13 3 17 4 20 5 21 25 22 6 23
REMARK SMILES IDX 20 25 24 26 21 27 23 28 22 30 7 34 8 35 19 36 9 37 12 38
REMARK SMILES IDX 10 39 11 40 13 41 14 42 18 43 15 44 17 47 16 50 31 55 32 58
REMARK SMILES IDX 33 61 34 64 35 67 36 68 37 70 38 71 39 72 100 73 40 74 99 76
REMARK SMILES IDX 41 78 42 81 43 82 93 83 44 84 98 85 92 86 94 87 45 88 97 89
REMARK SMILES IDX 91 91 90 93 46 95 78 98 58 99 77 100 59 101 62 102 76 103
REMARK SMILES IDX 95 104 60 105 61 107 75 109 96 110 63 113 47 115 48 116
REMARK SMILES IDX 56 117 49 118 50 119 54 120 57 121 51 122 52 123 55 124
REMARK SMILES IDX 53 125 79 126 80 127 88 128 81 129 82 130 86 131 89 132
REMARK SMILES IDX 83 133 84 134 87 135 85 136 64 137 65 138 73 139 66 140
REMARK SMILES IDX 67 141 71 142 74 143 68 144 69 145 72 146 70 147
REMARK H PARENT 30 2 30 3 29 5 29 6 28 10 2 12 1 14 1 15 1 16 3 18 3 19 5 24
REMARK H PARENT 24 29 21 31 23 32 22 33 14 45 14 46 18 48 18 49 15 51 15 52
REMARK H PARENT 17 53 17 54 31 56 31 57 32 59 32 60 33 62 33 63 34 65 34 66
REMARK H PARENT 35 69 39 75 100 77 40 79 99 80 98 90 92 92 94 94 97 96 91 97
REMARK H PARENT 59 106 62 108 95 111 60 112 96 114
REMARK Flexibility Score: inf
ROOT
ATOM      1  C   UNL A   1      42.591  28.934  33.443  1.00  0.00    -0.036 C 
ATOM      2  H   UNL A   1      42.161  29.905  33.573  1.00  0.00     0.028 H 
ATOM      3  H   UNL A   1      43.654  28.938  33.320  1.00  0.00     0.028 H 
ENDROOT
BRANCH   1   4
ATOM      4  C   UNL A   1      42.035  28.351  32.163  1.00  0.00     0.018 C 
ATOM      5  H   UNL A   1      42.858  27.954  31.606  1.00  0.00     0.049 H 
ATOM      6  H   UNL A   1      41.313  27.628  32.479  1.00  0.00     0.049 H 
BRANCH   4   7
ATOM      7  N   UNL A   1      41.318  29.242  31.298  1.00  0.00    -0.351 N 
ATOM      8  C   UNL A   1      40.102  29.829  31.532  1.00  0.00     0.278 C 
ATOM      9  O   UNL A   1      39.786  30.765  30.789  1.00  0.00    -0.268 OA
ATOM     10  H   UNL A   1      41.748  29.456  30.440  1.00  0.00     0.163 HD
BRANCH   8  11
ATOM     11  C   UNL A   1      39.127  29.353  32.653  1.00  0.00     0.168 C 
ATOM     12  H   UNL A   1      38.167  29.700  32.333  1.00  0.00     0.107 H 
BRANCH  11  13
ATOM     13  N   UNL A   1      39.038  27.876  32.713  1.00  0.00    -0.347 N 
ATOM     14  H   UNL A   1      39.963  27.473  32.562  1.00  0.00     0.345 HD
ATOM     15  H   UNL A   1      38.400  27.544  31.991  1.00  0.00     0.345 HD
ATOM     16  H   UNL A   1      38.690  27.593  33.629  1.00  0.00     0.345 HD
ENDBRANCH  11  13
BRANCH  11  17
ATOM     17  C   UNL A   1      39.192  30.086  34.014  1.00  0.00     0.036 C 
ATOM     18  H   UNL A   1      40.222  30.317  34.196  1.00  0.00     0.038 H 
ATOM     19  H   UNL A   1      38.722  29.404  34.691  1.00  0.00     0.038 H 
BRANCH  17  20
ATOM     20  C   UNL A   1      38.416  31.368  34.205  1.00  0.00    -0.015 A 
ATOM     21  C   UNL A   1      37.845  32.187  33.242  1.00  0.00     0.017 A 
ATOM     22  C   UNL A   1      38.076  31.953  35.470  1.00  0.00     0.004 A 
ATOM     23  N   UNL A   1      37.058  33.151  33.854  1.00  0.00    -0.285 N 
ATOM     24  H   UNL A   1      37.986  32.092  32.224  1.00  0.00     0.083 H 
ATOM     25  C   UNL A   1      37.278  33.082  35.233  1.00  0.00     0.056 A 
ATOM     26  C   UNL A   1      38.325  31.557  36.806  1.00  0.00    -0.053 A 
ATOM     27  C   UNL A   1      36.730  33.820  36.304  1.00  0.00    -0.037 A 
ATOM     28  C   UNL A   1      37.752  32.264  37.863  1.00  0.00    -0.062 A 
ATOM     29  H   UNL A   1      38.931  30.745  36.998  1.00  0.00     0.063 H 
ATOM     30  C   UNL A   1      36.963  33.380  37.613  1.00  0.00    -0.060 A 
ATOM     31  H   UNL A   1      36.169  34.667  36.126  1.00  0.00     0.065 H 
ATOM     32  H   UNL A   1      37.914  31.957  38.835  1.00  0.00     0.062 H 
ATOM     33  H   UNL A   1      36.542  33.893  38.403  1.00  0.00     0.062 H 
BRANCH  23  34
ATOM     34  C   UNL A   1      36.062  33.952  33.189  1.00  0.00     0.240 A 
ATOM     35  N   UNL A   1      35.460  34.901  33.889  1.00  0.00    -0.181 NA
ATOM     36  N   UNL A   1      35.755  33.653  31.911  1.00  0.00    -0.176 NA
ATOM     37  C   UNL A   1      34.581  35.589  33.172  1.00  0.00     0.228 A 
ATOM     38  C   UNL A   1      34.751  34.338  31.341  1.00  0.00     0.231 A 
ATOM     39  Cl  UNL A   1      33.936  36.975  33.936  1.00  0.00    -0.041 Cl
ATOM     40  N   UNL A   1      34.156  35.356  31.934  1.00  0.00    -0.182 NA
BRANCH  38  41
ATOM     41  N   UNL A   1      34.381  33.988  30.067  1.00  0.00    -0.336 N 
ATOM     42  C   UNL A   1      33.956  34.969  29.061  1.00  0.00     0.044 C 
ATOM     43  C   UNL A   1      35.090  32.886  29.418  1.00  0.00     0.044 C 
ATOM     44  C   UNL A   1      32.928  34.273  28.159  1.00  0.00     0.064 C 
ATOM     45  H   UNL A   1      34.797  35.288  28.482  1.00  0.00     0.052 H 
ATOM     46  H   UNL A   1      33.530  35.833  29.528  1.00  0.00     0.052 H 
ATOM     47  C   UNL A   1      34.104  32.225  28.428  1.00  0.00     0.064 C 
ATOM     48  H   UNL A   1      35.407  32.173  30.150  1.00  0.00     0.052 H 
ATOM     49  H   UNL A   1      35.958  33.243  28.906  1.00  0.00     0.052 H 
ATOM     50  O   UNL A   1      33.543  33.164  27.484  1.00  0.00    -0.378 OA
ATOM     51  H   UNL A   1      32.562  34.971  27.434  1.00  0.00     0.059 H 
ATOM     52  H   UNL A   1      32.117  33.915  28.759  1.00  0.00     0.059 H 
ATOM     53  H   UNL A   1      34.623  31.464  27.885  1.00  0.00     0.059 H 
ATOM     54  H   UNL A   1      33.293  31.824  29.000  1.00  0.00     0.059 H 
ENDBRANCH  38  41
ENDBRANCH  23  34
ENDBRANCH  17  20
ENDBRANCH  11  17
ENDBRANCH   8  11
ENDBRANCH   4   7
ENDBRANCH   1   4
BRANCH   1  55
ATOM     55  C   UNL A   1      42.326  28.133  34.712  1.00  0.00    -0.052 C 
ATOM     56  H   UNL A   1      41.657  28.710  35.317  1.00  0.00     0.027 H 
ATOM     57  H   UNL A   1      43.298  27.961  35.124  1.00  0.00     0.027 H 
BRANCH  55  58
ATOM     58  C   UNL A   1      41.716  26.725  34.573  1.00  0.00    -0.052 C 
ATOM     59  H   UNL A   1      42.390  26.146  33.977  1.00  0.00     0.027 H 
ATOM     60  H   UNL A   1      40.747  26.901  34.154  1.00  0.00     0.027 H 
BRANCH  58  61
ATOM     61  C   UNL A   1      41.432  25.920  35.845  1.00  0.00    -0.036 C 
ATOM     62  H   UNL A   1      41.374  24.886  35.575  1.00  0.00     0.028 H 
ATOM     63  H   UNL A   1      40.521  26.311  36.246  1.00  0.00     0.028 H 
BRANCH  61  64
ATOM     64  C   UNL A   1      42.462  26.058  36.939  1.00  0.00     0.018 C 
ATOM     65  H   UNL A   1      41.949  26.335  37.836  1.00  0.00     0.049 H 
ATOM     66  H   UNL A   1      43.159  26.787  36.582  1.00  0.00     0.049 H 
BRANCH  64  67
ATOM     67  N   UNL A   1      43.256  24.883  37.233  1.00  0.00    -0.352 N 
ATOM     68  C   UNL A   1      44.375  24.315  36.694  1.00  0.00     0.251 C 
ATOM     69  H   UNL A   1      42.908  24.375  38.001  1.00  0.00     0.163 HD
ATOM     70  O   UNL A   1      44.931  23.439  37.363  1.00  0.00    -0.269 OA
BRANCH  68  71
ATOM     71  C   UNL A   1      44.853  24.577  35.319  1.00  0.00     0.039 A 
ATOM     72  C   UNL A   1      45.129  25.833  34.792  1.00  0.00    -0.049 A 
ATOM     73  C   UNL A   1      44.926  23.452  34.478  1.00  0.00    -0.049 A 
ATOM     74  C   UNL A   1      45.221  25.993  33.420  1.00  0.00    -0.053 A 
ATOM     75  H   UNL A   1      45.263  26.642  35.419  1.00  0.00     0.063 H 
ATOM     76  C   UNL A   1      45.088  23.599  33.111  1.00  0.00    -0.053 A 
ATOM     77  H   UNL A   1      44.859  22.506  34.884  1.00  0.00     0.063 H 
ATOM     78  C   UNL A   1      45.128  24.878  32.578  1.00  0.00    -0.014 A 
ATOM     79  H   UNL A   1      45.358  26.934  33.018  1.00  0.00     0.063 H 
ATOM     80  H   UNL A   1      45.176  22.771  32.500  1.00  0.00     0.063 H 
BRANCH  78  81
ATOM     81  C   UNL A   1      45.240  25.089  31.141  1.00  0.00     0.031 A 
ATOM     82  C   UNL A   1      46.233  26.144  30.800  1.00  0.00     0.074 A 
ATOM     83  C   UNL A   1      44.556  24.383  30.215  1.00  0.00     0.049 A 
ATOM     84  N   UNL A   1      45.985  27.309  30.303  1.00  0.00    -0.248 NA
ATOM     85  C   UNL A   1      47.623  25.969  31.253  1.00  0.00    -0.034 C 
ATOM     86  C   UNL A   1      43.692  23.215  30.400  1.00  0.00    -0.036 A 
ATOM     87  N   UNL A   1      44.529  24.556  28.861  1.00  0.00    -0.354 N 
ATOM     88  C   UNL A   1      47.215  27.949  30.195  1.00  0.00     0.074 A 
ATOM     89  C   UNL A   1      48.156  27.151  30.936  1.00  0.00    -0.034 C 
ATOM     90  H   UNL A   1      48.068  25.151  31.697  1.00  0.00     0.065 H 
ATOM     91  C   UNL A   1      43.419  22.652  29.197  1.00  0.00    -0.036 A 
ATOM     92  H   UNL A   1      43.344  22.872  31.308  1.00  0.00     0.065 H 
ATOM     93  C   UNL A   1      43.953  23.503  28.149  1.00  0.00     0.049 A 
ATOM     94  H   UNL A   1      44.889  25.360  28.421  1.00  0.00     0.167 HD
ATOM     95  C   UNL A   1      47.391  28.953  29.293  1.00  0.00     0.037 A 
ATOM     96  H   UNL A   1      49.111  27.450  31.186  1.00  0.00     0.065 H 
ATOM     97  H   UNL A   1      42.915  21.765  29.050  1.00  0.00     0.065 H 
ATOM     98  C   UNL A   1      43.938  23.354  26.795  1.00  0.00     0.037 A 
ATOM     99  C   UNL A   1      46.124  29.524  28.910  1.00  0.00     0.049 A 
ATOM    100  C   UNL A   1      44.133  24.706  26.214  1.00  0.00     0.074 A 
ATOM    101  C   UNL A   1      45.130  30.219  29.570  1.00  0.00    -0.036 A 
ATOM    102  N   UNL A   1      45.556  29.073  27.746  1.00  0.00    -0.354 N 
ATOM    103  N   UNL A   1      43.251  25.661  26.319  1.00  0.00    -0.248 NA
ATOM    104  C   UNL A   1      45.504  25.130  25.974  1.00  0.00    -0.034 C 
ATOM    105  C   UNL A   1      43.910  29.740  29.010  1.00  0.00    -0.036 A 
ATOM    106  H   UNL A   1      45.245  30.930  30.309  1.00  0.00     0.065 H 
ATOM    107  C   UNL A   1      44.226  28.845  27.988  1.00  0.00     0.049 A 
ATOM    108  H   UNL A   1      46.020  28.936  26.889  1.00  0.00     0.167 HD
ATOM    109  C   UNL A   1      43.999  26.791  26.602  1.00  0.00     0.074 A 
ATOM    110  C   UNL A   1      45.387  26.410  26.337  1.00  0.00    -0.034 C 
ATOM    111  H   UNL A   1      46.320  24.601  25.627  1.00  0.00     0.065 H 
ATOM    112  H   UNL A   1      42.959  30.008  29.308  1.00  0.00     0.065 H 
ATOM    113  C   UNL A   1      43.462  27.828  27.308  1.00  0.00     0.037 A 
ATOM    114  H   UNL A   1      46.185  27.058  26.421  1.00  0.00     0.065 H 
BRANCH  95 115
ATOM    115  C   UNL A   1      48.632  29.109  28.450  1.00  0.00     0.064 A 
ATOM    116  C   UNL A   1      49.245  30.376  28.366  1.00  0.00     0.173 A 
ATOM    117  C   UNL A   1      49.045  28.172  27.478  1.00  0.00     0.173 A 
ATOM    118  F   UNL A   1      48.916  31.353  29.225  1.00  0.00    -0.203 F 
ATOM    119  C   UNL A   1      50.131  30.702  27.335  1.00  0.00     0.198 A 
ATOM    120  C   UNL A   1      49.966  28.485  26.480  1.00  0.00     0.198 A 
ATOM    121  F   UNL A   1      48.498  26.956  27.376  1.00  0.00    -0.203 F 
ATOM    122  F   UNL A   1      50.583  31.958  27.219  1.00  0.00    -0.200 F 
ATOM    123  C   UNL A   1      50.483  29.759  26.389  1.00  0.00     0.200 A 
ATOM    124  F   UNL A   1      50.275  27.563  25.558  1.00  0.00    -0.200 F 
ATOM    125  F   UNL A   1      51.279  30.086  25.363  1.00  0.00    -0.200 F 
ENDBRANCH  95 115
BRANCH  98 126
ATOM    126  C   UNL A   1      44.169  22.127  25.985  1.00  0.00     0.064 A 
ATOM    127  C   UNL A   1      45.466  21.752  25.581  1.00  0.00     0.173 A 
ATOM    128  C   UNL A   1      43.176  21.135  25.868  1.00  0.00     0.173 A 
ATOM    129  F   UNL A   1      46.485  22.615  25.704  1.00  0.00    -0.203 F 
ATOM    130  C   UNL A   1      45.755  20.459  25.123  1.00  0.00     0.198 A 
ATOM    131  C   UNL A   1      43.465  19.846  25.412  1.00  0.00     0.198 A 
ATOM    132  F   UNL A   1      41.926  21.367  26.292  1.00  0.00    -0.203 F 
ATOM    133  F   UNL A   1      47.015  20.123  24.811  1.00  0.00    -0.200 F 
ATOM    134  C   UNL A   1      44.757  19.503  25.052  1.00  0.00     0.200 A 
ATOM    135  F   UNL A   1      42.499  18.917  25.387  1.00  0.00    -0.200 F 
ATOM    136  F   UNL A   1      45.042  18.247  24.681  1.00  0.00    -0.200 F 
ENDBRANCH  98 126
BRANCH 113 137
ATOM    137  C   UNL A   1      41.983  27.810  27.573  1.00  0.00     0.064 A 
ATOM    138  C   UNL A   1      41.380  27.115  28.637  1.00  0.00     0.173 A 
ATOM    139  C   UNL A   1      41.174  28.678  26.830  1.00  0.00     0.173 A 
ATOM    140  F   UNL A   1      42.104  26.331  29.447  1.00  0.00    -0.203 F 
ATOM    141  C   UNL A   1      40.026  27.277  28.930  1.00  0.00     0.198 A 
ATOM    142  C   UNL A   1      39.831  28.862  27.144  1.00  0.00     0.198 A 
ATOM    143  F   UNL A   1      41.708  29.402  25.833  1.00  0.00    -0.203 F 
ATOM    144  F   UNL A   1      39.474  26.616  29.959  1.00  0.00    -0.200 F 
ATOM    145  C   UNL A   1      39.256  28.159  28.191  1.00  0.00     0.200 A 
ATOM    146  F   UNL A   1      39.105  29.754  26.457  1.00  0.00    -0.200 F 
ATOM    147  F   UNL A   1      37.969  28.360  28.507  1.00  0.00    -0.200 F 
ENDBRANCH 113 137
ENDBRANCH  78  81
ENDBRANCH  68  71
ENDBRANCH  64  67
ENDBRANCH  61  64
ENDBRANCH  58  61
ENDBRANCH  55  58
ENDBRANCH   1  55
TORSDOF 18
ENDMDL
MODEL 10
REMARK VINA RESULT:     -11.2      5.732     12.131
REMARK SMILES [NH3+][C@@H](Cc1cn(-c2nc(Cl)nc(N3CCOCC3)n2)c2ccccc12)C(=O)NCCCCCCNC(=O)c1ccc(-c2c3nc(c(-c4c(F)c(F)c(F)c(F)c4F)c4ccc([nH]4)c(-c4c(F)c(F)c(F)c(F)c4F)c4nc(c(-c5c(F)c(F)c(F)c(F)c5F)c5ccc2[nH]5)C=C4)C=C3)cc1
REMARK SMILES IDX 30 1 29 4 28 7 26 8 27 9 2 11 1 13 3 17 4 20 5 21 25 22 6 23
REMARK SMILES IDX 20 25 24 26 21 27 23 28 22 30 7 34 8 35 19 36 9 37 12 38
REMARK SMILES IDX 10 39 11 40 13 41 14 42 18 43 15 44 17 47 16 50 31 55 32 58
REMARK SMILES IDX 33 61 34 64 35 67 36 68 37 70 38 71 39 72 100 73 40 74 99 76
REMARK SMILES IDX 41 78 42 81 43 82 93 83 44 84 98 85 92 86 94 87 45 88 97 89
REMARK SMILES IDX 91 91 90 93 46 95 78 98 58 99 77 100 59 101 62 102 76 103
REMARK SMILES IDX 95 104 60 105 61 107 75 109 96 110 63 113 47 115 48 116
REMARK SMILES IDX 56 117 49 118 50 119 54 120 57 121 51 122 52 123 55 124
REMARK SMILES IDX 53 125 79 126 80 127 88 128 81 129 82 130 86 131 89 132
REMARK SMILES IDX 83 133 84 134 87 135 85 136 64 137 65 138 73 139 66 140
REMARK SMILES IDX 67 141 71 142 74 143 68 144 69 145 72 146 70 147
REMARK H PARENT 30 2 30 3 29 5 29 6 28 10 2 12 1 14 1 15 1 16 3 18 3 19 5 24
REMARK H PARENT 24 29 21 31 23 32 22 33 14 45 14 46 18 48 18 49 15 51 15 52
REMARK H PARENT 17 53 17 54 31 56 31 57 32 59 32 60 33 62 33 63 34 65 34 66
REMARK H PARENT 35 69 39 75 100 77 40 79 99 80 98 90 92 92 94 94 97 96 91 97
REMARK H PARENT 59 106 62 108 95 111 60 112 96 114
REMARK Flexibility Score: inf
ROOT
ATOM      1  C   UNL A   1      44.228  35.648  27.021  1.00  0.00    -0.036 C 
ATOM      2  H   UNL A   1      45.058  36.136  26.554  1.00  0.00     0.028 H 
ATOM      3  H   UNL A   1      44.350  35.489  28.072  1.00  0.00     0.028 H 
ENDROOT
BRANCH   1   4
ATOM      4  C   UNL A   1      44.100  34.270  26.412  1.00  0.00     0.018 C 
ATOM      5  H   UNL A   1      43.489  33.684  27.067  1.00  0.00     0.049 H 
ATOM      6  H   UNL A   1      43.689  34.436  25.438  1.00  0.00     0.049 H 
BRANCH   4   7
ATOM      7  N   UNL A   1      45.314  33.541  26.186  1.00  0.00    -0.351 N 
ATOM      8  C   UNL A   1      45.562  32.226  26.479  1.00  0.00     0.278 C 
ATOM      9  O   UNL A   1      46.567  31.723  25.963  1.00  0.00    -0.268 OA
ATOM     10  H   UNL A   1      46.053  34.043  25.772  1.00  0.00     0.163 HD
BRANCH   8  11
ATOM     11  C   UNL A   1      44.660  31.380  27.429  1.00  0.00     0.168 C 
ATOM     12  H   UNL A   1      45.251  30.517  27.657  1.00  0.00     0.107 H 
BRANCH  11  13
ATOM     13  N   UNL A   1      44.418  32.071  28.717  1.00  0.00    -0.347 N 
ATOM     14  H   UNL A   1      43.763  32.839  28.572  1.00  0.00     0.345 HD
ATOM     15  H   UNL A   1      45.299  32.437  29.077  1.00  0.00     0.345 HD
ATOM     16  H   UNL A   1      44.025  31.411  29.388  1.00  0.00     0.345 HD
ENDBRANCH  11  13
BRANCH  11  17
ATOM     17  C   UNL A   1      43.440  30.661  26.804  1.00  0.00     0.036 C 
ATOM     18  H   UNL A   1      43.427  30.915  25.764  1.00  0.00     0.038 H 
ATOM     19  H   UNL A   1      42.616  31.001  27.395  1.00  0.00     0.038 H 
BRANCH  17  20
ATOM     20  C   UNL A   1      43.342  29.157  26.888  1.00  0.00    -0.015 A 
ATOM     21  C   UNL A   1      44.238  28.202  26.430  1.00  0.00     0.017 A 
ATOM     22  C   UNL A   1      42.287  28.428  27.532  1.00  0.00     0.004 A 
ATOM     23  N   UNL A   1      43.860  26.948  26.885  1.00  0.00    -0.285 N 
ATOM     24  H   UNL A   1      45.062  28.398  25.840  1.00  0.00     0.083 H 
ATOM     25  C   UNL A   1      42.598  27.060  27.477  1.00  0.00     0.056 A 
ATOM     26  C   UNL A   1      41.125  28.839  28.227  1.00  0.00    -0.053 A 
ATOM     27  C   UNL A   1      41.770  26.104  28.100  1.00  0.00    -0.037 A 
ATOM     28  C   UNL A   1      40.327  27.895  28.875  1.00  0.00    -0.062 A 
ATOM     29  H   UNL A   1      40.867  29.837  28.254  1.00  0.00     0.063 H 
ATOM     30  C   UNL A   1      40.648  26.546  28.813  1.00  0.00    -0.060 A 
ATOM     31  H   UNL A   1      41.986  25.097  28.033  1.00  0.00     0.065 H 
ATOM     32  H   UNL A   1      39.494  28.202  29.403  1.00  0.00     0.062 H 
ATOM     33  H   UNL A   1      40.052  25.858  29.300  1.00  0.00     0.062 H 
BRANCH  23  34
ATOM     34  C   UNL A   1      44.705  25.781  26.898  1.00  0.00     0.240 A 
ATOM     35  N   UNL A   1      45.969  25.933  27.262  1.00  0.00    -0.181 NA
ATOM     36  N   UNL A   1      44.180  24.612  26.481  1.00  0.00    -0.176 NA
ATOM     37  C   UNL A   1      46.645  24.792  27.259  1.00  0.00     0.228 A 
ATOM     38  C   UNL A   1      45.008  23.558  26.396  1.00  0.00     0.231 A 
ATOM     39  Cl  UNL A   1      48.212  24.866  27.939  1.00  0.00    -0.041 Cl
ATOM     40  N   UNL A   1      46.257  23.599  26.820  1.00  0.00    -0.182 NA
BRANCH  38  41
ATOM     41  N   UNL A   1      44.500  22.384  25.900  1.00  0.00    -0.336 N 
ATOM     42  C   UNL A   1      43.062  22.139  25.742  1.00  0.00     0.044 C 
ATOM     43  C   UNL A   1      45.240  21.704  24.837  1.00  0.00     0.044 C 
ATOM     44  C   UNL A   1      42.834  20.638  25.956  1.00  0.00     0.064 C 
ATOM     45  H   UNL A   1      42.748  22.422  24.758  1.00  0.00     0.052 H 
ATOM     46  H   UNL A   1      42.498  22.715  26.446  1.00  0.00     0.052 H 
ATOM     47  C   UNL A   1      44.949  20.192  24.970  1.00  0.00     0.064 C 
ATOM     48  H   UNL A   1      46.289  21.887  24.947  1.00  0.00     0.052 H 
ATOM     49  H   UNL A   1      44.940  22.065  23.876  1.00  0.00     0.052 H 
ATOM     50  O   UNL A   1      43.538  19.888  24.953  1.00  0.00    -0.378 OA
ATOM     51  H   UNL A   1      41.787  20.424  25.889  1.00  0.00     0.059 H 
ATOM     52  H   UNL A   1      43.198  20.360  26.924  1.00  0.00     0.059 H 
ATOM     53  H   UNL A   1      45.420  19.681  24.157  1.00  0.00     0.059 H 
ATOM     54  H   UNL A   1      45.334  19.872  25.917  1.00  0.00     0.059 H 
ENDBRANCH  38  41
ENDBRANCH  23  34
ENDBRANCH  17  20
ENDBRANCH  11  17
ENDBRANCH   8  11
ENDBRANCH   4   7
ENDBRANCH   1   4
BRANCH   1  55
ATOM     55  C   UNL A   1      43.013  36.558  26.880  1.00  0.00    -0.052 C 
ATOM     56  H   UNL A   1      42.145  35.932  26.904  1.00  0.00     0.027 H 
ATOM     57  H   UNL A   1      43.184  37.086  25.965  1.00  0.00     0.027 H 
BRANCH  55  58
ATOM     58  C   UNL A   1      42.806  37.667  27.929  1.00  0.00    -0.052 C 
ATOM     59  H   UNL A   1      42.911  37.215  28.892  1.00  0.00     0.027 H 
ATOM     60  H   UNL A   1      41.841  38.068  27.698  1.00  0.00     0.027 H 
BRANCH  58  61
ATOM     61  C   UNL A   1      43.733  38.886  27.898  1.00  0.00    -0.036 C 
ATOM     62  H   UNL A   1      43.536  39.429  26.998  1.00  0.00     0.028 H 
ATOM     63  H   UNL A   1      44.730  38.502  27.959  1.00  0.00     0.028 H 
BRANCH  61  64
ATOM     64  C   UNL A   1      43.583  39.840  29.059  1.00  0.00     0.018 C 
ATOM     65  H   UNL A   1      42.721  39.540  29.617  1.00  0.00     0.049 H 
ATOM     66  H   UNL A   1      43.511  40.812  28.618  1.00  0.00     0.049 H 
BRANCH  64  67
ATOM     67  N   UNL A   1      44.698  39.920  29.980  1.00  0.00    -0.352 N 
ATOM     68  C   UNL A   1      45.419  39.012  30.701  1.00  0.00     0.251 C 
ATOM     69  H   UNL A   1      45.007  40.843  30.118  1.00  0.00     0.163 HD
ATOM     70  O   UNL A   1      46.477  39.411  31.197  1.00  0.00    -0.269 OA
BRANCH  68  71
ATOM     71  C   UNL A   1      44.937  37.656  31.042  1.00  0.00     0.039 A 
ATOM     72  C   UNL A   1      45.288  36.489  30.373  1.00  0.00    -0.049 A 
ATOM     73  C   UNL A   1      43.970  37.594  32.062  1.00  0.00    -0.049 A 
ATOM     74  C   UNL A   1      44.519  35.349  30.538  1.00  0.00    -0.053 A 
ATOM     75  H   UNL A   1      46.116  36.473  29.757  1.00  0.00     0.063 H 
ATOM     76  C   UNL A   1      43.244  36.437  32.281  1.00  0.00    -0.053 A 
ATOM     77  H   UNL A   1      43.801  38.422  32.655  1.00  0.00     0.063 H 
ATOM     78  C   UNL A   1      43.451  35.352  31.444  1.00  0.00    -0.014 A 
ATOM     79  H   UNL A   1      44.733  34.499  29.993  1.00  0.00     0.063 H 
ATOM     80  H   UNL A   1      42.560  36.383  33.053  1.00  0.00     0.063 H 
BRANCH  78  81
ATOM     81  C   UNL A   1      42.674  34.128  31.594  1.00  0.00     0.031 A 
ATOM     82  C   UNL A   1      41.406  34.164  30.817  1.00  0.00     0.074 A 
ATOM     83  C   UNL A   1      43.073  33.061  32.321  1.00  0.00     0.049 A 
ATOM     84  N   UNL A   1      40.207  34.220  31.293  1.00  0.00    -0.248 NA
ATOM     85  C   UNL A   1      41.483  34.371  29.361  1.00  0.00    -0.034 C 
ATOM     86  C   UNL A   1      44.358  32.825  32.982  1.00  0.00    -0.036 A 
ATOM     87  N   UNL A   1      42.389  31.910  32.588  1.00  0.00    -0.354 N 
ATOM     88  C   UNL A   1      39.361  34.273  30.191  1.00  0.00     0.074 A 
ATOM     89  C   UNL A   1      40.196  34.524  29.046  1.00  0.00    -0.034 C 
ATOM     90  H   UNL A   1      42.312  34.392  28.747  1.00  0.00     0.065 H 
ATOM     91  C   UNL A   1      44.442  31.528  33.369  1.00  0.00    -0.036 A 
ATOM     92  H   UNL A   1      45.089  33.537  33.131  1.00  0.00     0.065 H 
ATOM     93  C   UNL A   1      43.165  30.883  33.128  1.00  0.00     0.049 A 
ATOM     94  H   UNL A   1      41.426  31.812  32.413  1.00  0.00     0.167 HD
ATOM     95  C   UNL A   1      38.069  33.857  30.297  1.00  0.00     0.037 A 
ATOM     96  H   UNL A   1      39.846  34.785  28.111  1.00  0.00     0.065 H 
ATOM     97  H   UNL A   1      45.278  31.075  33.770  1.00  0.00     0.065 H 
ATOM     98  C   UNL A   1      42.769  29.597  33.342  1.00  0.00     0.037 A 
ATOM     99  C   UNL A   1      37.640  33.865  31.672  1.00  0.00     0.049 A 
ATOM    100  C   UNL A   1      41.287  29.614  33.423  1.00  0.00     0.074 A 
ATOM    101  C   UNL A   1      37.459  34.844  32.630  1.00  0.00    -0.036 A 
ATOM    102  N   UNL A   1      37.694  32.678  32.358  1.00  0.00    -0.354 N 
ATOM    103  N   UNL A   1      40.633  30.188  34.394  1.00  0.00    -0.248 NA
ATOM    104  C   UNL A   1      40.556  29.444  32.176  1.00  0.00    -0.034 C 
ATOM    105  C   UNL A   1      37.896  34.253  33.851  1.00  0.00    -0.036 A 
ATOM    106  H   UNL A   1      37.087  35.798  32.491  1.00  0.00     0.065 H 
ATOM    107  C   UNL A   1      38.241  32.928  33.589  1.00  0.00     0.049 A 
ATOM    108  H   UNL A   1      37.394  31.803  32.024  1.00  0.00     0.167 HD
ATOM    109  C   UNL A   1      39.587  30.843  33.765  1.00  0.00     0.074 A 
ATOM    110  C   UNL A   1      39.568  30.314  32.400  1.00  0.00    -0.034 C 
ATOM    111  H   UNL A   1      40.744  28.834  31.366  1.00  0.00     0.065 H 
ATOM    112  H   UNL A   1      37.949  34.723  34.768  1.00  0.00     0.065 H 
ATOM    113  C   UNL A   1      39.031  31.962  34.313  1.00  0.00     0.037 A 
ATOM    114  H   UNL A   1      38.869  30.584  31.691  1.00  0.00     0.065 H 
BRANCH  95 115
ATOM    115  C   UNL A   1      37.365  33.041  29.240  1.00  0.00     0.064 A 
ATOM    116  C   UNL A   1      36.084  33.442  28.810  1.00  0.00     0.173 A 
ATOM    117  C   UNL A   1      37.742  31.729  28.879  1.00  0.00     0.173 A 
ATOM    118  F   UNL A   1      35.611  34.661  29.112  1.00  0.00    -0.203 F 
ATOM    119  C   UNL A   1      35.217  32.565  28.152  1.00  0.00     0.198 A 
ATOM    120  C   UNL A   1      36.894  30.873  28.180  1.00  0.00     0.198 A 
ATOM    121  F   UNL A   1      38.892  31.177  29.281  1.00  0.00    -0.203 F 
ATOM    122  F   UNL A   1      33.961  32.947  27.884  1.00  0.00    -0.200 F 
ATOM    123  C   UNL A   1      35.620  31.279  27.846  1.00  0.00     0.200 A 
ATOM    124  F   UNL A   1      37.296  29.622  27.914  1.00  0.00    -0.200 F 
ATOM    125  F   UNL A   1      34.771  30.415  27.276  1.00  0.00    -0.200 F 
ENDBRANCH  95 115
BRANCH  98 126
ATOM    126  C   UNL A   1      43.513  28.333  33.086  1.00  0.00     0.064 A 
ATOM    127  C   UNL A   1      43.687  27.370  34.101  1.00  0.00     0.173 A 
ATOM    128  C   UNL A   1      43.783  27.901  31.774  1.00  0.00     0.173 A 
ATOM    129  F   UNL A   1      43.404  27.677  35.376  1.00  0.00    -0.203 F 
ATOM    130  C   UNL A   1      44.073  26.054  33.815  1.00  0.00     0.198 A 
ATOM    131  C   UNL A   1      44.168  26.588  31.489  1.00  0.00     0.198 A 
ATOM    132  F   UNL A   1      43.580  28.718  30.731  1.00  0.00    -0.203 F 
ATOM    133  F   UNL A   1      44.164  25.151  34.802  1.00  0.00    -0.200 F 
ATOM    134  C   UNL A   1      44.300  25.660  32.508  1.00  0.00     0.200 A 
ATOM    135  F   UNL A   1      44.344  26.208  30.215  1.00  0.00    -0.200 F 
ATOM    136  F   UNL A   1      44.601  24.385  32.223  1.00  0.00    -0.200 F 
ENDBRANCH  98 126
BRANCH 113 137
ATOM    137  C   UNL A   1      39.427  32.333  35.714  1.00  0.00     0.064 A 
ATOM    138  C   UNL A   1      40.508  33.176  36.032  1.00  0.00     0.173 A 
ATOM    139  C   UNL A   1      38.566  31.969  36.756  1.00  0.00     0.173 A 
ATOM    140  F   UNL A   1      41.327  33.637  35.078  1.00  0.00    -0.203 F 
ATOM    141  C   UNL A   1      40.717  33.618  37.338  1.00  0.00     0.198 A 
ATOM    142  C   UNL A   1      38.759  32.437  38.052  1.00  0.00     0.198 A 
ATOM    143  F   UNL A   1      37.491  31.205  36.500  1.00  0.00    -0.203 F 
ATOM    144  F   UNL A   1      41.746  34.434  37.618  1.00  0.00    -0.200 F 
ATOM    145  C   UNL A   1      39.836  33.259  38.344  1.00  0.00     0.200 A 
ATOM    146  F   UNL A   1      37.874  32.126  39.008  1.00  0.00    -0.200 F 
ATOM    147  F   UNL A   1      40.002  33.730  39.588  1.00  0.00    -0.200 F 
ENDBRANCH 113 137
ENDBRANCH  78  81
ENDBRANCH  68  71
ENDBRANCH  64  67
ENDBRANCH  61  64
ENDBRANCH  58  61
ENDBRANCH  55  58
ENDBRANCH   1  55
TORSDOF 18
ENDMDL
