MODEL 1
REMARK VINA RESULT:     -10.7      0.000      0.000
REMARK SMILES C=Cc1cncc(-c2ccc([C@@H](C)C(=O)NCCCCCCNC(=O)c3ccc(-c4c5nc(c(-c6c(F)c(F)c(F)c(F)c6F)c6ccc([nH]6)c(-c6c(F)c(F)c(F)c(F)c6F)c6nc(c(-c7c(F)c(F)c(F)c(F)c7F)c7ccc4[nH]7)C=C6)C=C5)cc3)cc2)c1
REMARK SMILES IDX 19 1 18 4 17 7 16 10 14 11 15 12 12 14 11 16 8 17 9 18 90 19
REMARK SMILES IDX 10 20 89 22 7 26 3 27 4 28 91 29 5 30 6 33 2 35 1 36 13 40
REMARK SMILES IDX 20 44 21 47 22 50 23 53 24 54 25 56 26 57 27 58 88 59 28 60
REMARK SMILES IDX 87 62 29 64 30 67 31 68 81 69 32 70 86 71 80 72 82 73 33 74
REMARK SMILES IDX 85 75 79 77 78 79 34 81 66 84 46 85 65 86 47 87 50 88 64 89
REMARK SMILES IDX 83 90 48 91 49 93 63 95 84 96 51 99 35 101 36 102 44 103
REMARK SMILES IDX 37 104 38 105 42 106 45 107 39 108 40 109 43 110 41 111
REMARK SMILES IDX 67 112 68 113 76 114 69 115 70 116 74 117 77 118 71 119
REMARK SMILES IDX 72 120 75 121 73 122 52 123 53 124 61 125 54 126 55 127
REMARK SMILES IDX 59 128 62 129 56 130 57 131 60 132 58 133
REMARK H PARENT 19 2 19 3 18 5 18 6 17 8 17 9 16 13 12 15 9 21 90 23 10 24
REMARK H PARENT 89 25 4 31 91 32 6 34 1 37 1 38 2 39 13 41 13 42 13 43 20 45
REMARK H PARENT 20 46 21 48 21 49 22 51 22 52 23 55 27 61 88 63 28 65 87 66
REMARK H PARENT 86 76 80 78 82 80 85 82 79 83 47 92 50 94 83 97 48 98 84 100
REMARK Flexibility Score: inf
ROOT
ATOM      1  C   UNL A   1      36.349  31.155  32.701  1.00  0.00    -0.052 C 
ATOM      2  H   UNL A   1      36.547  31.842  33.498  1.00  0.00     0.027 H 
ATOM      3  H   UNL A   1      35.387  30.692  32.768  1.00  0.00     0.027 H 
ENDROOT
BRANCH   1   4
ATOM      4  C   UNL A   1      37.376  30.021  32.788  1.00  0.00    -0.036 C 
ATOM      5  H   UNL A   1      36.873  29.135  33.117  1.00  0.00     0.028 H 
ATOM      6  H   UNL A   1      37.801  29.912  31.812  1.00  0.00     0.028 H 
BRANCH   4   7
ATOM      7  C   UNL A   1      38.533  30.304  33.748  1.00  0.00     0.017 C 
ATOM      8  H   UNL A   1      39.309  29.587  33.578  1.00  0.00     0.049 H 
ATOM      9  H   UNL A   1      38.883  31.298  33.564  1.00  0.00     0.049 H 
BRANCH   7  10
ATOM     10  N   UNL A   1      38.113  30.222  35.131  1.00  0.00    -0.356 N 
ATOM     11  C   UNL A   1      38.145  31.131  36.142  1.00  0.00     0.227 C 
ATOM     12  O   UNL A   1      37.804  30.721  37.259  1.00  0.00    -0.274 OA
ATOM     13  H   UNL A   1      37.738  29.348  35.386  1.00  0.00     0.163 HD
BRANCH  11  14
ATOM     14  C   UNL A   1      38.550  32.601  35.959  1.00  0.00     0.060 C 
ATOM     15  H   UNL A   1      39.389  32.582  35.294  1.00  0.00     0.045 H 
BRANCH  14  16
ATOM     16  C   UNL A   1      37.529  33.431  35.193  1.00  0.00    -0.036 A 
ATOM     17  C   UNL A   1      35.653  34.946  33.651  1.00  0.00    -0.017 A 
ATOM     18  C   UNL A   1      35.277  34.282  34.829  1.00  0.00    -0.054 A 
ATOM     19  C   UNL A   1      37.000  34.845  33.269  1.00  0.00    -0.054 A 
ATOM     20  C   UNL A   1      36.201  33.567  35.600  1.00  0.00    -0.058 A 
ATOM     21  H   UNL A   1      34.292  34.320  35.135  1.00  0.00     0.063 H 
ATOM     22  C   UNL A   1      37.916  34.087  34.016  1.00  0.00    -0.058 A 
ATOM     23  H   UNL A   1      37.323  35.338  32.422  1.00  0.00     0.063 H 
ATOM     24  H   UNL A   1      35.895  33.135  36.485  1.00  0.00     0.063 H 
ATOM     25  H   UNL A   1      38.893  34.013  33.692  1.00  0.00     0.063 H 
BRANCH  17  26
ATOM     26  C   UNL A   1      34.667  35.722  32.869  1.00  0.00     0.001 A 
ATOM     27  C   UNL A   1      33.366  36.147  30.845  1.00  0.00    -0.007 A 
ATOM     28  C   UNL A   1      32.794  37.231  31.505  1.00  0.00     0.034 A 
ATOM     29  C   UNL A   1      34.316  35.395  31.549  1.00  0.00    -0.044 A 
ATOM     30  N   UNL A   1      33.091  37.592  32.771  1.00  0.00    -0.263 NA
ATOM     31  H   UNL A   1      32.099  37.795  30.993  1.00  0.00     0.085 H 
ATOM     32  H   UNL A   1      34.765  34.587  31.089  1.00  0.00     0.064 H 
ATOM     33  C   UNL A   1      34.017  36.837  33.409  1.00  0.00     0.035 A 
ATOM     34  H   UNL A   1      34.265  37.107  34.374  1.00  0.00     0.085 H 
BRANCH  27  35
ATOM     35  C   UNL A   1      33.006  35.878  29.450  1.00  0.00    -0.061 C 
ATOM     36  C   UNL A   1      33.877  35.882  28.434  1.00  0.00    -0.098 C 
ATOM     37  H   UNL A   1      33.553  35.683  27.475  1.00  0.00     0.054 H 
ATOM     38  H   UNL A   1      34.873  36.084  28.610  1.00  0.00     0.054 H 
ATOM     39  H   UNL A   1      32.017  35.672  29.237  1.00  0.00     0.062 H 
ENDBRANCH  27  35
ENDBRANCH  17  26
ENDBRANCH  14  16
BRANCH  14  40
ATOM     40  C   UNL A   1      39.129  33.250  37.216  1.00  0.00    -0.049 C 
ATOM     41  H   UNL A   1      40.198  33.205  37.181  1.00  0.00     0.024 H 
ATOM     42  H   UNL A   1      38.778  32.727  38.082  1.00  0.00     0.024 H 
ATOM     43  H   UNL A   1      38.817  34.272  37.266  1.00  0.00     0.024 H 
ENDBRANCH  14  40
ENDBRANCH  11  14
ENDBRANCH   7  10
ENDBRANCH   4   7
ENDBRANCH   1   4
BRANCH   1  44
ATOM     44  C   UNL A   1      36.356  31.940  31.382  1.00  0.00    -0.052 C 
ATOM     45  H   UNL A   1      36.906  31.372  30.663  1.00  0.00     0.027 H 
ATOM     46  H   UNL A   1      36.794  32.890  31.610  1.00  0.00     0.027 H 
BRANCH  44  47
ATOM     47  C   UNL A   1      34.977  32.246  30.789  1.00  0.00    -0.036 C 
ATOM     48  H   UNL A   1      34.557  33.069  31.328  1.00  0.00     0.028 H 
ATOM     49  H   UNL A   1      34.404  31.347  30.879  1.00  0.00     0.028 H 
BRANCH  47  50
ATOM     50  C   UNL A   1      34.983  32.605  29.304  1.00  0.00     0.018 C 
ATOM     51  H   UNL A   1      35.996  32.632  28.960  1.00  0.00     0.049 H 
ATOM     52  H   UNL A   1      34.512  33.559  29.192  1.00  0.00     0.049 H 
BRANCH  50  53
ATOM     53  N   UNL A   1      34.240  31.639  28.508  1.00  0.00    -0.352 N 
ATOM     54  C   UNL A   1      34.669  30.495  27.882  1.00  0.00     0.251 C 
ATOM     55  H   UNL A   1      33.281  31.838  28.403  1.00  0.00     0.163 HD
ATOM     56  O   UNL A   1      33.948  29.932  27.065  1.00  0.00    -0.269 OA
BRANCH  54  57
ATOM     57  C   UNL A   1      36.010  29.947  28.177  1.00  0.00     0.039 A 
ATOM     58  C   UNL A   1      37.051  30.187  27.277  1.00  0.00    -0.049 A 
ATOM     59  C   UNL A   1      36.235  29.187  29.328  1.00  0.00    -0.049 A 
ATOM     60  C   UNL A   1      38.340  29.736  27.573  1.00  0.00    -0.053 A 
ATOM     61  H   UNL A   1      36.869  30.694  26.397  1.00  0.00     0.063 H 
ATOM     62  C   UNL A   1      37.531  28.790  29.651  1.00  0.00    -0.053 A 
ATOM     63  H   UNL A   1      35.445  28.922  29.936  1.00  0.00     0.063 H 
ATOM     64  C   UNL A   1      38.597  29.074  28.785  1.00  0.00    -0.014 A 
ATOM     65  H   UNL A   1      39.106  29.889  26.898  1.00  0.00     0.063 H 
ATOM     66  H   UNL A   1      37.707  28.283  30.533  1.00  0.00     0.063 H 
BRANCH  64  67
ATOM     67  C   UNL A   1      39.982  28.729  29.193  1.00  0.00     0.031 A 
ATOM     68  C   UNL A   1      40.803  29.688  30.007  1.00  0.00     0.074 A 
ATOM     69  C   UNL A   1      40.527  27.580  28.750  1.00  0.00     0.049 A 
ATOM     70  N   UNL A   1      42.055  29.595  30.377  1.00  0.00    -0.248 NA
ATOM     71  C   UNL A   1      40.136  30.924  30.443  1.00  0.00    -0.034 C 
ATOM     72  C   UNL A   1      39.844  26.590  27.915  1.00  0.00    -0.036 A 
ATOM     73  N   UNL A   1      41.784  27.057  28.923  1.00  0.00    -0.354 N 
ATOM     74  C   UNL A   1      42.328  30.760  31.082  1.00  0.00     0.074 A 
ATOM     75  C   UNL A   1      41.125  31.565  31.050  1.00  0.00    -0.034 C 
ATOM     76  H   UNL A   1      39.155  31.215  30.313  1.00  0.00     0.065 H 
ATOM     77  C   UNL A   1      40.685  25.576  27.658  1.00  0.00    -0.036 A 
ATOM     78  H   UNL A   1      38.872  26.661  27.577  1.00  0.00     0.065 H 
ATOM     79  C   UNL A   1      41.976  25.862  28.274  1.00  0.00     0.049 A 
ATOM     80  H   UNL A   1      42.482  27.497  29.462  1.00  0.00     0.167 HD
ATOM     81  C   UNL A   1      43.474  31.115  31.712  1.00  0.00     0.037 A 
ATOM     82  H   UNL A   1      41.048  32.514  31.448  1.00  0.00     0.065 H 
ATOM     83  H   UNL A   1      40.455  24.730  27.115  1.00  0.00     0.065 H 
ATOM     84  C   UNL A   1      43.076  25.092  28.170  1.00  0.00     0.037 A 
ATOM     85  C   UNL A   1      44.663  30.304  31.752  1.00  0.00     0.049 A 
ATOM     86  C   UNL A   1      44.342  25.524  28.857  1.00  0.00     0.074 A 
ATOM     87  C   UNL A   1      45.850  30.543  32.425  1.00  0.00    -0.036 A 
ATOM     88  N   UNL A   1      44.822  29.099  31.083  1.00  0.00    -0.354 N 
ATOM     89  N   UNL A   1      44.566  26.591  29.584  1.00  0.00    -0.248 NA
ATOM     90  C   UNL A   1      45.509  24.643  28.707  1.00  0.00    -0.034 C 
ATOM     91  C   UNL A   1      46.742  29.511  32.121  1.00  0.00    -0.036 A 
ATOM     92  H   UNL A   1      46.042  31.347  33.044  1.00  0.00     0.065 H 
ATOM     93  C   UNL A   1      46.097  28.601  31.299  1.00  0.00     0.049 A 
ATOM     94  H   UNL A   1      44.131  28.662  30.535  1.00  0.00     0.167 HD
ATOM     95  C   UNL A   1      45.889  26.504  29.992  1.00  0.00     0.074 A 
ATOM     96  C   UNL A   1      46.413  25.267  29.449  1.00  0.00    -0.034 C 
ATOM     97  H   UNL A   1      45.602  23.769  28.166  1.00  0.00     0.065 H 
ATOM     98  H   UNL A   1      47.717  29.439  32.452  1.00  0.00     0.065 H 
ATOM     99  C   UNL A   1      46.607  27.373  30.745  1.00  0.00     0.037 A 
ATOM    100  H   UNL A   1      47.368  24.916  29.620  1.00  0.00     0.065 H 
BRANCH  81 101
ATOM    101  C   UNL A   1      43.500  32.441  32.414  1.00  0.00     0.064 A 
ATOM    102  C   UNL A   1      43.915  33.611  31.759  1.00  0.00     0.173 A 
ATOM    103  C   UNL A   1      43.056  32.555  33.740  1.00  0.00     0.173 A 
ATOM    104  F   UNL A   1      44.356  33.555  30.493  1.00  0.00    -0.203 F 
ATOM    105  C   UNL A   1      43.907  34.840  32.413  1.00  0.00     0.198 A 
ATOM    106  C   UNL A   1      43.024  33.790  34.382  1.00  0.00     0.198 A 
ATOM    107  F   UNL A   1      42.642  31.469  34.410  1.00  0.00    -0.203 F 
ATOM    108  F   UNL A   1      44.346  35.937  31.780  1.00  0.00    -0.200 F 
ATOM    109  C   UNL A   1      43.454  34.930  33.721  1.00  0.00     0.200 A 
ATOM    110  F   UNL A   1      42.573  33.878  35.641  1.00  0.00    -0.200 F 
ATOM    111  F   UNL A   1      43.438  36.116  34.346  1.00  0.00    -0.200 F 
ENDBRANCH  81 101
BRANCH  84 112
ATOM    112  C   UNL A   1      43.026  23.829  27.389  1.00  0.00     0.064 A 
ATOM    113  C   UNL A   1      42.583  22.636  27.977  1.00  0.00     0.173 A 
ATOM    114  C   UNL A   1      43.416  23.788  26.042  1.00  0.00     0.173 A 
ATOM    115  F   UNL A   1      42.219  22.621  29.267  1.00  0.00    -0.203 F 
ATOM    116  C   UNL A   1      42.552  21.446  27.253  1.00  0.00     0.198 A 
ATOM    117  C   UNL A   1      43.357  22.604  25.311  1.00  0.00     0.198 A 
ATOM    118  F   UNL A   1      43.842  24.904  25.432  1.00  0.00    -0.203 F 
ATOM    119  F   UNL A   1      42.167  20.310  27.852  1.00  0.00    -0.200 F 
ATOM    120  C   UNL A   1      42.933  21.432  25.920  1.00  0.00     0.200 A 
ATOM    121  F   UNL A   1      43.711  22.597  24.019  1.00  0.00    -0.200 F 
ATOM    122  F   UNL A   1      42.897  20.288  25.223  1.00  0.00    -0.200 F 
ENDBRANCH  84 112
BRANCH  99 123
ATOM    123  C   UNL A   1      48.035  27.010  31.033  1.00  0.00     0.064 A 
ATOM    124  C   UNL A   1      48.374  26.159  32.095  1.00  0.00     0.173 A 
ATOM    125  C   UNL A   1      49.071  27.490  30.219  1.00  0.00     0.173 A 
ATOM    126  F   UNL A   1      47.421  25.688  32.914  1.00  0.00    -0.203 F 
ATOM    127  C   UNL A   1      49.701  25.822  32.346  1.00  0.00     0.198 A 
ATOM    128  C   UNL A   1      50.394  27.127  30.455  1.00  0.00     0.198 A 
ATOM    129  F   UNL A   1      48.800  28.304  29.188  1.00  0.00    -0.203 F 
ATOM    130  F   UNL A   1      50.006  25.046  33.396  1.00  0.00    -0.200 F 
ATOM    131  C   UNL A   1      50.709  26.299  31.521  1.00  0.00     0.200 A 
ATOM    132  F   UNL A   1      51.366  27.581  29.650  1.00  0.00    -0.200 F 
ATOM    133  F   UNL A   1      51.986  25.969  31.761  1.00  0.00    -0.200 F 
ENDBRANCH  99 123
ENDBRANCH  64  67
ENDBRANCH  54  57
ENDBRANCH  50  53
ENDBRANCH  47  50
ENDBRANCH  44  47
ENDBRANCH   1  44
TORSDOF 17
ENDMDL
MODEL 2
REMARK VINA RESULT:     -10.2      5.084     11.836
REMARK SMILES C=Cc1cncc(-c2ccc([C@@H](C)C(=O)NCCCCCCNC(=O)c3ccc(-c4c5nc(c(-c6c(F)c(F)c(F)c(F)c6F)c6ccc([nH]6)c(-c6c(F)c(F)c(F)c(F)c6F)c6nc(c(-c7c(F)c(F)c(F)c(F)c7F)c7ccc4[nH]7)C=C6)C=C5)cc3)cc2)c1
REMARK SMILES IDX 19 1 18 4 17 7 16 10 14 11 15 12 12 14 11 16 8 17 9 18 90 19
REMARK SMILES IDX 10 20 89 22 7 26 3 27 4 28 91 29 5 30 6 33 2 35 1 36 13 40
REMARK SMILES IDX 20 44 21 47 22 50 23 53 24 54 25 56 26 57 27 58 88 59 28 60
REMARK SMILES IDX 87 62 29 64 30 67 31 68 81 69 32 70 86 71 80 72 82 73 33 74
REMARK SMILES IDX 85 75 79 77 78 79 34 81 66 84 46 85 65 86 47 87 50 88 64 89
REMARK SMILES IDX 83 90 48 91 49 93 63 95 84 96 51 99 35 101 36 102 44 103
REMARK SMILES IDX 37 104 38 105 42 106 45 107 39 108 40 109 43 110 41 111
REMARK SMILES IDX 67 112 68 113 76 114 69 115 70 116 74 117 77 118 71 119
REMARK SMILES IDX 72 120 75 121 73 122 52 123 53 124 61 125 54 126 55 127
REMARK SMILES IDX 59 128 62 129 56 130 57 131 60 132 58 133
REMARK H PARENT 19 2 19 3 18 5 18 6 17 8 17 9 16 13 12 15 9 21 90 23 10 24
REMARK H PARENT 89 25 4 31 91 32 6 34 1 37 1 38 2 39 13 41 13 42 13 43 20 45
REMARK H PARENT 20 46 21 48 21 49 22 51 22 52 23 55 27 61 88 63 28 65 87 66
REMARK H PARENT 86 76 80 78 82 80 85 82 79 83 47 92 50 94 83 97 48 98 84 100
REMARK Flexibility Score: inf
ROOT
ATOM      1  C   UNL A   1      32.413  29.915  27.253  1.00  0.00    -0.052 C 
ATOM      2  H   UNL A   1      33.361  30.413  27.286  1.00  0.00     0.027 H 
ATOM      3  H   UNL A   1      31.903  29.907  28.192  1.00  0.00     0.027 H 
ENDROOT
BRANCH   1   4
ATOM      4  C   UNL A   1      32.662  28.448  26.889  1.00  0.00    -0.036 C 
ATOM      5  H   UNL A   1      33.012  28.407  25.878  1.00  0.00     0.028 H 
ATOM      6  H   UNL A   1      33.380  28.072  27.587  1.00  0.00     0.028 H 
BRANCH   4   7
ATOM      7  C   UNL A   1      31.420  27.561  27.006  1.00  0.00     0.017 C 
ATOM      8  H   UNL A   1      31.593  26.820  27.759  1.00  0.00     0.049 H 
ATOM      9  H   UNL A   1      30.590  28.184  27.265  1.00  0.00     0.049 H 
BRANCH   7  10
ATOM     10  N   UNL A   1      31.116  26.898  25.756  1.00  0.00    -0.356 N 
ATOM     11  C   UNL A   1      31.775  25.933  25.060  1.00  0.00     0.227 C 
ATOM     12  O   UNL A   1      31.308  25.641  23.952  1.00  0.00    -0.274 OA
ATOM     13  H   UNL A   1      30.281  27.202  25.332  1.00  0.00     0.163 HD
BRANCH  11  14
ATOM     14  C   UNL A   1      33.019  25.200  25.582  1.00  0.00     0.060 C 
ATOM     15  H   UNL A   1      32.909  25.179  26.647  1.00  0.00     0.045 H 
BRANCH  14  16
ATOM     16  C   UNL A   1      33.064  23.723  25.217  1.00  0.00    -0.036 A 
ATOM     17  C   UNL A   1      33.031  20.951  24.505  1.00  0.00    -0.017 A 
ATOM     18  C   UNL A   1      34.057  21.810  24.083  1.00  0.00    -0.054 A 
ATOM     19  C   UNL A   1      32.025  21.511  25.307  1.00  0.00    -0.054 A 
ATOM     20  C   UNL A   1      34.091  23.159  24.457  1.00  0.00    -0.058 A 
ATOM     21  H   UNL A   1      34.807  21.439  23.479  1.00  0.00     0.063 H 
ATOM     22  C   UNL A   1      32.032  22.874  25.641  1.00  0.00    -0.058 A 
ATOM     23  H   UNL A   1      31.264  20.909  25.657  1.00  0.00     0.063 H 
ATOM     24  H   UNL A   1      34.888  23.745  24.167  1.00  0.00     0.063 H 
ATOM     25  H   UNL A   1      31.262  23.259  26.210  1.00  0.00     0.063 H 
BRANCH  17  26
ATOM     26  C   UNL A   1      33.033  19.522  24.123  1.00  0.00     0.001 A 
ATOM     27  C   UNL A   1      33.552  17.172  24.548  1.00  0.00    -0.007 A 
ATOM     28  C   UNL A   1      32.966  16.877  23.321  1.00  0.00     0.034 A 
ATOM     29  C   UNL A   1      33.582  18.518  24.939  1.00  0.00    -0.044 A 
ATOM     30  N   UNL A   1      32.423  17.798  22.497  1.00  0.00    -0.263 NA
ATOM     31  H   UNL A   1      32.945  15.890  23.021  1.00  0.00     0.085 H 
ATOM     32  H   UNL A   1      34.014  18.775  25.840  1.00  0.00     0.064 H 
ATOM     33  C   UNL A   1      32.478  19.085  22.916  1.00  0.00     0.035 A 
ATOM     34  H   UNL A   1      32.079  19.804  22.292  1.00  0.00     0.085 H 
BRANCH  27  35
ATOM     35  C   UNL A   1      34.158  16.096  25.338  1.00  0.00    -0.061 C 
ATOM     36  C   UNL A   1      35.464  15.803  25.334  1.00  0.00    -0.098 C 
ATOM     37  H   UNL A   1      35.821  15.031  25.917  1.00  0.00     0.054 H 
ATOM     38  H   UNL A   1      36.113  16.352  24.750  1.00  0.00     0.054 H 
ATOM     39  H   UNL A   1      33.537  15.527  25.935  1.00  0.00     0.062 H 
ENDBRANCH  27  35
ENDBRANCH  17  26
ENDBRANCH  14  16
BRANCH  14  40
ATOM     40  C   UNL A   1      34.325  25.973  25.393  1.00  0.00    -0.049 C 
ATOM     41  H   UNL A   1      34.790  26.126  26.345  1.00  0.00     0.024 H 
ATOM     42  H   UNL A   1      34.116  26.921  24.942  1.00  0.00     0.024 H 
ATOM     43  H   UNL A   1      34.982  25.414  24.761  1.00  0.00     0.024 H 
ENDBRANCH  14  40
ENDBRANCH  11  14
ENDBRANCH   7  10
ENDBRANCH   4   7
ENDBRANCH   1   4
BRANCH   1  44
ATOM     44  C   UNL A   1      31.507  30.683  26.281  1.00  0.00    -0.052 C 
ATOM     45  H   UNL A   1      30.520  30.278  26.360  1.00  0.00     0.027 H 
ATOM     46  H   UNL A   1      31.947  30.561  25.312  1.00  0.00     0.027 H 
BRANCH  44  47
ATOM     47  C   UNL A   1      31.417  32.195  26.514  1.00  0.00    -0.036 C 
ATOM     48  H   UNL A   1      30.493  32.401  27.011  1.00  0.00     0.028 H 
ATOM     49  H   UNL A   1      31.489  32.652  25.549  1.00  0.00     0.028 H 
BRANCH  47  50
ATOM     50  C   UNL A   1      32.550  32.781  27.354  1.00  0.00     0.018 C 
ATOM     51  H   UNL A   1      33.472  32.657  26.826  1.00  0.00     0.049 H 
ATOM     52  H   UNL A   1      32.569  32.265  28.291  1.00  0.00     0.049 H 
BRANCH  50  53
ATOM     53  N   UNL A   1      32.349  34.197  27.625  1.00  0.00    -0.352 N 
ATOM     54  C   UNL A   1      32.947  35.010  28.555  1.00  0.00     0.251 C 
ATOM     55  H   UNL A   1      31.683  34.640  27.050  1.00  0.00     0.163 HD
ATOM     56  O   UNL A   1      32.485  36.122  28.790  1.00  0.00    -0.269 OA
BRANCH  54  57
ATOM     57  C   UNL A   1      34.140  34.543  29.292  1.00  0.00     0.039 A 
ATOM     58  C   UNL A   1      33.983  34.050  30.590  1.00  0.00    -0.049 A 
ATOM     59  C   UNL A   1      35.410  34.604  28.712  1.00  0.00    -0.049 A 
ATOM     60  C   UNL A   1      35.088  33.539  31.276  1.00  0.00    -0.053 A 
ATOM     61  H   UNL A   1      33.054  34.063  31.041  1.00  0.00     0.063 H 
ATOM     62  C   UNL A   1      36.499  34.040  29.372  1.00  0.00    -0.053 A 
ATOM     63  H   UNL A   1      35.540  35.064  27.798  1.00  0.00     0.063 H 
ATOM     64  C   UNL A   1      36.345  33.488  30.653  1.00  0.00    -0.014 A 
ATOM     65  H   UNL A   1      34.979  33.198  32.244  1.00  0.00     0.063 H 
ATOM     66  H   UNL A   1      37.426  34.029  28.916  1.00  0.00     0.063 H 
BRANCH  64  67
ATOM     67  C   UNL A   1      37.495  32.807  31.298  1.00  0.00     0.031 A 
ATOM     68  C   UNL A   1      38.163  31.637  30.635  1.00  0.00     0.074 A 
ATOM     69  C   UNL A   1      37.878  33.196  32.529  1.00  0.00     0.049 A 
ATOM     70  N   UNL A   1      39.119  30.865  31.088  1.00  0.00    -0.248 NA
ATOM     71  C   UNL A   1      37.679  31.271  29.295  1.00  0.00    -0.034 C 
ATOM     72  C   UNL A   1      37.277  34.289  33.294  1.00  0.00    -0.036 A 
ATOM     73  N   UNL A   1      38.853  32.706  33.363  1.00  0.00    -0.354 N 
ATOM     74  C   UNL A   1      39.345  29.920  30.096  1.00  0.00     0.074 A 
ATOM     75  C   UNL A   1      38.397  30.187  29.035  1.00  0.00    -0.034 C 
ATOM     76  H   UNL A   1      36.967  31.737  28.710  1.00  0.00     0.065 H 
ATOM     77  C   UNL A   1      37.900  34.394  34.477  1.00  0.00    -0.036 A 
ATOM     78  H   UNL A   1      36.496  34.884  32.974  1.00  0.00     0.065 H 
ATOM     79  C   UNL A   1      38.917  33.352  34.572  1.00  0.00     0.049 A 
ATOM     80  H   UNL A   1      39.449  31.961  33.116  1.00  0.00     0.167 HD
ATOM     81  C   UNL A   1      40.272  28.933  30.069  1.00  0.00     0.037 A 
ATOM     82  H   UNL A   1      38.293  29.610  28.187  1.00  0.00     0.065 H 
ATOM     83  H   UNL A   1      37.696  35.099  35.202  1.00  0.00     0.065 H 
ATOM     84  C   UNL A   1      39.695  33.119  35.647  1.00  0.00     0.037 A 
ATOM     85  C   UNL A   1      41.221  28.681  31.121  1.00  0.00     0.049 A 
ATOM     86  C   UNL A   1      40.696  31.998  35.599  1.00  0.00     0.074 A 
ATOM     87  C   UNL A   1      42.246  27.750  31.155  1.00  0.00    -0.036 A 
ATOM     88  N   UNL A   1      41.257  29.356  32.332  1.00  0.00    -0.354 N 
ATOM     89  N   UNL A   1      40.952  31.159  34.625  1.00  0.00    -0.248 NA
ATOM     90  C   UNL A   1      41.516  31.791  36.801  1.00  0.00    -0.034 C 
ATOM     91  C   UNL A   1      42.868  27.827  32.405  1.00  0.00    -0.036 A 
ATOM     92  H   UNL A   1      42.507  27.109  30.388  1.00  0.00     0.065 H 
ATOM     93  C   UNL A   1      42.263  28.839  33.134  1.00  0.00     0.049 A 
ATOM     94  H   UNL A   1      40.656  30.092  32.586  1.00  0.00     0.167 HD
ATOM     95  C   UNL A   1      41.971  30.338  35.088  1.00  0.00     0.074 A 
ATOM     96  C   UNL A   1      42.301  30.794  36.422  1.00  0.00    -0.034 C 
ATOM     97  H   UNL A   1      41.487  32.291  37.704  1.00  0.00     0.065 H 
ATOM     98  H   UNL A   1      43.644  27.231  32.731  1.00  0.00     0.065 H 
ATOM     99  C   UNL A   1      42.575  29.297  34.463  1.00  0.00     0.037 A 
ATOM    100  H   UNL A   1      43.053  30.392  37.004  1.00  0.00     0.065 H 
BRANCH  81 101
ATOM    101  C   UNL A   1      40.307  28.046  28.858  1.00  0.00     0.064 A 
ATOM    102  C   UNL A   1      41.053  28.386  27.719  1.00  0.00     0.173 A 
ATOM    103  C   UNL A   1      39.632  26.815  28.856  1.00  0.00     0.173 A 
ATOM    104  F   UNL A   1      41.712  29.554  27.668  1.00  0.00    -0.203 F 
ATOM    105  C   UNL A   1      41.101  27.540  26.614  1.00  0.00     0.198 A 
ATOM    106  C   UNL A   1      39.704  25.959  27.760  1.00  0.00     0.198 A 
ATOM    107  F   UNL A   1      38.910  26.438  29.922  1.00  0.00    -0.203 F 
ATOM    108  F   UNL A   1      41.787  27.905  25.522  1.00  0.00    -0.200 F 
ATOM    109  C   UNL A   1      40.433  26.324  26.638  1.00  0.00     0.200 A 
ATOM    110  F   UNL A   1      39.070  24.779  27.790  1.00  0.00    -0.200 F 
ATOM    111  F   UNL A   1      40.489  25.506  25.578  1.00  0.00    -0.200 F 
ENDBRANCH  81 101
BRANCH  84 112
ATOM    112  C   UNL A   1      39.561  33.970  36.858  1.00  0.00     0.064 A 
ATOM    113  C   UNL A   1      38.767  33.563  37.939  1.00  0.00     0.173 A 
ATOM    114  C   UNL A   1      40.222  35.203  36.961  1.00  0.00     0.173 A 
ATOM    115  F   UNL A   1      38.099  32.402  37.878  1.00  0.00    -0.203 F 
ATOM    116  C   UNL A   1      38.623  34.365  39.069  1.00  0.00     0.198 A 
ATOM    117  C   UNL A   1      40.101  35.991  38.103  1.00  0.00     0.198 A 
ATOM    118  F   UNL A   1      40.998  35.635  35.956  1.00  0.00    -0.203 F 
ATOM    119  F   UNL A   1      37.823  33.972  40.069  1.00  0.00    -0.200 F 
ATOM    120  C   UNL A   1      39.295  35.575  39.152  1.00  0.00     0.200 A 
ATOM    121  F   UNL A   1      40.764  37.153  38.186  1.00  0.00    -0.200 F 
ATOM    122  F   UNL A   1      39.162  36.344  40.242  1.00  0.00    -0.200 F 
ENDBRANCH  84 112
BRANCH  99 123
ATOM    123  C   UNL A   1      43.661  28.586  35.216  1.00  0.00     0.064 A 
ATOM    124  C   UNL A   1      44.999  28.997  35.133  1.00  0.00     0.173 A 
ATOM    125  C   UNL A   1      43.357  27.504  36.055  1.00  0.00     0.173 A 
ATOM    126  F   UNL A   1      45.344  30.016  34.330  1.00  0.00    -0.203 F 
ATOM    127  C   UNL A   1      45.997  28.336  35.845  1.00  0.00     0.198 A 
ATOM    128  C   UNL A   1      44.353  26.864  36.788  1.00  0.00     0.198 A 
ATOM    129  F   UNL A   1      42.092  27.073  36.173  1.00  0.00    -0.203 F 
ATOM    130  F   UNL A   1      47.275  28.716  35.713  1.00  0.00    -0.200 F 
ATOM    131  C   UNL A   1      45.672  27.276  36.677  1.00  0.00     0.200 A 
ATOM    132  F   UNL A   1      44.036  25.846  37.601  1.00  0.00    -0.200 F 
ATOM    133  F   UNL A   1      46.633  26.644  37.366  1.00  0.00    -0.200 F 
ENDBRANCH  99 123
ENDBRANCH  64  67
ENDBRANCH  54  57
ENDBRANCH  50  53
ENDBRANCH  47  50
ENDBRANCH  44  47
ENDBRANCH   1  44
TORSDOF 17
ENDMDL
MODEL 3
REMARK VINA RESULT:     -10.0      1.770      4.965
REMARK SMILES C=Cc1cncc(-c2ccc([C@@H](C)C(=O)NCCCCCCNC(=O)c3ccc(-c4c5nc(c(-c6c(F)c(F)c(F)c(F)c6F)c6ccc([nH]6)c(-c6c(F)c(F)c(F)c(F)c6F)c6nc(c(-c7c(F)c(F)c(F)c(F)c7F)c7ccc4[nH]7)C=C6)C=C5)cc3)cc2)c1
REMARK SMILES IDX 19 1 18 4 17 7 16 10 14 11 15 12 12 14 11 16 8 17 9 18 90 19
REMARK SMILES IDX 10 20 89 22 7 26 3 27 4 28 91 29 5 30 6 33 2 35 1 36 13 40
REMARK SMILES IDX 20 44 21 47 22 50 23 53 24 54 25 56 26 57 27 58 88 59 28 60
REMARK SMILES IDX 87 62 29 64 30 67 31 68 81 69 32 70 86 71 80 72 82 73 33 74
REMARK SMILES IDX 85 75 79 77 78 79 34 81 66 84 46 85 65 86 47 87 50 88 64 89
REMARK SMILES IDX 83 90 48 91 49 93 63 95 84 96 51 99 35 101 36 102 44 103
REMARK SMILES IDX 37 104 38 105 42 106 45 107 39 108 40 109 43 110 41 111
REMARK SMILES IDX 67 112 68 113 76 114 69 115 70 116 74 117 77 118 71 119
REMARK SMILES IDX 72 120 75 121 73 122 52 123 53 124 61 125 54 126 55 127
REMARK SMILES IDX 59 128 62 129 56 130 57 131 60 132 58 133
REMARK H PARENT 19 2 19 3 18 5 18 6 17 8 17 9 16 13 12 15 9 21 90 23 10 24
REMARK H PARENT 89 25 4 31 91 32 6 34 1 37 1 38 2 39 13 41 13 42 13 43 20 45
REMARK H PARENT 20 46 21 48 21 49 22 51 22 52 23 55 27 61 88 63 28 65 87 66
REMARK H PARENT 86 76 80 78 82 80 85 82 79 83 47 92 50 94 83 97 48 98 84 100
REMARK Flexibility Score: inf
ROOT
ATOM      1  C   UNL A   1      37.776  33.664  30.690  1.00  0.00    -0.052 C 
ATOM      2  H   UNL A   1      38.444  32.828  30.734  1.00  0.00     0.027 H 
ATOM      3  H   UNL A   1      37.897  34.261  29.812  1.00  0.00     0.027 H 
ENDROOT
BRANCH   1   4
ATOM      4  C   UNL A   1      38.086  34.582  31.877  1.00  0.00    -0.036 C 
ATOM      5  H   UNL A   1      38.460  35.510  31.496  1.00  0.00     0.028 H 
ATOM      6  H   UNL A   1      37.175  34.701  32.425  1.00  0.00     0.028 H 
BRANCH   4   7
ATOM      7  C   UNL A   1      39.119  34.009  32.850  1.00  0.00     0.017 C 
ATOM      8  H   UNL A   1      39.706  33.274  32.340  1.00  0.00     0.049 H 
ATOM      9  H   UNL A   1      39.731  34.814  33.198  1.00  0.00     0.049 H 
BRANCH   7  10
ATOM     10  N   UNL A   1      38.488  33.392  33.998  1.00  0.00    -0.356 N 
ATOM     11  C   UNL A   1      37.980  32.145  34.190  1.00  0.00     0.227 C 
ATOM     12  O   UNL A   1      37.402  31.949  35.266  1.00  0.00    -0.274 OA
ATOM     13  H   UNL A   1      38.412  33.984  34.782  1.00  0.00     0.163 HD
BRANCH  11  14
ATOM     14  C   UNL A   1      38.108  31.003  33.172  1.00  0.00     0.060 C 
ATOM     15  H   UNL A   1      38.336  31.479  32.240  1.00  0.00     0.045 H 
BRANCH  14  16
ATOM     16  C   UNL A   1      39.316  30.106  33.400  1.00  0.00    -0.036 A 
ATOM     17  C   UNL A   1      41.587  28.451  33.944  1.00  0.00    -0.017 A 
ATOM     18  C   UNL A   1      40.521  28.004  33.149  1.00  0.00    -0.054 A 
ATOM     19  C   UNL A   1      41.497  29.756  34.451  1.00  0.00    -0.054 A 
ATOM     20  C   UNL A   1      39.425  28.825  32.856  1.00  0.00    -0.058 A 
ATOM     21  H   UNL A   1      40.544  27.044  32.770  1.00  0.00     0.063 H 
ATOM     22  C   UNL A   1      40.374  30.561  34.199  1.00  0.00    -0.058 A 
ATOM     23  H   UNL A   1      42.270  30.132  35.022  1.00  0.00     0.063 H 
ATOM     24  H   UNL A   1      38.685  28.476  32.227  1.00  0.00     0.063 H 
ATOM     25  H   UNL A   1      40.328  31.507  34.609  1.00  0.00     0.063 H 
BRANCH  17  26
ATOM     26  C   UNL A   1      42.750  27.578  34.214  1.00  0.00     0.001 A 
ATOM     27  C   UNL A   1      43.746  25.450  34.885  1.00  0.00    -0.007 A 
ATOM     28  C   UNL A   1      44.994  26.027  34.670  1.00  0.00     0.034 A 
ATOM     29  C   UNL A   1      42.619  26.250  34.653  1.00  0.00    -0.044 A 
ATOM     30  N   UNL A   1      45.181  27.296  34.248  1.00  0.00    -0.263 NA
ATOM     31  H   UNL A   1      45.829  25.449  34.844  1.00  0.00     0.085 H 
ATOM     32  H   UNL A   1      41.677  25.856  34.807  1.00  0.00     0.064 H 
ATOM     33  C   UNL A   1      44.063  28.031  34.041  1.00  0.00     0.035 A 
ATOM     34  H   UNL A   1      44.188  29.007  33.731  1.00  0.00     0.085 H 
BRANCH  27  35
ATOM     35  C   UNL A   1      43.662  24.078  35.393  1.00  0.00    -0.061 C 
ATOM     36  C   UNL A   1      43.470  23.000  34.623  1.00  0.00    -0.098 C 
ATOM     37  H   UNL A   1      43.421  22.063  35.049  1.00  0.00     0.054 H 
ATOM     38  H   UNL A   1      43.373  23.108  33.601  1.00  0.00     0.054 H 
ATOM     39  H   UNL A   1      43.755  23.933  36.411  1.00  0.00     0.062 H 
ENDBRANCH  27  35
ENDBRANCH  17  26
ENDBRANCH  14  16
BRANCH  14  40
ATOM     40  C   UNL A   1      36.792  30.285  32.870  1.00  0.00    -0.049 C 
ATOM     41  H   UNL A   1      36.130  30.954  32.360  1.00  0.00     0.024 H 
ATOM     42  H   UNL A   1      36.340  29.967  33.787  1.00  0.00     0.024 H 
ATOM     43  H   UNL A   1      36.983  29.433  32.253  1.00  0.00     0.024 H 
ENDBRANCH  14  40
ENDBRANCH  11  14
ENDBRANCH   7  10
ENDBRANCH   4   7
ENDBRANCH   1   4
BRANCH   1  44
ATOM     44  C   UNL A   1      36.340  33.122  30.644  1.00  0.00    -0.052 C 
ATOM     45  H   UNL A   1      35.895  33.287  31.602  1.00  0.00     0.027 H 
ATOM     46  H   UNL A   1      36.426  32.087  30.381  1.00  0.00     0.027 H 
BRANCH  44  47
ATOM     47  C   UNL A   1      35.430  33.750  29.584  1.00  0.00    -0.036 C 
ATOM     48  H   UNL A   1      35.679  34.788  29.504  1.00  0.00     0.028 H 
ATOM     49  H   UNL A   1      34.426  33.581  29.911  1.00  0.00     0.028 H 
BRANCH  47  50
ATOM     50  C   UNL A   1      35.541  33.126  28.194  1.00  0.00     0.018 C 
ATOM     51  H   UNL A   1      36.531  32.743  28.065  1.00  0.00     0.049 H 
ATOM     52  H   UNL A   1      35.324  33.886  27.472  1.00  0.00     0.049 H 
BRANCH  50  53
ATOM     53  N   UNL A   1      34.587  32.042  28.006  1.00  0.00    -0.352 N 
ATOM     54  C   UNL A   1      34.802  30.694  27.866  1.00  0.00     0.251 C 
ATOM     55  H   UNL A   1      33.643  32.320  27.978  1.00  0.00     0.163 HD
ATOM     56  O   UNL A   1      33.894  29.962  27.486  1.00  0.00    -0.269 OA
BRANCH  54  57
ATOM     57  C   UNL A   1      36.133  30.120  28.152  1.00  0.00     0.039 A 
ATOM     58  C   UNL A   1      37.119  30.171  27.164  1.00  0.00    -0.049 A 
ATOM     59  C   UNL A   1      36.404  29.521  29.386  1.00  0.00    -0.049 A 
ATOM     60  C   UNL A   1      38.403  29.697  27.441  1.00  0.00    -0.053 A 
ATOM     61  H   UNL A   1      36.899  30.557  26.232  1.00  0.00     0.063 H 
ATOM     62  C   UNL A   1      37.700  29.104  29.682  1.00  0.00    -0.053 A 
ATOM     63  H   UNL A   1      35.647  29.390  30.075  1.00  0.00     0.063 H 
ATOM     64  C   UNL A   1      38.715  29.203  28.719  1.00  0.00    -0.014 A 
ATOM     65  H   UNL A   1      39.126  29.710  26.705  1.00  0.00     0.063 H 
ATOM     66  H   UNL A   1      37.914  28.719  30.616  1.00  0.00     0.063 H 
BRANCH  64  67
ATOM     67  C   UNL A   1      40.108  28.844  29.085  1.00  0.00     0.031 A 
ATOM     68  C   UNL A   1      40.982  29.818  29.821  1.00  0.00     0.074 A 
ATOM     69  C   UNL A   1      40.608  27.664  28.672  1.00  0.00     0.049 A 
ATOM     70  N   UNL A   1      42.247  29.712  30.144  1.00  0.00    -0.248 NA
ATOM     71  C   UNL A   1      40.361  31.087  30.228  1.00  0.00    -0.034 C 
ATOM     72  C   UNL A   1      39.871  26.654  27.911  1.00  0.00    -0.036 A 
ATOM     73  N   UNL A   1      41.860  27.119  28.817  1.00  0.00    -0.354 N 
ATOM     74  C   UNL A   1      42.573  30.900  30.784  1.00  0.00     0.074 A 
ATOM     75  C   UNL A   1      41.388  31.731  30.765  1.00  0.00    -0.034 C 
ATOM     76  H   UNL A   1      39.381  31.395  30.124  1.00  0.00     0.065 H 
ATOM     77  C   UNL A   1      40.678  25.610  27.666  1.00  0.00    -0.036 A 
ATOM     78  H   UNL A   1      38.887  26.733  27.610  1.00  0.00     0.065 H 
ATOM     79  C   UNL A   1      42.000  25.893  28.215  1.00  0.00     0.049 A 
ATOM     80  H   UNL A   1      42.589  27.566  29.307  1.00  0.00     0.167 HD
ATOM     81  C   UNL A   1      43.752  31.255  31.350  1.00  0.00     0.037 A 
ATOM     82  H   UNL A   1      41.347  32.698  31.122  1.00  0.00     0.065 H 
ATOM     83  H   UNL A   1      40.408  24.747  27.171  1.00  0.00     0.065 H 
ATOM     84  C   UNL A   1      43.077  25.093  28.102  1.00  0.00     0.037 A 
ATOM     85  C   UNL A   1      44.924  30.419  31.378  1.00  0.00     0.049 A 
ATOM     86  C   UNL A   1      44.380  25.525  28.716  1.00  0.00     0.074 A 
ATOM     87  C   UNL A   1      46.142  30.661  31.991  1.00  0.00    -0.036 A 
ATOM     88  N   UNL A   1      45.028  29.183  30.759  1.00  0.00    -0.354 N 
ATOM     89  N   UNL A   1      44.656  26.618  29.385  1.00  0.00    -0.248 NA
ATOM     90  C   UNL A   1      45.521  24.612  28.559  1.00  0.00    -0.034 C 
ATOM     91  C   UNL A   1      46.999  29.596  31.698  1.00  0.00    -0.036 A 
ATOM     92  H   UNL A   1      46.377  31.486  32.565  1.00  0.00     0.065 H 
ATOM     93  C   UNL A   1      46.301  28.666  30.944  1.00  0.00     0.049 A 
ATOM     94  H   UNL A   1      44.306  28.739  30.259  1.00  0.00     0.167 HD
ATOM     95  C   UNL A   1      45.994  26.518  29.742  1.00  0.00     0.074 A 
ATOM     96  C   UNL A   1      46.468  25.247  29.235  1.00  0.00    -0.034 C 
ATOM     97  H   UNL A   1      45.572  23.714  28.054  1.00  0.00     0.065 H 
ATOM     98  H   UNL A   1      47.985  29.515  31.992  1.00  0.00     0.065 H 
ATOM     99  C   UNL A   1      46.761  27.403  30.426  1.00  0.00     0.037 A 
ATOM    100  H   UNL A   1      47.422  24.882  29.383  1.00  0.00     0.065 H 
BRANCH  81 101
ATOM    101  C   UNL A   1      43.836  32.611  31.990  1.00  0.00     0.064 A 
ATOM    102  C   UNL A   1      43.954  33.780  31.223  1.00  0.00     0.173 A 
ATOM    103  C   UNL A   1      43.744  32.748  33.384  1.00  0.00     0.173 A 
ATOM    104  F   UNL A   1      44.052  33.703  29.887  1.00  0.00    -0.203 F 
ATOM    105  C   UNL A   1      44.001  35.033  31.828  1.00  0.00     0.198 A 
ATOM    106  C   UNL A   1      43.765  34.004  33.984  1.00  0.00     0.198 A 
ATOM    107  F   UNL A   1      43.623  31.663  34.164  1.00  0.00    -0.203 F 
ATOM    108  F   UNL A   1      44.155  36.132  31.077  1.00  0.00    -0.200 F 
ATOM    109  C   UNL A   1      43.900  35.145  33.207  1.00  0.00     0.200 A 
ATOM    110  F   UNL A   1      43.652  34.112  35.315  1.00  0.00    -0.200 F 
ATOM    111  F   UNL A   1      43.935  36.352  33.787  1.00  0.00    -0.200 F 
ENDBRANCH  81 101
BRANCH  84 112
ATOM    112  C   UNL A   1      42.967  23.799  27.381  1.00  0.00     0.064 A 
ATOM    113  C   UNL A   1      42.488  22.652  28.029  1.00  0.00     0.173 A 
ATOM    114  C   UNL A   1      43.337  23.681  26.033  1.00  0.00     0.173 A 
ATOM    115  F   UNL A   1      42.142  22.711  29.323  1.00  0.00    -0.203 F 
ATOM    116  C   UNL A   1      42.400  21.432  27.362  1.00  0.00     0.198 A 
ATOM    117  C   UNL A   1      43.222  22.468  25.358  1.00  0.00     0.198 A 
ATOM    118  F   UNL A   1      43.796  24.750  25.366  1.00  0.00    -0.203 F 
ATOM    119  F   UNL A   1      41.981  20.342  28.017  1.00  0.00    -0.200 F 
ATOM    120  C   UNL A   1      42.762  21.342  26.026  1.00  0.00     0.200 A 
ATOM    121  F   UNL A   1      43.557  22.388  24.064  1.00  0.00    -0.200 F 
ATOM    122  F   UNL A   1      42.672  20.169  25.383  1.00  0.00    -0.200 F 
ENDBRANCH  84 112
BRANCH  99 123
ATOM    123  C   UNL A   1      48.191  27.020  30.672  1.00  0.00     0.064 A 
ATOM    124  C   UNL A   1      48.552  26.182  31.737  1.00  0.00     0.173 A 
ATOM    125  C   UNL A   1      49.207  27.467  29.814  1.00  0.00     0.173 A 
ATOM    126  F   UNL A   1      47.619  25.742  32.596  1.00  0.00    -0.203 F 
ATOM    127  C   UNL A   1      49.881  25.826  31.949  1.00  0.00     0.198 A 
ATOM    128  C   UNL A   1      50.531  27.084  30.011  1.00  0.00     0.198 A 
ATOM    129  F   UNL A   1      48.915  28.267  28.778  1.00  0.00    -0.203 F 
ATOM    130  F   UNL A   1      50.208  25.063  33.002  1.00  0.00    -0.200 F 
ATOM    131  C   UNL A   1      50.868  26.270  31.082  1.00  0.00     0.200 A 
ATOM    132  F   UNL A   1      51.482  27.506  29.166  1.00  0.00    -0.200 F 
ATOM    133  F   UNL A   1      52.146  25.921  31.284  1.00  0.00    -0.200 F 
ENDBRANCH  99 123
ENDBRANCH  64  67
ENDBRANCH  54  57
ENDBRANCH  50  53
ENDBRANCH  47  50
ENDBRANCH  44  47
ENDBRANCH   1  44
TORSDOF 17
ENDMDL
MODEL 4
REMARK VINA RESULT:      -9.8      1.802      4.679
REMARK SMILES C=Cc1cncc(-c2ccc([C@@H](C)C(=O)NCCCCCCNC(=O)c3ccc(-c4c5nc(c(-c6c(F)c(F)c(F)c(F)c6F)c6ccc([nH]6)c(-c6c(F)c(F)c(F)c(F)c6F)c6nc(c(-c7c(F)c(F)c(F)c(F)c7F)c7ccc4[nH]7)C=C6)C=C5)cc3)cc2)c1
REMARK SMILES IDX 19 1 18 4 17 7 16 10 14 11 15 12 12 14 11 16 8 17 9 18 90 19
REMARK SMILES IDX 10 20 89 22 7 26 3 27 4 28 91 29 5 30 6 33 2 35 1 36 13 40
REMARK SMILES IDX 20 44 21 47 22 50 23 53 24 54 25 56 26 57 27 58 88 59 28 60
REMARK SMILES IDX 87 62 29 64 30 67 31 68 81 69 32 70 86 71 80 72 82 73 33 74
REMARK SMILES IDX 85 75 79 77 78 79 34 81 66 84 46 85 65 86 47 87 50 88 64 89
REMARK SMILES IDX 83 90 48 91 49 93 63 95 84 96 51 99 35 101 36 102 44 103
REMARK SMILES IDX 37 104 38 105 42 106 45 107 39 108 40 109 43 110 41 111
REMARK SMILES IDX 67 112 68 113 76 114 69 115 70 116 74 117 77 118 71 119
REMARK SMILES IDX 72 120 75 121 73 122 52 123 53 124 61 125 54 126 55 127
REMARK SMILES IDX 59 128 62 129 56 130 57 131 60 132 58 133
REMARK H PARENT 19 2 19 3 18 5 18 6 17 8 17 9 16 13 12 15 9 21 90 23 10 24
REMARK H PARENT 89 25 4 31 91 32 6 34 1 37 1 38 2 39 13 41 13 42 13 43 20 45
REMARK H PARENT 20 46 21 48 21 49 22 51 22 52 23 55 27 61 88 63 28 65 87 66
REMARK H PARENT 86 76 80 78 82 80 85 82 79 83 47 92 50 94 83 97 48 98 84 100
REMARK Flexibility Score: inf
ROOT
ATOM      1  C   UNL A   1      37.294  33.918  29.157  1.00  0.00    -0.052 C 
ATOM      2  H   UNL A   1      38.261  34.233  28.821  1.00  0.00     0.027 H 
ATOM      3  H   UNL A   1      36.628  34.729  29.361  1.00  0.00     0.027 H 
ENDROOT
BRANCH   1   4
ATOM      4  C   UNL A   1      37.474  33.169  30.482  1.00  0.00    -0.036 C 
ATOM      5  H   UNL A   1      37.192  32.147  30.332  1.00  0.00     0.028 H 
ATOM      6  H   UNL A   1      38.502  33.274  30.761  1.00  0.00     0.028 H 
BRANCH   4   7
ATOM      7  C   UNL A   1      36.640  33.737  31.633  1.00  0.00     0.017 C 
ATOM      8  H   UNL A   1      35.871  34.362  31.229  1.00  0.00     0.049 H 
ATOM      9  H   UNL A   1      36.221  32.916  32.176  1.00  0.00     0.049 H 
BRANCH   7  10
ATOM     10  N   UNL A   1      37.448  34.517  32.545  1.00  0.00    -0.356 N 
ATOM     11  C   UNL A   1      37.928  34.245  33.789  1.00  0.00     0.227 C 
ATOM     12  O   UNL A   1      38.510  35.172  34.366  1.00  0.00    -0.274 OA
ATOM     13  H   UNL A   1      37.693  35.408  32.204  1.00  0.00     0.163 HD
BRANCH  11  14
ATOM     14  C   UNL A   1      37.803  32.876  34.473  1.00  0.00     0.060 C 
ATOM     15  H   UNL A   1      36.940  32.419  34.035  1.00  0.00     0.045 H 
BRANCH  14  16
ATOM     16  C   UNL A   1      38.920  31.905  34.119  1.00  0.00    -0.036 A 
ATOM     17  C   UNL A   1      41.072  30.103  33.559  1.00  0.00    -0.017 A 
ATOM     18  C   UNL A   1      39.737  29.767  33.288  1.00  0.00    -0.054 A 
ATOM     19  C   UNL A   1      41.307  31.373  34.106  1.00  0.00    -0.054 A 
ATOM     20  C   UNL A   1      38.687  30.660  33.532  1.00  0.00    -0.058 A 
ATOM     21  H   UNL A   1      39.522  28.835  32.899  1.00  0.00     0.063 H 
ATOM     22  C   UNL A   1      40.250  32.250  34.398  1.00  0.00    -0.058 A 
ATOM     23  H   UNL A   1      42.276  31.669  34.299  1.00  0.00     0.063 H 
ATOM     24  H   UNL A   1      37.725  30.393  33.272  1.00  0.00     0.063 H 
ATOM     25  H   UNL A   1      40.457  33.167  34.825  1.00  0.00     0.063 H 
BRANCH  17  26
ATOM     26  C   UNL A   1      42.168  29.155  33.263  1.00  0.00     0.001 A 
ATOM     27  C   UNL A   1      44.461  28.352  33.526  1.00  0.00    -0.007 A 
ATOM     28  C   UNL A   1      44.140  27.314  32.656  1.00  0.00     0.034 A 
ATOM     29  C   UNL A   1      43.452  29.279  33.821  1.00  0.00    -0.044 A 
ATOM     30  N   UNL A   1      42.926  27.145  32.091  1.00  0.00    -0.263 NA
ATOM     31  H   UNL A   1      44.878  26.631  32.428  1.00  0.00     0.085 H 
ATOM     32  H   UNL A   1      43.656  30.065  34.459  1.00  0.00     0.064 H 
ATOM     33  C   UNL A   1      41.985  28.067  32.403  1.00  0.00     0.035 A 
ATOM     34  H   UNL A   1      41.054  27.960  31.970  1.00  0.00     0.085 H 
BRANCH  27  35
ATOM     35  C   UNL A   1      45.828  28.468  34.041  1.00  0.00    -0.061 C 
ATOM     36  C   UNL A   1      46.281  29.512  34.745  1.00  0.00    -0.098 C 
ATOM     37  H   UNL A   1      47.258  29.526  35.077  1.00  0.00     0.054 H 
ATOM     38  H   UNL A   1      45.653  30.302  34.958  1.00  0.00     0.054 H 
ATOM     39  H   UNL A   1      46.485  27.695  33.847  1.00  0.00     0.062 H 
ENDBRANCH  27  35
ENDBRANCH  17  26
ENDBRANCH  14  16
BRANCH  14  40
ATOM     40  C   UNL A   1      37.430  32.952  35.954  1.00  0.00    -0.049 C 
ATOM     41  H   UNL A   1      37.660  32.019  36.427  1.00  0.00     0.024 H 
ATOM     42  H   UNL A   1      36.383  33.151  36.049  1.00  0.00     0.024 H 
ATOM     43  H   UNL A   1      37.986  33.735  36.423  1.00  0.00     0.024 H 
ENDBRANCH  14  40
ENDBRANCH  11  14
ENDBRANCH   7  10
ENDBRANCH   4   7
ENDBRANCH   1   4
BRANCH   1  44
ATOM     44  C   UNL A   1      36.643  33.102  28.032  1.00  0.00    -0.052 C 
ATOM     45  H   UNL A   1      36.958  32.085  28.136  1.00  0.00     0.027 H 
ATOM     46  H   UNL A   1      36.959  33.560  27.117  1.00  0.00     0.027 H 
BRANCH  44  47
ATOM     47  C   UNL A   1      35.111  33.121  28.003  1.00  0.00    -0.036 C 
ATOM     48  H   UNL A   1      34.792  32.813  27.029  1.00  0.00     0.028 H 
ATOM     49  H   UNL A   1      34.819  34.122  28.245  1.00  0.00     0.028 H 
BRANCH  47  50
ATOM     50  C   UNL A   1      34.439  32.214  29.032  1.00  0.00     0.018 C 
ATOM     51  H   UNL A   1      33.599  32.728  29.449  1.00  0.00     0.049 H 
ATOM     52  H   UNL A   1      35.161  31.978  29.786  1.00  0.00     0.049 H 
BRANCH  50  53
ATOM     53  N   UNL A   1      33.982  30.965  28.440  1.00  0.00    -0.352 N 
ATOM     54  C   UNL A   1      34.703  29.893  27.978  1.00  0.00     0.251 C 
ATOM     55  H   UNL A   1      33.005  30.877  28.361  1.00  0.00     0.163 HD
ATOM     56  O   UNL A   1      34.156  29.027  27.302  1.00  0.00    -0.269 OA
BRANCH  54  57
ATOM     57  C   UNL A   1      36.147  29.784  28.277  1.00  0.00     0.039 A 
ATOM     58  C   UNL A   1      36.547  29.476  29.580  1.00  0.00    -0.049 A 
ATOM     59  C   UNL A   1      37.102  30.001  27.280  1.00  0.00    -0.049 A 
ATOM     60  C   UNL A   1      37.903  29.301  29.865  1.00  0.00    -0.053 A 
ATOM     61  H   UNL A   1      35.843  29.378  30.329  1.00  0.00     0.063 H 
ATOM     62  C   UNL A   1      38.449  29.768  27.551  1.00  0.00    -0.053 A 
ATOM     63  H   UNL A   1      36.812  30.331  26.347  1.00  0.00     0.063 H 
ATOM     64  C   UNL A   1      38.860  29.400  28.841  1.00  0.00    -0.014 A 
ATOM     65  H   UNL A   1      38.203  29.099  30.831  1.00  0.00     0.063 H 
ATOM     66  H   UNL A   1      39.148  29.866  26.798  1.00  0.00     0.063 H 
BRANCH  64  67
ATOM     67  C   UNL A   1      40.284  29.062  29.086  1.00  0.00     0.031 A 
ATOM     68  C   UNL A   1      41.221  30.075  29.679  1.00  0.00     0.074 A 
ATOM     69  C   UNL A   1      40.749  27.861  28.691  1.00  0.00     0.049 A 
ATOM     70  N   UNL A   1      42.512  29.988  29.880  1.00  0.00    -0.248 NA
ATOM     71  C   UNL A   1      40.636  31.364  30.076  1.00  0.00    -0.034 C 
ATOM     72  C   UNL A   1      39.945  26.812  28.062  1.00  0.00    -0.036 A 
ATOM     73  N   UNL A   1      42.012  27.327  28.741  1.00  0.00    -0.354 N 
ATOM     74  C   UNL A   1      42.894  31.209  30.420  1.00  0.00     0.074 A 
ATOM     75  C   UNL A   1      41.707  32.037  30.473  1.00  0.00    -0.034 C 
ATOM     76  H   UNL A   1      39.649  31.666  30.054  1.00  0.00     0.065 H 
ATOM     77  C   UNL A   1      40.731  25.757  27.795  1.00  0.00    -0.036 A 
ATOM     78  H   UNL A   1      38.936  26.874  27.856  1.00  0.00     0.065 H 
ATOM     79  C   UNL A   1      42.098  26.070  28.195  1.00  0.00     0.049 A 
ATOM     80  H   UNL A   1      42.783  27.799  29.131  1.00  0.00     0.167 HD
ATOM     81  C   UNL A   1      44.120  31.595  30.847  1.00  0.00     0.037 A 
ATOM     82  H   UNL A   1      41.697  33.021  30.780  1.00  0.00     0.065 H 
ATOM     83  H   UNL A   1      40.418  24.867  27.376  1.00  0.00     0.065 H 
ATOM     84  C   UNL A   1      43.164  25.265  28.019  1.00  0.00     0.037 A 
ATOM     85  C   UNL A   1      45.294  30.762  30.804  1.00  0.00     0.049 A 
ATOM     86  C   UNL A   1      44.519  25.730  28.477  1.00  0.00     0.074 A 
ATOM     87  C   UNL A   1      46.566  31.037  31.279  1.00  0.00    -0.036 A 
ATOM     88  N   UNL A   1      45.344  29.494  30.244  1.00  0.00    -0.354 N 
ATOM     89  N   UNL A   1      44.853  26.858  29.055  1.00  0.00    -0.248 NA
ATOM     90  C   UNL A   1      45.644  24.811  28.257  1.00  0.00    -0.034 C 
ATOM     91  C   UNL A   1      47.396  29.958  30.961  1.00  0.00    -0.036 A 
ATOM     92  H   UNL A   1      46.852  31.892  31.782  1.00  0.00     0.065 H 
ATOM     93  C   UNL A   1      46.632  28.988  30.331  1.00  0.00     0.049 A 
ATOM     94  H   UNL A   1      44.579  29.023  29.843  1.00  0.00     0.167 HD
ATOM     95  C   UNL A   1      46.220  26.778  29.283  1.00  0.00     0.074 A 
ATOM     96  C   UNL A   1      46.649  25.481  28.801  1.00  0.00    -0.034 C 
ATOM     97  H   UNL A   1      45.650  23.886  27.799  1.00  0.00     0.065 H 
ATOM     98  H   UNL A   1      48.406  29.894  31.160  1.00  0.00     0.065 H 
ATOM     99  C   UNL A   1      47.046  27.699  29.839  1.00  0.00     0.037 A 
ATOM    100  H   UNL A   1      47.615  25.125  28.873  1.00  0.00     0.065 H 
BRANCH  81 101
ATOM    101  C   UNL A   1      44.259  32.983  31.401  1.00  0.00     0.064 A 
ATOM    102  C   UNL A   1      44.299  34.108  30.563  1.00  0.00     0.173 A 
ATOM    103  C   UNL A   1      44.299  33.196  32.788  1.00  0.00     0.173 A 
ATOM    104  F   UNL A   1      44.271  33.958  29.230  1.00  0.00    -0.203 F 
ATOM    105  C   UNL A   1      44.399  35.392  31.092  1.00  0.00     0.198 A 
ATOM    106  C   UNL A   1      44.371  34.483  33.314  1.00  0.00     0.198 A 
ATOM    107  F   UNL A   1      44.256  32.156  33.633  1.00  0.00    -0.203 F 
ATOM    108  F   UNL A   1      44.478  36.449  30.271  1.00  0.00    -0.200 F 
ATOM    109  C   UNL A   1      44.428  35.580  32.467  1.00  0.00     0.200 A 
ATOM    110  F   UNL A   1      44.384  34.664  34.642  1.00  0.00    -0.200 F 
ATOM    111  F   UNL A   1      44.513  36.817  32.973  1.00  0.00    -0.200 F 
ENDBRANCH  81 101
BRANCH  84 112
ATOM    112  C   UNL A   1      42.991  23.934  27.383  1.00  0.00     0.064 A 
ATOM    113  C   UNL A   1      43.273  23.743  26.023  1.00  0.00     0.173 A 
ATOM    114  C   UNL A   1      42.543  22.826  28.118  1.00  0.00     0.173 A 
ATOM    115  F   UNL A   1      43.683  24.777  25.275  1.00  0.00    -0.203 F 
ATOM    116  C   UNL A   1      43.094  22.501  25.418  1.00  0.00     0.198 A 
ATOM    117  C   UNL A   1      42.393  21.577  27.519  1.00  0.00     0.198 A 
ATOM    118  F   UNL A   1      42.265  22.954  29.424  1.00  0.00    -0.203 F 
ATOM    119  F   UNL A   1      43.329  22.357  24.107  1.00  0.00    -0.200 F 
ATOM    120  C   UNL A   1      42.661  21.418  26.168  1.00  0.00     0.200 A 
ATOM    121  F   UNL A   1      41.988  20.530  28.250  1.00  0.00    -0.200 F 
ATOM    122  F   UNL A   1      42.495  20.221  25.587  1.00  0.00    -0.200 F 
ENDBRANCH  84 112
BRANCH  99 123
ATOM    123  C   UNL A   1      48.495  27.330  29.962  1.00  0.00     0.064 A 
ATOM    124  C   UNL A   1      48.985  26.652  31.087  1.00  0.00     0.173 A 
ATOM    125  C   UNL A   1      49.398  27.629  28.931  1.00  0.00     0.173 A 
ATOM    126  F   UNL A   1      48.166  26.359  32.109  1.00  0.00    -0.203 F 
ATOM    127  C   UNL A   1      50.330  26.306  31.185  1.00  0.00     0.198 A 
ATOM    128  C   UNL A   1      50.736  27.256  29.019  1.00  0.00     0.198 A 
ATOM    129  F   UNL A   1      48.980  28.274  27.831  1.00  0.00    -0.203 F 
ATOM    130  F   UNL A   1      50.785  25.700  32.292  1.00  0.00    -0.200 F 
ATOM    131  C   UNL A   1      51.202  26.601  30.149  1.00  0.00     0.200 A 
ATOM    132  F   UNL A   1      51.576  27.532  28.011  1.00  0.00    -0.200 F 
ATOM    133  F   UNL A   1      52.496  26.263  30.243  1.00  0.00    -0.200 F 
ENDBRANCH  99 123
ENDBRANCH  64  67
ENDBRANCH  54  57
ENDBRANCH  50  53
ENDBRANCH  47  50
ENDBRANCH  44  47
ENDBRANCH   1  44
TORSDOF 17
ENDMDL
MODEL 5
REMARK VINA RESULT:      -9.7      3.687      7.537
REMARK SMILES C=Cc1cncc(-c2ccc([C@@H](C)C(=O)NCCCCCCNC(=O)c3ccc(-c4c5nc(c(-c6c(F)c(F)c(F)c(F)c6F)c6ccc([nH]6)c(-c6c(F)c(F)c(F)c(F)c6F)c6nc(c(-c7c(F)c(F)c(F)c(F)c7F)c7ccc4[nH]7)C=C6)C=C5)cc3)cc2)c1
REMARK SMILES IDX 19 1 18 4 17 7 16 10 14 11 15 12 12 14 11 16 8 17 9 18 90 19
REMARK SMILES IDX 10 20 89 22 7 26 3 27 4 28 91 29 5 30 6 33 2 35 1 36 13 40
REMARK SMILES IDX 20 44 21 47 22 50 23 53 24 54 25 56 26 57 27 58 88 59 28 60
REMARK SMILES IDX 87 62 29 64 30 67 31 68 81 69 32 70 86 71 80 72 82 73 33 74
REMARK SMILES IDX 85 75 79 77 78 79 34 81 66 84 46 85 65 86 47 87 50 88 64 89
REMARK SMILES IDX 83 90 48 91 49 93 63 95 84 96 51 99 35 101 36 102 44 103
REMARK SMILES IDX 37 104 38 105 42 106 45 107 39 108 40 109 43 110 41 111
REMARK SMILES IDX 67 112 68 113 76 114 69 115 70 116 74 117 77 118 71 119
REMARK SMILES IDX 72 120 75 121 73 122 52 123 53 124 61 125 54 126 55 127
REMARK SMILES IDX 59 128 62 129 56 130 57 131 60 132 58 133
REMARK H PARENT 19 2 19 3 18 5 18 6 17 8 17 9 16 13 12 15 9 21 90 23 10 24
REMARK H PARENT 89 25 4 31 91 32 6 34 1 37 1 38 2 39 13 41 13 42 13 43 20 45
REMARK H PARENT 20 46 21 48 21 49 22 51 22 52 23 55 27 61 88 63 28 65 87 66
REMARK H PARENT 86 76 80 78 82 80 85 82 79 83 47 92 50 94 83 97 48 98 84 100
REMARK Flexibility Score: inf
ROOT
ATOM      1  C   UNL A   1      43.635  36.034  33.437  1.00  0.00    -0.052 C 
ATOM      2  H   UNL A   1      43.531  34.971  33.358  1.00  0.00     0.027 H 
ATOM      3  H   UNL A   1      44.519  36.338  33.955  1.00  0.00     0.027 H 
ENDROOT
BRANCH   1   4
ATOM      4  C   UNL A   1      42.454  36.566  34.256  1.00  0.00    -0.036 C 
ATOM      5  H   UNL A   1      42.816  37.335  34.907  1.00  0.00     0.028 H 
ATOM      6  H   UNL A   1      41.729  36.927  33.558  1.00  0.00     0.028 H 
BRANCH   4   7
ATOM      7  C   UNL A   1      41.761  35.500  35.108  1.00  0.00     0.017 C 
ATOM      8  H   UNL A   1      42.314  35.365  36.014  1.00  0.00     0.049 H 
ATOM      9  H   UNL A   1      40.765  35.834  35.312  1.00  0.00     0.049 H 
BRANCH   7  10
ATOM     10  N   UNL A   1      41.679  34.232  34.416  1.00  0.00    -0.356 N 
ATOM     11  C   UNL A   1      40.772  33.219  34.485  1.00  0.00     0.227 C 
ATOM     12  O   UNL A   1      41.037  32.201  33.834  1.00  0.00    -0.274 OA
ATOM     13  H   UNL A   1      42.414  34.072  33.780  1.00  0.00     0.163 HD
BRANCH  11  14
ATOM     14  C   UNL A   1      39.467  33.294  35.291  1.00  0.00     0.060 C 
ATOM     15  H   UNL A   1      39.604  34.105  35.976  1.00  0.00     0.045 H 
BRANCH  14  16
ATOM     16  C   UNL A   1      38.262  33.737  34.474  1.00  0.00    -0.036 A 
ATOM     17  C   UNL A   1      35.959  34.636  33.032  1.00  0.00    -0.017 A 
ATOM     18  C   UNL A   1      37.227  34.578  32.436  1.00  0.00    -0.054 A 
ATOM     19  C   UNL A   1      35.866  34.219  34.369  1.00  0.00    -0.054 A 
ATOM     20  C   UNL A   1      38.349  34.108  33.131  1.00  0.00    -0.058 A 
ATOM     21  H   UNL A   1      37.338  34.891  31.459  1.00  0.00     0.063 H 
ATOM     22  C   UNL A   1      36.999  33.795  35.081  1.00  0.00    -0.058 A 
ATOM     23  H   UNL A   1      34.948  34.225  34.838  1.00  0.00     0.063 H 
ATOM     24  H   UNL A   1      39.253  34.034  32.641  1.00  0.00     0.063 H 
ATOM     25  H   UNL A   1      36.900  33.520  36.071  1.00  0.00     0.063 H 
BRANCH  17  26
ATOM     26  C   UNL A   1      34.782  35.106  32.269  1.00  0.00     0.001 A 
ATOM     27  C   UNL A   1      33.475  35.297  30.213  1.00  0.00    -0.007 A 
ATOM     28  C   UNL A   1      32.533  36.016  30.943  1.00  0.00     0.034 A 
ATOM     29  C   UNL A   1      34.611  34.846  30.899  1.00  0.00    -0.044 A 
ATOM     30  N   UNL A   1      32.644  36.296  32.259  1.00  0.00    -0.263 NA
ATOM     31  H   UNL A   1      31.697  36.359  30.446  1.00  0.00     0.085 H 
ATOM     32  H   UNL A   1      35.333  34.314  30.388  1.00  0.00     0.064 H 
ATOM     33  C   UNL A   1      33.760  35.842  32.877  1.00  0.00     0.035 A 
ATOM     34  H   UNL A   1      33.867  36.058  33.881  1.00  0.00     0.085 H 
BRANCH  27  35
ATOM     35  C   UNL A   1      33.276  35.096  28.775  1.00  0.00    -0.061 C 
ATOM     36  C   UNL A   1      33.265  33.899  28.177  1.00  0.00    -0.098 C 
ATOM     37  H   UNL A   1      33.119  33.832  27.158  1.00  0.00     0.054 H 
ATOM     38  H   UNL A   1      33.400  33.043  28.736  1.00  0.00     0.054 H 
ATOM     39  H   UNL A   1      33.138  35.932  28.185  1.00  0.00     0.062 H 
ENDBRANCH  27  35
ENDBRANCH  17  26
ENDBRANCH  14  16
BRANCH  14  40
ATOM     40  C   UNL A   1      39.240  32.101  36.221  1.00  0.00    -0.049 C 
ATOM     41  H   UNL A   1      39.816  32.231  37.114  1.00  0.00     0.024 H 
ATOM     42  H   UNL A   1      39.543  31.201  35.728  1.00  0.00     0.024 H 
ATOM     43  H   UNL A   1      38.202  32.038  36.473  1.00  0.00     0.024 H 
ENDBRANCH  14  40
ENDBRANCH  11  14
ENDBRANCH   7  10
ENDBRANCH   4   7
ENDBRANCH   1   4
BRANCH   1  44
ATOM     44  C   UNL A   1      43.752  36.607  32.017  1.00  0.00    -0.052 C 
ATOM     45  H   UNL A   1      42.801  37.013  31.746  1.00  0.00     0.027 H 
ATOM     46  H   UNL A   1      44.066  35.791  31.398  1.00  0.00     0.027 H 
BRANCH  44  47
ATOM     47  C   UNL A   1      44.806  37.704  31.832  1.00  0.00    -0.036 C 
ATOM     48  H   UNL A   1      45.757  37.303  32.116  1.00  0.00     0.028 H 
ATOM     49  H   UNL A   1      44.495  38.525  32.444  1.00  0.00     0.028 H 
BRANCH  47  50
ATOM     50  C   UNL A   1      44.923  38.246  30.410  1.00  0.00     0.018 C 
ATOM     51  H   UNL A   1      44.688  39.290  30.417  1.00  0.00     0.049 H 
ATOM     52  H   UNL A   1      44.241  37.701  29.790  1.00  0.00     0.049 H 
BRANCH  50  53
ATOM     53  N   UNL A   1      46.263  38.069  29.869  1.00  0.00    -0.352 N 
ATOM     54  C   UNL A   1      46.905  36.926  29.462  1.00  0.00     0.251 C 
ATOM     55  H   UNL A   1      46.788  38.897  29.779  1.00  0.00     0.163 HD
ATOM     56  O   UNL A   1      48.114  36.940  29.250  1.00  0.00    -0.269 OA
BRANCH  54  57
ATOM     57  C   UNL A   1      46.148  35.668  29.296  1.00  0.00     0.039 A 
ATOM     58  C   UNL A   1      45.313  35.522  28.185  1.00  0.00    -0.049 A 
ATOM     59  C   UNL A   1      46.249  34.641  30.239  1.00  0.00    -0.049 A 
ATOM     60  C   UNL A   1      44.643  34.314  27.975  1.00  0.00    -0.053 A 
ATOM     61  H   UNL A   1      45.190  36.304  27.523  1.00  0.00     0.063 H 
ATOM     62  C   UNL A   1      45.629  33.417  29.998  1.00  0.00    -0.053 A 
ATOM     63  H   UNL A   1      46.782  34.789  31.110  1.00  0.00     0.063 H 
ATOM     64  C   UNL A   1      44.834  33.237  28.856  1.00  0.00    -0.014 A 
ATOM     65  H   UNL A   1      44.006  34.213  27.170  1.00  0.00     0.063 H 
ATOM     66  H   UNL A   1      45.756  32.638  30.663  1.00  0.00     0.063 H 
BRANCH  64  67
ATOM     67  C   UNL A   1      44.262  31.898  28.567  1.00  0.00     0.031 A 
ATOM     68  C   UNL A   1      42.928  31.498  29.126  1.00  0.00     0.074 A 
ATOM     69  C   UNL A   1      44.995  31.012  27.866  1.00  0.00     0.049 A 
ATOM     70  N   UNL A   1      42.314  30.344  29.054  1.00  0.00    -0.248 NA
ATOM     71  C   UNL A   1      42.195  32.522  29.887  1.00  0.00    -0.034 C 
ATOM     72  C   UNL A   1      46.324  31.269  27.310  1.00  0.00    -0.036 A 
ATOM     73  N   UNL A   1      44.735  29.710  27.516  1.00  0.00    -0.354 N 
ATOM     74  C   UNL A   1      41.130  30.500  29.763  1.00  0.00     0.074 A 
ATOM     75  C   UNL A   1      41.131  31.845  30.296  1.00  0.00    -0.034 C 
ATOM     76  H   UNL A   1      42.445  33.509  30.057  1.00  0.00     0.065 H 
ATOM     77  C   UNL A   1      46.759  30.166  26.680  1.00  0.00    -0.036 A 
ATOM     78  H   UNL A   1      46.844  32.156  27.389  1.00  0.00     0.065 H 
ATOM     79  C   UNL A   1      45.759  29.113  26.823  1.00  0.00     0.049 A 
ATOM     80  H   UNL A   1      43.895  29.248  27.741  1.00  0.00     0.167 HD
ATOM     81  C   UNL A   1      40.128  29.605  29.936  1.00  0.00     0.037 A 
ATOM     82  H   UNL A   1      40.400  32.228  30.915  1.00  0.00     0.065 H 
ATOM     83  H   UNL A   1      47.654  30.078  26.175  1.00  0.00     0.065 H 
ATOM     84  C   UNL A   1      45.888  27.852  26.368  1.00  0.00     0.037 A 
ATOM     85  C   UNL A   1      40.126  28.272  29.392  1.00  0.00     0.049 A 
ATOM     86  C   UNL A   1      44.771  26.871  26.600  1.00  0.00     0.074 A 
ATOM     87  C   UNL A   1      39.126  27.316  29.452  1.00  0.00    -0.036 A 
ATOM     88  N   UNL A   1      41.180  27.701  28.694  1.00  0.00    -0.354 N 
ATOM     89  N   UNL A   1      43.624  27.053  27.207  1.00  0.00    -0.248 NA
ATOM     90  C   UNL A   1      44.968  25.510  26.083  1.00  0.00    -0.034 C 
ATOM     91  C   UNL A   1      39.595  26.151  28.837  1.00  0.00    -0.036 A 
ATOM     92  H   UNL A   1      38.194  27.442  29.877  1.00  0.00     0.065 H 
ATOM     93  C   UNL A   1      40.869  26.395  28.349  1.00  0.00     0.049 A 
ATOM     94  H   UNL A   1      42.026  28.156  28.477  1.00  0.00     0.167 HD
ATOM     95  C   UNL A   1      42.956  25.838  27.132  1.00  0.00     0.074 A 
ATOM     96  C   UNL A   1      43.818  24.933  26.399  1.00  0.00    -0.034 C 
ATOM     97  H   UNL A   1      45.787  25.108  25.600  1.00  0.00     0.065 H 
ATOM     98  H   UNL A   1      39.080  25.260  28.759  1.00  0.00     0.065 H 
ATOM     99  C   UNL A   1      41.740  25.503  27.628  1.00  0.00     0.037 A 
ATOM    100  H   UNL A   1      43.567  23.962  26.155  1.00  0.00     0.065 H 
BRANCH  81 101
ATOM    101  C   UNL A   1      38.943  30.036  30.751  1.00  0.00     0.064 A 
ATOM    102  C   UNL A   1      38.906  29.863  32.143  1.00  0.00     0.173 A 
ATOM    103  C   UNL A   1      37.854  30.678  30.141  1.00  0.00     0.173 A 
ATOM    104  F   UNL A   1      39.918  29.249  32.774  1.00  0.00    -0.203 F 
ATOM    105  C   UNL A   1      37.813  30.295  32.890  1.00  0.00     0.198 A 
ATOM    106  C   UNL A   1      36.775  31.132  30.894  1.00  0.00     0.198 A 
ATOM    107  F   UNL A   1      37.842  30.875  28.814  1.00  0.00    -0.203 F 
ATOM    108  F   UNL A   1      37.782  30.082  34.213  1.00  0.00    -0.200 F 
ATOM    109  C   UNL A   1      36.752  30.935  32.266  1.00  0.00     0.200 A 
ATOM    110  F   UNL A   1      35.758  31.764  30.293  1.00  0.00    -0.200 F 
ATOM    111  F   UNL A   1      35.706  31.359  32.989  1.00  0.00    -0.200 F 
ENDBRANCH  81 101
BRANCH  84 112
ATOM    112  C   UNL A   1      47.120  27.446  25.644  1.00  0.00     0.064 A 
ATOM    113  C   UNL A   1      47.244  27.653  24.264  1.00  0.00     0.173 A 
ATOM    114  C   UNL A   1      48.196  26.846  26.314  1.00  0.00     0.173 A 
ATOM    115  F   UNL A   1      46.233  28.204  23.577  1.00  0.00    -0.203 F 
ATOM    116  C   UNL A   1      48.390  27.257  23.577  1.00  0.00     0.198 A 
ATOM    117  C   UNL A   1      49.354  26.477  25.632  1.00  0.00     0.198 A 
ATOM    118  F   UNL A   1      48.129  26.631  27.636  1.00  0.00    -0.203 F 
ATOM    119  F   UNL A   1      48.465  27.426  22.250  1.00  0.00    -0.200 F 
ATOM    120  C   UNL A   1      49.446  26.676  24.262  1.00  0.00     0.200 A 
ATOM    121  F   UNL A   1      50.378  25.929  26.300  1.00  0.00    -0.200 F 
ATOM    122  F   UNL A   1      50.551  26.301  23.602  1.00  0.00    -0.200 F 
ENDBRANCH  84 112
BRANCH  99 123
ATOM    123  C   UNL A   1      41.267  24.099  27.387  1.00  0.00     0.064 A 
ATOM    124  C   UNL A   1      40.216  23.823  26.500  1.00  0.00     0.173 A 
ATOM    125  C   UNL A   1      41.893  23.016  28.022  1.00  0.00     0.173 A 
ATOM    126  F   UNL A   1      39.573  24.825  25.882  1.00  0.00    -0.203 F 
ATOM    127  C   UNL A   1      39.793  22.515  26.278  1.00  0.00     0.198 A 
ATOM    128  C   UNL A   1      41.487  21.708  27.774  1.00  0.00     0.198 A 
ATOM    129  F   UNL A   1      42.906  23.226  28.876  1.00  0.00    -0.203 F 
ATOM    130  F   UNL A   1      38.755  22.279  25.463  1.00  0.00    -0.200 F 
ATOM    131  C   UNL A   1      40.434  21.459  26.908  1.00  0.00     0.200 A 
ATOM    132  F   UNL A   1      42.115  20.687  28.376  1.00  0.00    -0.200 F 
ATOM    133  F   UNL A   1      40.029  20.200  26.687  1.00  0.00    -0.200 F 
ENDBRANCH  99 123
ENDBRANCH  64  67
ENDBRANCH  54  57
ENDBRANCH  50  53
ENDBRANCH  47  50
ENDBRANCH  44  47
ENDBRANCH   1  44
TORSDOF 17
ENDMDL
MODEL 6
REMARK VINA RESULT:      -9.5      1.676      2.800
REMARK SMILES C=Cc1cncc(-c2ccc([C@@H](C)C(=O)NCCCCCCNC(=O)c3ccc(-c4c5nc(c(-c6c(F)c(F)c(F)c(F)c6F)c6ccc([nH]6)c(-c6c(F)c(F)c(F)c(F)c6F)c6nc(c(-c7c(F)c(F)c(F)c(F)c7F)c7ccc4[nH]7)C=C6)C=C5)cc3)cc2)c1
REMARK SMILES IDX 19 1 18 4 17 7 16 10 14 11 15 12 12 14 11 16 8 17 9 18 90 19
REMARK SMILES IDX 10 20 89 22 7 26 3 27 4 28 91 29 5 30 6 33 2 35 1 36 13 40
REMARK SMILES IDX 20 44 21 47 22 50 23 53 24 54 25 56 26 57 27 58 88 59 28 60
REMARK SMILES IDX 87 62 29 64 30 67 31 68 81 69 32 70 86 71 80 72 82 73 33 74
REMARK SMILES IDX 85 75 79 77 78 79 34 81 66 84 46 85 65 86 47 87 50 88 64 89
REMARK SMILES IDX 83 90 48 91 49 93 63 95 84 96 51 99 35 101 36 102 44 103
REMARK SMILES IDX 37 104 38 105 42 106 45 107 39 108 40 109 43 110 41 111
REMARK SMILES IDX 67 112 68 113 76 114 69 115 70 116 74 117 77 118 71 119
REMARK SMILES IDX 72 120 75 121 73 122 52 123 53 124 61 125 54 126 55 127
REMARK SMILES IDX 59 128 62 129 56 130 57 131 60 132 58 133
REMARK H PARENT 19 2 19 3 18 5 18 6 17 8 17 9 16 13 12 15 9 21 90 23 10 24
REMARK H PARENT 89 25 4 31 91 32 6 34 1 37 1 38 2 39 13 41 13 42 13 43 20 45
REMARK H PARENT 20 46 21 48 21 49 22 51 22 52 23 55 27 61 88 63 28 65 87 66
REMARK H PARENT 86 76 80 78 82 80 85 82 79 83 47 92 50 94 83 97 48 98 84 100
REMARK Flexibility Score: inf
ROOT
ATOM      1  C   UNL A   1      38.940  32.331  31.030  1.00  0.00    -0.052 C 
ATOM      2  H   UNL A   1      38.117  32.008  31.636  1.00  0.00     0.027 H 
ATOM      3  H   UNL A   1      39.544  31.526  30.668  1.00  0.00     0.027 H 
ENDROOT
BRANCH   1   4
ATOM      4  C   UNL A   1      39.858  33.196  31.900  1.00  0.00    -0.036 C 
ATOM      5  H   UNL A   1      40.514  33.744  31.256  1.00  0.00     0.028 H 
ATOM      6  H   UNL A   1      39.225  33.835  32.480  1.00  0.00     0.028 H 
BRANCH   4   7
ATOM      7  C   UNL A   1      40.709  32.396  32.889  1.00  0.00     0.017 C 
ATOM      8  H   UNL A   1      41.706  32.319  32.506  1.00  0.00     0.049 H 
ATOM      9  H   UNL A   1      40.698  32.908  33.828  1.00  0.00     0.049 H 
BRANCH   7  10
ATOM     10  N   UNL A   1      40.182  31.064  33.094  1.00  0.00    -0.356 N 
ATOM     11  C   UNL A   1      39.325  30.563  34.024  1.00  0.00     0.227 C 
ATOM     12  O   UNL A   1      39.145  29.339  34.001  1.00  0.00    -0.274 OA
ATOM     13  H   UNL A   1      40.504  30.399  32.443  1.00  0.00     0.163 HD
BRANCH  11  14
ATOM     14  C   UNL A   1      38.580  31.426  35.053  1.00  0.00     0.060 C 
ATOM     15  H   UNL A   1      39.310  32.113  35.428  1.00  0.00     0.045 H 
BRANCH  14  16
ATOM     16  C   UNL A   1      37.530  32.344  34.444  1.00  0.00    -0.036 A 
ATOM     17  C   UNL A   1      35.643  34.153  33.279  1.00  0.00    -0.017 A 
ATOM     18  C   UNL A   1      35.636  32.782  32.978  1.00  0.00    -0.054 A 
ATOM     19  C   UNL A   1      36.612  34.597  34.191  1.00  0.00    -0.054 A 
ATOM     20  C   UNL A   1      36.539  31.892  33.572  1.00  0.00    -0.058 A 
ATOM     21  H   UNL A   1      34.948  32.420  32.299  1.00  0.00     0.063 H 
ATOM     22  C   UNL A   1      37.549  33.713  34.749  1.00  0.00    -0.058 A 
ATOM     23  H   UNL A   1      36.636  35.593  34.457  1.00  0.00     0.063 H 
ATOM     24  H   UNL A   1      36.469  30.884  33.362  1.00  0.00     0.063 H 
ATOM     25  H   UNL A   1      38.265  34.077  35.397  1.00  0.00     0.063 H 
BRANCH  17  26
ATOM     26  C   UNL A   1      34.659  35.070  32.663  1.00  0.00     0.001 A 
ATOM     27  C   UNL A   1      33.313  35.846  30.778  1.00  0.00    -0.007 A 
ATOM     28  C   UNL A   1      32.797  36.826  31.619  1.00  0.00     0.034 A 
ATOM     29  C   UNL A   1      34.258  34.965  31.320  1.00  0.00    -0.044 A 
ATOM     30  N   UNL A   1      33.143  36.974  32.916  1.00  0.00    -0.263 NA
ATOM     31  H   UNL A   1      32.105  37.483  31.227  1.00  0.00     0.085 H 
ATOM     32  H   UNL A   1      34.667  34.229  30.724  1.00  0.00     0.064 H 
ATOM     33  C   UNL A   1      34.062  36.102  33.394  1.00  0.00     0.035 A 
ATOM     34  H   UNL A   1      34.348  36.209  34.380  1.00  0.00     0.085 H 
BRANCH  27  35
ATOM     35  C   UNL A   1      32.903  35.811  29.371  1.00  0.00    -0.061 C 
ATOM     36  C   UNL A   1      33.260  34.853  28.506  1.00  0.00    -0.098 C 
ATOM     37  H   UNL A   1      32.934  34.892  27.529  1.00  0.00     0.054 H 
ATOM     38  H   UNL A   1      33.862  34.076  28.819  1.00  0.00     0.054 H 
ATOM     39  H   UNL A   1      32.300  36.574  29.024  1.00  0.00     0.062 H 
ENDBRANCH  27  35
ENDBRANCH  17  26
ENDBRANCH  14  16
BRANCH  14  40
ATOM     40  C   UNL A   1      38.153  30.667  36.311  1.00  0.00    -0.049 C 
ATOM     41  H   UNL A   1      37.201  31.031  36.640  1.00  0.00     0.024 H 
ATOM     42  H   UNL A   1      38.879  30.818  37.083  1.00  0.00     0.024 H 
ATOM     43  H   UNL A   1      38.078  29.623  36.090  1.00  0.00     0.024 H 
ENDBRANCH  14  40
ENDBRANCH  11  14
ENDBRANCH   7  10
ENDBRANCH   4   7
ENDBRANCH   1   4
BRANCH   1  44
ATOM     44  C   UNL A   1      38.371  33.031  29.788  1.00  0.00    -0.052 C 
ATOM     45  H   UNL A   1      38.751  32.529  28.924  1.00  0.00     0.027 H 
ATOM     46  H   UNL A   1      38.676  34.054  29.863  1.00  0.00     0.027 H 
BRANCH  44  47
ATOM     47  C   UNL A   1      36.842  33.056  29.687  1.00  0.00    -0.036 C 
ATOM     48  H   UNL A   1      36.505  34.029  29.978  1.00  0.00     0.028 H 
ATOM     49  H   UNL A   1      36.485  32.277  30.327  1.00  0.00     0.028 H 
BRANCH  47  50
ATOM     50  C   UNL A   1      36.287  32.758  28.295  1.00  0.00     0.018 C 
ATOM     51  H   UNL A   1      37.099  32.505  27.646  1.00  0.00     0.049 H 
ATOM     52  H   UNL A   1      35.774  33.631  27.949  1.00  0.00     0.049 H 
BRANCH  50  53
ATOM     53  N   UNL A   1      35.337  31.655  28.313  1.00  0.00    -0.352 N 
ATOM     54  C   UNL A   1      35.551  30.305  28.197  1.00  0.00     0.251 C 
ATOM     55  H   UNL A   1      34.395  31.921  28.427  1.00  0.00     0.163 HD
ATOM     56  O   UNL A   1      34.608  29.545  28.003  1.00  0.00    -0.269 OA
BRANCH  54  57
ATOM     57  C   UNL A   1      36.923  29.760  28.287  1.00  0.00     0.039 A 
ATOM     58  C   UNL A   1      37.732  29.774  27.148  1.00  0.00    -0.049 A 
ATOM     59  C   UNL A   1      37.403  29.225  29.485  1.00  0.00    -0.049 A 
ATOM     60  C   UNL A   1      39.053  29.328  27.232  1.00  0.00    -0.053 A 
ATOM     61  H   UNL A   1      37.355  30.111  26.249  1.00  0.00     0.063 H 
ATOM     62  C   UNL A   1      38.738  28.837  29.583  1.00  0.00    -0.053 A 
ATOM     63  H   UNL A   1      36.773  29.119  30.295  1.00  0.00     0.063 H 
ATOM     64  C   UNL A   1      39.579  28.900  28.462  1.00  0.00    -0.014 A 
ATOM     65  H   UNL A   1      39.645  29.313  26.386  1.00  0.00     0.063 H 
ATOM     66  H   UNL A   1      39.110  28.501  30.485  1.00  0.00     0.063 H 
BRANCH  64  67
ATOM     67  C   UNL A   1      41.020  28.575  28.609  1.00  0.00     0.031 A 
ATOM     68  C   UNL A   1      41.992  29.609  29.098  1.00  0.00     0.074 A 
ATOM     69  C   UNL A   1      41.460  27.364  28.217  1.00  0.00     0.049 A 
ATOM     70  N   UNL A   1      43.295  29.533  29.205  1.00  0.00    -0.248 NA
ATOM     71  C   UNL A   1      41.431  30.908  29.500  1.00  0.00    -0.034 C 
ATOM     72  C   UNL A   1      40.618  26.293  27.682  1.00  0.00    -0.036 A 
ATOM     73  N   UNL A   1      42.726  26.836  28.188  1.00  0.00    -0.354 N 
ATOM     74  C   UNL A   1      43.709  30.771  29.677  1.00  0.00     0.074 A 
ATOM     75  C   UNL A   1      42.525  31.596  29.794  1.00  0.00    -0.034 C 
ATOM     76  H   UNL A   1      40.444  31.205  29.542  1.00  0.00     0.065 H 
ATOM     77  C   UNL A   1      41.387  25.233  27.389  1.00  0.00    -0.036 A 
ATOM     78  H   UNL A   1      39.596  26.345  27.551  1.00  0.00     0.065 H 
ATOM     79  C   UNL A   1      42.779  25.563  27.676  1.00  0.00     0.049 A 
ATOM     80  H   UNL A   1      43.522  27.323  28.504  1.00  0.00     0.167 HD
ATOM     81  C   UNL A   1      44.962  31.174  29.998  1.00  0.00     0.037 A 
ATOM     82  H   UNL A   1      42.532  32.590  30.071  1.00  0.00     0.065 H 
ATOM     83  H   UNL A   1      41.049  24.330  27.023  1.00  0.00     0.065 H 
ATOM     84  C   UNL A   1      43.833  24.757  27.445  1.00  0.00     0.037 A 
ATOM     85  C   UNL A   1      46.134  30.345  29.893  1.00  0.00     0.049 A 
ATOM     86  C   UNL A   1      45.216  25.241  27.785  1.00  0.00     0.074 A 
ATOM     87  C   UNL A   1      47.436  30.639  30.262  1.00  0.00    -0.036 A 
ATOM     88  N   UNL A   1      46.150  29.060  29.370  1.00  0.00    -0.354 N 
ATOM     89  N   UNL A   1      45.586  26.387  28.302  1.00  0.00    -0.248 NA
ATOM     90  C   UNL A   1      46.326  24.319  27.510  1.00  0.00    -0.034 C 
ATOM     91  C   UNL A   1      48.246  29.553  29.916  1.00  0.00    -0.036 A 
ATOM     92  H   UNL A   1      47.754  31.510  30.716  1.00  0.00     0.065 H 
ATOM     93  C   UNL A   1      47.443  28.562  29.375  1.00  0.00     0.049 A 
ATOM     94  H   UNL A   1      45.359  28.574  29.043  1.00  0.00     0.167 HD
ATOM     95  C   UNL A   1      46.967  26.319  28.429  1.00  0.00     0.074 A 
ATOM     96  C   UNL A   1      47.366  25.009  27.956  1.00  0.00    -0.034 C 
ATOM     97  H   UNL A   1      46.303  23.380  27.081  1.00  0.00     0.065 H 
ATOM     98  H   UNL A   1      49.269  29.499  30.040  1.00  0.00     0.065 H 
ATOM     99  C   UNL A   1      47.826  27.260  28.893  1.00  0.00     0.037 A 
ATOM    100  H   UNL A   1      48.336  24.659  27.966  1.00  0.00     0.065 H 
BRANCH  81 101
ATOM    101  C   UNL A   1      45.134  32.579  30.498  1.00  0.00     0.064 A 
ATOM    102  C   UNL A   1      45.046  32.889  31.864  1.00  0.00     0.173 A 
ATOM    103  C   UNL A   1      45.444  33.620  29.608  1.00  0.00     0.173 A 
ATOM    104  F   UNL A   1      44.745  31.933  32.755  1.00  0.00    -0.203 F 
ATOM    105  C   UNL A   1      45.236  34.192  32.317  1.00  0.00     0.198 A 
ATOM    106  C   UNL A   1      45.661  34.916  30.068  1.00  0.00     0.198 A 
ATOM    107  F   UNL A   1      45.548  33.376  28.293  1.00  0.00    -0.203 F 
ATOM    108  F   UNL A   1      45.106  34.472  33.621  1.00  0.00    -0.200 F 
ATOM    109  C   UNL A   1      45.551  35.203  31.420  1.00  0.00     0.200 A 
ATOM    110  F   UNL A   1      45.979  35.888  29.202  1.00  0.00    -0.200 F 
ATOM    111  F   UNL A   1      45.745  36.454  31.859  1.00  0.00    -0.200 F 
ENDBRANCH  81 101
BRANCH  84 112
ATOM    112  C   UNL A   1      43.621  23.406  26.864  1.00  0.00     0.064 A 
ATOM    113  C   UNL A   1      44.018  23.116  25.552  1.00  0.00     0.173 A 
ATOM    114  C   UNL A   1      43.019  22.379  27.607  1.00  0.00     0.173 A 
ATOM    115  F   UNL A   1      44.578  24.071  24.797  1.00  0.00    -0.203 F 
ATOM    116  C   UNL A   1      43.804  21.856  24.997  1.00  0.00     0.198 A 
ATOM    117  C   UNL A   1      42.832  21.111  27.062  1.00  0.00     0.198 A 
ATOM    118  F   UNL A   1      42.626  22.604  28.869  1.00  0.00    -0.203 F 
ATOM    119  F   UNL A   1      44.153  21.618  23.726  1.00  0.00    -0.200 F 
ATOM    120  C   UNL A   1      43.217  20.853  25.754  1.00  0.00     0.200 A 
ATOM    121  F   UNL A   1      42.278  20.140  27.801  1.00  0.00    -0.200 F 
ATOM    122  F   UNL A   1      43.017  19.639  25.222  1.00  0.00    -0.200 F 
ENDBRANCH  84 112
BRANCH  99 123
ATOM    123  C   UNL A   1      49.283  26.900  28.918  1.00  0.00     0.064 A 
ATOM    124  C   UNL A   1      50.136  27.224  27.854  1.00  0.00     0.173 A 
ATOM    125  C   UNL A   1      49.839  26.255  30.033  1.00  0.00     0.173 A 
ATOM    126  F   UNL A   1      49.649  27.824  26.757  1.00  0.00    -0.203 F 
ATOM    127  C   UNL A   1      51.488  26.893  27.894  1.00  0.00     0.198 A 
ATOM    128  C   UNL A   1      51.197  25.953  30.083  1.00  0.00     0.198 A 
ATOM    129  F   UNL A   1      49.067  25.926  31.080  1.00  0.00    -0.203 F 
ATOM    130  F   UNL A   1      52.275  27.170  26.844  1.00  0.00    -0.200 F 
ATOM    131  C   UNL A   1      52.019  26.266  29.011  1.00  0.00     0.200 A 
ATOM    132  F   UNL A   1      51.711  25.356  31.168  1.00  0.00    -0.200 F 
ATOM    133  F   UNL A   1      53.322  25.954  29.050  1.00  0.00    -0.200 F 
ENDBRANCH  99 123
ENDBRANCH  64  67
ENDBRANCH  54  57
ENDBRANCH  50  53
ENDBRANCH  47  50
ENDBRANCH  44  47
ENDBRANCH   1  44
TORSDOF 17
ENDMDL
MODEL 7
REMARK VINA RESULT:      -9.4      6.665     14.916
REMARK SMILES C=Cc1cncc(-c2ccc([C@@H](C)C(=O)NCCCCCCNC(=O)c3ccc(-c4c5nc(c(-c6c(F)c(F)c(F)c(F)c6F)c6ccc([nH]6)c(-c6c(F)c(F)c(F)c(F)c6F)c6nc(c(-c7c(F)c(F)c(F)c(F)c7F)c7ccc4[nH]7)C=C6)C=C5)cc3)cc2)c1
REMARK SMILES IDX 19 1 18 4 17 7 16 10 14 11 15 12 12 14 11 16 8 17 9 18 90 19
REMARK SMILES IDX 10 20 89 22 7 26 3 27 4 28 91 29 5 30 6 33 2 35 1 36 13 40
REMARK SMILES IDX 20 44 21 47 22 50 23 53 24 54 25 56 26 57 27 58 88 59 28 60
REMARK SMILES IDX 87 62 29 64 30 67 31 68 81 69 32 70 86 71 80 72 82 73 33 74
REMARK SMILES IDX 85 75 79 77 78 79 34 81 66 84 46 85 65 86 47 87 50 88 64 89
REMARK SMILES IDX 83 90 48 91 49 93 63 95 84 96 51 99 35 101 36 102 44 103
REMARK SMILES IDX 37 104 38 105 42 106 45 107 39 108 40 109 43 110 41 111
REMARK SMILES IDX 67 112 68 113 76 114 69 115 70 116 74 117 77 118 71 119
REMARK SMILES IDX 72 120 75 121 73 122 52 123 53 124 61 125 54 126 55 127
REMARK SMILES IDX 59 128 62 129 56 130 57 131 60 132 58 133
REMARK H PARENT 19 2 19 3 18 5 18 6 17 8 17 9 16 13 12 15 9 21 90 23 10 24
REMARK H PARENT 89 25 4 31 91 32 6 34 1 37 1 38 2 39 13 41 13 42 13 43 20 45
REMARK H PARENT 20 46 21 48 21 49 22 51 22 52 23 55 27 61 88 63 28 65 87 66
REMARK H PARENT 86 76 80 78 82 80 85 82 79 83 47 92 50 94 83 97 48 98 84 100
REMARK Flexibility Score: inf
ROOT
ATOM      1  C   UNL A   1      49.924  22.497  34.111  1.00  0.00    -0.052 C 
ATOM      2  H   UNL A   1      49.909  23.100  33.226  1.00  0.00     0.027 H 
ATOM      3  H   UNL A   1      50.407  22.969  34.940  1.00  0.00     0.027 H 
ENDROOT
BRANCH   1   4
ATOM      4  C   UNL A   1      50.732  21.231  33.809  1.00  0.00    -0.036 C 
ATOM      5  H   UNL A   1      50.971  21.224  32.765  1.00  0.00     0.028 H 
ATOM      6  H   UNL A   1      51.604  21.264  34.428  1.00  0.00     0.028 H 
BRANCH   4   7
ATOM      7  C   UNL A   1      49.997  19.931  34.144  1.00  0.00     0.017 C 
ATOM      8  H   UNL A   1      49.043  20.171  34.566  1.00  0.00     0.049 H 
ATOM      9  H   UNL A   1      49.886  19.369  33.241  1.00  0.00     0.049 H 
BRANCH   7  10
ATOM     10  N   UNL A   1      50.738  19.126  35.091  1.00  0.00    -0.356 N 
ATOM     11  C   UNL A   1      50.876  19.213  36.441  1.00  0.00     0.227 C 
ATOM     12  O   UNL A   1      51.675  18.426  36.963  1.00  0.00    -0.274 OA
ATOM     13  H   UNL A   1      51.234  18.379  34.682  1.00  0.00     0.163 HD
BRANCH  11  14
ATOM     14  C   UNL A   1      50.092  20.199  37.319  1.00  0.00     0.060 C 
ATOM     15  H   UNL A   1      49.519  20.792  36.636  1.00  0.00     0.045 H 
BRANCH  14  16
ATOM     16  C   UNL A   1      49.022  19.543  38.180  1.00  0.00    -0.036 A 
ATOM     17  C   UNL A   1      46.964  18.259  39.699  1.00  0.00    -0.017 A 
ATOM     18  C   UNL A   1      48.296  18.292  40.139  1.00  0.00    -0.054 A 
ATOM     19  C   UNL A   1      46.682  18.898  38.482  1.00  0.00    -0.054 A 
ATOM     20  C   UNL A   1      49.297  18.947  39.412  1.00  0.00    -0.058 A 
ATOM     21  H   UNL A   1      48.545  17.820  41.022  1.00  0.00     0.063 H 
ATOM     22  C   UNL A   1      47.695  19.512  37.728  1.00  0.00    -0.058 A 
ATOM     23  H   UNL A   1      45.711  18.916  38.134  1.00  0.00     0.063 H 
ATOM     24  H   UNL A   1      50.254  18.992  39.795  1.00  0.00     0.063 H 
ATOM     25  H   UNL A   1      47.457  19.950  36.824  1.00  0.00     0.063 H 
BRANCH  17  26
ATOM     26  C   UNL A   1      45.917  17.588  40.499  1.00  0.00     0.001 A 
ATOM     27  C   UNL A   1      43.803  16.382  40.717  1.00  0.00    -0.007 A 
ATOM     28  C   UNL A   1      44.030  16.338  42.089  1.00  0.00     0.034 A 
ATOM     29  C   UNL A   1      44.766  17.021  39.925  1.00  0.00    -0.044 A 
ATOM     30  N   UNL A   1      45.116  16.863  42.696  1.00  0.00    -0.263 NA
ATOM     31  H   UNL A   1      43.324  15.876  42.681  1.00  0.00     0.085 H 
ATOM     32  H   UNL A   1      44.627  17.078  38.904  1.00  0.00     0.064 H 
ATOM     33  C   UNL A   1      46.017  17.474  41.890  1.00  0.00     0.035 A 
ATOM     34  H   UNL A   1      46.847  17.892  42.339  1.00  0.00     0.085 H 
BRANCH  27  35
ATOM     35  C   UNL A   1      42.562  15.823  40.171  1.00  0.00    -0.061 C 
ATOM     36  C   UNL A   1      42.034  14.653  40.549  1.00  0.00    -0.098 C 
ATOM     37  H   UNL A   1      41.156  14.321  40.122  1.00  0.00     0.054 H 
ATOM     38  H   UNL A   1      42.506  14.083  41.268  1.00  0.00     0.054 H 
ATOM     39  H   UNL A   1      42.064  16.367  39.449  1.00  0.00     0.062 H 
ENDBRANCH  27  35
ENDBRANCH  17  26
ENDBRANCH  14  16
BRANCH  14  40
ATOM     40  C   UNL A   1      50.965  21.241  38.020  1.00  0.00    -0.049 C 
ATOM     41  H   UNL A   1      51.945  21.233  37.589  1.00  0.00     0.024 H 
ATOM     42  H   UNL A   1      51.032  21.008  39.062  1.00  0.00     0.024 H 
ATOM     43  H   UNL A   1      50.531  22.211  37.899  1.00  0.00     0.024 H 
ENDBRANCH  14  40
ENDBRANCH  11  14
ENDBRANCH   7  10
ENDBRANCH   4   7
ENDBRANCH   1   4
BRANCH   1  44
ATOM     44  C   UNL A   1      48.471  22.254  34.544  1.00  0.00    -0.052 C 
ATOM     45  H   UNL A   1      48.401  21.254  34.915  1.00  0.00     0.027 H 
ATOM     46  H   UNL A   1      47.872  22.436  33.676  1.00  0.00     0.027 H 
BRANCH  44  47
ATOM     47  C   UNL A   1      47.938  23.198  35.627  1.00  0.00    -0.036 C 
ATOM     48  H   UNL A   1      48.216  22.802  36.581  1.00  0.00     0.028 H 
ATOM     49  H   UNL A   1      46.879  23.251  35.485  1.00  0.00     0.028 H 
BRANCH  47  50
ATOM     50  C   UNL A   1      48.456  24.632  35.539  1.00  0.00     0.018 C 
ATOM     51  H   UNL A   1      47.921  25.146  34.768  1.00  0.00     0.049 H 
ATOM     52  H   UNL A   1      49.504  24.593  35.322  1.00  0.00     0.049 H 
BRANCH  50  53
ATOM     53  N   UNL A   1      48.284  25.351  36.793  1.00  0.00    -0.352 N 
ATOM     54  C   UNL A   1      47.453  26.399  37.101  1.00  0.00     0.251 C 
ATOM     55  H   UNL A   1      48.850  25.036  37.534  1.00  0.00     0.163 HD
ATOM     56  O   UNL A   1      47.611  27.026  38.143  1.00  0.00    -0.269 OA
BRANCH  54  57
ATOM     57  C   UNL A   1      46.374  26.790  36.168  1.00  0.00     0.039 A 
ATOM     58  C   UNL A   1      45.211  26.018  36.117  1.00  0.00    -0.049 A 
ATOM     59  C   UNL A   1      46.516  27.905  35.338  1.00  0.00    -0.049 A 
ATOM     60  C   UNL A   1      44.154  26.412  35.293  1.00  0.00    -0.053 A 
ATOM     61  H   UNL A   1      45.134  25.160  36.685  1.00  0.00     0.063 H 
ATOM     62  C   UNL A   1      45.439  28.331  34.562  1.00  0.00    -0.053 A 
ATOM     63  H   UNL A   1      47.413  28.412  35.300  1.00  0.00     0.063 H 
ATOM     64  C   UNL A   1      44.243  27.598  34.545  1.00  0.00    -0.014 A 
ATOM     65  H   UNL A   1      43.304  25.829  35.234  1.00  0.00     0.063 H 
ATOM     66  H   UNL A   1      45.522  29.191  33.997  1.00  0.00     0.063 H 
BRANCH  64  67
ATOM     67  C   UNL A   1      43.077  28.119  33.790  1.00  0.00     0.031 A 
ATOM     68  C   UNL A   1      42.909  27.809  32.330  1.00  0.00     0.074 A 
ATOM     69  C   UNL A   1      42.213  28.946  34.410  1.00  0.00     0.049 A 
ATOM     70  N   UNL A   1      42.005  28.250  31.491  1.00  0.00    -0.248 NA
ATOM     71  C   UNL A   1      43.899  26.905  31.728  1.00  0.00    -0.034 C 
ATOM     72  C   UNL A   1      42.297  29.356  35.812  1.00  0.00    -0.036 A 
ATOM     73  N   UNL A   1      41.106  29.605  33.938  1.00  0.00    -0.354 N 
ATOM     74  C   UNL A   1      42.321  27.683  30.264  1.00  0.00     0.074 A 
ATOM     75  C   UNL A   1      43.525  26.903  30.456  1.00  0.00    -0.034 C 
ATOM     76  H   UNL A   1      44.680  26.402  32.178  1.00  0.00     0.065 H 
ATOM     77  C   UNL A   1      41.281  30.187  36.090  1.00  0.00    -0.036 A 
ATOM     78  H   UNL A   1      43.023  29.055  36.481  1.00  0.00     0.065 H 
ATOM     79  C   UNL A   1      40.498  30.401  34.877  1.00  0.00     0.049 A 
ATOM     80  H   UNL A   1      40.779  29.517  33.013  1.00  0.00     0.167 HD
ATOM     81  C   UNL A   1      41.655  27.792  29.089  1.00  0.00     0.037 A 
ATOM     82  H   UNL A   1      44.027  26.410  29.701  1.00  0.00     0.065 H 
ATOM     83  H   UNL A   1      41.083  30.606  37.012  1.00  0.00     0.065 H 
ATOM     84  C   UNL A   1      39.438  31.225  34.771  1.00  0.00     0.037 A 
ATOM     85  C   UNL A   1      40.449  28.558  28.907  1.00  0.00     0.049 A 
ATOM     86  C   UNL A   1      38.734  31.348  33.447  1.00  0.00     0.074 A 
ATOM     87  C   UNL A   1      39.661  28.672  27.774  1.00  0.00    -0.036 A 
ATOM     88  N   UNL A   1      39.862  29.351  29.882  1.00  0.00    -0.354 N 
ATOM     89  N   UNL A   1      38.998  30.748  32.312  1.00  0.00    -0.248 NA
ATOM     90  C   UNL A   1      37.586  32.263  33.391  1.00  0.00    -0.034 C 
ATOM     91  C   UNL A   1      38.627  29.572  28.048  1.00  0.00    -0.036 A 
ATOM     92  H   UNL A   1      39.811  28.176  26.881  1.00  0.00     0.065 H 
ATOM     93  C   UNL A   1      38.741  29.984  29.366  1.00  0.00     0.049 A 
ATOM     94  H   UNL A   1      40.192  29.451  30.804  1.00  0.00     0.167 HD
ATOM     95  C   UNL A   1      38.042  31.198  31.412  1.00  0.00     0.074 A 
ATOM     96  C   UNL A   1      37.178  32.105  32.140  1.00  0.00    -0.034 C 
ATOM     97  H   UNL A   1      37.199  32.870  34.130  1.00  0.00     0.065 H 
ATOM     98  H   UNL A   1      37.902  29.880  27.381  1.00  0.00     0.065 H 
ATOM     99  C   UNL A   1      37.896  30.891  30.100  1.00  0.00     0.037 A 
ATOM    100  H   UNL A   1      36.349  32.569  31.735  1.00  0.00     0.065 H 
BRANCH  81 101
ATOM    101  C   UNL A   1      42.214  27.063  27.902  1.00  0.00     0.064 A 
ATOM    102  C   UNL A   1      41.827  25.749  27.597  1.00  0.00     0.173 A 
ATOM    103  C   UNL A   1      43.106  27.703  27.027  1.00  0.00     0.173 A 
ATOM    104  F   UNL A   1      40.981  25.090  28.404  1.00  0.00    -0.203 F 
ATOM    105  C   UNL A   1      42.331  25.095  26.476  1.00  0.00     0.198 A 
ATOM    106  C   UNL A   1      43.587  27.055  25.893  1.00  0.00     0.198 A 
ATOM    107  F   UNL A   1      43.502  28.962  27.268  1.00  0.00    -0.203 F 
ATOM    108  F   UNL A   1      41.979  23.826  26.228  1.00  0.00    -0.200 F 
ATOM    109  C   UNL A   1      43.205  25.751  25.621  1.00  0.00     0.200 A 
ATOM    110  F   UNL A   1      44.419  27.695  25.060  1.00  0.00    -0.200 F 
ATOM    111  F   UNL A   1      43.680  25.123  24.537  1.00  0.00    -0.200 F 
ENDBRANCH  81 101
BRANCH  84 112
ATOM    112  C   UNL A   1      38.975  31.995  35.953  1.00  0.00     0.064 A 
ATOM    113  C   UNL A   1      39.357  33.331  36.137  1.00  0.00     0.173 A 
ATOM    114  C   UNL A   1      38.143  31.415  36.922  1.00  0.00     0.173 A 
ATOM    115  F   UNL A   1      40.169  33.922  35.248  1.00  0.00    -0.203 F 
ATOM    116  C   UNL A   1      38.941  34.052  37.254  1.00  0.00     0.198 A 
ATOM    117  C   UNL A   1      37.704  32.146  38.024  1.00  0.00     0.198 A 
ATOM    118  F   UNL A   1      37.745  30.142  36.790  1.00  0.00    -0.203 F 
ATOM    119  F   UNL A   1      39.357  35.314  37.428  1.00  0.00    -0.200 F 
ATOM    120  C   UNL A   1      38.110  33.461  38.193  1.00  0.00     0.200 A 
ATOM    121  F   UNL A   1      36.888  31.576  38.922  1.00  0.00    -0.200 F 
ATOM    122  F   UNL A   1      37.705  34.157  39.265  1.00  0.00    -0.200 F 
ENDBRANCH  84 112
BRANCH  99 123
ATOM    123  C   UNL A   1      36.753  31.534  29.370  1.00  0.00     0.064 A 
ATOM    124  C   UNL A   1      36.772  32.896  29.036  1.00  0.00     0.173 A 
ATOM    125  C   UNL A   1      35.643  30.775  28.971  1.00  0.00     0.173 A 
ATOM    126  F   UNL A   1      37.803  33.669  29.411  1.00  0.00    -0.203 F 
ATOM    127  C   UNL A   1      35.710  33.479  28.350  1.00  0.00     0.198 A 
ATOM    128  C   UNL A   1      34.597  31.355  28.259  1.00  0.00     0.198 A 
ATOM    129  F   UNL A   1      35.578  29.467  29.262  1.00  0.00    -0.203 F 
ATOM    130  F   UNL A   1      35.728  34.793  28.084  1.00  0.00    -0.200 F 
ATOM    131  C   UNL A   1      34.628  32.708  27.955  1.00  0.00     0.200 A 
ATOM    132  F   UNL A   1      33.556  30.605  27.869  1.00  0.00    -0.200 F 
ATOM    133  F   UNL A   1      33.609  33.270  27.290  1.00  0.00    -0.200 F 
ENDBRANCH  99 123
ENDBRANCH  64  67
ENDBRANCH  54  57
ENDBRANCH  50  53
ENDBRANCH  47  50
ENDBRANCH  44  47
ENDBRANCH   1  44
TORSDOF 17
ENDMDL
MODEL 8
REMARK VINA RESULT:      -9.4      4.223      7.831
REMARK SMILES C=Cc1cncc(-c2ccc([C@@H](C)C(=O)NCCCCCCNC(=O)c3ccc(-c4c5nc(c(-c6c(F)c(F)c(F)c(F)c6F)c6ccc([nH]6)c(-c6c(F)c(F)c(F)c(F)c6F)c6nc(c(-c7c(F)c(F)c(F)c(F)c7F)c7ccc4[nH]7)C=C6)C=C5)cc3)cc2)c1
REMARK SMILES IDX 19 1 18 4 17 7 16 10 14 11 15 12 12 14 11 16 8 17 9 18 90 19
REMARK SMILES IDX 10 20 89 22 7 26 3 27 4 28 91 29 5 30 6 33 2 35 1 36 13 40
REMARK SMILES IDX 20 44 21 47 22 50 23 53 24 54 25 56 26 57 27 58 88 59 28 60
REMARK SMILES IDX 87 62 29 64 30 67 31 68 81 69 32 70 86 71 80 72 82 73 33 74
REMARK SMILES IDX 85 75 79 77 78 79 34 81 66 84 46 85 65 86 47 87 50 88 64 89
REMARK SMILES IDX 83 90 48 91 49 93 63 95 84 96 51 99 35 101 36 102 44 103
REMARK SMILES IDX 37 104 38 105 42 106 45 107 39 108 40 109 43 110 41 111
REMARK SMILES IDX 67 112 68 113 76 114 69 115 70 116 74 117 77 118 71 119
REMARK SMILES IDX 72 120 75 121 73 122 52 123 53 124 61 125 54 126 55 127
REMARK SMILES IDX 59 128 62 129 56 130 57 131 60 132 58 133
REMARK H PARENT 19 2 19 3 18 5 18 6 17 8 17 9 16 13 12 15 9 21 90 23 10 24
REMARK H PARENT 89 25 4 31 91 32 6 34 1 37 1 38 2 39 13 41 13 42 13 43 20 45
REMARK H PARENT 20 46 21 48 21 49 22 51 22 52 23 55 27 61 88 63 28 65 87 66
REMARK H PARENT 86 76 80 78 82 80 85 82 79 83 47 92 50 94 83 97 48 98 84 100
REMARK Flexibility Score: inf
ROOT
ATOM      1  C   UNL A   1      35.890  30.969  28.485  1.00  0.00    -0.052 C 
ATOM      2  H   UNL A   1      36.899  31.031  28.130  1.00  0.00     0.027 H 
ATOM      3  H   UNL A   1      35.818  30.857  29.546  1.00  0.00     0.027 H 
ENDROOT
BRANCH   1   4
ATOM      4  C   UNL A   1      35.250  29.717  27.877  1.00  0.00    -0.036 C 
ATOM      5  H   UNL A   1      35.950  29.277  27.197  1.00  0.00     0.028 H 
ATOM      6  H   UNL A   1      35.006  29.066  28.691  1.00  0.00     0.028 H 
BRANCH   4   7
ATOM      7  C   UNL A   1      33.948  29.991  27.121  1.00  0.00     0.017 C 
ATOM      8  H   UNL A   1      33.726  31.037  27.181  1.00  0.00     0.049 H 
ATOM      9  H   UNL A   1      34.083  29.686  26.104  1.00  0.00     0.049 H 
BRANCH   7  10
ATOM     10  N   UNL A   1      32.840  29.244  27.674  1.00  0.00    -0.356 N 
ATOM     11  C   UNL A   1      31.960  28.375  27.105  1.00  0.00     0.227 C 
ATOM     12  O   UNL A   1      31.043  27.971  27.830  1.00  0.00    -0.274 OA
ATOM     13  H   UNL A   1      32.695  29.392  28.637  1.00  0.00     0.163 HD
BRANCH  11  14
ATOM     14  C   UNL A   1      32.068  27.875  25.657  1.00  0.00     0.060 C 
ATOM     15  H   UNL A   1      32.921  28.375  25.247  1.00  0.00     0.045 H 
BRANCH  14  16
ATOM     16  C   UNL A   1      32.446  26.405  25.539  1.00  0.00    -0.036 A 
ATOM     17  C   UNL A   1      33.090  23.635  25.217  1.00  0.00    -0.017 A 
ATOM     18  C   UNL A   1      34.066  24.587  25.549  1.00  0.00    -0.054 A 
ATOM     19  C   UNL A   1      31.776  24.102  25.063  1.00  0.00    -0.054 A 
ATOM     20  C   UNL A   1      33.746  25.937  25.738  1.00  0.00    -0.058 A 
ATOM     21  H   UNL A   1      35.047  24.285  25.657  1.00  0.00     0.063 H 
ATOM     22  C   UNL A   1      31.464  25.463  25.203  1.00  0.00    -0.058 A 
ATOM     23  H   UNL A   1      31.024  23.431  24.841  1.00  0.00     0.063 H 
ATOM     24  H   UNL A   1      34.484  26.596  26.030  1.00  0.00     0.063 H 
ATOM     25  H   UNL A   1      30.491  25.776  25.056  1.00  0.00     0.063 H 
BRANCH  17  26
ATOM     26  C   UNL A   1      33.446  22.209  25.054  1.00  0.00     0.001 A 
ATOM     27  C   UNL A   1      35.070  20.388  24.918  1.00  0.00    -0.007 A 
ATOM     28  C   UNL A   1      33.997  19.515  24.760  1.00  0.00     0.034 A 
ATOM     29  C   UNL A   1      34.774  21.750  25.062  1.00  0.00    -0.044 A 
ATOM     30  N   UNL A   1      32.703  19.898  24.745  1.00  0.00    -0.263 NA
ATOM     31  H   UNL A   1      34.205  18.512  24.646  1.00  0.00     0.085 H 
ATOM     32  H   UNL A   1      35.545  22.427  25.176  1.00  0.00     0.064 H 
ATOM     33  C   UNL A   1      32.467  21.224  24.884  1.00  0.00     0.035 A 
ATOM     34  H   UNL A   1      31.483  21.535  24.862  1.00  0.00     0.085 H 
BRANCH  27  35
ATOM     35  C   UNL A   1      36.439  19.868  24.867  1.00  0.00    -0.061 C 
ATOM     36  C   UNL A   1      37.535  20.635  24.844  1.00  0.00    -0.098 C 
ATOM     37  H   UNL A   1      38.470  20.201  24.808  1.00  0.00     0.054 H 
ATOM     38  H   UNL A   1      37.445  21.663  24.863  1.00  0.00     0.054 H 
ATOM     39  H   UNL A   1      36.567  18.844  24.847  1.00  0.00     0.062 H 
ENDBRANCH  27  35
ENDBRANCH  17  26
ENDBRANCH  14  16
BRANCH  14  40
ATOM     40  C   UNL A   1      30.931  28.345  24.749  1.00  0.00    -0.049 C 
ATOM     41  H   UNL A   1      30.153  27.610  24.741  1.00  0.00     0.024 H 
ATOM     42  H   UNL A   1      31.302  28.483  23.754  1.00  0.00     0.024 H 
ATOM     43  H   UNL A   1      30.541  29.271  25.115  1.00  0.00     0.024 H 
ENDBRANCH  14  40
ENDBRANCH  11  14
ENDBRANCH   7  10
ENDBRANCH   4   7
ENDBRANCH   1   4
BRANCH   1  44
ATOM     44  C   UNL A   1      35.185  32.291  28.147  1.00  0.00    -0.052 C 
ATOM     45  H   UNL A   1      34.507  32.105  27.341  1.00  0.00     0.027 H 
ATOM     46  H   UNL A   1      35.964  32.984  27.905  1.00  0.00     0.027 H 
BRANCH  44  47
ATOM     47  C   UNL A   1      34.396  32.931  29.293  1.00  0.00    -0.036 C 
ATOM     48  H   UNL A   1      33.356  32.733  29.133  1.00  0.00     0.028 H 
ATOM     49  H   UNL A   1      34.634  33.974  29.277  1.00  0.00     0.028 H 
BRANCH  47  50
ATOM     50  C   UNL A   1      34.766  32.426  30.686  1.00  0.00     0.018 C 
ATOM     51  H   UNL A   1      35.492  31.647  30.590  1.00  0.00     0.049 H 
ATOM     52  H   UNL A   1      33.874  32.067  31.157  1.00  0.00     0.049 H 
BRANCH  50  53
ATOM     53  N   UNL A   1      35.319  33.485  31.519  1.00  0.00    -0.352 N 
ATOM     54  C   UNL A   1      36.601  33.672  31.971  1.00  0.00     0.251 C 
ATOM     55  H   UNL A   1      34.672  34.172  31.800  1.00  0.00     0.163 HD
ATOM     56  O   UNL A   1      36.830  34.495  32.852  1.00  0.00    -0.269 OA
BRANCH  54  57
ATOM     57  C   UNL A   1      37.710  32.871  31.412  1.00  0.00     0.039 A 
ATOM     58  C   UNL A   1      38.118  33.105  30.096  1.00  0.00    -0.049 A 
ATOM     59  C   UNL A   1      38.334  31.881  32.176  1.00  0.00    -0.049 A 
ATOM     60  C   UNL A   1      39.209  32.406  29.575  1.00  0.00    -0.053 A 
ATOM     61  H   UNL A   1      37.615  33.792  29.513  1.00  0.00     0.063 H 
ATOM     62  C   UNL A   1      39.459  31.228  31.677  1.00  0.00    -0.053 A 
ATOM     63  H   UNL A   1      37.965  31.637  33.108  1.00  0.00     0.063 H 
ATOM     64  C   UNL A   1      39.916  31.496  30.378  1.00  0.00    -0.014 A 
ATOM     65  H   UNL A   1      39.496  32.559  28.595  1.00  0.00     0.063 H 
ATOM     66  H   UNL A   1      39.958  30.543  32.265  1.00  0.00     0.063 H 
BRANCH  64  67
ATOM     67  C   UNL A   1      41.170  30.863  29.899  1.00  0.00     0.031 A 
ATOM     68  C   UNL A   1      42.433  31.665  29.771  1.00  0.00     0.074 A 
ATOM     69  C   UNL A   1      41.142  29.578  29.497  1.00  0.00     0.049 A 
ATOM     70  N   UNL A   1      43.596  31.305  29.288  1.00  0.00    -0.248 NA
ATOM     71  C   UNL A   1      42.377  33.064  30.224  1.00  0.00    -0.034 C 
ATOM     72  C   UNL A   1      39.964  28.710  29.531  1.00  0.00    -0.036 A 
ATOM     73  N   UNL A   1      42.126  28.782  28.965  1.00  0.00    -0.354 N 
ATOM     74  C   UNL A   1      44.405  32.430  29.372  1.00  0.00     0.074 A 
ATOM     75  C   UNL A   1      43.590  33.498  29.910  1.00  0.00    -0.034 C 
ATOM     76  H   UNL A   1      41.598  33.573  30.670  1.00  0.00     0.065 H 
ATOM     77  C   UNL A   1      40.295  27.500  29.052  1.00  0.00    -0.036 A 
ATOM     78  H   UNL A   1      39.029  28.984  29.868  1.00  0.00     0.065 H 
ATOM     79  C   UNL A   1      41.695  27.520  28.639  1.00  0.00     0.049 A 
ATOM     80  H   UNL A   1      43.052  29.087  28.829  1.00  0.00     0.167 HD
ATOM     81  C   UNL A   1      45.714  32.552  29.045  1.00  0.00     0.037 A 
ATOM     82  H   UNL A   1      43.910  34.471  30.033  1.00  0.00     0.065 H 
ATOM     83  H   UNL A   1      39.663  26.688  28.987  1.00  0.00     0.065 H 
ATOM     84  C   UNL A   1      42.348  26.496  28.057  1.00  0.00     0.037 A 
ATOM     85  C   UNL A   1      46.524  31.482  28.522  1.00  0.00     0.049 A 
ATOM     86  C   UNL A   1      43.793  26.669  27.678  1.00  0.00     0.074 A 
ATOM     87  C   UNL A   1      47.878  31.488  28.229  1.00  0.00    -0.036 A 
ATOM     88  N   UNL A   1      46.054  30.217  28.206  1.00  0.00    -0.354 N 
ATOM     89  N   UNL A   1      44.569  27.715  27.832  1.00  0.00    -0.248 NA
ATOM     90  C   UNL A   1      44.454  25.519  27.045  1.00  0.00    -0.034 C 
ATOM     91  C   UNL A   1      48.214  30.244  27.687  1.00  0.00    -0.036 A 
ATOM     92  H   UNL A   1      48.527  32.275  28.384  1.00  0.00     0.065 H 
ATOM     93  C   UNL A   1      47.082  29.444  27.688  1.00  0.00     0.049 A 
ATOM     94  H   UNL A   1      45.126  29.911  28.330  1.00  0.00     0.167 HD
ATOM     95  C   UNL A   1      45.810  27.345  27.332  1.00  0.00     0.074 A 
ATOM     96  C   UNL A   1      45.690  25.971  26.890  1.00  0.00    -0.034 C 
ATOM     97  H   UNL A   1      44.059  24.601  26.787  1.00  0.00     0.065 H 
ATOM     98  H   UNL A   1      49.147  29.967  27.343  1.00  0.00     0.065 H 
ATOM     99  C   UNL A   1      46.945  28.081  27.243  1.00  0.00     0.037 A 
ATOM    100  H   UNL A   1      46.469  25.415  26.503  1.00  0.00     0.065 H 
BRANCH  81 101
ATOM    101  C   UNL A   1      46.359  33.893  29.242  1.00  0.00     0.064 A 
ATOM    102  C   UNL A   1      46.365  34.862  28.227  1.00  0.00     0.173 A 
ATOM    103  C   UNL A   1      46.930  34.235  30.478  1.00  0.00     0.173 A 
ATOM    104  F   UNL A   1      45.838  34.583  27.025  1.00  0.00    -0.203 F 
ATOM    105  C   UNL A   1      46.941  36.113  28.434  1.00  0.00     0.198 A 
ATOM    106  C   UNL A   1      47.480  35.496  30.690  1.00  0.00     0.198 A 
ATOM    107  F   UNL A   1      46.943  33.348  31.485  1.00  0.00    -0.203 F 
ATOM    108  F   UNL A   1      46.972  37.007  27.436  1.00  0.00    -0.200 F 
ATOM    109  C   UNL A   1      47.491  36.432  29.666  1.00  0.00     0.200 A 
ATOM    110  F   UNL A   1      47.999  35.808  31.886  1.00  0.00    -0.200 F 
ATOM    111  F   UNL A   1      48.035  37.640  29.866  1.00  0.00    -0.200 F 
ENDBRANCH  81 101
BRANCH  84 112
ATOM    112  C   UNL A   1      41.641  25.215  27.800  1.00  0.00     0.064 A 
ATOM    113  C   UNL A   1      41.941  24.066  28.544  1.00  0.00     0.173 A 
ATOM    114  C   UNL A   1      40.654  25.112  26.809  1.00  0.00     0.173 A 
ATOM    115  F   UNL A   1      42.893  24.110  29.487  1.00  0.00    -0.203 F 
ATOM    116  C   UNL A   1      41.295  22.857  28.294  1.00  0.00     0.198 A 
ATOM    117  C   UNL A   1      39.987  23.911  26.579  1.00  0.00     0.198 A 
ATOM    118  F   UNL A   1      40.326  26.184  26.073  1.00  0.00    -0.203 F 
ATOM    119  F   UNL A   1      41.632  21.763  28.990  1.00  0.00    -0.200 F 
ATOM    120  C   UNL A   1      40.314  22.782  27.317  1.00  0.00     0.200 A 
ATOM    121  F   UNL A   1      39.030  23.846  25.644  1.00  0.00    -0.200 F 
ATOM    122  F   UNL A   1      39.688  21.621  27.081  1.00  0.00    -0.200 F 
ENDBRANCH  84 112
BRANCH  99 123
ATOM    123  C   UNL A   1      48.150  27.409  26.653  1.00  0.00     0.064 A 
ATOM    124  C   UNL A   1      49.101  26.769  27.461  1.00  0.00     0.173 A 
ATOM    125  C   UNL A   1      48.340  27.375  25.264  1.00  0.00     0.173 A 
ATOM    126  F   UNL A   1      48.975  26.788  28.797  1.00  0.00    -0.203 F 
ATOM    127  C   UNL A   1      50.210  26.140  26.901  1.00  0.00     0.198 A 
ATOM    128  C   UNL A   1      49.433  26.719  24.705  1.00  0.00     0.198 A 
ATOM    129  F   UNL A   1      47.457  27.969  24.446  1.00  0.00    -0.203 F 
ATOM    130  F   UNL A   1      51.130  25.576  27.696  1.00  0.00    -0.200 F 
ATOM    131  C   UNL A   1      50.371  26.108  25.524  1.00  0.00     0.200 A 
ATOM    132  F   UNL A   1      49.582  26.681  23.373  1.00  0.00    -0.200 F 
ATOM    133  F   UNL A   1      51.436  25.498  24.986  1.00  0.00    -0.200 F 
ENDBRANCH  99 123
ENDBRANCH  64  67
ENDBRANCH  54  57
ENDBRANCH  50  53
ENDBRANCH  47  50
ENDBRANCH  44  47
ENDBRANCH   1  44
TORSDOF 17
ENDMDL
MODEL 9
REMARK VINA RESULT:      -9.4      6.952     10.413
REMARK SMILES C=Cc1cncc(-c2ccc([C@@H](C)C(=O)NCCCCCCNC(=O)c3ccc(-c4c5nc(c(-c6c(F)c(F)c(F)c(F)c6F)c6ccc([nH]6)c(-c6c(F)c(F)c(F)c(F)c6F)c6nc(c(-c7c(F)c(F)c(F)c(F)c7F)c7ccc4[nH]7)C=C6)C=C5)cc3)cc2)c1
REMARK SMILES IDX 19 1 18 4 17 7 16 10 14 11 15 12 12 14 11 16 8 17 9 18 90 19
REMARK SMILES IDX 10 20 89 22 7 26 3 27 4 28 91 29 5 30 6 33 2 35 1 36 13 40
REMARK SMILES IDX 20 44 21 47 22 50 23 53 24 54 25 56 26 57 27 58 88 59 28 60
REMARK SMILES IDX 87 62 29 64 30 67 31 68 81 69 32 70 86 71 80 72 82 73 33 74
REMARK SMILES IDX 85 75 79 77 78 79 34 81 66 84 46 85 65 86 47 87 50 88 64 89
REMARK SMILES IDX 83 90 48 91 49 93 63 95 84 96 51 99 35 101 36 102 44 103
REMARK SMILES IDX 37 104 38 105 42 106 45 107 39 108 40 109 43 110 41 111
REMARK SMILES IDX 67 112 68 113 76 114 69 115 70 116 74 117 77 118 71 119
REMARK SMILES IDX 72 120 75 121 73 122 52 123 53 124 61 125 54 126 55 127
REMARK SMILES IDX 59 128 62 129 56 130 57 131 60 132 58 133
REMARK H PARENT 19 2 19 3 18 5 18 6 17 8 17 9 16 13 12 15 9 21 90 23 10 24
REMARK H PARENT 89 25 4 31 91 32 6 34 1 37 1 38 2 39 13 41 13 42 13 43 20 45
REMARK H PARENT 20 46 21 48 21 49 22 51 22 52 23 55 27 61 88 63 28 65 87 66
REMARK H PARENT 86 76 80 78 82 80 85 82 79 83 47 92 50 94 83 97 48 98 84 100
REMARK Flexibility Score: inf
ROOT
ATOM      1  C   UNL A   1      47.344  38.500  25.954  1.00  0.00    -0.052 C 
ATOM      2  H   UNL A   1      47.503  38.717  24.917  1.00  0.00     0.027 H 
ATOM      3  H   UNL A   1      46.398  38.042  26.153  1.00  0.00     0.027 H 
ENDROOT
BRANCH   1   4
ATOM      4  C   UNL A   1      47.349  39.825  26.722  1.00  0.00    -0.036 C 
ATOM      5  H   UNL A   1      48.066  39.753  27.514  1.00  0.00     0.028 H 
ATOM      6  H   UNL A   1      47.592  40.593  26.018  1.00  0.00     0.028 H 
BRANCH   4   7
ATOM      7  C   UNL A   1      45.994  40.193  27.331  1.00  0.00     0.017 C 
ATOM      8  H   UNL A   1      46.103  40.280  28.393  1.00  0.00     0.049 H 
ATOM      9  H   UNL A   1      45.677  41.120  26.902  1.00  0.00     0.049 H 
BRANCH   7  10
ATOM     10  N   UNL A   1      44.988  39.194  27.044  1.00  0.00    -0.356 N 
ATOM     11  C   UNL A   1      43.637  39.281  26.914  1.00  0.00     0.227 C 
ATOM     12  O   UNL A   1      43.030  38.212  26.767  1.00  0.00    -0.274 OA
ATOM     13  H   UNL A   1      45.347  38.285  26.922  1.00  0.00     0.163 HD
BRANCH  11  14
ATOM     14  C   UNL A   1      42.861  40.606  26.918  1.00  0.00     0.060 C 
ATOM     15  H   UNL A   1      43.433  41.267  27.536  1.00  0.00     0.045 H 
BRANCH  14  16
ATOM     16  C   UNL A   1      42.852  41.320  25.573  1.00  0.00    -0.036 A 
ATOM     17  C   UNL A   1      42.941  42.612  23.021  1.00  0.00    -0.017 A 
ATOM     18  C   UNL A   1      41.769  42.010  23.504  1.00  0.00    -0.054 A 
ATOM     19  C   UNL A   1      44.069  42.563  23.854  1.00  0.00    -0.054 A 
ATOM     20  C   UNL A   1      41.716  41.406  24.766  1.00  0.00    -0.058 A 
ATOM     21  H   UNL A   1      40.923  42.012  22.913  1.00  0.00     0.063 H 
ATOM     22  C   UNL A   1      44.030  41.914  25.098  1.00  0.00    -0.058 A 
ATOM     23  H   UNL A   1      44.945  43.013  23.546  1.00  0.00     0.063 H 
ATOM     24  H   UNL A   1      40.822  41.019  25.105  1.00  0.00     0.063 H 
ATOM     25  H   UNL A   1      44.885  41.874  25.675  1.00  0.00     0.063 H 
BRANCH  17  26
ATOM     26  C   UNL A   1      42.965  43.272  21.698  1.00  0.00     0.001 A 
ATOM     27  C   UNL A   1      41.917  43.927  19.590  1.00  0.00    -0.007 A 
ATOM     28  C   UNL A   1      43.112  44.555  19.253  1.00  0.00     0.034 A 
ATOM     29  C   UNL A   1      41.859  43.278  20.830  1.00  0.00    -0.044 A 
ATOM     30  N   UNL A   1      44.205  44.583  20.045  1.00  0.00    -0.263 NA
ATOM     31  H   UNL A   1      43.167  45.029  18.339  1.00  0.00     0.085 H 
ATOM     32  H   UNL A   1      40.990  42.797  21.111  1.00  0.00     0.064 H 
ATOM     33  C   UNL A   1      44.103  43.939  21.232  1.00  0.00     0.035 A 
ATOM     34  H   UNL A   1      44.934  43.940  21.844  1.00  0.00     0.085 H 
BRANCH  27  35
ATOM     35  C   UNL A   1      40.810  43.916  18.629  1.00  0.00    -0.061 C 
ATOM     36  C   UNL A   1      40.832  44.547  17.449  1.00  0.00    -0.098 C 
ATOM     37  H   UNL A   1      40.015  44.496  16.821  1.00  0.00     0.054 H 
ATOM     38  H   UNL A   1      41.667  45.083  17.166  1.00  0.00     0.054 H 
ATOM     39  H   UNL A   1      39.959  43.389  18.879  1.00  0.00     0.062 H 
ENDBRANCH  27  35
ENDBRANCH  17  26
ENDBRANCH  14  16
BRANCH  14  40
ATOM     40  C   UNL A   1      41.518  40.540  27.646  1.00  0.00    -0.049 C 
ATOM     41  H   UNL A   1      41.200  41.531  27.897  1.00  0.00     0.024 H 
ATOM     42  H   UNL A   1      41.625  39.963  28.541  1.00  0.00     0.024 H 
ATOM     43  H   UNL A   1      40.789  40.083  27.011  1.00  0.00     0.024 H 
ENDBRANCH  14  40
ENDBRANCH  11  14
ENDBRANCH   7  10
ENDBRANCH   4   7
ENDBRANCH   1   4
BRANCH   1  44
ATOM     44  C   UNL A   1      48.410  37.487  26.395  1.00  0.00    -0.052 C 
ATOM     45  H   UNL A   1      49.108  37.373  25.593  1.00  0.00     0.027 H 
ATOM     46  H   UNL A   1      47.879  36.589  26.637  1.00  0.00     0.027 H 
BRANCH  44  47
ATOM     47  C   UNL A   1      49.195  37.862  27.657  1.00  0.00    -0.036 C 
ATOM     48  H   UNL A   1      49.068  38.910  27.829  1.00  0.00     0.028 H 
ATOM     49  H   UNL A   1      50.212  37.586  27.471  1.00  0.00     0.028 H 
BRANCH  47  50
ATOM     50  C   UNL A   1      48.771  37.117  28.920  1.00  0.00     0.018 C 
ATOM     51  H   UNL A   1      49.598  37.086  29.597  1.00  0.00     0.049 H 
ATOM     52  H   UNL A   1      48.466  36.131  28.637  1.00  0.00     0.049 H 
BRANCH  50  53
ATOM     53  N   UNL A   1      47.645  37.763  29.581  1.00  0.00    -0.352 N 
ATOM     54  C   UNL A   1      46.340  37.355  29.699  1.00  0.00     0.251 C 
ATOM     55  H   UNL A   1      47.854  38.624  30.009  1.00  0.00     0.163 HD
ATOM     56  O   UNL A   1      45.482  38.139  30.092  1.00  0.00    -0.269 OA
BRANCH  54  57
ATOM     57  C   UNL A   1      45.959  35.973  29.337  1.00  0.00     0.039 A 
ATOM     58  C   UNL A   1      46.202  34.942  30.248  1.00  0.00    -0.049 A 
ATOM     59  C   UNL A   1      45.377  35.694  28.097  1.00  0.00    -0.049 A 
ATOM     60  C   UNL A   1      45.785  33.643  29.951  1.00  0.00    -0.053 A 
ATOM     61  H   UNL A   1      46.689  35.141  31.136  1.00  0.00     0.063 H 
ATOM     62  C   UNL A   1      44.907  34.410  27.828  1.00  0.00    -0.053 A 
ATOM     63  H   UNL A   1      45.293  36.435  27.385  1.00  0.00     0.063 H 
ATOM     64  C   UNL A   1      45.092  33.377  28.759  1.00  0.00    -0.014 A 
ATOM     65  H   UNL A   1      45.987  32.875  30.611  1.00  0.00     0.063 H 
ATOM     66  H   UNL A   1      44.420  34.218  26.938  1.00  0.00     0.063 H 
BRANCH  64  67
ATOM     67  C   UNL A   1      44.501  32.041  28.496  1.00  0.00     0.031 A 
ATOM     68  C   UNL A   1      43.180  31.657  29.097  1.00  0.00     0.074 A 
ATOM     69  C   UNL A   1      45.205  31.143  27.781  1.00  0.00     0.049 A 
ATOM     70  N   UNL A   1      42.554  30.507  29.051  1.00  0.00    -0.248 NA
ATOM     71  C   UNL A   1      42.479  32.692  29.871  1.00  0.00    -0.034 C 
ATOM     72  C   UNL A   1      46.520  31.384  27.185  1.00  0.00    -0.036 A 
ATOM     73  N   UNL A   1      44.925  29.841  27.449  1.00  0.00    -0.354 N 
ATOM     74  C   UNL A   1      41.393  30.679  29.793  1.00  0.00     0.074 A 
ATOM     75  C   UNL A   1      41.421  32.028  30.316  1.00  0.00    -0.034 C 
ATOM     76  H   UNL A   1      42.741  33.679  30.026  1.00  0.00     0.065 H 
ATOM     77  C   UNL A   1      46.927  30.273  26.551  1.00  0.00    -0.036 A 
ATOM     78  H   UNL A   1      47.050  32.268  27.243  1.00  0.00     0.065 H 
ATOM     79  C   UNL A   1      45.923  29.230  26.731  1.00  0.00     0.049 A 
ATOM     80  H   UNL A   1      44.087  29.388  27.701  1.00  0.00     0.167 HD
ATOM     81  C   UNL A   1      40.389  29.794  30.002  1.00  0.00     0.037 A 
ATOM     82  H   UNL A   1      40.711  32.422  30.952  1.00  0.00     0.065 H 
ATOM     83  H   UNL A   1      47.807  30.174  26.021  1.00  0.00     0.065 H 
ATOM     84  C   UNL A   1      46.028  27.964  26.282  1.00  0.00     0.037 A 
ATOM     85  C   UNL A   1      40.360  28.457  29.467  1.00  0.00     0.049 A 
ATOM     86  C   UNL A   1      44.910  26.995  26.553  1.00  0.00     0.074 A 
ATOM     87  C   UNL A   1      39.353  27.510  29.563  1.00  0.00    -0.036 A 
ATOM     88  N   UNL A   1      41.388  27.872  28.744  1.00  0.00    -0.354 N 
ATOM     89  N   UNL A   1      43.782  27.192  27.192  1.00  0.00    -0.248 NA
ATOM     90  C   UNL A   1      45.080  25.629  26.041  1.00  0.00    -0.034 C 
ATOM     91  C   UNL A   1      39.794  26.337  28.944  1.00  0.00    -0.036 A 
ATOM     92  H   UNL A   1      38.435  27.648  30.015  1.00  0.00     0.065 H 
ATOM     93  C   UNL A   1      41.055  26.566  28.418  1.00  0.00     0.049 A 
ATOM     94  H   UNL A   1      42.231  28.318  28.500  1.00  0.00     0.167 HD
ATOM     95  C   UNL A   1      43.102  25.983  27.145  1.00  0.00     0.074 A 
ATOM     96  C   UNL A   1      43.934  25.064  26.395  1.00  0.00    -0.034 C 
ATOM     97  H   UNL A   1      45.881  25.216  25.538  1.00  0.00     0.065 H 
ATOM     98  H   UNL A   1      39.270  25.450  28.888  1.00  0.00     0.065 H 
ATOM     99  C   UNL A   1      41.898  25.661  27.679  1.00  0.00     0.037 A 
ATOM    100  H   UNL A   1      43.668  24.094  26.165  1.00  0.00     0.065 H 
BRANCH  81 101
ATOM    101  C   UNL A   1      39.232  30.241  30.847  1.00  0.00     0.064 A 
ATOM    102  C   UNL A   1      38.099  30.847  30.281  1.00  0.00     0.173 A 
ATOM    103  C   UNL A   1      39.230  30.015  32.232  1.00  0.00     0.173 A 
ATOM    104  F   UNL A   1      38.053  31.092  28.963  1.00  0.00    -0.203 F 
ATOM    105  C   UNL A   1      37.020  31.231  31.073  1.00  0.00     0.198 A 
ATOM    106  C   UNL A   1      38.139  30.376  33.017  1.00  0.00     0.198 A 
ATOM    107  F   UNL A   1      40.285  29.433  32.823  1.00  0.00    -0.203 F 
ATOM    108  F   UNL A   1      35.967  31.845  30.516  1.00  0.00    -0.200 F 
ATOM    109  C   UNL A   1      37.038  30.988  32.439  1.00  0.00     0.200 A 
ATOM    110  F   UNL A   1      38.151  30.128  34.334  1.00  0.00    -0.200 F 
ATOM    111  F   UNL A   1      35.994  31.349  33.198  1.00  0.00    -0.200 F 
ENDBRANCH  81 101
BRANCH  84 112
ATOM    112  C   UNL A   1      47.234  27.543  25.526  1.00  0.00     0.064 A 
ATOM    113  C   UNL A   1      48.327  26.959  26.181  1.00  0.00     0.173 A 
ATOM    114  C   UNL A   1      47.322  27.713  24.136  1.00  0.00     0.173 A 
ATOM    115  F   UNL A   1      48.299  26.795  27.512  1.00  0.00    -0.203 F 
ATOM    116  C   UNL A   1      49.469  26.578  25.479  1.00  0.00     0.198 A 
ATOM    117  C   UNL A   1      48.451  27.306  23.430  1.00  0.00     0.198 A 
ATOM    118  F   UNL A   1      46.301  28.262  23.461  1.00  0.00    -0.203 F 
ATOM    119  F   UNL A   1      50.516  26.063  26.136  1.00  0.00    -0.200 F 
ATOM    120  C   UNL A   1      49.527  26.746  24.104  1.00  0.00     0.200 A 
ATOM    121  F   UNL A   1      48.498  27.456  22.100  1.00  0.00    -0.200 F 
ATOM    122  F   UNL A   1      50.623  26.375  23.427  1.00  0.00    -0.200 F 
ENDBRANCH  84 112
BRANCH  99 123
ATOM    123  C   UNL A   1      41.406  24.260  27.462  1.00  0.00     0.064 A 
ATOM    124  C   UNL A   1      42.036  23.162  28.063  1.00  0.00     0.173 A 
ATOM    125  C   UNL A   1      40.273  24.016  26.671  1.00  0.00     0.173 A 
ATOM    126  F   UNL A   1      43.134  23.340  28.814  1.00  0.00    -0.203 F 
ATOM    127  C   UNL A   1      41.564  21.867  27.862  1.00  0.00     0.198 A 
ATOM    128  C   UNL A   1      39.786  22.724  26.496  1.00  0.00     0.198 A 
ATOM    129  F   UNL A   1      39.632  25.033  26.076  1.00  0.00    -0.203 F 
ATOM    130  F   UNL A   1      42.211  20.828  28.408  1.00  0.00    -0.200 F 
ATOM    131  C   UNL A   1      40.436  21.650  27.086  1.00  0.00     0.200 A 
ATOM    132  F   UNL A   1      38.689  22.517  25.754  1.00  0.00    -0.200 F 
ATOM    133  F   UNL A   1      39.979  20.404  26.898  1.00  0.00    -0.200 F 
ENDBRANCH  99 123
ENDBRANCH  64  67
ENDBRANCH  54  57
ENDBRANCH  50  53
ENDBRANCH  47  50
ENDBRANCH  44  47
ENDBRANCH   1  44
TORSDOF 17
ENDMDL
MODEL 10
REMARK VINA RESULT:      -9.3      1.902      4.999
REMARK SMILES C=Cc1cncc(-c2ccc([C@@H](C)C(=O)NCCCCCCNC(=O)c3ccc(-c4c5nc(c(-c6c(F)c(F)c(F)c(F)c6F)c6ccc([nH]6)c(-c6c(F)c(F)c(F)c(F)c6F)c6nc(c(-c7c(F)c(F)c(F)c(F)c7F)c7ccc4[nH]7)C=C6)C=C5)cc3)cc2)c1
REMARK SMILES IDX 19 1 18 4 17 7 16 10 14 11 15 12 12 14 11 16 8 17 9 18 90 19
REMARK SMILES IDX 10 20 89 22 7 26 3 27 4 28 91 29 5 30 6 33 2 35 1 36 13 40
REMARK SMILES IDX 20 44 21 47 22 50 23 53 24 54 25 56 26 57 27 58 88 59 28 60
REMARK SMILES IDX 87 62 29 64 30 67 31 68 81 69 32 70 86 71 80 72 82 73 33 74
REMARK SMILES IDX 85 75 79 77 78 79 34 81 66 84 46 85 65 86 47 87 50 88 64 89
REMARK SMILES IDX 83 90 48 91 49 93 63 95 84 96 51 99 35 101 36 102 44 103
REMARK SMILES IDX 37 104 38 105 42 106 45 107 39 108 40 109 43 110 41 111
REMARK SMILES IDX 67 112 68 113 76 114 69 115 70 116 74 117 77 118 71 119
REMARK SMILES IDX 72 120 75 121 73 122 52 123 53 124 61 125 54 126 55 127
REMARK SMILES IDX 59 128 62 129 56 130 57 131 60 132 58 133
REMARK H PARENT 19 2 19 3 18 5 18 6 17 8 17 9 16 13 12 15 9 21 90 23 10 24
REMARK H PARENT 89 25 4 31 91 32 6 34 1 37 1 38 2 39 13 41 13 42 13 43 20 45
REMARK H PARENT 20 46 21 48 21 49 22 51 22 52 23 55 27 61 88 63 28 65 87 66
REMARK H PARENT 86 76 80 78 82 80 85 82 79 83 47 92 50 94 83 97 48 98 84 100
REMARK Flexibility Score: inf
ROOT
ATOM      1  C   UNL A   1      37.294  33.095  29.466  1.00  0.00    -0.052 C 
ATOM      2  H   UNL A   1      37.956  32.265  29.326  1.00  0.00     0.027 H 
ATOM      3  H   UNL A   1      37.801  34.024  29.618  1.00  0.00     0.027 H 
ENDROOT
BRANCH   1   4
ATOM      4  C   UNL A   1      36.478  32.841  30.738  1.00  0.00    -0.036 C 
ATOM      5  H   UNL A   1      35.486  32.557  30.451  1.00  0.00     0.028 H 
ATOM      6  H   UNL A   1      36.983  32.071  31.283  1.00  0.00     0.028 H 
BRANCH   4   7
ATOM      7  C   UNL A   1      36.383  34.054  31.667  1.00  0.00     0.017 C 
ATOM      8  H   UNL A   1      35.989  34.882  31.115  1.00  0.00     0.049 H 
ATOM      9  H   UNL A   1      35.742  33.798  32.484  1.00  0.00     0.049 H 
BRANCH   7  10
ATOM     10  N   UNL A   1      37.676  34.420  32.203  1.00  0.00    -0.356 N 
ATOM     11  C   UNL A   1      38.381  33.948  33.267  1.00  0.00     0.227 C 
ATOM     12  O   UNL A   1      39.429  34.547  33.538  1.00  0.00    -0.274 OA
ATOM     13  H   UNL A   1      38.126  35.143  31.710  1.00  0.00     0.163 HD
BRANCH  11  14
ATOM     14  C   UNL A   1      37.957  32.731  34.102  1.00  0.00     0.060 C 
ATOM     15  H   UNL A   1      37.099  32.331  33.603  1.00  0.00     0.045 H 
BRANCH  14  16
ATOM     16  C   UNL A   1      38.947  31.576  34.056  1.00  0.00    -0.036 A 
ATOM     17  C   UNL A   1      40.817  29.409  34.089  1.00  0.00    -0.017 A 
ATOM     18  C   UNL A   1      39.672  29.385  33.279  1.00  0.00    -0.054 A 
ATOM     19  C   UNL A   1      41.013  30.554  34.876  1.00  0.00    -0.054 A 
ATOM     20  C   UNL A   1      38.773  30.458  33.238  1.00  0.00    -0.058 A 
ATOM     21  H   UNL A   1      39.485  28.553  32.697  1.00  0.00     0.063 H 
ATOM     22  C   UNL A   1      40.086  31.609  34.873  1.00  0.00    -0.058 A 
ATOM     23  H   UNL A   1      41.854  30.622  35.469  1.00  0.00     0.063 H 
ATOM     24  H   UNL A   1      37.970  30.422  32.592  1.00  0.00     0.063 H 
ATOM     25  H   UNL A   1      40.248  32.425  35.484  1.00  0.00     0.063 H 
BRANCH  17  26
ATOM     26  C   UNL A   1      41.768  28.277  34.092  1.00  0.00     0.001 A 
ATOM     27  C   UNL A   1      42.445  26.024  34.753  1.00  0.00    -0.007 A 
ATOM     28  C   UNL A   1      43.609  26.215  34.014  1.00  0.00     0.034 A 
ATOM     29  C   UNL A   1      41.524  27.079  34.786  1.00  0.00    -0.044 A 
ATOM     30  N   UNL A   1      43.897  27.341  33.327  1.00  0.00    -0.263 NA
ATOM     31  H   UNL A   1      44.296  25.447  33.989  1.00  0.00     0.085 H 
ATOM     32  H   UNL A   1      40.652  26.975  35.329  1.00  0.00     0.064 H 
ATOM     33  C   UNL A   1      42.978  28.334  33.392  1.00  0.00     0.035 A 
ATOM     34  H   UNL A   1      43.188  29.208  32.883  1.00  0.00     0.085 H 
BRANCH  27  35
ATOM     35  C   UNL A   1      42.261  24.778  35.502  1.00  0.00    -0.061 C 
ATOM     36  C   UNL A   1      41.184  24.500  36.247  1.00  0.00    -0.098 C 
ATOM     37  H   UNL A   1      41.121  23.601  36.748  1.00  0.00     0.054 H 
ATOM     38  H   UNL A   1      40.417  25.186  36.320  1.00  0.00     0.054 H 
ATOM     39  H   UNL A   1      43.009  24.068  35.452  1.00  0.00     0.062 H 
ENDBRANCH  27  35
ENDBRANCH  17  26
ENDBRANCH  14  16
BRANCH  14  40
ATOM     40  C   UNL A   1      37.409  33.084  35.486  1.00  0.00    -0.049 C 
ATOM     41  H   UNL A   1      37.605  34.116  35.694  1.00  0.00     0.024 H 
ATOM     42  H   UNL A   1      37.886  32.475  36.225  1.00  0.00     0.024 H 
ATOM     43  H   UNL A   1      36.354  32.911  35.506  1.00  0.00     0.024 H 
ENDBRANCH  14  40
ENDBRANCH  11  14
ENDBRANCH   7  10
ENDBRANCH   4   7
ENDBRANCH   1   4
BRANCH   1  44
ATOM     44  C   UNL A   1      36.465  33.264  28.185  1.00  0.00    -0.052 C 
ATOM     45  H   UNL A   1      36.742  32.483  27.509  1.00  0.00     0.027 H 
ATOM     46  H   UNL A   1      36.685  34.247  27.822  1.00  0.00     0.027 H 
BRANCH  44  47
ATOM     47  C   UNL A   1      34.945  33.214  28.369  1.00  0.00    -0.036 C 
ATOM     48  H   UNL A   1      34.494  33.152  27.401  1.00  0.00     0.028 H 
ATOM     49  H   UNL A   1      34.678  34.102  28.903  1.00  0.00     0.028 H 
BRANCH  47  50
ATOM     50  C   UNL A   1      34.439  32.040  29.204  1.00  0.00     0.018 C 
ATOM     51  H   UNL A   1      33.604  32.365  29.788  1.00  0.00     0.049 H 
ATOM     52  H   UNL A   1      35.242  31.708  29.830  1.00  0.00     0.049 H 
BRANCH  50  53
ATOM     53  N   UNL A   1      34.025  30.919  28.373  1.00  0.00    -0.352 N 
ATOM     54  C   UNL A   1      34.775  29.931  27.787  1.00  0.00     0.251 C 
ATOM     55  H   UNL A   1      33.056  30.861  28.207  1.00  0.00     0.163 HD
ATOM     56  O   UNL A   1      34.279  29.204  26.932  1.00  0.00    -0.269 OA
BRANCH  54  57
ATOM     57  C   UNL A   1      36.192  29.749  28.169  1.00  0.00     0.039 A 
ATOM     58  C   UNL A   1      36.495  29.331  29.467  1.00  0.00    -0.049 A 
ATOM     59  C   UNL A   1      37.218  30.006  27.255  1.00  0.00    -0.049 A 
ATOM     60  C   UNL A   1      37.823  29.087  29.824  1.00  0.00    -0.053 A 
ATOM     61  H   UNL A   1      35.740  29.202  30.159  1.00  0.00     0.063 H 
ATOM     62  C   UNL A   1      38.536  29.705  27.593  1.00  0.00    -0.053 A 
ATOM     63  H   UNL A   1      37.000  30.415  26.333  1.00  0.00     0.063 H 
ATOM     64  C   UNL A   1      38.848  29.228  28.875  1.00  0.00    -0.014 A 
ATOM     65  H   UNL A   1      38.051  28.803  30.790  1.00  0.00     0.063 H 
ATOM     66  H   UNL A   1      39.286  29.835  26.897  1.00  0.00     0.063 H 
BRANCH  64  67
ATOM     67  C   UNL A   1      40.242  28.823  29.184  1.00  0.00     0.031 A 
ATOM     68  C   UNL A   1      41.178  29.768  29.880  1.00  0.00     0.074 A 
ATOM     69  C   UNL A   1      40.685  27.625  28.756  1.00  0.00     0.049 A 
ATOM     70  N   UNL A   1      42.451  29.620  30.151  1.00  0.00    -0.248 NA
ATOM     71  C   UNL A   1      40.618  31.059  30.308  1.00  0.00    -0.034 C 
ATOM     72  C   UNL A   1      39.882  26.640  28.030  1.00  0.00    -0.036 A 
ATOM     73  N   UNL A   1      41.922  27.039  28.852  1.00  0.00    -0.354 N 
ATOM     74  C   UNL A   1      42.844  30.798  30.773  1.00  0.00     0.074 A 
ATOM     75  C   UNL A   1      41.688  31.668  30.800  1.00  0.00    -0.034 C 
ATOM     76  H   UNL A   1      39.646  31.400  30.244  1.00  0.00     0.065 H 
ATOM     77  C   UNL A   1      40.643  25.568  27.756  1.00  0.00    -0.036 A 
ATOM     78  H   UNL A   1      38.890  26.751  27.770  1.00  0.00     0.065 H 
ATOM     79  C   UNL A   1      41.995  25.807  28.249  1.00  0.00     0.049 A 
ATOM     80  H   UNL A   1      42.686  27.462  29.309  1.00  0.00     0.167 HD
ATOM     81  C   UNL A   1      44.057  31.114  31.289  1.00  0.00     0.037 A 
ATOM     82  H   UNL A   1      41.695  32.637  31.154  1.00  0.00     0.065 H 
ATOM     83  H   UNL A   1      40.323  24.713  27.275  1.00  0.00     0.065 H 
ATOM     84  C   UNL A   1      43.039  24.971  28.094  1.00  0.00     0.037 A 
ATOM     85  C   UNL A   1      45.200  30.238  31.271  1.00  0.00     0.049 A 
ATOM     86  C   UNL A   1      44.380  25.359  28.653  1.00  0.00     0.074 A 
ATOM     87  C   UNL A   1      46.450  30.439  31.832  1.00  0.00    -0.036 A 
ATOM     88  N   UNL A   1      45.236  28.998  30.653  1.00  0.00    -0.354 N 
ATOM     89  N   UNL A   1      44.721  26.444  29.305  1.00  0.00    -0.248 NA
ATOM     90  C   UNL A   1      45.482  24.407  28.452  1.00  0.00    -0.034 C 
ATOM     91  C   UNL A   1      47.257  29.345  31.509  1.00  0.00    -0.036 A 
ATOM     92  H   UNL A   1      46.737  31.257  32.394  1.00  0.00     0.065 H 
ATOM     93  C   UNL A   1      46.497  28.438  30.788  1.00  0.00     0.049 A 
ATOM     94  H   UNL A   1      44.479  28.577  30.185  1.00  0.00     0.167 HD
ATOM     95  C   UNL A   1      46.068  26.299  29.608  1.00  0.00     0.074 A 
ATOM     96  C   UNL A   1      46.477  25.011  29.086  1.00  0.00    -0.034 C 
ATOM     97  H   UNL A   1      45.481  23.506  27.949  1.00  0.00     0.065 H 
ATOM     98  H   UNL A   1      48.251  29.231  31.762  1.00  0.00     0.065 H 
ATOM     99  C   UNL A   1      46.892  27.158  30.256  1.00  0.00     0.037 A 
ATOM    100  H   UNL A   1      47.423  24.613  29.196  1.00  0.00     0.065 H 
BRANCH  81 101
ATOM    101  C   UNL A   1      44.213  32.467  31.919  1.00  0.00     0.064 A 
ATOM    102  C   UNL A   1      44.106  32.648  33.307  1.00  0.00     0.173 A 
ATOM    103  C   UNL A   1      44.528  33.587  31.135  1.00  0.00     0.173 A 
ATOM    104  F   UNL A   1      43.800  31.611  34.101  1.00  0.00    -0.203 F 
ATOM    105  C   UNL A   1      44.282  33.904  33.882  1.00  0.00     0.198 A 
ATOM    106  C   UNL A   1      44.730  34.836  31.716  1.00  0.00     0.198 A 
ATOM    107  F   UNL A   1      44.649  33.468  29.804  1.00  0.00    -0.203 F 
ATOM    108  F   UNL A   1      44.134  34.060  35.204  1.00  0.00    -0.200 F 
ATOM    109  C   UNL A   1      44.601  34.995  33.087  1.00  0.00     0.200 A 
ATOM    110  F   UNL A   1      45.052  35.887  30.949  1.00  0.00    -0.200 F 
ATOM    111  F   UNL A   1      44.781  36.201  33.644  1.00  0.00    -0.200 F 
ENDBRANCH  81 101
BRANCH  84 112
ATOM    112  C   UNL A   1      42.855  23.679  27.383  1.00  0.00     0.064 A 
ATOM    113  C   UNL A   1      43.242  23.534  26.044  1.00  0.00     0.173 A 
ATOM    114  C   UNL A   1      42.292  22.566  28.025  1.00  0.00     0.173 A 
ATOM    115  F   UNL A   1      43.766  24.576  25.383  1.00  0.00    -0.203 F 
ATOM    116  C   UNL A   1      43.055  22.330  25.367  1.00  0.00     0.198 A 
ATOM    117  C   UNL A   1      42.132  21.354  27.356  1.00  0.00     0.198 A 
ATOM    118  F   UNL A   1      41.911  22.652  29.308  1.00  0.00    -0.203 F 
ATOM    119  F   UNL A   1      43.393  22.232  24.074  1.00  0.00    -0.200 F 
ATOM    120  C   UNL A   1      42.506  21.240  26.026  1.00  0.00     0.200 A 
ATOM    121  F   UNL A   1      41.616  20.299  28.000  1.00  0.00    -0.200 F 
ATOM    122  F   UNL A   1      42.332  20.081  25.376  1.00  0.00    -0.200 F 
ENDBRANCH  84 112
BRANCH  99 123
ATOM    123  C   UNL A   1      48.317  26.727  30.444  1.00  0.00     0.064 A 
ATOM    124  C   UNL A   1      49.324  27.113  29.548  1.00  0.00     0.173 A 
ATOM    125  C   UNL A   1      48.686  25.947  31.550  1.00  0.00     0.173 A 
ATOM    126  F   UNL A   1      49.019  27.844  28.464  1.00  0.00    -0.203 F 
ATOM    127  C   UNL A   1      50.644  26.715  29.739  1.00  0.00     0.198 A 
ATOM    128  C   UNL A   1      50.012  25.576  31.755  1.00  0.00     0.198 A 
ATOM    129  F   UNL A   1      47.762  25.554  32.440  1.00  0.00    -0.203 F 
ATOM    130  F   UNL A   1      51.581  27.055  28.843  1.00  0.00    -0.200 F 
ATOM    131  C   UNL A   1      50.989  25.954  30.846  1.00  0.00     0.200 A 
ATOM    132  F   UNL A   1      50.345  24.849  32.831  1.00  0.00    -0.200 F 
ATOM    133  F   UNL A   1      52.261  25.576  31.031  1.00  0.00    -0.200 F 
ENDBRANCH  99 123
ENDBRANCH  64  67
ENDBRANCH  54  57
ENDBRANCH  50  53
ENDBRANCH  47  50
ENDBRANCH  44  47
ENDBRANCH   1  44
TORSDOF 17
ENDMDL
