MODEL 1
REMARK VINA RESULT:     -13.0      0.000      0.000
REMARK SMILES CS(=O)(=O)c1ccc(-n2nc(C(F)(F)F)cc2-c2ccc(CC(=O)NCCCCCCNC(=O)c3ccc(-c4c5nc(c(-c6c(F)c(F)c(F)c(F)c6F)c6ccc([nH]6)c(-c6c(F)c(F)c(F)c(F)c6F)c6nc(c(-c7c(F)c(F)c(F)c(F)c7F)c7ccc4[nH]7)C=C6)C=C5)cc3)cc2)cc1
REMARK SMILES IDX 27 1 26 4 25 7 23 8 24 9 22 11 21 14 18 15 19 16 99 17 20 18
REMARK SMILES IDX 98 20 17 24 9 25 10 26 11 27 16 28 8 30 5 31 6 32 101 33
REMARK SMILES IDX 7 34 100 36 2 40 3 41 4 42 1 43 12 47 13 48 14 49 15 50
REMARK SMILES IDX 28 51 29 54 30 57 31 60 32 63 33 64 34 66 35 67 36 68 97 69
REMARK SMILES IDX 37 70 96 72 38 74 39 77 40 78 90 79 41 80 95 81 89 82 91 83
REMARK SMILES IDX 42 84 94 85 88 87 87 89 43 91 75 94 55 95 74 96 56 97 59 98
REMARK SMILES IDX 73 99 92 100 57 101 58 103 72 105 93 106 60 109 44 111
REMARK SMILES IDX 45 112 53 113 46 114 47 115 51 116 54 117 48 118 49 119
REMARK SMILES IDX 52 120 50 121 76 122 77 123 85 124 78 125 79 126 83 127
REMARK SMILES IDX 86 128 80 129 81 130 84 131 82 132 61 133 62 134 70 135
REMARK SMILES IDX 63 136 64 137 68 138 71 139 65 140 66 141 69 142 67 143
REMARK H PARENT 27 2 27 3 26 5 26 6 25 10 22 12 22 13 19 19 99 21 20 22 98 23
REMARK H PARENT 16 29 6 35 101 37 7 38 100 39 1 44 1 45 1 46 28 52 28 53 29 55
REMARK H PARENT 29 56 30 58 30 59 31 61 31 62 32 65 36 71 97 73 37 75 96 76
REMARK H PARENT 95 86 89 88 91 90 94 92 88 93 56 102 59 104 92 107 57 108
REMARK H PARENT 93 110
REMARK Flexibility Score: inf
ROOT
ATOM      1  C   UNL A   1      33.945  20.096  24.821  1.00  0.00    -0.036 C 
ATOM      2  H   UNL A   1      34.435  19.622  23.997  1.00  0.00     0.028 H 
ATOM      3  H   UNL A   1      33.677  19.403  25.592  1.00  0.00     0.028 H 
ENDROOT
BRANCH   1   4
ATOM      4  C   UNL A   1      32.644  20.720  24.313  1.00  0.00     0.017 C 
ATOM      5  H   UNL A   1      32.874  21.614  23.771  1.00  0.00     0.049 H 
ATOM      6  H   UNL A   1      32.154  20.008  23.682  1.00  0.00     0.049 H 
BRANCH   4   7
ATOM      7  N   UNL A   1      31.751  21.048  25.406  1.00  0.00    -0.356 N 
ATOM      8  C   UNL A   1      31.083  22.212  25.656  1.00  0.00     0.224 C 
ATOM      9  O   UNL A   1      30.437  22.307  26.701  1.00  0.00    -0.275 OA
ATOM     10  H   UNL A   1      31.604  20.328  26.062  1.00  0.00     0.163 HD
BRANCH   8  11
ATOM     11  C   UNL A   1      31.105  23.338  24.636  1.00  0.00     0.052 C 
ATOM     12  H   UNL A   1      31.684  23.018  23.794  1.00  0.00     0.042 H 
ATOM     13  H   UNL A   1      30.087  23.545  24.381  1.00  0.00     0.042 H 
BRANCH  11  14
ATOM     14  C   UNL A   1      31.696  24.624  25.158  1.00  0.00    -0.039 A 
ATOM     15  C   UNL A   1      32.718  27.091  26.013  1.00  0.00     0.000 A 
ATOM     16  C   UNL A   1      33.465  26.271  25.158  1.00  0.00    -0.053 A 
ATOM     17  C   UNL A   1      31.483  26.646  26.486  1.00  0.00    -0.053 A 
ATOM     18  C   UNL A   1      32.955  25.051  24.723  1.00  0.00    -0.058 A 
ATOM     19  H   UNL A   1      34.401  26.575  24.846  1.00  0.00     0.063 H 
ATOM     20  C   UNL A   1      30.984  25.412  26.074  1.00  0.00    -0.058 A 
ATOM     21  H   UNL A   1      30.941  27.230  27.141  1.00  0.00     0.063 H 
ATOM     22  H   UNL A   1      33.506  24.460  24.081  1.00  0.00     0.063 H 
ATOM     23  H   UNL A   1      30.081  25.076  26.444  1.00  0.00     0.063 H 
BRANCH  15  24
ATOM     24  C   UNL A   1      33.234  28.383  26.436  1.00  0.00     0.075 A 
ATOM     25  N   UNL A   1      32.778  29.609  25.985  1.00  0.00    -0.233 N 
ATOM     26  N   UNL A   1      33.522  30.643  26.455  1.00  0.00    -0.163 NA
ATOM     27  C   UNL A   1      34.455  30.070  27.242  1.00  0.00     0.167 A 
ATOM     28  C   UNL A   1      34.295  28.663  27.272  1.00  0.00    -0.003 A 
ATOM     29  H   UNL A   1      34.857  27.986  27.810  1.00  0.00     0.067 H 
BRANCH  25  30
ATOM     30  C   UNL A   1      31.686  29.843  25.118  1.00  0.00     0.065 A 
ATOM     31  C   UNL A   1      29.538  30.362  23.429  1.00  0.00     0.067 A 
ATOM     32  C   UNL A   1      30.342  29.235  23.209  1.00  0.00    -0.041 A 
ATOM     33  C   UNL A   1      29.824  31.246  24.471  1.00  0.00    -0.041 A 
ATOM     34  C   UNL A   1      31.424  28.969  24.058  1.00  0.00    -0.035 A 
ATOM     35  H   UNL A   1      30.136  28.600  22.421  1.00  0.00     0.064 H 
ATOM     36  C   UNL A   1      30.912  30.992  25.307  1.00  0.00    -0.035 A 
ATOM     37  H   UNL A   1      29.235  32.079  24.624  1.00  0.00     0.064 H 
ATOM     38  H   UNL A   1      32.019  28.141  23.903  1.00  0.00     0.065 H 
ATOM     39  H   UNL A   1      31.146  31.652  26.064  1.00  0.00     0.065 H 
BRANCH  31  40
ATOM     40  S   UNL A   1      28.217  30.755  22.300  1.00  0.00     0.175 S 
ATOM     41  O   UNL A   1      26.982  30.358  22.967  1.00  0.00    -0.224 OA
ATOM     42  O   UNL A   1      28.571  30.238  21.002  1.00  0.00    -0.224 OA
BRANCH  40  43
ATOM     43  C   UNL A   1      28.209  32.513  22.176  1.00  0.00     0.043 C 
ATOM     44  H   UNL A   1      29.215  32.874  22.144  1.00  0.00     0.040 H 
ATOM     45  H   UNL A   1      27.707  32.929  23.025  1.00  0.00     0.040 H 
ATOM     46  H   UNL A   1      27.697  32.805  21.282  1.00  0.00     0.040 H 
ENDBRANCH  40  43
ENDBRANCH  31  40
ENDBRANCH  25  30
BRANCH  27  47
ATOM     47  C   UNL A   1      35.525  30.846  27.965  1.00  0.00     0.435 C 
ATOM     48  F   UNL A   1      35.385  30.796  29.316  1.00  0.00    -0.164 F 
ATOM     49  F   UNL A   1      36.774  30.392  27.678  1.00  0.00    -0.164 F 
ATOM     50  F   UNL A   1      35.509  32.165  27.624  1.00  0.00    -0.164 F 
ENDBRANCH  27  47
ENDBRANCH  15  24
ENDBRANCH  11  14
ENDBRANCH   8  11
ENDBRANCH   4   7
ENDBRANCH   1   4
BRANCH   1  51
ATOM     51  C   UNL A   1      34.916  21.105  25.447  1.00  0.00    -0.052 C 
ATOM     52  H   UNL A   1      35.769  20.565  25.801  1.00  0.00     0.027 H 
ATOM     53  H   UNL A   1      34.366  21.601  26.219  1.00  0.00     0.027 H 
BRANCH  51  54
ATOM     54  C   UNL A   1      35.416  22.216  24.509  1.00  0.00    -0.052 C 
ATOM     55  H   UNL A   1      34.603  22.500  23.876  1.00  0.00     0.027 H 
ATOM     56  H   UNL A   1      36.253  21.796  23.991  1.00  0.00     0.027 H 
BRANCH  54  57
ATOM     57  C   UNL A   1      35.950  23.487  25.186  1.00  0.00    -0.036 C 
ATOM     58  H   UNL A   1      35.627  23.489  26.206  1.00  0.00     0.028 H 
ATOM     59  H   UNL A   1      35.564  24.320  24.635  1.00  0.00     0.028 H 
BRANCH  57  60
ATOM     60  C   UNL A   1      37.465  23.605  25.161  1.00  0.00     0.018 C 
ATOM     61  H   UNL A   1      37.757  24.406  25.808  1.00  0.00     0.049 H 
ATOM     62  H   UNL A   1      37.761  23.790  24.150  1.00  0.00     0.049 H 
BRANCH  60  63
ATOM     63  N   UNL A   1      38.131  22.378  25.604  1.00  0.00    -0.352 N 
ATOM     64  C   UNL A   1      39.324  22.237  26.287  1.00  0.00     0.251 C 
ATOM     65  H   UNL A   1      37.665  21.539  25.384  1.00  0.00     0.163 HD
ATOM     66  O   UNL A   1      39.953  21.187  26.254  1.00  0.00    -0.269 OA
BRANCH  64  67
ATOM     67  C   UNL A   1      39.817  23.370  27.089  1.00  0.00     0.039 A 
ATOM     68  C   UNL A   1      41.070  23.360  27.713  1.00  0.00    -0.049 A 
ATOM     69  C   UNL A   1      38.979  24.474  27.205  1.00  0.00    -0.049 A 
ATOM     70  C   UNL A   1      41.484  24.498  28.408  1.00  0.00    -0.053 A 
ATOM     71  H   UNL A   1      41.677  22.527  27.659  1.00  0.00     0.063 H 
ATOM     72  C   UNL A   1      39.469  25.649  27.697  1.00  0.00    -0.053 A 
ATOM     73  H   UNL A   1      37.990  24.404  26.921  1.00  0.00     0.063 H 
ATOM     74  C   UNL A   1      40.672  25.639  28.388  1.00  0.00    -0.014 A 
ATOM     75  H   UNL A   1      42.375  24.498  28.928  1.00  0.00     0.063 H 
ATOM     76  H   UNL A   1      38.955  26.532  27.554  1.00  0.00     0.063 H 
BRANCH  74  77
ATOM     77  C   UNL A   1      41.075  26.917  28.959  1.00  0.00     0.031 A 
ATOM     78  C   UNL A   1      42.235  27.532  28.274  1.00  0.00     0.074 A 
ATOM     79  C   UNL A   1      40.278  27.606  29.807  1.00  0.00     0.049 A 
ATOM     80  N   UNL A   1      43.409  27.738  28.769  1.00  0.00    -0.248 NA
ATOM     81  C   UNL A   1      42.141  27.800  26.829  1.00  0.00    -0.034 C 
ATOM     82  C   UNL A   1      38.967  27.224  30.332  1.00  0.00    -0.036 A 
ATOM     83  N   UNL A   1      40.426  28.864  30.303  1.00  0.00    -0.354 N 
ATOM     84  C   UNL A   1      44.126  28.385  27.769  1.00  0.00     0.074 A 
ATOM     85  C   UNL A   1      43.393  28.172  26.552  1.00  0.00    -0.034 C 
ATOM     86  H   UNL A   1      41.327  27.722  26.199  1.00  0.00     0.065 H 
ATOM     87  C   UNL A   1      38.341  28.307  30.853  1.00  0.00    -0.036 A 
ATOM     88  H   UNL A   1      38.576  26.270  30.309  1.00  0.00     0.065 H 
ATOM     89  C   UNL A   1      39.267  29.420  30.858  1.00  0.00     0.049 A 
ATOM     90  H   UNL A   1      41.282  29.349  30.275  1.00  0.00     0.167 HD
ATOM     91  C   UNL A   1      45.088  29.294  28.094  1.00  0.00     0.037 A 
ATOM     92  H   UNL A   1      43.778  28.288  25.601  1.00  0.00     0.065 H 
ATOM     93  H   UNL A   1      37.367  28.334  31.191  1.00  0.00     0.065 H 
ATOM     94  C   UNL A   1      39.104  30.701  31.286  1.00  0.00     0.037 A 
ATOM     95  C   UNL A   1      45.486  29.139  29.477  1.00  0.00     0.049 A 
ATOM     96  C   UNL A   1      40.468  31.253  31.475  1.00  0.00     0.074 A 
ATOM     97  C   UNL A   1      45.958  28.081  30.233  1.00  0.00    -0.036 A 
ATOM     98  N   UNL A   1      45.025  30.057  30.391  1.00  0.00    -0.354 N 
ATOM     99  N   UNL A   1      41.265  30.860  32.427  1.00  0.00    -0.248 NA
ATOM    100  C   UNL A   1      41.105  31.843  30.307  1.00  0.00    -0.034 C 
ATOM    101  C   UNL A   1      45.274  28.185  31.482  1.00  0.00    -0.036 A 
ATOM    102  H   UNL A   1      46.653  27.371  29.955  1.00  0.00     0.065 H 
ATOM    103  C   UNL A   1      44.517  29.354  31.454  1.00  0.00     0.049 A 
ATOM    104  H   UNL A   1      45.054  31.037  30.301  1.00  0.00     0.167 HD
ATOM    105  C   UNL A   1      42.497  30.736  31.810  1.00  0.00     0.074 A 
ATOM    106  C   UNL A   1      42.351  31.407  30.515  1.00  0.00    -0.034 C 
ATOM    107  H   UNL A   1      40.714  32.422  29.548  1.00  0.00     0.065 H 
ATOM    108  H   UNL A   1      45.331  27.515  32.265  1.00  0.00     0.065 H 
ATOM    109  C   UNL A   1      43.416  29.830  32.253  1.00  0.00     0.037 A 
ATOM    110  H   UNL A   1      43.122  31.529  29.841  1.00  0.00     0.065 H 
BRANCH  91 111
ATOM    111  C   UNL A   1      45.359  30.565  27.313  1.00  0.00     0.064 A 
ATOM    112  C   UNL A   1      46.697  30.896  27.015  1.00  0.00     0.173 A 
ATOM    113  C   UNL A   1      44.424  31.603  27.102  1.00  0.00     0.173 A 
ATOM    114  F   UNL A   1      47.677  29.995  27.178  1.00  0.00    -0.203 F 
ATOM    115  C   UNL A   1      47.076  32.188  26.641  1.00  0.00     0.198 A 
ATOM    116  C   UNL A   1      44.800  32.876  26.675  1.00  0.00     0.198 A 
ATOM    117  F   UNL A   1      43.127  31.483  27.395  1.00  0.00    -0.203 F 
ATOM    118  F   UNL A   1      48.376  32.485  26.508  1.00  0.00    -0.200 F 
ATOM    119  C   UNL A   1      46.129  33.179  26.480  1.00  0.00     0.200 A 
ATOM    120  F   UNL A   1      43.863  33.824  26.534  1.00  0.00    -0.200 F 
ATOM    121  F   UNL A   1      46.494  34.433  26.184  1.00  0.00    -0.200 F 
ENDBRANCH  91 111
BRANCH  94 122
ATOM    122  C   UNL A   1      37.922  31.599  31.315  1.00  0.00     0.064 A 
ATOM    123  C   UNL A   1      37.190  31.802  32.500  1.00  0.00     0.173 A 
ATOM    124  C   UNL A   1      37.694  32.522  30.283  1.00  0.00     0.173 A 
ATOM    125  F   UNL A   1      37.358  30.978  33.543  1.00  0.00    -0.203 F 
ATOM    126  C   UNL A   1      36.328  32.894  32.662  1.00  0.00     0.198 A 
ATOM    127  C   UNL A   1      36.829  33.610  30.450  1.00  0.00     0.198 A 
ATOM    128  F   UNL A   1      38.378  32.415  29.138  1.00  0.00    -0.203 F 
ATOM    129  F   UNL A   1      35.699  33.088  33.829  1.00  0.00    -0.200 F 
ATOM    130  C   UNL A   1      36.165  33.810  31.643  1.00  0.00     0.200 A 
ATOM    131  F   UNL A   1      36.658  34.511  29.477  1.00  0.00    -0.200 F 
ATOM    132  F   UNL A   1      35.394  34.894  31.810  1.00  0.00    -0.200 F 
ENDBRANCH  94 122
BRANCH 109 133
ATOM    133  C   UNL A   1      43.161  29.134  33.561  1.00  0.00     0.064 A 
ATOM    134  C   UNL A   1      42.346  27.998  33.719  1.00  0.00     0.173 A 
ATOM    135  C   UNL A   1      43.887  29.561  34.679  1.00  0.00     0.173 A 
ATOM    136  F   UNL A   1      41.697  27.460  32.678  1.00  0.00    -0.203 F 
ATOM    137  C   UNL A   1      42.231  27.353  34.952  1.00  0.00     0.198 A 
ATOM    138  C   UNL A   1      43.801  28.894  35.898  1.00  0.00     0.198 A 
ATOM    139  F   UNL A   1      44.721  30.607  34.577  1.00  0.00    -0.203 F 
ATOM    140  F   UNL A   1      41.439  26.278  35.079  1.00  0.00    -0.200 F 
ATOM    141  C   UNL A   1      42.965  27.799  36.038  1.00  0.00     0.200 A 
ATOM    142  F   UNL A   1      44.552  29.301  36.930  1.00  0.00    -0.200 F 
ATOM    143  F   UNL A   1      42.888  27.159  37.213  1.00  0.00    -0.200 F 
ENDBRANCH 109 133
ENDBRANCH  74  77
ENDBRANCH  64  67
ENDBRANCH  60  63
ENDBRANCH  57  60
ENDBRANCH  54  57
ENDBRANCH  51  54
ENDBRANCH   1  51
TORSDOF 19
ENDMDL
MODEL 2
REMARK VINA RESULT:     -12.3      4.061      9.057
REMARK SMILES CS(=O)(=O)c1ccc(-n2nc(C(F)(F)F)cc2-c2ccc(CC(=O)NCCCCCCNC(=O)c3ccc(-c4c5nc(c(-c6c(F)c(F)c(F)c(F)c6F)c6ccc([nH]6)c(-c6c(F)c(F)c(F)c(F)c6F)c6nc(c(-c7c(F)c(F)c(F)c(F)c7F)c7ccc4[nH]7)C=C6)C=C5)cc3)cc2)cc1
REMARK SMILES IDX 27 1 26 4 25 7 23 8 24 9 22 11 21 14 18 15 19 16 99 17 20 18
REMARK SMILES IDX 98 20 17 24 9 25 10 26 11 27 16 28 8 30 5 31 6 32 101 33
REMARK SMILES IDX 7 34 100 36 2 40 3 41 4 42 1 43 12 47 13 48 14 49 15 50
REMARK SMILES IDX 28 51 29 54 30 57 31 60 32 63 33 64 34 66 35 67 36 68 97 69
REMARK SMILES IDX 37 70 96 72 38 74 39 77 40 78 90 79 41 80 95 81 89 82 91 83
REMARK SMILES IDX 42 84 94 85 88 87 87 89 43 91 75 94 55 95 74 96 56 97 59 98
REMARK SMILES IDX 73 99 92 100 57 101 58 103 72 105 93 106 60 109 44 111
REMARK SMILES IDX 45 112 53 113 46 114 47 115 51 116 54 117 48 118 49 119
REMARK SMILES IDX 52 120 50 121 76 122 77 123 85 124 78 125 79 126 83 127
REMARK SMILES IDX 86 128 80 129 81 130 84 131 82 132 61 133 62 134 70 135
REMARK SMILES IDX 63 136 64 137 68 138 71 139 65 140 66 141 69 142 67 143
REMARK H PARENT 27 2 27 3 26 5 26 6 25 10 22 12 22 13 19 19 99 21 20 22 98 23
REMARK H PARENT 16 29 6 35 101 37 7 38 100 39 1 44 1 45 1 46 28 52 28 53 29 55
REMARK H PARENT 29 56 30 58 30 59 31 61 31 62 32 65 36 71 97 73 37 75 96 76
REMARK H PARENT 95 86 89 88 91 90 94 92 88 93 56 102 59 104 92 107 57 108
REMARK H PARENT 93 110
REMARK Flexibility Score: inf
ROOT
ATOM      1  C   UNL A   1      35.182  31.958  30.863  1.00  0.00    -0.036 C 
ATOM      2  H   UNL A   1      34.148  31.773  31.066  1.00  0.00     0.028 H 
ATOM      3  H   UNL A   1      35.623  32.633  31.566  1.00  0.00     0.028 H 
ENDROOT
BRANCH   1   4
ATOM      4  C   UNL A   1      35.293  32.615  29.485  1.00  0.00     0.017 C 
ATOM      5  H   UNL A   1      35.480  33.661  29.612  1.00  0.00     0.049 H 
ATOM      6  H   UNL A   1      36.095  32.146  28.953  1.00  0.00     0.049 H 
BRANCH   4   7
ATOM      7  N   UNL A   1      34.076  32.443  28.717  1.00  0.00    -0.356 N 
ATOM      8  C   UNL A   1      33.725  31.430  27.872  1.00  0.00     0.224 C 
ATOM      9  O   UNL A   1      32.668  31.525  27.246  1.00  0.00    -0.275 OA
ATOM     10  H   UNL A   1      33.407  33.157  28.821  1.00  0.00     0.163 HD
BRANCH   8  11
ATOM     11  C   UNL A   1      34.605  30.197  27.752  1.00  0.00     0.052 C 
ATOM     12  H   UNL A   1      35.572  30.505  27.409  1.00  0.00     0.042 H 
ATOM     13  H   UNL A   1      34.637  29.744  28.720  1.00  0.00     0.042 H 
BRANCH  11  14
ATOM     14  C   UNL A   1      34.073  29.156  26.798  1.00  0.00    -0.039 A 
ATOM     15  C   UNL A   1      33.200  27.127  25.072  1.00  0.00     0.000 A 
ATOM     16  C   UNL A   1      34.027  28.154  24.599  1.00  0.00    -0.053 A 
ATOM     17  C   UNL A   1      32.763  27.151  26.397  1.00  0.00    -0.053 A 
ATOM     18  C   UNL A   1      34.470  29.157  25.458  1.00  0.00    -0.058 A 
ATOM     19  H   UNL A   1      34.311  28.168  23.607  1.00  0.00     0.063 H 
ATOM     20  C   UNL A   1      33.184  28.169  27.250  1.00  0.00    -0.058 A 
ATOM     21  H   UNL A   1      32.130  26.415  26.744  1.00  0.00     0.063 H 
ATOM     22  H   UNL A   1      35.091  29.901  25.104  1.00  0.00     0.063 H 
ATOM     23  H   UNL A   1      32.840  28.197  28.222  1.00  0.00     0.063 H 
BRANCH  15  24
ATOM     24  C   UNL A   1      32.768  26.058  24.185  1.00  0.00     0.075 A 
ATOM     25  N   UNL A   1      31.638  26.093  23.387  1.00  0.00    -0.233 N 
ATOM     26  N   UNL A   1      31.413  24.912  22.757  1.00  0.00    -0.163 NA
ATOM     27  C   UNL A   1      32.433  24.115  23.138  1.00  0.00     0.167 A 
ATOM     28  C   UNL A   1      33.309  24.802  24.012  1.00  0.00    -0.003 A 
ATOM     29  H   UNL A   1      34.177  24.437  24.434  1.00  0.00     0.067 H 
BRANCH  25  30
ATOM     30  C   UNL A   1      30.756  27.183  23.211  1.00  0.00     0.065 A 
ATOM     31  C   UNL A   1      29.056  29.351  22.821  1.00  0.00     0.067 A 
ATOM     32  C   UNL A   1      28.568  28.179  23.416  1.00  0.00    -0.041 A 
ATOM     33  C   UNL A   1      30.383  29.430  22.394  1.00  0.00    -0.041 A 
ATOM     34  C   UNL A   1      29.420  27.086  23.615  1.00  0.00    -0.035 A 
ATOM     35  H   UNL A   1      27.579  28.123  23.707  1.00  0.00     0.064 H 
ATOM     36  C   UNL A   1      31.229  28.335  22.575  1.00  0.00    -0.035 A 
ATOM     37  H   UNL A   1      30.737  30.291  21.948  1.00  0.00     0.064 H 
ATOM     38  H   UNL A   1      29.068  26.221  24.053  1.00  0.00     0.065 H 
ATOM     39  H   UNL A   1      32.203  28.375  22.240  1.00  0.00     0.065 H 
BRANCH  31  40
ATOM     40  S   UNL A   1      27.957  30.711  22.482  1.00  0.00     0.175 S 
ATOM     41  O   UNL A   1      26.903  30.641  23.488  1.00  0.00    -0.224 OA
ATOM     42  O   UNL A   1      27.654  30.699  21.073  1.00  0.00    -0.224 OA
BRANCH  40  43
ATOM     43  C   UNL A   1      28.895  32.168  22.800  1.00  0.00     0.043 C 
ATOM     44  H   UNL A   1      29.475  32.033  23.688  1.00  0.00     0.040 H 
ATOM     45  H   UNL A   1      28.232  32.999  22.930  1.00  0.00     0.040 H 
ATOM     46  H   UNL A   1      29.548  32.360  21.974  1.00  0.00     0.040 H 
ENDBRANCH  40  43
ENDBRANCH  31  40
ENDBRANCH  25  30
BRANCH  27  47
ATOM     47  C   UNL A   1      32.582  22.683  22.692  1.00  0.00     0.435 C 
ATOM     48  F   UNL A   1      33.010  22.578  21.406  1.00  0.00    -0.164 F 
ATOM     49  F   UNL A   1      33.464  21.993  23.463  1.00  0.00    -0.164 F 
ATOM     50  F   UNL A   1      31.401  22.008  22.763  1.00  0.00    -0.164 F 
ENDBRANCH  27  47
ENDBRANCH  15  24
ENDBRANCH  11  14
ENDBRANCH   8  11
ENDBRANCH   4   7
ENDBRANCH   1   4
BRANCH   1  51
ATOM     51  C   UNL A   1      35.944  30.631  30.982  1.00  0.00    -0.052 C 
ATOM     52  H   UNL A   1      36.641  30.579  30.172  1.00  0.00     0.027 H 
ATOM     53  H   UNL A   1      35.198  29.863  30.962  1.00  0.00     0.027 H 
BRANCH  51  54
ATOM     54  C   UNL A   1      36.723  30.427  32.291  1.00  0.00    -0.052 C 
ATOM     55  H   UNL A   1      37.628  29.910  32.055  1.00  0.00     0.027 H 
ATOM     56  H   UNL A   1      36.061  29.886  32.936  1.00  0.00     0.027 H 
BRANCH  54  57
ATOM     57  C   UNL A   1      37.098  31.700  33.063  1.00  0.00    -0.036 C 
ATOM     58  H   UNL A   1      37.135  31.465  34.106  1.00  0.00     0.028 H 
ATOM     59  H   UNL A   1      36.353  32.434  32.837  1.00  0.00     0.028 H 
BRANCH  57  60
ATOM     60  C   UNL A   1      38.439  32.291  32.657  1.00  0.00     0.018 C 
ATOM     61  H   UNL A   1      39.136  31.491  32.514  1.00  0.00     0.049 H 
ATOM     62  H   UNL A   1      38.753  32.952  33.437  1.00  0.00     0.049 H 
BRANCH  60  63
ATOM     63  N   UNL A   1      38.357  33.069  31.419  1.00  0.00    -0.352 N 
ATOM     64  C   UNL A   1      39.246  33.113  30.362  1.00  0.00     0.251 C 
ATOM     65  H   UNL A   1      37.559  33.640  31.327  1.00  0.00     0.163 HD
ATOM     66  O   UNL A   1      39.269  34.065  29.592  1.00  0.00    -0.269 OA
BRANCH  64  67
ATOM     67  C   UNL A   1      40.157  31.973  30.156  1.00  0.00     0.039 A 
ATOM     68  C   UNL A   1      41.545  32.087  30.291  1.00  0.00    -0.049 A 
ATOM     69  C   UNL A   1      39.577  30.755  29.819  1.00  0.00    -0.049 A 
ATOM     70  C   UNL A   1      42.331  30.945  30.133  1.00  0.00    -0.053 A 
ATOM     71  H   UNL A   1      41.979  32.998  30.504  1.00  0.00     0.063 H 
ATOM     72  C   UNL A   1      40.319  29.611  29.878  1.00  0.00    -0.053 A 
ATOM     73  H   UNL A   1      38.588  30.716  29.526  1.00  0.00     0.063 H 
ATOM     74  C   UNL A   1      41.702  29.709  29.929  1.00  0.00    -0.014 A 
ATOM     75  H   UNL A   1      43.361  31.009  30.166  1.00  0.00     0.063 H 
ATOM     76  H   UNL A   1      39.859  28.687  29.886  1.00  0.00     0.063 H 
BRANCH  74  77
ATOM     77  C   UNL A   1      42.421  28.443  29.895  1.00  0.00     0.031 A 
ATOM     78  C   UNL A   1      42.907  28.002  31.222  1.00  0.00     0.074 A 
ATOM     79  C   UNL A   1      42.362  27.615  28.826  1.00  0.00     0.049 A 
ATOM     80  N   UNL A   1      44.136  27.883  31.597  1.00  0.00    -0.248 NA
ATOM     81  C   UNL A   1      41.932  27.829  32.312  1.00  0.00    -0.034 C 
ATOM     82  C   UNL A   1      41.665  27.821  27.557  1.00  0.00    -0.036 A 
ATOM     83  N   UNL A   1      42.835  26.347  28.687  1.00  0.00    -0.354 N 
ATOM     84  C   UNL A   1      44.084  27.388  32.895  1.00  0.00     0.074 A 
ATOM     85  C   UNL A   1      42.740  27.610  33.352  1.00  0.00    -0.034 C 
ATOM     86  H   UNL A   1      40.901  27.867  32.280  1.00  0.00     0.065 H 
ATOM     87  C   UNL A   1      41.548  26.645  26.895  1.00  0.00    -0.036 A 
ATOM     88  H   UNL A   1      41.314  28.729  27.215  1.00  0.00     0.065 H 
ATOM     89  C   UNL A   1      42.307  25.637  27.603  1.00  0.00     0.049 A 
ATOM     90  H   UNL A   1      43.498  25.958  29.302  1.00  0.00     0.167 HD
ATOM     91  C   UNL A   1      45.066  26.562  33.354  1.00  0.00     0.037 A 
ATOM     92  H   UNL A   1      42.442  27.603  34.340  1.00  0.00     0.065 H 
ATOM     93  H   UNL A   1      41.008  26.493  26.029  1.00  0.00     0.065 H 
ATOM     94  C   UNL A   1      42.497  24.318  27.326  1.00  0.00     0.037 A 
ATOM     95  C   UNL A   1      46.242  26.659  32.516  1.00  0.00     0.049 A 
ATOM     96  C   UNL A   1      43.692  23.899  28.098  1.00  0.00     0.074 A 
ATOM     97  C   UNL A   1      47.048  27.703  32.099  1.00  0.00    -0.036 A 
ATOM     98  N   UNL A   1      46.495  25.635  31.633  1.00  0.00    -0.354 N 
ATOM     99  N   UNL A   1      44.897  24.303  27.812  1.00  0.00    -0.248 NA
ATOM    100  C   UNL A   1      43.470  23.462  29.468  1.00  0.00    -0.034 C 
ATOM    101  C   UNL A   1      47.311  27.439  30.721  1.00  0.00    -0.036 A 
ATOM    102  H   UNL A   1      47.386  28.500  32.662  1.00  0.00     0.065 H 
ATOM    103  C   UNL A   1      46.748  26.203  30.411  1.00  0.00     0.049 A 
ATOM    104  H   UNL A   1      46.495  24.672  31.840  1.00  0.00     0.167 HD
ATOM    105  C   UNL A   1      45.457  24.597  29.043  1.00  0.00     0.074 A 
ATOM    106  C   UNL A   1      44.550  24.009  30.032  1.00  0.00    -0.034 C 
ATOM    107  H   UNL A   1      42.707  22.901  29.880  1.00  0.00     0.065 H 
ATOM    108  H   UNL A   1      47.825  28.054  30.071  1.00  0.00     0.065 H 
ATOM    109  C   UNL A   1      46.417  25.559  29.165  1.00  0.00     0.037 A 
ATOM    110  H   UNL A   1      44.726  24.017  31.049  1.00  0.00     0.065 H 
BRANCH  91 111
ATOM    111  C   UNL A   1      44.828  25.386  34.279  1.00  0.00     0.064 A 
ATOM    112  C   UNL A   1      45.425  25.406  35.557  1.00  0.00     0.173 A 
ATOM    113  C   UNL A   1      44.303  24.135  33.884  1.00  0.00     0.173 A 
ATOM    114  F   UNL A   1      45.962  26.535  36.043  1.00  0.00    -0.203 F 
ATOM    115  C   UNL A   1      45.577  24.247  36.324  1.00  0.00     0.198 A 
ATOM    116  C   UNL A   1      44.407  22.993  34.677  1.00  0.00     0.198 A 
ATOM    117  F   UNL A   1      43.763  23.921  32.681  1.00  0.00    -0.203 F 
ATOM    118  F   UNL A   1      46.276  24.296  37.466  1.00  0.00    -0.200 F 
ATOM    119  C   UNL A   1      45.076  23.040  35.880  1.00  0.00     0.200 A 
ATOM    120  F   UNL A   1      43.920  21.830  34.220  1.00  0.00    -0.200 F 
ATOM    121  F   UNL A   1      45.275  21.918  36.581  1.00  0.00    -0.200 F 
ENDBRANCH  91 111
BRANCH  94 122
ATOM    122  C   UNL A   1      41.631  23.303  26.674  1.00  0.00     0.064 A 
ATOM    123  C   UNL A   1      42.153  22.070  26.240  1.00  0.00     0.173 A 
ATOM    124  C   UNL A   1      40.234  23.382  26.769  1.00  0.00     0.173 A 
ATOM    125  F   UNL A   1      43.479  21.901  26.137  1.00  0.00    -0.203 F 
ATOM    126  C   UNL A   1      41.331  20.968  25.974  1.00  0.00     0.198 A 
ATOM    127  C   UNL A   1      39.416  22.277  26.500  1.00  0.00     0.198 A 
ATOM    128  F   UNL A   1      39.663  24.510  27.208  1.00  0.00    -0.203 F 
ATOM    129  F   UNL A   1      41.872  19.793  25.626  1.00  0.00    -0.200 F 
ATOM    130  C   UNL A   1      39.963  21.067  26.125  1.00  0.00     0.200 A 
ATOM    131  F   UNL A   1      38.089  22.350  26.642  1.00  0.00    -0.200 F 
ATOM    132  F   UNL A   1      39.173  20.001  25.938  1.00  0.00    -0.200 F 
ENDBRANCH  94 122
BRANCH 109 133
ATOM    133  C   UNL A   1      47.021  26.130  27.911  1.00  0.00     0.064 A 
ATOM    134  C   UNL A   1      46.548  27.275  27.243  1.00  0.00     0.173 A 
ATOM    135  C   UNL A   1      48.215  25.566  27.448  1.00  0.00     0.173 A 
ATOM    136  F   UNL A   1      45.471  27.939  27.682  1.00  0.00    -0.203 F 
ATOM    137  C   UNL A   1      47.219  27.797  26.136  1.00  0.00     0.198 A 
ATOM    138  C   UNL A   1      48.903  26.110  26.367  1.00  0.00     0.198 A 
ATOM    139  F   UNL A   1      48.742  24.504  28.077  1.00  0.00    -0.203 F 
ATOM    140  F   UNL A   1      46.742  28.883  25.509  1.00  0.00    -0.200 F 
ATOM    141  C   UNL A   1      48.399  27.216  25.703  1.00  0.00     0.200 A 
ATOM    142  F   UNL A   1      50.070  25.573  25.987  1.00  0.00    -0.200 F 
ATOM    143  F   UNL A   1      49.067  27.737  24.665  1.00  0.00    -0.200 F 
ENDBRANCH 109 133
ENDBRANCH  74  77
ENDBRANCH  64  67
ENDBRANCH  60  63
ENDBRANCH  57  60
ENDBRANCH  54  57
ENDBRANCH  51  54
ENDBRANCH   1  51
TORSDOF 19
ENDMDL
MODEL 3
REMARK VINA RESULT:     -11.8      5.418     11.990
REMARK SMILES CS(=O)(=O)c1ccc(-n2nc(C(F)(F)F)cc2-c2ccc(CC(=O)NCCCCCCNC(=O)c3ccc(-c4c5nc(c(-c6c(F)c(F)c(F)c(F)c6F)c6ccc([nH]6)c(-c6c(F)c(F)c(F)c(F)c6F)c6nc(c(-c7c(F)c(F)c(F)c(F)c7F)c7ccc4[nH]7)C=C6)C=C5)cc3)cc2)cc1
REMARK SMILES IDX 27 1 26 4 25 7 23 8 24 9 22 11 21 14 18 15 19 16 99 17 20 18
REMARK SMILES IDX 98 20 17 24 9 25 10 26 11 27 16 28 8 30 5 31 6 32 101 33
REMARK SMILES IDX 7 34 100 36 2 40 3 41 4 42 1 43 12 47 13 48 14 49 15 50
REMARK SMILES IDX 28 51 29 54 30 57 31 60 32 63 33 64 34 66 35 67 36 68 97 69
REMARK SMILES IDX 37 70 96 72 38 74 39 77 40 78 90 79 41 80 95 81 89 82 91 83
REMARK SMILES IDX 42 84 94 85 88 87 87 89 43 91 75 94 55 95 74 96 56 97 59 98
REMARK SMILES IDX 73 99 92 100 57 101 58 103 72 105 93 106 60 109 44 111
REMARK SMILES IDX 45 112 53 113 46 114 47 115 51 116 54 117 48 118 49 119
REMARK SMILES IDX 52 120 50 121 76 122 77 123 85 124 78 125 79 126 83 127
REMARK SMILES IDX 86 128 80 129 81 130 84 131 82 132 61 133 62 134 70 135
REMARK SMILES IDX 63 136 64 137 68 138 71 139 65 140 66 141 69 142 67 143
REMARK H PARENT 27 2 27 3 26 5 26 6 25 10 22 12 22 13 19 19 99 21 20 22 98 23
REMARK H PARENT 16 29 6 35 101 37 7 38 100 39 1 44 1 45 1 46 28 52 28 53 29 55
REMARK H PARENT 29 56 30 58 30 59 31 61 31 62 32 65 36 71 97 73 37 75 96 76
REMARK H PARENT 95 86 89 88 91 90 94 92 88 93 56 102 59 104 92 107 57 108
REMARK H PARENT 93 110
REMARK Flexibility Score: inf
ROOT
ATOM      1  C   UNL A   1      38.697  31.974  32.911  1.00  0.00    -0.036 C 
ATOM      2  H   UNL A   1      38.810  31.800  33.961  1.00  0.00     0.028 H 
ATOM      3  H   UNL A   1      38.694  31.067  32.344  1.00  0.00     0.028 H 
ENDROOT
BRANCH   1   4
ATOM      4  C   UNL A   1      39.894  32.796  32.429  1.00  0.00     0.017 C 
ATOM      5  H   UNL A   1      40.329  33.302  33.265  1.00  0.00     0.049 H 
ATOM      6  H   UNL A   1      40.600  32.129  31.979  1.00  0.00     0.049 H 
BRANCH   4   7
ATOM      7  N   UNL A   1      39.500  33.775  31.437  1.00  0.00    -0.356 N 
ATOM      8  C   UNL A   1      40.157  34.176  30.310  1.00  0.00     0.224 C 
ATOM      9  O   UNL A   1      39.678  35.095  29.644  1.00  0.00    -0.275 OA
ATOM     10  H   UNL A   1      38.633  34.214  31.598  1.00  0.00     0.163 HD
BRANCH   8  11
ATOM     11  C   UNL A   1      41.424  33.461  29.871  1.00  0.00     0.052 C 
ATOM     12  H   UNL A   1      41.821  32.932  30.713  1.00  0.00     0.042 H 
ATOM     13  H   UNL A   1      41.150  32.809  29.068  1.00  0.00     0.042 H 
BRANCH  11  14
ATOM     14  C   UNL A   1      42.494  34.382  29.342  1.00  0.00    -0.039 A 
ATOM     15  C   UNL A   1      44.549  35.972  28.287  1.00  0.00     0.000 A 
ATOM     16  C   UNL A   1      44.642  35.463  29.589  1.00  0.00    -0.053 A 
ATOM     17  C   UNL A   1      43.398  35.732  27.536  1.00  0.00    -0.053 A 
ATOM     18  C   UNL A   1      43.627  34.665  30.110  1.00  0.00    -0.058 A 
ATOM     19  H   UNL A   1      45.470  35.680  30.166  1.00  0.00     0.063 H 
ATOM     20  C   UNL A   1      42.370  34.956  28.067  1.00  0.00    -0.058 A 
ATOM     21  H   UNL A   1      43.309  36.129  26.588  1.00  0.00     0.063 H 
ATOM     22  H   UNL A   1      43.711  34.282  31.065  1.00  0.00     0.063 H 
ATOM     23  H   UNL A   1      41.510  34.801  27.518  1.00  0.00     0.063 H 
BRANCH  15  24
ATOM     24  C   UNL A   1      45.626  36.773  27.728  1.00  0.00     0.075 A 
ATOM     25  N   UNL A   1      45.804  38.128  27.943  1.00  0.00    -0.233 N 
ATOM     26  N   UNL A   1      46.819  38.642  27.200  1.00  0.00    -0.163 NA
ATOM     27  C   UNL A   1      47.316  37.590  26.517  1.00  0.00     0.167 A 
ATOM     28  C   UNL A   1      46.611  36.404  26.837  1.00  0.00    -0.003 A 
ATOM     29  H   UNL A   1      46.797  35.456  26.475  1.00  0.00     0.067 H 
BRANCH  25  30
ATOM     30  C   UNL A   1      45.048  38.960  28.801  1.00  0.00     0.065 A 
ATOM     31  C   UNL A   1      43.512  40.586  30.454  1.00  0.00     0.067 A 
ATOM     32  C   UNL A   1      44.692  40.009  30.944  1.00  0.00    -0.041 A 
ATOM     33  C   UNL A   1      43.084  40.328  29.151  1.00  0.00    -0.041 A 
ATOM     34  C   UNL A   1      45.469  39.190  30.115  1.00  0.00    -0.035 A 
ATOM     35  H   UNL A   1      44.988  40.188  31.917  1.00  0.00     0.064 H 
ATOM     36  C   UNL A   1      43.847  39.498  28.329  1.00  0.00    -0.035 A 
ATOM     37  H   UNL A   1      42.209  40.747  28.797  1.00  0.00     0.064 H 
ATOM     38  H   UNL A   1      46.339  38.764  30.468  1.00  0.00     0.065 H 
ATOM     39  H   UNL A   1      43.526  39.281  27.374  1.00  0.00     0.065 H 
BRANCH  31  40
ATOM     40  S   UNL A   1      42.473  41.554  31.530  1.00  0.00     0.175 S 
ATOM     41  O   UNL A   1      42.913  41.262  32.889  1.00  0.00    -0.224 OA
ATOM     42  O   UNL A   1      41.104  41.356  31.123  1.00  0.00    -0.224 OA
BRANCH  40  43
ATOM     43  C   UNL A   1      42.877  43.235  31.192  1.00  0.00     0.043 C 
ATOM     44  H   UNL A   1      43.930  43.323  31.025  1.00  0.00     0.040 H 
ATOM     45  H   UNL A   1      42.597  43.845  32.026  1.00  0.00     0.040 H 
ATOM     46  H   UNL A   1      42.350  43.561  30.320  1.00  0.00     0.040 H 
ENDBRANCH  40  43
ENDBRANCH  31  40
ENDBRANCH  25  30
BRANCH  27  47
ATOM     47  C   UNL A   1      48.456  37.697  25.538  1.00  0.00     0.435 C 
ATOM     48  F   UNL A   1      49.597  38.160  26.113  1.00  0.00    -0.164 F 
ATOM     49  F   UNL A   1      48.756  36.500  24.965  1.00  0.00    -0.164 F 
ATOM     50  F   UNL A   1      48.165  38.549  24.517  1.00  0.00    -0.164 F 
ENDBRANCH  27  47
ENDBRANCH  15  24
ENDBRANCH  11  14
ENDBRANCH   8  11
ENDBRANCH   4   7
ENDBRANCH   1   4
BRANCH   1  51
ATOM     51  C   UNL A   1      37.342  32.653  32.676  1.00  0.00    -0.052 C 
ATOM     52  H   UNL A   1      37.338  33.042  31.679  1.00  0.00     0.027 H 
ATOM     53  H   UNL A   1      37.254  33.402  33.434  1.00  0.00     0.027 H 
BRANCH  51  54
ATOM     54  C   UNL A   1      36.109  31.748  32.834  1.00  0.00    -0.052 C 
ATOM     55  H   UNL A   1      35.985  31.544  33.876  1.00  0.00     0.027 H 
ATOM     56  H   UNL A   1      36.310  30.884  32.236  1.00  0.00     0.027 H 
BRANCH  54  57
ATOM     57  C   UNL A   1      34.781  32.311  32.307  1.00  0.00    -0.036 C 
ATOM     58  H   UNL A   1      34.356  32.940  33.062  1.00  0.00     0.028 H 
ATOM     59  H   UNL A   1      34.156  31.473  32.075  1.00  0.00     0.028 H 
BRANCH  57  60
ATOM     60  C   UNL A   1      34.923  33.124  31.030  1.00  0.00     0.018 C 
ATOM     61  H   UNL A   1      35.965  33.281  30.838  1.00  0.00     0.049 H 
ATOM     62  H   UNL A   1      34.406  34.049  31.174  1.00  0.00     0.049 H 
BRANCH  60  63
ATOM     63  N   UNL A   1      34.328  32.456  29.871  1.00  0.00    -0.352 N 
ATOM     64  C   UNL A   1      34.944  31.683  28.904  1.00  0.00     0.251 C 
ATOM     65  H   UNL A   1      33.356  32.574  29.764  1.00  0.00     0.163 HD
ATOM     66  O   UNL A   1      34.431  31.514  27.805  1.00  0.00    -0.269 OA
BRANCH  64  67
ATOM     67  C   UNL A   1      36.227  31.034  29.230  1.00  0.00     0.039 A 
ATOM     68  C   UNL A   1      36.308  29.705  29.661  1.00  0.00    -0.049 A 
ATOM     69  C   UNL A   1      37.377  31.804  29.090  1.00  0.00    -0.049 A 
ATOM     70  C   UNL A   1      37.568  29.151  29.895  1.00  0.00    -0.053 A 
ATOM     71  H   UNL A   1      35.453  29.145  29.802  1.00  0.00     0.063 H 
ATOM     72  C   UNL A   1      38.602  31.202  29.111  1.00  0.00    -0.053 A 
ATOM     73  H   UNL A   1      37.304  32.826  28.969  1.00  0.00     0.063 H 
ATOM     74  C   UNL A   1      38.709  29.913  29.612  1.00  0.00    -0.014 A 
ATOM     75  H   UNL A   1      37.657  28.195  30.272  1.00  0.00     0.063 H 
ATOM     76  H   UNL A   1      39.435  31.698  28.759  1.00  0.00     0.063 H 
BRANCH  74  77
ATOM     77  C   UNL A   1      40.063  29.382  29.686  1.00  0.00     0.031 A 
ATOM     78  C   UNL A   1      40.550  29.192  31.072  1.00  0.00     0.074 A 
ATOM     79  C   UNL A   1      40.674  28.826  28.615  1.00  0.00     0.049 A 
ATOM     80  N   UNL A   1      41.519  29.822  31.647  1.00  0.00    -0.248 NA
ATOM     81  C   UNL A   1      39.777  28.329  31.981  1.00  0.00    -0.034 C 
ATOM     82  C   UNL A   1      40.167  28.696  27.249  1.00  0.00    -0.036 A 
ATOM     83  N   UNL A   1      41.854  28.152  28.545  1.00  0.00    -0.354 N 
ATOM     84  C   UNL A   1      41.631  29.258  32.913  1.00  0.00     0.074 A 
ATOM     85  C   UNL A   1      40.406  28.543  33.140  1.00  0.00    -0.034 C 
ATOM     86  H   UNL A   1      38.969  27.721  31.778  1.00  0.00     0.065 H 
ATOM     87  C   UNL A   1      40.902  27.786  26.565  1.00  0.00    -0.036 A 
ATOM     88  H   UNL A   1      39.367  29.220  26.862  1.00  0.00     0.065 H 
ATOM     89  C   UNL A   1      42.033  27.396  27.381  1.00  0.00     0.049 A 
ATOM     90  H   UNL A   1      42.531  28.193  29.258  1.00  0.00     0.167 HD
ATOM     91  C   UNL A   1      42.848  29.176  33.521  1.00  0.00     0.037 A 
ATOM     92  H   UNL A   1      40.060  28.240  34.064  1.00  0.00     0.065 H 
ATOM     93  H   UNL A   1      40.692  27.431  25.619  1.00  0.00     0.065 H 
ATOM     94  C   UNL A   1      43.045  26.524  27.126  1.00  0.00     0.037 A 
ATOM     95  C   UNL A   1      43.790  30.077  32.893  1.00  0.00     0.049 A 
ATOM     96  C   UNL A   1      44.129  26.854  28.083  1.00  0.00     0.074 A 
ATOM     97  C   UNL A   1      43.799  31.435  32.627  1.00  0.00    -0.036 A 
ATOM     98  N   UNL A   1      44.740  29.541  32.055  1.00  0.00    -0.354 N 
ATOM     99  N   UNL A   1      44.831  27.948  28.008  1.00  0.00    -0.248 NA
ATOM    100  C   UNL A   1      44.065  26.222  29.392  1.00  0.00    -0.034 C 
ATOM    101  C   UNL A   1      44.337  31.550  31.310  1.00  0.00    -0.036 A 
ATOM    102  H   UNL A   1      43.484  32.198  33.246  1.00  0.00     0.065 H 
ATOM    103  C   UNL A   1      44.726  30.277  30.898  1.00  0.00     0.049 A 
ATOM    104  H   UNL A   1      45.323  28.771  32.250  1.00  0.00     0.167 HD
ATOM    105  C   UNL A   1      44.921  28.385  29.318  1.00  0.00     0.074 A 
ATOM    106  C   UNL A   1      44.477  27.253  30.135  1.00  0.00    -0.034 C 
ATOM    107  H   UNL A   1      43.785  25.267  29.665  1.00  0.00     0.065 H 
ATOM    108  H   UNL A   1      44.423  32.420  30.761  1.00  0.00     0.065 H 
ATOM    109  C   UNL A   1      45.033  29.714  29.608  1.00  0.00     0.037 A 
ATOM    110  H   UNL A   1      44.481  27.253  31.166  1.00  0.00     0.065 H 
BRANCH  91 111
ATOM    111  C   UNL A   1      43.294  28.011  34.382  1.00  0.00     0.064 A 
ATOM    112  C   UNL A   1      43.297  26.720  33.814  1.00  0.00     0.173 A 
ATOM    113  C   UNL A   1      43.434  28.047  35.787  1.00  0.00     0.173 A 
ATOM    114  F   UNL A   1      43.168  26.556  32.489  1.00  0.00    -0.203 F 
ATOM    115  C   UNL A   1      43.329  25.564  34.598  1.00  0.00     0.198 A 
ATOM    116  C   UNL A   1      43.522  26.892  36.562  1.00  0.00     0.198 A 
ATOM    117  F   UNL A   1      43.386  29.180  36.493  1.00  0.00    -0.203 F 
ATOM    118  F   UNL A   1      43.186  24.365  34.018  1.00  0.00    -0.200 F 
ATOM    119  C   UNL A   1      43.432  25.651  35.972  1.00  0.00     0.200 A 
ATOM    120  F   UNL A   1      43.613  27.001  37.895  1.00  0.00    -0.200 F 
ATOM    121  F   UNL A   1      43.399  24.548  36.731  1.00  0.00    -0.200 F 
ENDBRANCH  91 111
BRANCH  94 122
ATOM    122  C   UNL A   1      43.105  25.273  26.328  1.00  0.00     0.064 A 
ATOM    123  C   UNL A   1      44.094  25.081  25.346  1.00  0.00     0.173 A 
ATOM    124  C   UNL A   1      42.414  24.123  26.742  1.00  0.00     0.173 A 
ATOM    125  F   UNL A   1      44.814  26.122  24.906  1.00  0.00    -0.203 F 
ATOM    126  C   UNL A   1      44.411  23.810  24.850  1.00  0.00     0.198 A 
ATOM    127  C   UNL A   1      42.734  22.855  26.241  1.00  0.00     0.198 A 
ATOM    128  F   UNL A   1      41.483  24.219  27.698  1.00  0.00    -0.203 F 
ATOM    129  F   UNL A   1      45.404  23.663  23.963  1.00  0.00    -0.200 F 
ATOM    130  C   UNL A   1      43.745  22.695  25.315  1.00  0.00     0.200 A 
ATOM    131  F   UNL A   1      42.104  21.761  26.678  1.00  0.00    -0.200 F 
ATOM    132  F   UNL A   1      44.086  21.468  24.897  1.00  0.00    -0.200 F 
ENDBRANCH  94 122
BRANCH 109 133
ATOM    133  C   UNL A   1      45.290  30.673  28.479  1.00  0.00     0.064 A 
ATOM    134  C   UNL A   1      44.288  31.277  27.696  1.00  0.00     0.173 A 
ATOM    135  C   UNL A   1      46.606  31.103  28.275  1.00  0.00     0.173 A 
ATOM    136  F   UNL A   1      42.992  31.002  27.896  1.00  0.00    -0.203 F 
ATOM    137  C   UNL A   1      44.601  32.229  26.725  1.00  0.00     0.198 A 
ATOM    138  C   UNL A   1      46.913  32.080  27.332  1.00  0.00     0.198 A 
ATOM    139  F   UNL A   1      47.598  30.601  29.027  1.00  0.00    -0.203 F 
ATOM    140  F   UNL A   1      43.629  32.782  25.984  1.00  0.00    -0.200 F 
ATOM    141  C   UNL A   1      45.914  32.634  26.549  1.00  0.00     0.200 A 
ATOM    142  F   UNL A   1      48.178  32.502  27.204  1.00  0.00    -0.200 F 
ATOM    143  F   UNL A   1      46.215  33.576  25.645  1.00  0.00    -0.200 F 
ENDBRANCH 109 133
ENDBRANCH  74  77
ENDBRANCH  64  67
ENDBRANCH  60  63
ENDBRANCH  57  60
ENDBRANCH  54  57
ENDBRANCH  51  54
ENDBRANCH   1  51
TORSDOF 19
ENDMDL
MODEL 4
REMARK VINA RESULT:     -11.8      3.354      7.871
REMARK SMILES CS(=O)(=O)c1ccc(-n2nc(C(F)(F)F)cc2-c2ccc(CC(=O)NCCCCCCNC(=O)c3ccc(-c4c5nc(c(-c6c(F)c(F)c(F)c(F)c6F)c6ccc([nH]6)c(-c6c(F)c(F)c(F)c(F)c6F)c6nc(c(-c7c(F)c(F)c(F)c(F)c7F)c7ccc4[nH]7)C=C6)C=C5)cc3)cc2)cc1
REMARK SMILES IDX 27 1 26 4 25 7 23 8 24 9 22 11 21 14 18 15 19 16 99 17 20 18
REMARK SMILES IDX 98 20 17 24 9 25 10 26 11 27 16 28 8 30 5 31 6 32 101 33
REMARK SMILES IDX 7 34 100 36 2 40 3 41 4 42 1 43 12 47 13 48 14 49 15 50
REMARK SMILES IDX 28 51 29 54 30 57 31 60 32 63 33 64 34 66 35 67 36 68 97 69
REMARK SMILES IDX 37 70 96 72 38 74 39 77 40 78 90 79 41 80 95 81 89 82 91 83
REMARK SMILES IDX 42 84 94 85 88 87 87 89 43 91 75 94 55 95 74 96 56 97 59 98
REMARK SMILES IDX 73 99 92 100 57 101 58 103 72 105 93 106 60 109 44 111
REMARK SMILES IDX 45 112 53 113 46 114 47 115 51 116 54 117 48 118 49 119
REMARK SMILES IDX 52 120 50 121 76 122 77 123 85 124 78 125 79 126 83 127
REMARK SMILES IDX 86 128 80 129 81 130 84 131 82 132 61 133 62 134 70 135
REMARK SMILES IDX 63 136 64 137 68 138 71 139 65 140 66 141 69 142 67 143
REMARK H PARENT 27 2 27 3 26 5 26 6 25 10 22 12 22 13 19 19 99 21 20 22 98 23
REMARK H PARENT 16 29 6 35 101 37 7 38 100 39 1 44 1 45 1 46 28 52 28 53 29 55
REMARK H PARENT 29 56 30 58 30 59 31 61 31 62 32 65 36 71 97 73 37 75 96 76
REMARK H PARENT 95 86 89 88 91 90 94 92 88 93 56 102 59 104 92 107 57 108
REMARK H PARENT 93 110
REMARK Flexibility Score: inf
ROOT
ATOM      1  C   UNL A   1      36.961  21.467  24.962  1.00  0.00    -0.036 C 
ATOM      2  H   UNL A   1      37.465  20.821  24.275  1.00  0.00     0.028 H 
ATOM      3  H   UNL A   1      36.516  20.933  25.776  1.00  0.00     0.028 H 
ENDROOT
BRANCH   1   4
ATOM      4  C   UNL A   1      35.824  22.170  24.217  1.00  0.00     0.017 C 
ATOM      5  H   UNL A   1      35.853  23.216  24.444  1.00  0.00     0.049 H 
ATOM      6  H   UNL A   1      35.958  22.005  23.168  1.00  0.00     0.049 H 
BRANCH   4   7
ATOM      7  N   UNL A   1      34.532  21.640  24.600  1.00  0.00    -0.356 N 
ATOM      8  C   UNL A   1      33.644  22.111  25.524  1.00  0.00     0.224 C 
ATOM      9  O   UNL A   1      32.631  21.450  25.757  1.00  0.00    -0.275 OA
ATOM     10  H   UNL A   1      34.254  20.823  24.126  1.00  0.00     0.163 HD
BRANCH   8  11
ATOM     11  C   UNL A   1      33.890  23.447  26.205  1.00  0.00     0.052 C 
ATOM     12  H   UNL A   1      33.681  23.335  27.250  1.00  0.00     0.042 H 
ATOM     13  H   UNL A   1      34.910  23.709  26.016  1.00  0.00     0.042 H 
BRANCH  11  14
ATOM     14  C   UNL A   1      33.041  24.572  25.668  1.00  0.00    -0.039 A 
ATOM     15  C   UNL A   1      31.581  26.764  24.706  1.00  0.00     0.000 A 
ATOM     16  C   UNL A   1      31.382  26.296  26.011  1.00  0.00    -0.053 A 
ATOM     17  C   UNL A   1      32.470  26.095  23.864  1.00  0.00    -0.053 A 
ATOM     18  C   UNL A   1      32.114  25.215  26.494  1.00  0.00    -0.058 A 
ATOM     19  H   UNL A   1      30.688  26.757  26.620  1.00  0.00     0.063 H 
ATOM     20  C   UNL A   1      33.184  24.995  24.338  1.00  0.00    -0.058 A 
ATOM     21  H   UNL A   1      32.600  26.415  22.892  1.00  0.00     0.063 H 
ATOM     22  H   UNL A   1      31.971  24.886  27.462  1.00  0.00     0.063 H 
ATOM     23  H   UNL A   1      33.822  24.489  23.706  1.00  0.00     0.063 H 
BRANCH  15  24
ATOM     24  C   UNL A   1      30.845  27.917  24.214  1.00  0.00     0.075 A 
ATOM     25  N   UNL A   1      31.052  29.225  24.615  1.00  0.00    -0.233 N 
ATOM     26  N   UNL A   1      30.141  30.081  24.084  1.00  0.00    -0.163 NA
ATOM     27  C   UNL A   1      29.352  29.310  23.307  1.00  0.00     0.167 A 
ATOM     28  C   UNL A   1      29.773  27.958  23.347  1.00  0.00    -0.003 A 
ATOM     29  H   UNL A   1      29.362  27.165  22.831  1.00  0.00     0.067 H 
BRANCH  25  30
ATOM     30  C   UNL A   1      32.057  29.696  25.490  1.00  0.00     0.065 A 
ATOM     31  C   UNL A   1      34.078  30.601  27.174  1.00  0.00     0.067 A 
ATOM     32  C   UNL A   1      32.793  31.151  27.268  1.00  0.00    -0.041 A 
ATOM     33  C   UNL A   1      34.363  29.621  26.221  1.00  0.00    -0.041 A 
ATOM     34  C   UNL A   1      31.772  30.698  26.423  1.00  0.00    -0.035 A 
ATOM     35  H   UNL A   1      32.599  31.892  27.961  1.00  0.00     0.064 H 
ATOM     36  C   UNL A   1      33.352  29.181  25.366  1.00  0.00    -0.035 A 
ATOM     37  H   UNL A   1      35.313  29.225  26.149  1.00  0.00     0.064 H 
ATOM     38  H   UNL A   1      30.824  31.098  26.488  1.00  0.00     0.065 H 
ATOM     39  H   UNL A   1      33.559  28.477  24.642  1.00  0.00     0.065 H 
BRANCH  31  40
ATOM     40  S   UNL A   1      35.403  31.236  28.183  1.00  0.00     0.175 S 
ATOM     41  O   UNL A   1      36.618  30.578  27.717  1.00  0.00    -0.224 OA
ATOM     42  O   UNL A   1      34.988  31.162  29.562  1.00  0.00    -0.224 OA
BRANCH  40  43
ATOM     43  C   UNL A   1      35.534  32.944  27.770  1.00  0.00     0.043 C 
ATOM     44  H   UNL A   1      34.598  33.293  27.389  1.00  0.00     0.040 H 
ATOM     45  H   UNL A   1      36.293  33.074  27.026  1.00  0.00     0.040 H 
ATOM     46  H   UNL A   1      35.794  33.504  28.645  1.00  0.00     0.040 H 
ENDBRANCH  40  43
ENDBRANCH  31  40
ENDBRANCH  25  30
BRANCH  27  47
ATOM     47  C   UNL A   1      28.176  29.840  22.529  1.00  0.00     0.435 C 
ATOM     48  F   UNL A   1      27.164  28.939  22.432  1.00  0.00    -0.164 F 
ATOM     49  F   UNL A   1      27.656  30.966  23.088  1.00  0.00    -0.164 F 
ATOM     50  F   UNL A   1      28.523  30.170  21.254  1.00  0.00    -0.164 F 
ENDBRANCH  27  47
ENDBRANCH  15  24
ENDBRANCH  11  14
ENDBRANCH   8  11
ENDBRANCH   4   7
ENDBRANCH   1   4
BRANCH   1  51
ATOM     51  C   UNL A   1      37.993  22.426  25.570  1.00  0.00    -0.052 C 
ATOM     52  H   UNL A   1      37.497  23.014  26.313  1.00  0.00     0.027 H 
ATOM     53  H   UNL A   1      38.379  22.997  24.752  1.00  0.00     0.027 H 
BRANCH  51  54
ATOM     54  C   UNL A   1      39.211  21.761  26.229  1.00  0.00    -0.052 C 
ATOM     55  H   UNL A   1      39.874  21.448  25.451  1.00  0.00     0.027 H 
ATOM     56  H   UNL A   1      38.815  20.960  26.819  1.00  0.00     0.027 H 
BRANCH  54  57
ATOM     57  C   UNL A   1      40.015  22.631  27.207  1.00  0.00    -0.036 C 
ATOM     58  H   UNL A   1      41.036  22.311  27.185  1.00  0.00     0.028 H 
ATOM     59  H   UNL A   1      39.570  22.508  28.173  1.00  0.00     0.028 H 
BRANCH  57  60
ATOM     60  C   UNL A   1      39.971  24.116  26.885  1.00  0.00     0.018 C 
ATOM     61  H   UNL A   1      40.060  24.668  27.798  1.00  0.00     0.049 H 
ATOM     62  H   UNL A   1      39.040  24.315  26.395  1.00  0.00     0.049 H 
BRANCH  60  63
ATOM     63  N   UNL A   1      41.047  24.526  25.980  1.00  0.00    -0.352 N 
ATOM     64  C   UNL A   1      41.614  25.776  25.819  1.00  0.00     0.251 C 
ATOM     65  H   UNL A   1      41.417  23.815  25.409  1.00  0.00     0.163 HD
ATOM     66  O   UNL A   1      42.209  26.075  24.791  1.00  0.00    -0.269 OA
BRANCH  64  67
ATOM     67  C   UNL A   1      41.517  26.745  26.925  1.00  0.00     0.039 A 
ATOM     68  C   UNL A   1      41.815  26.404  28.250  1.00  0.00    -0.049 A 
ATOM     69  C   UNL A   1      41.112  28.035  26.601  1.00  0.00    -0.049 A 
ATOM     70  C   UNL A   1      41.750  27.397  29.229  1.00  0.00    -0.053 A 
ATOM     71  H   UNL A   1      42.079  25.438  28.497  1.00  0.00     0.063 H 
ATOM     72  C   UNL A   1      41.257  29.041  27.513  1.00  0.00    -0.053 A 
ATOM     73  H   UNL A   1      40.704  28.232  25.674  1.00  0.00     0.063 H 
ATOM     74  C   UNL A   1      41.472  28.715  28.844  1.00  0.00    -0.014 A 
ATOM     75  H   UNL A   1      41.905  27.163  30.222  1.00  0.00     0.063 H 
ATOM     76  H   UNL A   1      41.209  30.028  27.217  1.00  0.00     0.063 H 
BRANCH  74  77
ATOM     77  C   UNL A   1      41.521  29.843  29.764  1.00  0.00     0.031 A 
ATOM     78  C   UNL A   1      40.185  30.332  30.175  1.00  0.00     0.074 A 
ATOM     79  C   UNL A   1      42.657  30.189  30.413  1.00  0.00     0.049 A 
ATOM     80  N   UNL A   1      39.661  31.479  29.904  1.00  0.00    -0.248 NA
ATOM     81  C   UNL A   1      39.254  29.388  30.817  1.00  0.00    -0.034 C 
ATOM     82  C   UNL A   1      43.984  29.585  30.302  1.00  0.00    -0.036 A 
ATOM     83  N   UNL A   1      42.842  31.099  31.407  1.00  0.00    -0.354 N 
ATOM     84  C   UNL A   1      38.430  31.489  30.550  1.00  0.00     0.074 A 
ATOM     85  C   UNL A   1      38.139  30.120  30.873  1.00  0.00    -0.034 C 
ATOM     86  H   UNL A   1      39.419  28.421  31.139  1.00  0.00     0.065 H 
ATOM     87  C   UNL A   1      44.757  29.964  31.348  1.00  0.00    -0.036 A 
ATOM     88  H   UNL A   1      44.289  28.962  29.538  1.00  0.00     0.065 H 
ATOM     89  C   UNL A   1      44.045  30.968  32.110  1.00  0.00     0.049 A 
ATOM     90  H   UNL A   1      42.181  31.798  31.616  1.00  0.00     0.167 HD
ATOM     91  C   UNL A   1      37.920  32.657  31.033  1.00  0.00     0.037 A 
ATOM     92  H   UNL A   1      37.204  29.755  31.112  1.00  0.00     0.065 H 
ATOM     93  H   UNL A   1      45.697  29.598  31.565  1.00  0.00     0.065 H 
ATOM     94  C   UNL A   1      44.410  31.648  33.231  1.00  0.00     0.037 A 
ATOM     95  C   UNL A   1      38.582  33.790  30.423  1.00  0.00     0.049 A 
ATOM     96  C   UNL A   1      43.525  32.836  33.302  1.00  0.00     0.074 A 
ATOM     97  C   UNL A   1      38.794  34.198  29.118  1.00  0.00    -0.036 A 
ATOM     98  N   UNL A   1      39.509  34.478  31.170  1.00  0.00    -0.354 N 
ATOM     99  N   UNL A   1      43.611  33.834  32.469  1.00  0.00    -0.248 NA
ATOM    100  C   UNL A   1      42.240  32.661  33.963  1.00  0.00    -0.034 C 
ATOM    101  C   UNL A   1      40.143  34.665  29.093  1.00  0.00    -0.036 A 
ATOM    102  H   UNL A   1      38.124  34.170  28.334  1.00  0.00     0.065 H 
ATOM    103  C   UNL A   1      40.633  34.620  30.396  1.00  0.00     0.049 A 
ATOM    104  H   UNL A   1      39.390  34.808  32.090  1.00  0.00     0.167 HD
ATOM    105  C   UNL A   1      42.296  34.132  32.160  1.00  0.00     0.074 A 
ATOM    106  C   UNL A   1      41.491  33.412  33.151  1.00  0.00    -0.034 C 
ATOM    107  H   UNL A   1      41.985  32.119  34.803  1.00  0.00     0.065 H 
ATOM    108  H   UNL A   1      40.662  34.980  28.258  1.00  0.00     0.065 H 
ATOM    109  C   UNL A   1      41.963  34.662  30.947  1.00  0.00     0.037 A 
ATOM    110  H   UNL A   1      40.464  33.478  33.214  1.00  0.00     0.065 H 
BRANCH  91 111
ATOM    111  C   UNL A   1      37.141  32.777  32.328  1.00  0.00     0.064 A 
ATOM    112  C   UNL A   1      35.945  33.525  32.325  1.00  0.00     0.173 A 
ATOM    113  C   UNL A   1      37.642  32.454  33.609  1.00  0.00     0.173 A 
ATOM    114  F   UNL A   1      35.373  33.895  31.169  1.00  0.00    -0.203 F 
ATOM    115  C   UNL A   1      35.363  33.999  33.503  1.00  0.00     0.198 A 
ATOM    116  C   UNL A   1      37.027  32.882  34.784  1.00  0.00     0.198 A 
ATOM    117  F   UNL A   1      38.796  31.809  33.796  1.00  0.00    -0.203 F 
ATOM    118  F   UNL A   1      34.309  34.823  33.437  1.00  0.00    -0.200 F 
ATOM    119  C   UNL A   1      35.909  33.685  34.732  1.00  0.00     0.200 A 
ATOM    120  F   UNL A   1      37.580  32.572  35.965  1.00  0.00    -0.200 F 
ATOM    121  F   UNL A   1      35.392  34.189  35.859  1.00  0.00    -0.200 F 
ENDBRANCH  91 111
BRANCH  94 122
ATOM    122  C   UNL A   1      45.258  31.273  34.391  1.00  0.00     0.064 A 
ATOM    123  C   UNL A   1      44.860  30.266  35.290  1.00  0.00     0.173 A 
ATOM    124  C   UNL A   1      46.607  31.653  34.447  1.00  0.00     0.173 A 
ATOM    125  F   UNL A   1      43.593  29.830  35.292  1.00  0.00    -0.203 F 
ATOM    126  C   UNL A   1      45.769  29.637  36.150  1.00  0.00     0.198 A 
ATOM    127  C   UNL A   1      47.511  31.023  35.312  1.00  0.00     0.198 A 
ATOM    128  F   UNL A   1      47.070  32.581  33.601  1.00  0.00    -0.203 F 
ATOM    129  F   UNL A   1      45.363  28.637  36.944  1.00  0.00    -0.200 F 
ATOM    130  C   UNL A   1      47.099  30.002  36.144  1.00  0.00     0.200 A 
ATOM    131  F   UNL A   1      48.805  31.358  35.322  1.00  0.00    -0.200 F 
ATOM    132  F   UNL A   1      47.990  29.362  36.916  1.00  0.00    -0.200 F 
ENDBRANCH  94 122
BRANCH 109 133
ATOM    133  C   UNL A   1      43.070  35.132  30.044  1.00  0.00     0.064 A 
ATOM    134  C   UNL A   1      43.741  36.362  30.171  1.00  0.00     0.173 A 
ATOM    135  C   UNL A   1      43.563  34.230  29.094  1.00  0.00     0.173 A 
ATOM    136  F   UNL A   1      43.403  37.241  31.123  1.00  0.00    -0.203 F 
ATOM    137  C   UNL A   1      44.822  36.687  29.350  1.00  0.00     0.198 A 
ATOM    138  C   UNL A   1      44.664  34.541  28.301  1.00  0.00     0.198 A 
ATOM    139  F   UNL A   1      42.998  33.019  28.963  1.00  0.00    -0.203 F 
ATOM    140  F   UNL A   1      45.437  37.872  29.483  1.00  0.00    -0.200 F 
ATOM    141  C   UNL A   1      45.286  35.772  28.420  1.00  0.00     0.200 A 
ATOM    142  F   UNL A   1      45.138  33.630  27.440  1.00  0.00    -0.200 F 
ATOM    143  F   UNL A   1      46.348  36.065  27.657  1.00  0.00    -0.200 F 
ENDBRANCH 109 133
ENDBRANCH  74  77
ENDBRANCH  64  67
ENDBRANCH  60  63
ENDBRANCH  57  60
ENDBRANCH  54  57
ENDBRANCH  51  54
ENDBRANCH   1  51
TORSDOF 19
ENDMDL
MODEL 5
REMARK VINA RESULT:     -11.8      4.196      9.349
REMARK SMILES CS(=O)(=O)c1ccc(-n2nc(C(F)(F)F)cc2-c2ccc(CC(=O)NCCCCCCNC(=O)c3ccc(-c4c5nc(c(-c6c(F)c(F)c(F)c(F)c6F)c6ccc([nH]6)c(-c6c(F)c(F)c(F)c(F)c6F)c6nc(c(-c7c(F)c(F)c(F)c(F)c7F)c7ccc4[nH]7)C=C6)C=C5)cc3)cc2)cc1
REMARK SMILES IDX 27 1 26 4 25 7 23 8 24 9 22 11 21 14 18 15 19 16 99 17 20 18
REMARK SMILES IDX 98 20 17 24 9 25 10 26 11 27 16 28 8 30 5 31 6 32 101 33
REMARK SMILES IDX 7 34 100 36 2 40 3 41 4 42 1 43 12 47 13 48 14 49 15 50
REMARK SMILES IDX 28 51 29 54 30 57 31 60 32 63 33 64 34 66 35 67 36 68 97 69
REMARK SMILES IDX 37 70 96 72 38 74 39 77 40 78 90 79 41 80 95 81 89 82 91 83
REMARK SMILES IDX 42 84 94 85 88 87 87 89 43 91 75 94 55 95 74 96 56 97 59 98
REMARK SMILES IDX 73 99 92 100 57 101 58 103 72 105 93 106 60 109 44 111
REMARK SMILES IDX 45 112 53 113 46 114 47 115 51 116 54 117 48 118 49 119
REMARK SMILES IDX 52 120 50 121 76 122 77 123 85 124 78 125 79 126 83 127
REMARK SMILES IDX 86 128 80 129 81 130 84 131 82 132 61 133 62 134 70 135
REMARK SMILES IDX 63 136 64 137 68 138 71 139 65 140 66 141 69 142 67 143
REMARK H PARENT 27 2 27 3 26 5 26 6 25 10 22 12 22 13 19 19 99 21 20 22 98 23
REMARK H PARENT 16 29 6 35 101 37 7 38 100 39 1 44 1 45 1 46 28 52 28 53 29 55
REMARK H PARENT 29 56 30 58 30 59 31 61 31 62 32 65 36 71 97 73 37 75 96 76
REMARK H PARENT 95 86 89 88 91 90 94 92 88 93 56 102 59 104 92 107 57 108
REMARK H PARENT 93 110
REMARK Flexibility Score: inf
ROOT
ATOM      1  C   UNL A   1      34.505  32.601  29.618  1.00  0.00    -0.036 C 
ATOM      2  H   UNL A   1      33.605  32.409  30.164  1.00  0.00     0.028 H 
ATOM      3  H   UNL A   1      34.677  33.646  29.465  1.00  0.00     0.028 H 
ENDROOT
BRANCH   1   4
ATOM      4  C   UNL A   1      34.372  31.965  28.232  1.00  0.00     0.017 C 
ATOM      5  H   UNL A   1      33.666  31.162  28.283  1.00  0.00     0.049 H 
ATOM      6  H   UNL A   1      34.042  32.719  27.547  1.00  0.00     0.049 H 
BRANCH   4   7
ATOM      7  N   UNL A   1      35.642  31.449  27.762  1.00  0.00    -0.356 N 
ATOM      8  C   UNL A   1      36.057  30.154  27.645  1.00  0.00     0.224 C 
ATOM      9  O   UNL A   1      37.220  29.937  27.301  1.00  0.00    -0.275 OA
ATOM     10  H   UNL A   1      36.298  32.129  27.486  1.00  0.00     0.163 HD
BRANCH   8  11
ATOM     11  C   UNL A   1      35.081  29.015  27.890  1.00  0.00     0.052 C 
ATOM     12  H   UNL A   1      35.622  28.092  27.848  1.00  0.00     0.042 H 
ATOM     13  H   UNL A   1      34.636  29.187  28.847  1.00  0.00     0.042 H 
BRANCH  11  14
ATOM     14  C   UNL A   1      33.954  28.950  26.889  1.00  0.00    -0.039 A 
ATOM     15  C   UNL A   1      31.841  28.983  25.046  1.00  0.00     0.000 A 
ATOM     16  C   UNL A   1      31.606  28.667  26.390  1.00  0.00    -0.053 A 
ATOM     17  C   UNL A   1      33.146  29.225  24.615  1.00  0.00    -0.053 A 
ATOM     18  C   UNL A   1      32.652  28.660  27.309  1.00  0.00    -0.058 A 
ATOM     19  H   UNL A   1      30.649  28.438  26.702  1.00  0.00     0.063 H 
ATOM     20  C   UNL A   1      34.198  29.192  25.529  1.00  0.00    -0.058 A 
ATOM     21  H   UNL A   1      33.332  29.428  23.621  1.00  0.00     0.063 H 
ATOM     22  H   UNL A   1      32.467  28.440  28.300  1.00  0.00     0.063 H 
ATOM     23  H   UNL A   1      35.164  29.347  25.202  1.00  0.00     0.063 H 
BRANCH  15  24
ATOM     24  C   UNL A   1      30.743  29.028  24.093  1.00  0.00     0.075 A 
ATOM     25  N   UNL A   1      30.329  27.970  23.304  1.00  0.00    -0.233 N 
ATOM     26  N   UNL A   1      29.363  28.329  22.421  1.00  0.00    -0.163 NA
ATOM     27  C   UNL A   1      29.136  29.635  22.667  1.00  0.00     0.167 A 
ATOM     28  C   UNL A   1      29.963  30.101  23.718  1.00  0.00    -0.003 A 
ATOM     29  H   UNL A   1      29.978  31.051  24.121  1.00  0.00     0.067 H 
BRANCH  25  30
ATOM     30  C   UNL A   1      30.820  26.644  23.336  1.00  0.00     0.065 A 
ATOM     31  C   UNL A   1      31.838  24.056  23.379  1.00  0.00     0.067 A 
ATOM     32  C   UNL A   1      30.684  24.363  24.112  1.00  0.00    -0.041 A 
ATOM     33  C   UNL A   1      32.502  25.045  22.650  1.00  0.00    -0.041 A 
ATOM     34  C   UNL A   1      30.167  25.665  24.091  1.00  0.00    -0.035 A 
ATOM     35  H   UNL A   1      30.215  23.630  24.666  1.00  0.00     0.064 H 
ATOM     36  C   UNL A   1      31.998  26.346  22.644  1.00  0.00    -0.035 A 
ATOM     37  H   UNL A   1      33.357  24.817  22.120  1.00  0.00     0.064 H 
ATOM     38  H   UNL A   1      29.316  25.898  24.627  1.00  0.00     0.065 H 
ATOM     39  H   UNL A   1      32.495  27.089  22.129  1.00  0.00     0.065 H 
BRANCH  31  40
ATOM     40  S   UNL A   1      32.553  22.426  23.473  1.00  0.00     0.175 S 
ATOM     41  O   UNL A   1      32.184  21.751  22.234  1.00  0.00    -0.224 OA
ATOM     42  O   UNL A   1      32.225  21.869  24.761  1.00  0.00    -0.224 OA
BRANCH  40  43
ATOM     43  C   UNL A   1      34.298  22.672  23.442  1.00  0.00     0.043 C 
ATOM     44  H   UNL A   1      34.553  23.320  22.630  1.00  0.00     0.040 H 
ATOM     45  H   UNL A   1      34.789  21.730  23.314  1.00  0.00     0.040 H 
ATOM     46  H   UNL A   1      34.612  23.115  24.364  1.00  0.00     0.040 H 
ENDBRANCH  40  43
ENDBRANCH  31  40
ENDBRANCH  25  30
BRANCH  27  47
ATOM     47  C   UNL A   1      28.142  30.467  21.899  1.00  0.00     0.435 C 
ATOM     48  F   UNL A   1      28.523  31.767  21.786  1.00  0.00    -0.164 F 
ATOM     49  F   UNL A   1      27.947  29.999  20.637  1.00  0.00    -0.164 F 
ATOM     50  F   UNL A   1      26.919  30.474  22.499  1.00  0.00    -0.164 F 
ENDBRANCH  27  47
ENDBRANCH  15  24
ENDBRANCH  11  14
ENDBRANCH   8  11
ENDBRANCH   4   7
ENDBRANCH   1   4
BRANCH   1  51
ATOM     51  C   UNL A   1      35.690  32.068  30.435  1.00  0.00    -0.052 C 
ATOM     52  H   UNL A   1      36.572  32.571  30.099  1.00  0.00     0.027 H 
ATOM     53  H   UNL A   1      35.705  31.011  30.273  1.00  0.00     0.027 H 
BRANCH  51  54
ATOM     54  C   UNL A   1      35.587  32.259  31.956  1.00  0.00    -0.052 C 
ATOM     55  H   UNL A   1      34.634  31.888  32.269  1.00  0.00     0.027 H 
ATOM     56  H   UNL A   1      35.728  33.307  32.123  1.00  0.00     0.027 H 
BRANCH  54  57
ATOM     57  C   UNL A   1      36.662  31.561  32.803  1.00  0.00    -0.036 C 
ATOM     58  H   UNL A   1      36.570  30.504  32.661  1.00  0.00     0.028 H 
ATOM     59  H   UNL A   1      36.496  31.852  33.820  1.00  0.00     0.028 H 
BRANCH  57  60
ATOM     60  C   UNL A   1      38.082  31.972  32.451  1.00  0.00     0.018 C 
ATOM     61  H   UNL A   1      38.655  31.089  32.253  1.00  0.00     0.049 H 
ATOM     62  H   UNL A   1      38.478  32.519  33.280  1.00  0.00     0.049 H 
BRANCH  60  63
ATOM     63  N   UNL A   1      38.139  32.842  31.274  1.00  0.00    -0.352 N 
ATOM     64  C   UNL A   1      39.159  32.990  30.353  1.00  0.00     0.251 C 
ATOM     65  H   UNL A   1      37.341  33.399  31.118  1.00  0.00     0.163 HD
ATOM     66  O   UNL A   1      39.251  33.999  29.666  1.00  0.00    -0.269 OA
BRANCH  64  67
ATOM     67  C   UNL A   1      40.127  31.892  30.189  1.00  0.00     0.039 A 
ATOM     68  C   UNL A   1      41.501  32.064  30.397  1.00  0.00    -0.049 A 
ATOM     69  C   UNL A   1      39.619  30.652  29.815  1.00  0.00    -0.049 A 
ATOM     70  C   UNL A   1      42.342  30.957  30.274  1.00  0.00    -0.053 A 
ATOM     71  H   UNL A   1      41.883  32.991  30.637  1.00  0.00     0.063 H 
ATOM     72  C   UNL A   1      40.406  29.541  29.906  1.00  0.00    -0.053 A 
ATOM     73  H   UNL A   1      38.650  30.574  29.470  1.00  0.00     0.063 H 
ATOM     74  C   UNL A   1      41.779  29.698  30.030  1.00  0.00    -0.014 A 
ATOM     75  H   UNL A   1      43.365  31.065  30.361  1.00  0.00     0.063 H 
ATOM     76  H   UNL A   1      39.987  28.598  29.884  1.00  0.00     0.063 H 
BRANCH  74  77
ATOM     77  C   UNL A   1      42.552  28.463  30.026  1.00  0.00     0.031 A 
ATOM     78  C   UNL A   1      43.008  28.046  31.372  1.00  0.00     0.074 A 
ATOM     79  C   UNL A   1      42.570  27.633  28.958  1.00  0.00     0.049 A 
ATOM     80  N   UNL A   1      44.226  27.981  31.793  1.00  0.00    -0.248 NA
ATOM     81  C   UNL A   1      42.000  27.832  32.424  1.00  0.00    -0.034 C 
ATOM     82  C   UNL A   1      41.912  27.807  27.663  1.00  0.00    -0.036 A 
ATOM     83  N   UNL A   1      43.101  26.386  28.840  1.00  0.00    -0.354 N 
ATOM     84  C   UNL A   1      44.146  27.485  33.089  1.00  0.00     0.074 A 
ATOM     85  C   UNL A   1      42.778  27.650  33.495  1.00  0.00    -0.034 C 
ATOM     86  H   UNL A   1      40.971  27.825  32.355  1.00  0.00     0.065 H 
ATOM     87  C   UNL A   1      41.870  26.626  27.000  1.00  0.00    -0.036 A 
ATOM     88  H   UNL A   1      41.535  28.699  27.306  1.00  0.00     0.065 H 
ATOM     89  C   UNL A   1      42.646  25.653  27.740  1.00  0.00     0.049 A 
ATOM     90  H   UNL A   1      43.757  26.027  29.481  1.00  0.00     0.167 HD
ATOM     91  C   UNL A   1      45.145  26.703  33.586  1.00  0.00     0.037 A 
ATOM     92  H   UNL A   1      42.443  27.630  34.471  1.00  0.00     0.065 H 
ATOM     93  H   UNL A   1      41.370  26.450  26.115  1.00  0.00     0.065 H 
ATOM     94  C   UNL A   1      42.903  24.343  27.473  1.00  0.00     0.037 A 
ATOM     95  C   UNL A   1      46.346  26.850  32.792  1.00  0.00     0.049 A 
ATOM     96  C   UNL A   1      44.085  23.977  28.290  1.00  0.00     0.074 A 
ATOM     97  C   UNL A   1      47.122  27.927  32.403  1.00  0.00    -0.036 A 
ATOM     98  N   UNL A   1      46.676  25.836  31.923  1.00  0.00    -0.354 N 
ATOM     99  N   UNL A   1      45.281  24.432  28.049  1.00  0.00    -0.248 NA
ATOM    100  C   UNL A   1      43.830  23.533  29.652  1.00  0.00    -0.034 C 
ATOM    101  C   UNL A   1      47.447  27.673  31.036  1.00  0.00    -0.036 A 
ATOM    102  H   UNL A   1      47.403  28.738  32.976  1.00  0.00     0.065 H 
ATOM    103  C   UNL A   1      46.950  26.414  30.709  1.00  0.00     0.049 A 
ATOM    104  H   UNL A   1      46.710  24.875  32.132  1.00  0.00     0.167 HD
ATOM    105  C   UNL A   1      45.781  24.752  29.298  1.00  0.00     0.074 A 
ATOM    106  C   UNL A   1      44.864  24.126  30.255  1.00  0.00    -0.034 C 
ATOM    107  H   UNL A   1      43.078  22.940  30.037  1.00  0.00     0.065 H 
ATOM    108  H   UNL A   1      47.958  28.309  30.404  1.00  0.00     0.065 H 
ATOM    109  C   UNL A   1      46.693  25.755  29.453  1.00  0.00     0.037 A 
ATOM    110  H   UNL A   1      45.002  24.143  31.277  1.00  0.00     0.065 H 
BRANCH  91 111
ATOM    111  C   UNL A   1      44.924  25.518  34.505  1.00  0.00     0.064 A 
ATOM    112  C   UNL A   1      45.632  25.474  35.725  1.00  0.00     0.173 A 
ATOM    113  C   UNL A   1      44.295  24.309  34.134  1.00  0.00     0.173 A 
ATOM    114  F   UNL A   1      46.273  26.559  36.182  1.00  0.00    -0.203 F 
ATOM    115  C   UNL A   1      45.785  24.289  36.451  1.00  0.00     0.198 A 
ATOM    116  C   UNL A   1      44.405  23.143  34.891  1.00  0.00     0.198 A 
ATOM    117  F   UNL A   1      43.639  24.155  32.981  1.00  0.00    -0.203 F 
ATOM    118  F   UNL A   1      46.585  24.271  37.525  1.00  0.00    -0.200 F 
ATOM    119  C   UNL A   1      45.179  23.123  36.029  1.00  0.00     0.200 A 
ATOM    120  F   UNL A   1      43.814  22.021  34.456  1.00  0.00    -0.200 F 
ATOM    121  F   UNL A   1      45.375  21.974  36.687  1.00  0.00    -0.200 F 
ENDBRANCH  91 111
BRANCH  94 122
ATOM    122  C   UNL A   1      42.106  23.291  26.792  1.00  0.00     0.064 A 
ATOM    123  C   UNL A   1      42.717  22.131  26.280  1.00  0.00     0.173 A 
ATOM    124  C   UNL A   1      40.711  23.244  26.929  1.00  0.00     0.173 A 
ATOM    125  F   UNL A   1      44.049  22.083  26.133  1.00  0.00    -0.203 F 
ATOM    126  C   UNL A   1      41.984  20.977  25.979  1.00  0.00     0.198 A 
ATOM    127  C   UNL A   1      39.982  22.087  26.623  1.00  0.00     0.198 A 
ATOM    128  F   UNL A   1      40.060  24.295  27.441  1.00  0.00    -0.203 F 
ATOM    129  F   UNL A   1      42.612  19.872  25.555  1.00  0.00    -0.200 F 
ATOM    130  C   UNL A   1      40.618  20.949  26.171  1.00  0.00     0.200 A 
ATOM    131  F   UNL A   1      38.659  22.038  26.804  1.00  0.00    -0.200 F 
ATOM    132  F   UNL A   1      39.916  19.829  25.949  1.00  0.00    -0.200 F 
ENDBRANCH  94 122
BRANCH 109 133
ATOM    133  C   UNL A   1      47.318  26.350  28.221  1.00  0.00     0.064 A 
ATOM    134  C   UNL A   1      48.395  25.782  27.514  1.00  0.00     0.173 A 
ATOM    135  C   UNL A   1      46.706  27.474  27.658  1.00  0.00     0.173 A 
ATOM    136  F   UNL A   1      48.972  24.646  27.926  1.00  0.00    -0.203 F 
ATOM    137  C   UNL A   1      48.860  26.346  26.325  1.00  0.00     0.198 A 
ATOM    138  C   UNL A   1      47.147  28.014  26.453  1.00  0.00     0.198 A 
ATOM    139  F   UNL A   1      45.641  28.029  28.259  1.00  0.00    -0.203 F 
ATOM    140  F   UNL A   1      49.895  25.792  25.676  1.00  0.00    -0.200 F 
ATOM    141  C   UNL A   1      48.230  27.459  25.793  1.00  0.00     0.200 A 
ATOM    142  F   UNL A   1      46.500  29.059  25.919  1.00  0.00    -0.200 F 
ATOM    143  F   UNL A   1      48.649  27.980  24.632  1.00  0.00    -0.200 F 
ENDBRANCH 109 133
ENDBRANCH  74  77
ENDBRANCH  64  67
ENDBRANCH  60  63
ENDBRANCH  57  60
ENDBRANCH  54  57
ENDBRANCH  51  54
ENDBRANCH   1  51
TORSDOF 19
ENDMDL
MODEL 6
REMARK VINA RESULT:     -11.6      5.825     10.386
REMARK SMILES CS(=O)(=O)c1ccc(-n2nc(C(F)(F)F)cc2-c2ccc(CC(=O)NCCCCCCNC(=O)c3ccc(-c4c5nc(c(-c6c(F)c(F)c(F)c(F)c6F)c6ccc([nH]6)c(-c6c(F)c(F)c(F)c(F)c6F)c6nc(c(-c7c(F)c(F)c(F)c(F)c7F)c7ccc4[nH]7)C=C6)C=C5)cc3)cc2)cc1
REMARK SMILES IDX 27 1 26 4 25 7 23 8 24 9 22 11 21 14 18 15 19 16 99 17 20 18
REMARK SMILES IDX 98 20 17 24 9 25 10 26 11 27 16 28 8 30 5 31 6 32 101 33
REMARK SMILES IDX 7 34 100 36 2 40 3 41 4 42 1 43 12 47 13 48 14 49 15 50
REMARK SMILES IDX 28 51 29 54 30 57 31 60 32 63 33 64 34 66 35 67 36 68 97 69
REMARK SMILES IDX 37 70 96 72 38 74 39 77 40 78 90 79 41 80 95 81 89 82 91 83
REMARK SMILES IDX 42 84 94 85 88 87 87 89 43 91 75 94 55 95 74 96 56 97 59 98
REMARK SMILES IDX 73 99 92 100 57 101 58 103 72 105 93 106 60 109 44 111
REMARK SMILES IDX 45 112 53 113 46 114 47 115 51 116 54 117 48 118 49 119
REMARK SMILES IDX 52 120 50 121 76 122 77 123 85 124 78 125 79 126 83 127
REMARK SMILES IDX 86 128 80 129 81 130 84 131 82 132 61 133 62 134 70 135
REMARK SMILES IDX 63 136 64 137 68 138 71 139 65 140 66 141 69 142 67 143
REMARK H PARENT 27 2 27 3 26 5 26 6 25 10 22 12 22 13 19 19 99 21 20 22 98 23
REMARK H PARENT 16 29 6 35 101 37 7 38 100 39 1 44 1 45 1 46 28 52 28 53 29 55
REMARK H PARENT 29 56 30 58 30 59 31 61 31 62 32 65 36 71 97 73 37 75 96 76
REMARK H PARENT 95 86 89 88 91 90 94 92 88 93 56 102 59 104 92 107 57 108
REMARK H PARENT 93 110
REMARK Flexibility Score: inf
ROOT
ATOM      1  C   UNL A   1      41.059  30.904  31.210  1.00  0.00    -0.036 C 
ATOM      2  H   UNL A   1      41.945  31.270  30.735  1.00  0.00     0.028 H 
ATOM      3  H   UNL A   1      41.261  30.442  32.154  1.00  0.00     0.028 H 
ENDROOT
BRANCH   1   4
ATOM      4  C   UNL A   1      40.439  29.831  30.313  1.00  0.00     0.017 C 
ATOM      5  H   UNL A   1      39.659  30.273  29.728  1.00  0.00     0.049 H 
ATOM      6  H   UNL A   1      41.209  29.435  29.683  1.00  0.00     0.049 H 
BRANCH   4   7
ATOM      7  N   UNL A   1      39.887  28.742  31.093  1.00  0.00    -0.356 N 
ATOM      8  C   UNL A   1      38.593  28.316  31.185  1.00  0.00     0.224 C 
ATOM      9  O   UNL A   1      38.325  27.417  31.984  1.00  0.00    -0.275 OA
ATOM     10  H   UNL A   1      40.537  28.237  31.633  1.00  0.00     0.163 HD
BRANCH   8  11
ATOM     11  C   UNL A   1      37.527  28.913  30.283  1.00  0.00     0.052 C 
ATOM     12  H   UNL A   1      37.942  29.028  29.302  1.00  0.00     0.042 H 
ATOM     13  H   UNL A   1      36.694  28.242  30.300  1.00  0.00     0.042 H 
BRANCH  11  14
ATOM     14  C   UNL A   1      37.017  30.256  30.743  1.00  0.00    -0.039 A 
ATOM     15  C   UNL A   1      35.926  32.706  31.561  1.00  0.00     0.000 A 
ATOM     16  C   UNL A   1      36.465  32.563  30.276  1.00  0.00    -0.053 A 
ATOM     17  C   UNL A   1      35.988  31.637  32.455  1.00  0.00    -0.053 A 
ATOM     18  C   UNL A   1      36.997  31.344  29.865  1.00  0.00    -0.058 A 
ATOM     19  H   UNL A   1      36.466  33.366  29.628  1.00  0.00     0.063 H 
ATOM     20  C   UNL A   1      36.546  30.425  32.053  1.00  0.00    -0.058 A 
ATOM     21  H   UNL A   1      35.621  31.744  33.413  1.00  0.00     0.063 H 
ATOM     22  H   UNL A   1      37.379  31.243  28.911  1.00  0.00     0.063 H 
ATOM     23  H   UNL A   1      36.612  29.645  32.725  1.00  0.00     0.063 H 
BRANCH  15  24
ATOM     24  C   UNL A   1      35.334  33.967  31.978  1.00  0.00     0.075 A 
ATOM     25  N   UNL A   1      35.688  34.677  33.111  1.00  0.00    -0.233 N 
ATOM     26  N   UNL A   1      34.889  35.754  33.320  1.00  0.00    -0.163 NA
ATOM     27  C   UNL A   1      34.023  35.749  32.285  1.00  0.00     0.167 A 
ATOM     28  C   UNL A   1      34.283  34.661  31.416  1.00  0.00    -0.003 A 
ATOM     29  H   UNL A   1      33.787  34.434  30.541  1.00  0.00     0.067 H 
BRANCH  25  30
ATOM     30  C   UNL A   1      36.733  34.371  34.013  1.00  0.00     0.065 A 
ATOM     31  C   UNL A   1      38.751  33.732  35.818  1.00  0.00     0.067 A 
ATOM     32  C   UNL A   1      39.080  34.253  34.560  1.00  0.00    -0.041 A 
ATOM     33  C   UNL A   1      37.418  33.502  36.165  1.00  0.00    -0.041 A 
ATOM     34  C   UNL A   1      38.067  34.577  33.648  1.00  0.00    -0.035 A 
ATOM     35  H   UNL A   1      40.070  34.398  34.305  1.00  0.00     0.064 H 
ATOM     36  C   UNL A   1      36.409  33.807  35.252  1.00  0.00    -0.035 A 
ATOM     37  H   UNL A   1      37.180  33.110  37.090  1.00  0.00     0.064 H 
ATOM     38  H   UNL A   1      38.302  34.962  32.721  1.00  0.00     0.065 H 
ATOM     39  H   UNL A   1      35.424  33.617  35.489  1.00  0.00     0.065 H 
BRANCH  31  40
ATOM     40  S   UNL A   1      40.036  33.233  36.947  1.00  0.00     0.175 S 
ATOM     41  O   UNL A   1      39.408  32.328  37.902  1.00  0.00    -0.224 OA
ATOM     42  O   UNL A   1      40.733  34.419  37.381  1.00  0.00    -0.224 OA
BRANCH  40  43
ATOM     43  C   UNL A   1      41.169  32.286  35.986  1.00  0.00     0.043 C 
ATOM     44  H   UNL A   1      40.976  31.244  36.129  1.00  0.00     0.040 H 
ATOM     45  H   UNL A   1      42.170  32.509  36.292  1.00  0.00     0.040 H 
ATOM     46  H   UNL A   1      41.051  32.532  34.951  1.00  0.00     0.040 H 
ENDBRANCH  40  43
ENDBRANCH  31  40
ENDBRANCH  25  30
BRANCH  27  47
ATOM     47  C   UNL A   1      32.924  36.765  32.113  1.00  0.00     0.435 C 
ATOM     48  F   UNL A   1      32.088  36.816  33.183  1.00  0.00    -0.164 F 
ATOM     49  F   UNL A   1      33.411  38.022  31.928  1.00  0.00    -0.164 F 
ATOM     50  F   UNL A   1      32.148  36.491  31.028  1.00  0.00    -0.164 F 
ENDBRANCH  27  47
ENDBRANCH  15  24
ENDBRANCH  11  14
ENDBRANCH   8  11
ENDBRANCH   4   7
ENDBRANCH   1   4
BRANCH   1  51
ATOM     51  C   UNL A   1      40.131  32.095  31.487  1.00  0.00    -0.052 C 
ATOM     52  H   UNL A   1      40.425  32.529  32.419  1.00  0.00     0.027 H 
ATOM     53  H   UNL A   1      39.138  31.697  31.487  1.00  0.00     0.027 H 
BRANCH  51  54
ATOM     54  C   UNL A   1      40.140  33.204  30.424  1.00  0.00    -0.052 C 
ATOM     55  H   UNL A   1      39.164  33.248  29.989  1.00  0.00     0.027 H 
ATOM     56  H   UNL A   1      40.917  32.938  29.738  1.00  0.00     0.027 H 
BRANCH  54  57
ATOM     57  C   UNL A   1      40.495  34.615  30.917  1.00  0.00    -0.036 C 
ATOM     58  H   UNL A   1      39.662  35.001  31.467  1.00  0.00     0.028 H 
ATOM     59  H   UNL A   1      40.719  35.202  30.050  1.00  0.00     0.028 H 
BRANCH  57  60
ATOM     60  C   UNL A   1      41.723  34.660  31.812  1.00  0.00     0.018 C 
ATOM     61  H   UNL A   1      42.010  33.657  32.050  1.00  0.00     0.049 H 
ATOM     62  H   UNL A   1      41.466  35.214  32.690  1.00  0.00     0.049 H 
BRANCH  60  63
ATOM     63  N   UNL A   1      42.857  35.334  31.175  1.00  0.00    -0.352 N 
ATOM     64  C   UNL A   1      44.016  34.784  30.663  1.00  0.00     0.251 C 
ATOM     65  H   UNL A   1      42.783  36.314  31.103  1.00  0.00     0.163 HD
ATOM     66  O   UNL A   1      45.029  35.458  30.521  1.00  0.00    -0.269 OA
BRANCH  64  67
ATOM     67  C   UNL A   1      44.007  33.367  30.258  1.00  0.00     0.039 A 
ATOM     68  C   UNL A   1      43.495  32.941  29.027  1.00  0.00    -0.049 A 
ATOM     69  C   UNL A   1      44.538  32.450  31.159  1.00  0.00    -0.049 A 
ATOM     70  C   UNL A   1      43.575  31.587  28.699  1.00  0.00    -0.053 A 
ATOM     71  H   UNL A   1      43.067  33.615  28.375  1.00  0.00     0.063 H 
ATOM     72  C   UNL A   1      44.807  31.176  30.749  1.00  0.00    -0.053 A 
ATOM     73  H   UNL A   1      44.728  32.732  32.133  1.00  0.00     0.063 H 
ATOM     74  C   UNL A   1      44.239  30.714  29.571  1.00  0.00    -0.014 A 
ATOM     75  H   UNL A   1      43.152  31.233  27.827  1.00  0.00     0.063 H 
ATOM     76  H   UNL A   1      45.426  30.566  31.307  1.00  0.00     0.063 H 
BRANCH  74  77
ATOM     77  C   UNL A   1      44.501  29.316  29.257  1.00  0.00     0.031 A 
ATOM     78  C   UNL A   1      45.441  29.129  28.127  1.00  0.00     0.074 A 
ATOM     79  C   UNL A   1      44.175  28.317  30.109  1.00  0.00     0.049 A 
ATOM     80  N   UNL A   1      45.176  28.609  26.977  1.00  0.00    -0.248 NA
ATOM     81  C   UNL A   1      46.781  29.733  28.215  1.00  0.00    -0.034 C 
ATOM     82  C   UNL A   1      43.497  28.412  31.401  1.00  0.00    -0.036 A 
ATOM     83  N   UNL A   1      44.482  26.993  30.047  1.00  0.00    -0.354 N 
ATOM     84  C   UNL A   1      46.382  28.601  26.285  1.00  0.00     0.074 A 
ATOM     85  C   UNL A   1      47.248  29.509  26.984  1.00  0.00    -0.034 C 
ATOM     86  H   UNL A   1      47.237  30.202  29.013  1.00  0.00     0.065 H 
ATOM     87  C   UNL A   1      43.666  27.265  32.101  1.00  0.00    -0.036 A 
ATOM     88  H   UNL A   1      42.967  29.233  31.732  1.00  0.00     0.065 H 
ATOM     89  C   UNL A   1      44.313  26.292  31.246  1.00  0.00     0.049 A 
ATOM     90  H   UNL A   1      44.799  26.560  29.222  1.00  0.00     0.167 HD
ATOM     91  C   UNL A   1      46.650  27.611  25.387  1.00  0.00     0.037 A 
ATOM     92  H   UNL A   1      48.105  29.929  26.593  1.00  0.00     0.065 H 
ATOM     93  H   UNL A   1      43.381  27.110  33.080  1.00  0.00     0.065 H 
ATOM     94  C   UNL A   1      44.682  25.006  31.495  1.00  0.00     0.037 A 
ATOM     95  C   UNL A   1      45.432  26.932  25.002  1.00  0.00     0.049 A 
ATOM     96  C   UNL A   1      44.870  24.364  30.172  1.00  0.00     0.074 A 
ATOM     97  C   UNL A   1      44.221  27.345  24.476  1.00  0.00    -0.036 A 
ATOM     98  N   UNL A   1      45.188  25.687  25.533  1.00  0.00    -0.354 N 
ATOM     99  N   UNL A   1      43.881  24.100  29.366  1.00  0.00    -0.248 NA
ATOM    100  C   UNL A   1      46.180  24.502  29.554  1.00  0.00    -0.034 C 
ATOM    101  C   UNL A   1      43.236  26.593  25.184  1.00  0.00    -0.036 A 
ATOM    102  H   UNL A   1      44.063  28.045  23.734  1.00  0.00     0.065 H 
ATOM    103  C   UNL A   1      43.903  25.693  26.012  1.00  0.00     0.049 A 
ATOM    104  H   UNL A   1      45.819  24.931  25.563  1.00  0.00     0.167 HD
ATOM    105  C   UNL A   1      44.347  24.477  28.119  1.00  0.00     0.074 A 
ATOM    106  C   UNL A   1      45.790  24.668  28.287  1.00  0.00    -0.034 C 
ATOM    107  H   UNL A   1      47.125  24.479  29.969  1.00  0.00     0.065 H 
ATOM    108  H   UNL A   1      42.213  26.696  25.098  1.00  0.00     0.065 H 
ATOM    109  C   UNL A   1      43.490  24.915  27.153  1.00  0.00     0.037 A 
ATOM    110  H   UNL A   1      46.432  24.903  27.515  1.00  0.00     0.065 H 
BRANCH  91 111
ATOM    111  C   UNL A   1      48.019  26.993  25.184  1.00  0.00     0.064 A 
ATOM    112  C   UNL A   1      48.707  26.500  26.313  1.00  0.00     0.173 A 
ATOM    113  C   UNL A   1      48.803  27.121  24.015  1.00  0.00     0.173 A 
ATOM    114  F   UNL A   1      48.072  26.337  27.482  1.00  0.00    -0.203 F 
ATOM    115  C   UNL A   1      50.084  26.259  26.296  1.00  0.00     0.198 A 
ATOM    116  C   UNL A   1      50.165  26.827  23.988  1.00  0.00     0.198 A 
ATOM    117  F   UNL A   1      48.329  27.633  22.876  1.00  0.00    -0.203 F 
ATOM    118  F   UNL A   1      50.711  25.928  27.433  1.00  0.00    -0.200 F 
ATOM    119  C   UNL A   1      50.813  26.431  25.137  1.00  0.00     0.200 A 
ATOM    120  F   UNL A   1      50.854  27.010  22.853  1.00  0.00    -0.200 F 
ATOM    121  F   UNL A   1      52.141  26.263  25.134  1.00  0.00    -0.200 F 
ENDBRANCH  91 111
BRANCH  94 122
ATOM    122  C   UNL A   1      45.140  24.323  32.732  1.00  0.00     0.064 A 
ATOM    123  C   UNL A   1      46.175  24.858  33.520  1.00  0.00     0.173 A 
ATOM    124  C   UNL A   1      44.356  23.328  33.336  1.00  0.00     0.173 A 
ATOM    125  F   UNL A   1      46.961  25.825  33.028  1.00  0.00    -0.203 F 
ATOM    126  C   UNL A   1      46.376  24.465  34.849  1.00  0.00     0.198 A 
ATOM    127  C   UNL A   1      44.563  22.936  34.664  1.00  0.00     0.198 A 
ATOM    128  F   UNL A   1      43.330  22.794  32.662  1.00  0.00    -0.203 F 
ATOM    129  F   UNL A   1      47.332  25.046  35.586  1.00  0.00    -0.200 F 
ATOM    130  C   UNL A   1      45.555  23.518  35.426  1.00  0.00     0.200 A 
ATOM    131  F   UNL A   1      43.778  22.023  35.245  1.00  0.00    -0.200 F 
ATOM    132  F   UNL A   1      45.696  23.182  36.717  1.00  0.00    -0.200 F 
ENDBRANCH  94 122
BRANCH 109 133
ATOM    133  C   UNL A   1      42.012  24.761  27.385  1.00  0.00     0.064 A 
ATOM    134  C   UNL A   1      41.189  25.733  27.985  1.00  0.00     0.173 A 
ATOM    135  C   UNL A   1      41.382  23.634  26.847  1.00  0.00     0.173 A 
ATOM    136  F   UNL A   1      41.695  26.889  28.433  1.00  0.00    -0.203 F 
ATOM    137  C   UNL A   1      39.808  25.554  28.082  1.00  0.00     0.198 A 
ATOM    138  C   UNL A   1      40.000  23.474  26.911  1.00  0.00     0.198 A 
ATOM    139  F   UNL A   1      42.108  22.698  26.215  1.00  0.00    -0.203 F 
ATOM    140  F   UNL A   1      39.047  26.490  28.670  1.00  0.00    -0.200 F 
ATOM    141  C   UNL A   1      39.215  24.427  27.539  1.00  0.00     0.200 A 
ATOM    142  F   UNL A   1      39.429  22.406  26.338  1.00  0.00    -0.200 F 
ATOM    143  F   UNL A   1      37.885  24.270  27.595  1.00  0.00    -0.200 F 
ENDBRANCH 109 133
ENDBRANCH  74  77
ENDBRANCH  64  67
ENDBRANCH  60  63
ENDBRANCH  57  60
ENDBRANCH  54  57
ENDBRANCH  51  54
ENDBRANCH   1  51
TORSDOF 19
ENDMDL
MODEL 7
REMARK VINA RESULT:     -11.6      3.570      7.980
REMARK SMILES CS(=O)(=O)c1ccc(-n2nc(C(F)(F)F)cc2-c2ccc(CC(=O)NCCCCCCNC(=O)c3ccc(-c4c5nc(c(-c6c(F)c(F)c(F)c(F)c6F)c6ccc([nH]6)c(-c6c(F)c(F)c(F)c(F)c6F)c6nc(c(-c7c(F)c(F)c(F)c(F)c7F)c7ccc4[nH]7)C=C6)C=C5)cc3)cc2)cc1
REMARK SMILES IDX 27 1 26 4 25 7 23 8 24 9 22 11 21 14 18 15 19 16 99 17 20 18
REMARK SMILES IDX 98 20 17 24 9 25 10 26 11 27 16 28 8 30 5 31 6 32 101 33
REMARK SMILES IDX 7 34 100 36 2 40 3 41 4 42 1 43 12 47 13 48 14 49 15 50
REMARK SMILES IDX 28 51 29 54 30 57 31 60 32 63 33 64 34 66 35 67 36 68 97 69
REMARK SMILES IDX 37 70 96 72 38 74 39 77 40 78 90 79 41 80 95 81 89 82 91 83
REMARK SMILES IDX 42 84 94 85 88 87 87 89 43 91 75 94 55 95 74 96 56 97 59 98
REMARK SMILES IDX 73 99 92 100 57 101 58 103 72 105 93 106 60 109 44 111
REMARK SMILES IDX 45 112 53 113 46 114 47 115 51 116 54 117 48 118 49 119
REMARK SMILES IDX 52 120 50 121 76 122 77 123 85 124 78 125 79 126 83 127
REMARK SMILES IDX 86 128 80 129 81 130 84 131 82 132 61 133 62 134 70 135
REMARK SMILES IDX 63 136 64 137 68 138 71 139 65 140 66 141 69 142 67 143
REMARK H PARENT 27 2 27 3 26 5 26 6 25 10 22 12 22 13 19 19 99 21 20 22 98 23
REMARK H PARENT 16 29 6 35 101 37 7 38 100 39 1 44 1 45 1 46 28 52 28 53 29 55
REMARK H PARENT 29 56 30 58 30 59 31 61 31 62 32 65 36 71 97 73 37 75 96 76
REMARK H PARENT 95 86 89 88 91 90 94 92 88 93 56 102 59 104 92 107 57 108
REMARK H PARENT 93 110
REMARK Flexibility Score: inf
ROOT
ATOM      1  C   UNL A   1      37.244  29.932  30.818  1.00  0.00    -0.036 C 
ATOM      2  H   UNL A   1      38.065  30.503  30.437  1.00  0.00     0.028 H 
ATOM      3  H   UNL A   1      37.524  28.929  31.067  1.00  0.00     0.028 H 
ENDROOT
BRANCH   1   4
ATOM      4  C   UNL A   1      36.176  29.838  29.727  1.00  0.00     0.017 C 
ATOM      5  H   UNL A   1      36.377  28.984  29.114  1.00  0.00     0.049 H 
ATOM      6  H   UNL A   1      35.220  29.750  30.200  1.00  0.00     0.049 H 
BRANCH   4   7
ATOM      7  N   UNL A   1      36.163  31.024  28.895  1.00  0.00    -0.356 N 
ATOM      8  C   UNL A   1      35.172  31.500  28.086  1.00  0.00     0.224 C 
ATOM      9  O   UNL A   1      35.404  32.491  27.391  1.00  0.00    -0.275 OA
ATOM     10  H   UNL A   1      36.986  31.564  28.917  1.00  0.00     0.163 HD
BRANCH   8  11
ATOM     11  C   UNL A   1      33.802  30.842  28.089  1.00  0.00     0.052 C 
ATOM     12  H   UNL A   1      33.554  30.587  29.099  1.00  0.00     0.042 H 
ATOM     13  H   UNL A   1      33.119  31.546  27.662  1.00  0.00     0.042 H 
BRANCH  11  14
ATOM     14  C   UNL A   1      33.723  29.591  27.250  1.00  0.00    -0.039 A 
ATOM     15  C   UNL A   1      33.491  27.346  25.586  1.00  0.00     0.000 A 
ATOM     16  C   UNL A   1      32.605  27.532  26.654  1.00  0.00    -0.053 A 
ATOM     17  C   UNL A   1      34.530  28.256  25.389  1.00  0.00    -0.053 A 
ATOM     18  C   UNL A   1      32.712  28.652  27.475  1.00  0.00    -0.058 A 
ATOM     19  H   UNL A   1      31.865  26.835  26.834  1.00  0.00     0.063 H 
ATOM     20  C   UNL A   1      34.655  29.362  26.227  1.00  0.00    -0.058 A 
ATOM     21  H   UNL A   1      35.206  28.109  24.623  1.00  0.00     0.063 H 
ATOM     22  H   UNL A   1      32.045  28.788  28.251  1.00  0.00     0.063 H 
ATOM     23  H   UNL A   1      35.439  30.020  26.092  1.00  0.00     0.063 H 
BRANCH  15  24
ATOM     24  C   UNL A   1      33.356  26.197  24.704  1.00  0.00     0.075 A 
ATOM     25  N   UNL A   1      32.358  26.031  23.761  1.00  0.00    -0.233 N 
ATOM     26  N   UNL A   1      32.406  24.811  23.166  1.00  0.00    -0.163 NA
ATOM     27  C   UNL A   1      33.470  24.195  23.721  1.00  0.00     0.167 A 
ATOM     28  C   UNL A   1      34.100  25.037  24.670  1.00  0.00    -0.003 A 
ATOM     29  H   UNL A   1      34.945  24.825  25.223  1.00  0.00     0.067 H 
BRANCH  25  30
ATOM     30  C   UNL A   1      31.354  26.963  23.412  1.00  0.00     0.065 A 
ATOM     31  C   UNL A   1      29.342  28.773  22.767  1.00  0.00     0.067 A 
ATOM     32  C   UNL A   1      30.673  29.063  22.438  1.00  0.00    -0.041 A 
ATOM     33  C   UNL A   1      29.019  27.595  23.444  1.00  0.00    -0.041 A 
ATOM     34  C   UNL A   1      31.689  28.154  22.759  1.00  0.00    -0.035 A 
ATOM     35  H   UNL A   1      30.904  29.947  21.958  1.00  0.00     0.064 H 
ATOM     36  C   UNL A   1      30.032  26.697  23.781  1.00  0.00    -0.035 A 
ATOM     37  H   UNL A   1      28.038  27.389  23.693  1.00  0.00     0.064 H 
ATOM     38  H   UNL A   1      32.671  28.360  22.519  1.00  0.00     0.065 H 
ATOM     39  H   UNL A   1      29.806  25.837  24.304  1.00  0.00     0.065 H 
BRANCH  31  40
ATOM     40  S   UNL A   1      28.057  29.963  22.442  1.00  0.00     0.175 S 
ATOM     41  O   UNL A   1      26.897  29.527  23.210  1.00  0.00    -0.224 OA
ATOM     42  O   UNL A   1      27.985  30.164  21.016  1.00  0.00    -0.224 OA
BRANCH  40  43
ATOM     43  C   UNL A   1      28.623  31.474  23.152  1.00  0.00     0.043 C 
ATOM     44  H   UNL A   1      29.149  32.041  22.413  1.00  0.00     0.040 H 
ATOM     45  H   UNL A   1      29.278  31.261  23.971  1.00  0.00     0.040 H 
ATOM     46  H   UNL A   1      27.784  32.039  23.504  1.00  0.00     0.040 H 
ENDBRANCH  40  43
ENDBRANCH  31  40
ENDBRANCH  25  30
BRANCH  27  47
ATOM     47  C   UNL A   1      33.896  22.793  23.373  1.00  0.00     0.435 C 
ATOM     48  F   UNL A   1      33.064  22.202  22.474  1.00  0.00    -0.164 F 
ATOM     49  F   UNL A   1      35.148  22.752  22.844  1.00  0.00    -0.164 F 
ATOM     50  F   UNL A   1      33.916  21.985  24.469  1.00  0.00    -0.164 F 
ENDBRANCH  27  47
ENDBRANCH  15  24
ENDBRANCH  11  14
ENDBRANCH   8  11
ENDBRANCH   4   7
ENDBRANCH   1   4
BRANCH   1  51
ATOM     51  C   UNL A   1      36.755  30.592  32.113  1.00  0.00    -0.052 C 
ATOM     52  H   UNL A   1      37.541  31.217  32.481  1.00  0.00     0.027 H 
ATOM     53  H   UNL A   1      36.496  29.789  32.771  1.00  0.00     0.027 H 
BRANCH  51  54
ATOM     54  C   UNL A   1      35.488  31.453  31.983  1.00  0.00    -0.052 C 
ATOM     55  H   UNL A   1      34.714  30.984  32.553  1.00  0.00     0.027 H 
ATOM     56  H   UNL A   1      35.289  31.511  30.933  1.00  0.00     0.027 H 
BRANCH  54  57
ATOM     57  C   UNL A   1      35.604  32.909  32.459  1.00  0.00    -0.036 C 
ATOM     58  H   UNL A   1      34.637  33.362  32.399  1.00  0.00     0.028 H 
ATOM     59  H   UNL A   1      36.320  33.389  31.824  1.00  0.00     0.028 H 
BRANCH  57  60
ATOM     60  C   UNL A   1      36.113  33.049  33.884  1.00  0.00     0.018 C 
ATOM     61  H   UNL A   1      36.728  32.204  34.113  1.00  0.00     0.049 H 
ATOM     62  H   UNL A   1      35.261  33.102  34.530  1.00  0.00     0.049 H 
BRANCH  60  63
ATOM     63  N   UNL A   1      36.898  34.269  34.082  1.00  0.00    -0.352 N 
ATOM     64  C   UNL A   1      38.272  34.425  34.084  1.00  0.00     0.251 C 
ATOM     65  H   UNL A   1      36.377  35.090  34.235  1.00  0.00     0.163 HD
ATOM     66  O   UNL A   1      38.801  35.382  34.634  1.00  0.00    -0.269 OA
BRANCH  64  67
ATOM     67  C   UNL A   1      39.097  33.427  33.381  1.00  0.00     0.039 A 
ATOM     68  C   UNL A   1      39.186  33.374  31.985  1.00  0.00    -0.049 A 
ATOM     69  C   UNL A   1      39.801  32.522  34.168  1.00  0.00    -0.049 A 
ATOM     70  C   UNL A   1      40.034  32.433  31.400  1.00  0.00    -0.053 A 
ATOM     71  H   UNL A   1      38.635  34.021  31.399  1.00  0.00     0.063 H 
ATOM     72  C   UNL A   1      40.781  31.755  33.608  1.00  0.00    -0.053 A 
ATOM     73  H   UNL A   1      39.582  32.431  35.172  1.00  0.00     0.063 H 
ATOM     74  C   UNL A   1      40.830  31.629  32.227  1.00  0.00    -0.014 A 
ATOM     75  H   UNL A   1      40.074  32.329  30.374  1.00  0.00     0.063 H 
ATOM     76  H   UNL A   1      41.477  31.277  34.202  1.00  0.00     0.063 H 
BRANCH  74  77
ATOM     77  C   UNL A   1      41.847  30.719  31.718  1.00  0.00     0.031 A 
ATOM     78  C   UNL A   1      42.908  31.395  30.936  1.00  0.00     0.074 A 
ATOM     79  C   UNL A   1      41.975  29.455  32.183  1.00  0.00     0.049 A 
ATOM     80  N   UNL A   1      43.154  31.253  29.678  1.00  0.00    -0.248 NA
ATOM     81  C   UNL A   1      43.681  32.472  31.577  1.00  0.00    -0.034 C 
ATOM     82  C   UNL A   1      41.153  28.768  33.178  1.00  0.00    -0.036 A 
ATOM     83  N   UNL A   1      42.948  28.537  31.937  1.00  0.00    -0.354 N 
ATOM     84  C   UNL A   1      44.269  32.043  29.424  1.00  0.00     0.074 A 
ATOM     85  C   UNL A   1      44.387  32.936  30.543  1.00  0.00    -0.034 C 
ATOM     86  H   UNL A   1      43.679  32.784  32.560  1.00  0.00     0.065 H 
ATOM     87  C   UNL A   1      41.795  27.663  33.630  1.00  0.00    -0.036 A 
ATOM     88  H   UNL A   1      40.220  29.078  33.492  1.00  0.00     0.065 H 
ATOM     89  C   UNL A   1      42.991  27.467  32.837  1.00  0.00     0.049 A 
ATOM     90  H   UNL A   1      43.576  28.619  31.183  1.00  0.00     0.167 HD
ATOM     91  C   UNL A   1      45.167  31.674  28.467  1.00  0.00     0.037 A 
ATOM     92  H   UNL A   1      44.936  33.810  30.547  1.00  0.00     0.065 H 
ATOM     93  H   UNL A   1      41.483  27.062  34.408  1.00  0.00     0.065 H 
ATOM     94  C   UNL A   1      43.945  26.499  32.906  1.00  0.00     0.037 A 
ATOM     95  C   UNL A   1      44.583  30.696  27.575  1.00  0.00     0.049 A 
ATOM     96  C   UNL A   1      44.658  26.526  31.606  1.00  0.00     0.074 A 
ATOM     97  C   UNL A   1      43.443  30.660  26.792  1.00  0.00    -0.036 A 
ATOM     98  N   UNL A   1      44.963  29.381  27.717  1.00  0.00    -0.354 N 
ATOM     99  N   UNL A   1      44.110  26.139  30.490  1.00  0.00    -0.248 NA
ATOM    100  C   UNL A   1      45.770  27.457  31.486  1.00  0.00    -0.034 C 
ATOM    101  C   UNL A   1      42.916  29.346  26.967  1.00  0.00    -0.036 A 
ATOM    102  H   UNL A   1      43.058  31.420  26.209  1.00  0.00     0.065 H 
ATOM    103  C   UNL A   1      43.817  28.627  27.749  1.00  0.00     0.049 A 
ATOM    104  H   UNL A   1      45.885  29.043  27.782  1.00  0.00     0.167 HD
ATOM    105  C   UNL A   1      44.496  27.099  29.571  1.00  0.00     0.074 A 
ATOM    106  C   UNL A   1      45.563  27.859  30.228  1.00  0.00    -0.034 C 
ATOM    107  H   UNL A   1      46.499  27.727  32.166  1.00  0.00     0.065 H 
ATOM    108  H   UNL A   1      42.026  28.991  26.583  1.00  0.00     0.065 H 
ATOM    109  C   UNL A   1      43.707  27.402  28.500  1.00  0.00     0.037 A 
ATOM    110  H   UNL A   1      46.093  28.617  29.772  1.00  0.00     0.065 H 
BRANCH  91 111
ATOM    111  C   UNL A   1      46.665  31.869  28.583  1.00  0.00     0.064 A 
ATOM    112  C   UNL A   1      47.362  32.394  27.474  1.00  0.00     0.173 A 
ATOM    113  C   UNL A   1      47.482  31.309  29.591  1.00  0.00     0.173 A 
ATOM    114  F   UNL A   1      46.697  32.949  26.450  1.00  0.00    -0.203 F 
ATOM    115  C   UNL A   1      48.747  32.269  27.340  1.00  0.00     0.198 A 
ATOM    116  C   UNL A   1      48.869  31.237  29.479  1.00  0.00     0.198 A 
ATOM    117  F   UNL A   1      46.986  30.711  30.678  1.00  0.00    -0.203 F 
ATOM    118  F   UNL A   1      49.340  32.657  26.204  1.00  0.00    -0.200 F 
ATOM    119  C   UNL A   1      49.499  31.683  28.339  1.00  0.00     0.200 A 
ATOM    120  F   UNL A   1      49.577  30.656  30.458  1.00  0.00    -0.200 F 
ATOM    121  F   UNL A   1      50.817  31.505  28.187  1.00  0.00    -0.200 F 
ENDBRANCH  91 111
BRANCH  94 122
ATOM    122  C   UNL A   1      44.491  25.718  34.045  1.00  0.00     0.064 A 
ATOM    123  C   UNL A   1      44.975  26.356  35.201  1.00  0.00     0.173 A 
ATOM    124  C   UNL A   1      44.239  24.342  34.159  1.00  0.00     0.173 A 
ATOM    125  F   UNL A   1      45.226  27.673  35.186  1.00  0.00    -0.203 F 
ATOM    126  C   UNL A   1      45.142  25.673  36.412  1.00  0.00     0.198 A 
ATOM    127  C   UNL A   1      44.411  23.663  35.371  1.00  0.00     0.198 A 
ATOM    128  F   UNL A   1      43.744  23.671  33.112  1.00  0.00    -0.203 F 
ATOM    129  F   UNL A   1      45.544  26.331  37.507  1.00  0.00    -0.200 F 
ATOM    130  C   UNL A   1      44.839  24.330  36.501  1.00  0.00     0.200 A 
ATOM    131  F   UNL A   1      44.121  22.362  35.481  1.00  0.00    -0.200 F 
ATOM    132  F   UNL A   1      44.932  23.681  37.670  1.00  0.00    -0.200 F 
ENDBRANCH  94 122
BRANCH 109 133
ATOM    133  C   UNL A   1      42.527  26.517  28.208  1.00  0.00     0.064 A 
ATOM    134  C   UNL A   1      42.592  25.304  27.497  1.00  0.00     0.173 A 
ATOM    135  C   UNL A   1      41.301  26.849  28.795  1.00  0.00     0.173 A 
ATOM    136  F   UNL A   1      43.748  24.857  26.992  1.00  0.00    -0.203 F 
ATOM    137  C   UNL A   1      41.467  24.491  27.346  1.00  0.00     0.198 A 
ATOM    138  C   UNL A   1      40.190  26.020  28.675  1.00  0.00     0.198 A 
ATOM    139  F   UNL A   1      41.192  27.968  29.529  1.00  0.00    -0.203 F 
ATOM    140  F   UNL A   1      41.552  23.344  26.655  1.00  0.00    -0.200 F 
ATOM    141  C   UNL A   1      40.269  24.848  27.941  1.00  0.00     0.200 A 
ATOM    142  F   UNL A   1      39.049  26.347  29.297  1.00  0.00    -0.200 F 
ATOM    143  F   UNL A   1      39.197  24.051  27.832  1.00  0.00    -0.200 F 
ENDBRANCH 109 133
ENDBRANCH  74  77
ENDBRANCH  64  67
ENDBRANCH  60  63
ENDBRANCH  57  60
ENDBRANCH  54  57
ENDBRANCH  51  54
ENDBRANCH   1  51
TORSDOF 19
ENDMDL
MODEL 8
REMARK VINA RESULT:     -11.6      3.694      6.260
REMARK SMILES CS(=O)(=O)c1ccc(-n2nc(C(F)(F)F)cc2-c2ccc(CC(=O)NCCCCCCNC(=O)c3ccc(-c4c5nc(c(-c6c(F)c(F)c(F)c(F)c6F)c6ccc([nH]6)c(-c6c(F)c(F)c(F)c(F)c6F)c6nc(c(-c7c(F)c(F)c(F)c(F)c7F)c7ccc4[nH]7)C=C6)C=C5)cc3)cc2)cc1
REMARK SMILES IDX 27 1 26 4 25 7 23 8 24 9 22 11 21 14 18 15 19 16 99 17 20 18
REMARK SMILES IDX 98 20 17 24 9 25 10 26 11 27 16 28 8 30 5 31 6 32 101 33
REMARK SMILES IDX 7 34 100 36 2 40 3 41 4 42 1 43 12 47 13 48 14 49 15 50
REMARK SMILES IDX 28 51 29 54 30 57 31 60 32 63 33 64 34 66 35 67 36 68 97 69
REMARK SMILES IDX 37 70 96 72 38 74 39 77 40 78 90 79 41 80 95 81 89 82 91 83
REMARK SMILES IDX 42 84 94 85 88 87 87 89 43 91 75 94 55 95 74 96 56 97 59 98
REMARK SMILES IDX 73 99 92 100 57 101 58 103 72 105 93 106 60 109 44 111
REMARK SMILES IDX 45 112 53 113 46 114 47 115 51 116 54 117 48 118 49 119
REMARK SMILES IDX 52 120 50 121 76 122 77 123 85 124 78 125 79 126 83 127
REMARK SMILES IDX 86 128 80 129 81 130 84 131 82 132 61 133 62 134 70 135
REMARK SMILES IDX 63 136 64 137 68 138 71 139 65 140 66 141 69 142 67 143
REMARK H PARENT 27 2 27 3 26 5 26 6 25 10 22 12 22 13 19 19 99 21 20 22 98 23
REMARK H PARENT 16 29 6 35 101 37 7 38 100 39 1 44 1 45 1 46 28 52 28 53 29 55
REMARK H PARENT 29 56 30 58 30 59 31 61 31 62 32 65 36 71 97 73 37 75 96 76
REMARK H PARENT 95 86 89 88 91 90 94 92 88 93 56 102 59 104 92 107 57 108
REMARK H PARENT 93 110
REMARK Flexibility Score: inf
ROOT
ATOM      1  C   UNL A   1      41.883  22.948  26.132  1.00  0.00    -0.036 C 
ATOM      2  H   UNL A   1      41.884  23.974  26.434  1.00  0.00     0.028 H 
ATOM      3  H   UNL A   1      41.892  22.834  25.068  1.00  0.00     0.028 H 
ENDROOT
BRANCH   1   4
ATOM      4  C   UNL A   1      40.593  22.299  26.637  1.00  0.00     0.017 C 
ATOM      5  H   UNL A   1      39.941  22.127  25.806  1.00  0.00     0.049 H 
ATOM      6  H   UNL A   1      40.847  21.376  27.118  1.00  0.00     0.049 H 
BRANCH   4   7
ATOM      7  N   UNL A   1      39.917  23.142  27.602  1.00  0.00    -0.356 N 
ATOM      8  C   UNL A   1      38.959  24.092  27.396  1.00  0.00     0.224 C 
ATOM      9  O   UNL A   1      38.578  24.762  28.358  1.00  0.00    -0.275 OA
ATOM     10  H   UNL A   1      40.188  23.012  28.539  1.00  0.00     0.163 HD
BRANCH   8  11
ATOM     11  C   UNL A   1      38.349  24.274  26.016  1.00  0.00     0.052 C 
ATOM     12  H   UNL A   1      37.906  25.248  25.970  1.00  0.00     0.042 H 
ATOM     13  H   UNL A   1      39.141  24.148  25.308  1.00  0.00     0.042 H 
BRANCH  11  14
ATOM     14  C   UNL A   1      37.291  23.255  25.676  1.00  0.00    -0.039 A 
ATOM     15  C   UNL A   1      35.389  21.263  25.148  1.00  0.00     0.000 A 
ATOM     16  C   UNL A   1      36.526  21.391  24.339  1.00  0.00    -0.053 A 
ATOM     17  C   UNL A   1      35.177  22.172  26.185  1.00  0.00    -0.053 A 
ATOM     18  C   UNL A   1      37.476  22.373  24.607  1.00  0.00    -0.058 A 
ATOM     19  H   UNL A   1      36.661  20.753  23.540  1.00  0.00     0.063 H 
ATOM     20  C   UNL A   1      36.115  23.172  26.437  1.00  0.00    -0.058 A 
ATOM     21  H   UNL A   1      34.327  22.103  26.766  1.00  0.00     0.063 H 
ATOM     22  H   UNL A   1      38.318  22.450  24.015  1.00  0.00     0.063 H 
ATOM     23  H   UNL A   1      35.943  23.856  27.189  1.00  0.00     0.063 H 
BRANCH  15  24
ATOM     24  C   UNL A   1      34.415  20.214  24.893  1.00  0.00     0.075 A 
ATOM     25  N   UNL A   1      33.051  20.406  24.770  1.00  0.00    -0.233 N 
ATOM     26  N   UNL A   1      32.370  19.237  24.657  1.00  0.00    -0.163 NA
ATOM     27  C   UNL A   1      33.320  18.279  24.681  1.00  0.00     0.167 A 
ATOM     28  C   UNL A   1      34.609  18.851  24.806  1.00  0.00    -0.003 A 
ATOM     29  H   UNL A   1      35.511  18.350  24.828  1.00  0.00     0.067 H 
BRANCH  25  30
ATOM     30  C   UNL A   1      32.363  21.641  24.775  1.00  0.00     0.065 A 
ATOM     31  C   UNL A   1      31.011  24.071  24.845  1.00  0.00     0.067 A 
ATOM     32  C   UNL A   1      31.697  23.688  23.685  1.00  0.00    -0.041 A 
ATOM     33  C   UNL A   1      31.024  23.258  25.980  1.00  0.00    -0.041 A 
ATOM     34  C   UNL A   1      32.378  22.465  23.644  1.00  0.00    -0.035 A 
ATOM     35  H   UNL A   1      31.700  24.308  22.859  1.00  0.00     0.064 H 
ATOM     36  C   UNL A   1      31.718  22.047  25.947  1.00  0.00    -0.035 A 
ATOM     37  H   UNL A   1      30.526  23.548  26.835  1.00  0.00     0.064 H 
ATOM     38  H   UNL A   1      32.884  22.176  22.793  1.00  0.00     0.065 H 
ATOM     39  H   UNL A   1      31.755  21.451  26.788  1.00  0.00     0.065 H 
BRANCH  31  40
ATOM     40  S   UNL A   1      30.219  25.665  24.935  1.00  0.00     0.175 S 
ATOM     41  O   UNL A   1      29.691  25.779  26.289  1.00  0.00    -0.224 OA
ATOM     42  O   UNL A   1      29.367  25.805  23.780  1.00  0.00    -0.224 OA
BRANCH  40  43
ATOM     43  C   UNL A   1      31.515  26.847  24.771  1.00  0.00     0.043 C 
ATOM     44  H   UNL A   1      31.096  27.824  24.657  1.00  0.00     0.040 H 
ATOM     45  H   UNL A   1      32.107  26.611  23.911  1.00  0.00     0.040 H 
ATOM     46  H   UNL A   1      32.132  26.824  25.645  1.00  0.00     0.040 H 
ENDBRANCH  40  43
ENDBRANCH  31  40
ENDBRANCH  25  30
BRANCH  27  47
ATOM     47  C   UNL A   1      33.018  16.805  24.603  1.00  0.00     0.435 C 
ATOM     48  F   UNL A   1      31.801  16.493  25.121  1.00  0.00    -0.164 F 
ATOM     49  F   UNL A   1      33.037  16.343  23.324  1.00  0.00    -0.164 F 
ATOM     50  F   UNL A   1      33.932  16.066  25.291  1.00  0.00    -0.164 F 
ENDBRANCH  27  47
ENDBRANCH  15  24
ENDBRANCH  11  14
ENDBRANCH   8  11
ENDBRANCH   4   7
ENDBRANCH   1   4
BRANCH   1  51
ATOM     51  C   UNL A   1      43.161  22.285  26.662  1.00  0.00    -0.052 C 
ATOM     52  H   UNL A   1      43.047  22.149  27.717  1.00  0.00     0.027 H 
ATOM     53  H   UNL A   1      43.963  22.941  26.394  1.00  0.00     0.027 H 
BRANCH  51  54
ATOM     54  C   UNL A   1      43.509  20.922  26.043  1.00  0.00    -0.052 C 
ATOM     55  H   UNL A   1      42.650  20.577  25.509  1.00  0.00     0.027 H 
ATOM     56  H   UNL A   1      43.797  20.300  26.866  1.00  0.00     0.027 H 
BRANCH  54  57
ATOM     57  C   UNL A   1      44.702  20.900  25.076  1.00  0.00    -0.036 C 
ATOM     58  H   UNL A   1      44.655  19.998  24.501  1.00  0.00     0.028 H 
ATOM     59  H   UNL A   1      45.590  20.957  25.672  1.00  0.00     0.028 H 
BRANCH  57  60
ATOM     60  C   UNL A   1      44.736  22.079  24.118  1.00  0.00     0.018 C 
ATOM     61  H   UNL A   1      44.191  22.890  24.553  1.00  0.00     0.049 H 
ATOM     62  H   UNL A   1      44.298  21.762  23.195  1.00  0.00     0.049 H 
BRANCH  60  63
ATOM     63  N   UNL A   1      46.100  22.531  23.832  1.00  0.00    -0.352 N 
ATOM     64  C   UNL A   1      46.700  23.734  24.153  1.00  0.00     0.251 C 
ATOM     65  H   UNL A   1      46.667  21.890  23.344  1.00  0.00     0.163 HD
ATOM     66  O   UNL A   1      47.678  24.139  23.538  1.00  0.00    -0.269 OA
BRANCH  64  67
ATOM     67  C   UNL A   1      46.157  24.516  25.277  1.00  0.00     0.039 A 
ATOM     68  C   UNL A   1      46.676  24.427  26.575  1.00  0.00    -0.049 A 
ATOM     69  C   UNL A   1      45.092  25.366  25.000  1.00  0.00    -0.049 A 
ATOM     70  C   UNL A   1      46.139  25.244  27.570  1.00  0.00    -0.053 A 
ATOM     71  H   UNL A   1      47.441  23.769  26.790  1.00  0.00     0.063 H 
ATOM     72  C   UNL A   1      44.719  26.308  25.915  1.00  0.00    -0.053 A 
ATOM     73  H   UNL A   1      44.585  25.285  24.104  1.00  0.00     0.063 H 
ATOM     74  C   UNL A   1      45.160  26.184  27.224  1.00  0.00    -0.014 A 
ATOM     75  H   UNL A   1      46.458  25.157  28.548  1.00  0.00     0.063 H 
ATOM     76  H   UNL A   1      44.119  27.100  25.636  1.00  0.00     0.063 H 
BRANCH  74  77
ATOM     77  C   UNL A   1      44.640  27.177  28.155  1.00  0.00     0.031 A 
ATOM     78  C   UNL A   1      45.425  28.433  28.181  1.00  0.00     0.074 A 
ATOM     79  C   UNL A   1      43.401  27.079  28.687  1.00  0.00     0.049 A 
ATOM     80  N   UNL A   1      46.115  28.895  29.169  1.00  0.00    -0.248 NA
ATOM     81  C   UNL A   1      45.605  29.180  26.925  1.00  0.00    -0.034 C 
ATOM     82  C   UNL A   1      42.415  26.015  28.500  1.00  0.00    -0.036 A 
ATOM     83  N   UNL A   1      42.708  27.978  29.437  1.00  0.00    -0.354 N 
ATOM     84  C   UNL A   1      46.617  30.116  28.732  1.00  0.00     0.074 A 
ATOM     85  C   UNL A   1      46.482  30.114  27.302  1.00  0.00    -0.034 C 
ATOM     86  H   UNL A   1      45.171  29.025  26.002  1.00  0.00     0.065 H 
ATOM     87  C   UNL A   1      41.191  26.439  28.900  1.00  0.00    -0.036 A 
ATOM     88  H   UNL A   1      42.620  25.078  28.120  1.00  0.00     0.065 H 
ATOM     89  C   UNL A   1      41.333  27.735  29.528  1.00  0.00     0.049 A 
ATOM     90  H   UNL A   1      43.140  28.743  29.882  1.00  0.00     0.167 HD
ATOM     91  C   UNL A   1      46.807  31.134  29.618  1.00  0.00     0.037 A 
ATOM     92  H   UNL A   1      46.989  30.742  26.659  1.00  0.00     0.065 H 
ATOM     93  H   UNL A   1      40.306  25.923  28.776  1.00  0.00     0.065 H 
ATOM     94  C   UNL A   1      40.398  28.551  30.088  1.00  0.00     0.037 A 
ATOM     95  C   UNL A   1      46.827  30.630  30.974  1.00  0.00     0.049 A 
ATOM     96  C   UNL A   1      41.139  29.496  30.958  1.00  0.00     0.074 A 
ATOM     97  C   UNL A   1      47.563  29.661  31.634  1.00  0.00    -0.036 A 
ATOM     98  N   UNL A   1      45.715  30.833  31.758  1.00  0.00    -0.354 N 
ATOM     99  N   UNL A   1      41.723  29.131  32.064  1.00  0.00    -0.248 NA
ATOM    100  C   UNL A   1      41.653  30.704  30.329  1.00  0.00    -0.034 C 
ATOM    101  C   UNL A   1      46.617  28.973  32.452  1.00  0.00    -0.036 A 
ATOM    102  H   UNL A   1      48.575  29.476  31.552  1.00  0.00     0.065 H 
ATOM    103  C   UNL A   1      45.394  29.628  32.330  1.00  0.00     0.049 A 
ATOM    104  H   UNL A   1      45.239  31.685  31.886  1.00  0.00     0.167 HD
ATOM    105  C   UNL A   1      42.943  29.784  32.035  1.00  0.00     0.074 A 
ATOM    106  C   UNL A   1      42.824  30.782  30.968  1.00  0.00    -0.034 C 
ATOM    107  H   UNL A   1      41.240  31.314  29.607  1.00  0.00     0.065 H 
ATOM    108  H   UNL A   1      46.805  28.140  33.031  1.00  0.00     0.065 H 
ATOM    109  C   UNL A   1      44.040  29.249  32.645  1.00  0.00     0.037 A 
ATOM    110  H   UNL A   1      43.560  31.466  30.737  1.00  0.00     0.065 H 
BRANCH  91 111
ATOM    111  C   UNL A   1      46.558  32.596  29.303  1.00  0.00     0.064 A 
ATOM    112  C   UNL A   1      45.315  32.959  28.742  1.00  0.00     0.173 A 
ATOM    113  C   UNL A   1      47.555  33.596  29.247  1.00  0.00     0.173 A 
ATOM    114  F   UNL A   1      44.291  32.094  28.733  1.00  0.00    -0.203 F 
ATOM    115  C   UNL A   1      45.125  34.179  28.088  1.00  0.00     0.198 A 
ATOM    116  C   UNL A   1      47.343  34.833  28.642  1.00  0.00     0.198 A 
ATOM    117  F   UNL A   1      48.806  33.399  29.672  1.00  0.00    -0.203 F 
ATOM    118  F   UNL A   1      43.971  34.414  27.450  1.00  0.00    -0.200 F 
ATOM    119  C   UNL A   1      46.141  35.111  28.030  1.00  0.00     0.200 A 
ATOM    120  F   UNL A   1      48.347  35.720  28.591  1.00  0.00    -0.200 F 
ATOM    121  F   UNL A   1      45.983  36.253  27.349  1.00  0.00    -0.200 F 
ENDBRANCH  91 111
BRANCH  94 122
ATOM    122  C   UNL A   1      38.966  28.785  29.776  1.00  0.00     0.064 A 
ATOM    123  C   UNL A   1      38.027  29.026  30.796  1.00  0.00     0.173 A 
ATOM    124  C   UNL A   1      38.557  29.108  28.473  1.00  0.00     0.173 A 
ATOM    125  F   UNL A   1      38.340  28.764  32.072  1.00  0.00    -0.203 F 
ATOM    126  C   UNL A   1      36.780  29.609  30.536  1.00  0.00     0.198 A 
ATOM    127  C   UNL A   1      37.308  29.687  28.217  1.00  0.00     0.198 A 
ATOM    128  F   UNL A   1      39.406  28.939  27.452  1.00  0.00    -0.203 F 
ATOM    129  F   UNL A   1      35.941  29.882  31.544  1.00  0.00    -0.200 F 
ATOM    130  C   UNL A   1      36.431  29.958  29.247  1.00  0.00     0.200 A 
ATOM    131  F   UNL A   1      36.949  30.036  26.978  1.00  0.00    -0.200 F 
ATOM    132  F   UNL A   1      35.268  30.576  28.995  1.00  0.00    -0.200 F 
ENDBRANCH  94 122
BRANCH 109 133
ATOM    133  C   UNL A   1      43.848  28.058  33.544  1.00  0.00     0.064 A 
ATOM    134  C   UNL A   1      43.386  28.122  34.871  1.00  0.00     0.173 A 
ATOM    135  C   UNL A   1      44.011  26.786  32.984  1.00  0.00     0.173 A 
ATOM    136  F   UNL A   1      43.104  29.295  35.452  1.00  0.00    -0.203 F 
ATOM    137  C   UNL A   1      43.146  26.964  35.612  1.00  0.00     0.198 A 
ATOM    138  C   UNL A   1      43.735  25.632  33.712  1.00  0.00     0.198 A 
ATOM    139  F   UNL A   1      44.399  26.662  31.704  1.00  0.00    -0.203 F 
ATOM    140  F   UNL A   1      42.716  27.051  36.880  1.00  0.00    -0.200 F 
ATOM    141  C   UNL A   1      43.315  25.719  35.028  1.00  0.00     0.200 A 
ATOM    142  F   UNL A   1      43.853  24.434  33.123  1.00  0.00    -0.200 F 
ATOM    143  F   UNL A   1      43.048  24.605  35.723  1.00  0.00    -0.200 F 
ENDBRANCH 109 133
ENDBRANCH  74  77
ENDBRANCH  64  67
ENDBRANCH  60  63
ENDBRANCH  57  60
ENDBRANCH  54  57
ENDBRANCH  51  54
ENDBRANCH   1  51
TORSDOF 19
ENDMDL
MODEL 9
REMARK VINA RESULT:     -11.6      4.036      8.469
REMARK SMILES CS(=O)(=O)c1ccc(-n2nc(C(F)(F)F)cc2-c2ccc(CC(=O)NCCCCCCNC(=O)c3ccc(-c4c5nc(c(-c6c(F)c(F)c(F)c(F)c6F)c6ccc([nH]6)c(-c6c(F)c(F)c(F)c(F)c6F)c6nc(c(-c7c(F)c(F)c(F)c(F)c7F)c7ccc4[nH]7)C=C6)C=C5)cc3)cc2)cc1
REMARK SMILES IDX 27 1 26 4 25 7 23 8 24 9 22 11 21 14 18 15 19 16 99 17 20 18
REMARK SMILES IDX 98 20 17 24 9 25 10 26 11 27 16 28 8 30 5 31 6 32 101 33
REMARK SMILES IDX 7 34 100 36 2 40 3 41 4 42 1 43 12 47 13 48 14 49 15 50
REMARK SMILES IDX 28 51 29 54 30 57 31 60 32 63 33 64 34 66 35 67 36 68 97 69
REMARK SMILES IDX 37 70 96 72 38 74 39 77 40 78 90 79 41 80 95 81 89 82 91 83
REMARK SMILES IDX 42 84 94 85 88 87 87 89 43 91 75 94 55 95 74 96 56 97 59 98
REMARK SMILES IDX 73 99 92 100 57 101 58 103 72 105 93 106 60 109 44 111
REMARK SMILES IDX 45 112 53 113 46 114 47 115 51 116 54 117 48 118 49 119
REMARK SMILES IDX 52 120 50 121 76 122 77 123 85 124 78 125 79 126 83 127
REMARK SMILES IDX 86 128 80 129 81 130 84 131 82 132 61 133 62 134 70 135
REMARK SMILES IDX 63 136 64 137 68 138 71 139 65 140 66 141 69 142 67 143
REMARK H PARENT 27 2 27 3 26 5 26 6 25 10 22 12 22 13 19 19 99 21 20 22 98 23
REMARK H PARENT 16 29 6 35 101 37 7 38 100 39 1 44 1 45 1 46 28 52 28 53 29 55
REMARK H PARENT 29 56 30 58 30 59 31 61 31 62 32 65 36 71 97 73 37 75 96 76
REMARK H PARENT 95 86 89 88 91 90 94 92 88 93 56 102 59 104 92 107 57 108
REMARK H PARENT 93 110
REMARK Flexibility Score: inf
ROOT
ATOM      1  C   UNL A   1      41.902  22.655  26.124  1.00  0.00    -0.036 C 
ATOM      2  H   UNL A   1      42.101  23.600  26.585  1.00  0.00     0.028 H 
ATOM      3  H   UNL A   1      41.952  22.701  25.056  1.00  0.00     0.028 H 
ENDROOT
BRANCH   1   4
ATOM      4  C   UNL A   1      40.476  22.234  26.485  1.00  0.00     0.017 C 
ATOM      5  H   UNL A   1      39.870  22.266  25.604  1.00  0.00     0.049 H 
ATOM      6  H   UNL A   1      40.510  21.243  26.888  1.00  0.00     0.049 H 
BRANCH   4   7
ATOM      7  N   UNL A   1      39.902  23.111  27.485  1.00  0.00    -0.356 N 
ATOM      8  C   UNL A   1      38.985  24.111  27.332  1.00  0.00     0.224 C 
ATOM      9  O   UNL A   1      38.695  24.799  28.313  1.00  0.00    -0.275 OA
ATOM     10  H   UNL A   1      40.217  22.965  28.406  1.00  0.00     0.163 HD
BRANCH   8  11
ATOM     11  C   UNL A   1      38.309  24.327  25.989  1.00  0.00     0.052 C 
ATOM     12  H   UNL A   1      37.852  25.296  25.993  1.00  0.00     0.042 H 
ATOM     13  H   UNL A   1      39.068  24.234  25.241  1.00  0.00     0.042 H 
BRANCH  11  14
ATOM     14  C   UNL A   1      37.248  23.304  25.666  1.00  0.00    -0.039 A 
ATOM     15  C   UNL A   1      35.355  21.300  25.155  1.00  0.00     0.000 A 
ATOM     16  C   UNL A   1      36.401  21.536  24.253  1.00  0.00    -0.053 A 
ATOM     17  C   UNL A   1      35.226  22.109  26.284  1.00  0.00    -0.053 A 
ATOM     18  C   UNL A   1      37.348  22.524  24.511  1.00  0.00    -0.058 A 
ATOM     19  H   UNL A   1      36.470  20.972  23.391  1.00  0.00     0.063 H 
ATOM     20  C   UNL A   1      36.158  23.116  26.529  1.00  0.00    -0.058 A 
ATOM     21  H   UNL A   1      34.442  21.962  26.937  1.00  0.00     0.063 H 
ATOM     22  H   UNL A   1      38.123  22.680  23.847  1.00  0.00     0.063 H 
ATOM     23  H   UNL A   1      36.046  23.728  27.352  1.00  0.00     0.063 H 
BRANCH  15  24
ATOM     24  C   UNL A   1      34.388  20.243  24.906  1.00  0.00     0.075 A 
ATOM     25  N   UNL A   1      33.020  20.422  24.811  1.00  0.00    -0.233 N 
ATOM     26  N   UNL A   1      32.350  19.246  24.697  1.00  0.00    -0.163 NA
ATOM     27  C   UNL A   1      33.310  18.299  24.692  1.00  0.00     0.167 A 
ATOM     28  C   UNL A   1      34.595  18.884  24.800  1.00  0.00    -0.003 A 
ATOM     29  H   UNL A   1      35.502  18.393  24.799  1.00  0.00     0.067 H 
BRANCH  25  30
ATOM     30  C   UNL A   1      32.319  21.649  24.843  1.00  0.00     0.065 A 
ATOM     31  C   UNL A   1      30.947  24.066  24.966  1.00  0.00     0.067 A 
ATOM     32  C   UNL A   1      31.518  23.649  23.756  1.00  0.00    -0.041 A 
ATOM     33  C   UNL A   1      31.086  23.293  26.120  1.00  0.00    -0.041 A 
ATOM     34  C   UNL A   1      32.209  22.432  23.689  1.00  0.00    -0.035 A 
ATOM     35  H   UNL A   1      31.430  24.240  22.914  1.00  0.00     0.064 H 
ATOM     36  C   UNL A   1      31.789  22.090  26.060  1.00  0.00    -0.035 A 
ATOM     37  H   UNL A   1      30.672  23.608  27.012  1.00  0.00     0.064 H 
ATOM     38  H   UNL A   1      32.630  22.119  22.802  1.00  0.00     0.065 H 
ATOM     39  H   UNL A   1      31.918  21.524  26.912  1.00  0.00     0.065 H 
BRANCH  31  40
ATOM     40  S   UNL A   1      30.147  25.654  25.080  1.00  0.00     0.175 S 
ATOM     41  O   UNL A   1      29.450  25.665  26.361  1.00  0.00    -0.224 OA
ATOM     42  O   UNL A   1      29.449  25.891  23.841  1.00  0.00    -0.224 OA
BRANCH  40  43
ATOM     43  C   UNL A   1      31.450  26.835  25.177  1.00  0.00     0.043 C 
ATOM     44  H   UNL A   1      32.066  26.620  26.024  1.00  0.00     0.040 H 
ATOM     45  H   UNL A   1      31.036  27.817  25.278  1.00  0.00     0.040 H 
ATOM     46  H   UNL A   1      32.042  26.788  24.286  1.00  0.00     0.040 H 
ENDBRANCH  40  43
ENDBRANCH  31  40
ENDBRANCH  25  30
BRANCH  27  47
ATOM     47  C   UNL A   1      33.023  16.823  24.603  1.00  0.00     0.435 C 
ATOM     48  F   UNL A   1      31.785  16.502  25.063  1.00  0.00    -0.164 F 
ATOM     49  F   UNL A   1      33.106  16.359  23.327  1.00  0.00    -0.164 F 
ATOM     50  F   UNL A   1      33.908  16.091  25.335  1.00  0.00    -0.164 F 
ENDBRANCH  27  47
ENDBRANCH  15  24
ENDBRANCH  11  14
ENDBRANCH   8  11
ENDBRANCH   4   7
ENDBRANCH   1   4
BRANCH   1  51
ATOM     51  C   UNL A   1      42.978  21.659  26.578  1.00  0.00    -0.052 C 
ATOM     52  H   UNL A   1      42.565  21.066  27.366  1.00  0.00     0.027 H 
ATOM     53  H   UNL A   1      43.817  22.252  26.876  1.00  0.00     0.027 H 
BRANCH  51  54
ATOM     54  C   UNL A   1      43.501  20.706  25.492  1.00  0.00    -0.052 C 
ATOM     55  H   UNL A   1      42.779  20.679  24.705  1.00  0.00     0.027 H 
ATOM     56  H   UNL A   1      43.653  19.768  25.985  1.00  0.00     0.027 H 
BRANCH  54  57
ATOM     57  C   UNL A   1      44.859  21.065  24.869  1.00  0.00    -0.036 C 
ATOM     58  H   UNL A   1      45.189  20.238  24.276  1.00  0.00     0.028 H 
ATOM     59  H   UNL A   1      45.527  21.279  25.679  1.00  0.00     0.028 H 
BRANCH  57  60
ATOM     60  C   UNL A   1      44.821  22.304  23.989  1.00  0.00     0.018 C 
ATOM     61  H   UNL A   1      44.154  23.016  24.429  1.00  0.00     0.049 H 
ATOM     62  H   UNL A   1      44.488  22.002  23.018  1.00  0.00     0.049 H 
BRANCH  60  63
ATOM     63  N   UNL A   1      46.138  22.925  23.836  1.00  0.00    -0.352 N 
ATOM     64  C   UNL A   1      46.616  24.095  24.397  1.00  0.00     0.251 C 
ATOM     65  H   UNL A   1      46.771  22.444  23.255  1.00  0.00     0.163 HD
ATOM     66  O   UNL A   1      47.558  24.697  23.900  1.00  0.00    -0.269 OA
BRANCH  64  67
ATOM     67  C   UNL A   1      45.985  24.595  25.631  1.00  0.00     0.039 A 
ATOM     68  C   UNL A   1      45.936  23.841  26.809  1.00  0.00    -0.049 A 
ATOM     69  C   UNL A   1      45.431  25.870  25.585  1.00  0.00    -0.049 A 
ATOM     70  C   UNL A   1      45.369  24.412  27.949  1.00  0.00    -0.053 A 
ATOM     71  H   UNL A   1      46.313  22.881  26.834  1.00  0.00     0.063 H 
ATOM     72  C   UNL A   1      45.076  26.498  26.744  1.00  0.00    -0.053 A 
ATOM     73  H   UNL A   1      45.288  26.340  24.677  1.00  0.00     0.063 H 
ATOM     74  C   UNL A   1      44.944  25.746  27.902  1.00  0.00    -0.014 A 
ATOM     75  H   UNL A   1      45.263  23.859  28.814  1.00  0.00     0.063 H 
ATOM     76  H   UNL A   1      44.910  27.516  26.759  1.00  0.00     0.063 H 
BRANCH  74  77
ATOM     77  C   UNL A   1      44.472  26.476  29.071  1.00  0.00     0.031 A 
ATOM     78  C   UNL A   1      43.155  27.123  28.873  1.00  0.00     0.074 A 
ATOM     79  C   UNL A   1      45.027  26.306  30.293  1.00  0.00     0.049 A 
ATOM     80  N   UNL A   1      42.908  28.390  28.855  1.00  0.00    -0.248 NA
ATOM     81  C   UNL A   1      42.007  26.285  28.488  1.00  0.00    -0.034 C 
ATOM     82  C   UNL A   1      46.161  25.461  30.665  1.00  0.00    -0.036 A 
ATOM     83  N   UNL A   1      44.618  26.780  31.502  1.00  0.00    -0.354 N 
ATOM     84  C   UNL A   1      41.531  28.498  28.697  1.00  0.00     0.074 A 
ATOM     85  C   UNL A   1      41.080  27.214  28.237  1.00  0.00    -0.034 C 
ATOM     86  H   UNL A   1      41.936  25.258  28.428  1.00  0.00     0.065 H 
ATOM     87  C   UNL A   1      46.190  25.286  32.008  1.00  0.00    -0.036 A 
ATOM     88  H   UNL A   1      46.840  25.057  30.002  1.00  0.00     0.065 H 
ATOM     89  C   UNL A   1      45.187  26.140  32.608  1.00  0.00     0.049 A 
ATOM     90  H   UNL A   1      43.972  27.517  31.591  1.00  0.00     0.167 HD
ATOM     91  C   UNL A   1      40.857  29.541  29.259  1.00  0.00     0.037 A 
ATOM     92  H   UNL A   1      40.173  27.034  27.779  1.00  0.00     0.065 H 
ATOM     93  H   UNL A   1      46.822  24.650  32.519  1.00  0.00     0.065 H 
ATOM     94  C   UNL A   1      44.846  26.318  33.914  1.00  0.00     0.037 A 
ATOM     95  C   UNL A   1      41.771  30.608  29.604  1.00  0.00     0.049 A 
ATOM     96  C   UNL A   1      44.107  27.602  33.980  1.00  0.00     0.074 A 
ATOM     97  C   UNL A   1      42.709  31.343  28.900  1.00  0.00    -0.036 A 
ATOM     98  N   UNL A   1      42.106  30.773  30.928  1.00  0.00    -0.354 N 
ATOM     99  N   UNL A   1      44.679  28.758  33.799  1.00  0.00    -0.248 NA
ATOM    100  C   UNL A   1      42.674  27.550  33.729  1.00  0.00    -0.034 C 
ATOM    101  C   UNL A   1      43.831  31.445  29.777  1.00  0.00    -0.036 A 
ATOM    102  H   UNL A   1      42.618  31.731  27.948  1.00  0.00     0.065 H 
ATOM    103  C   UNL A   1      43.473  30.871  30.994  1.00  0.00     0.049 A 
ATOM    104  H   UNL A   1      41.481  30.813  31.687  1.00  0.00     0.167 HD
ATOM    105  C   UNL A   1      43.794  29.454  32.996  1.00  0.00     0.074 A 
ATOM    106  C   UNL A   1      42.550  28.680  33.028  1.00  0.00    -0.034 C 
ATOM    107  H   UNL A   1      41.968  26.851  34.008  1.00  0.00     0.065 H 
ATOM    108  H   UNL A   1      44.744  31.870  29.550  1.00  0.00     0.065 H 
ATOM    109  C   UNL A   1      44.237  30.406  32.124  1.00  0.00     0.037 A 
ATOM    110  H   UNL A   1      41.678  28.974  32.562  1.00  0.00     0.065 H 
BRANCH  91 111
ATOM    111  C   UNL A   1      39.474  29.433  29.869  1.00  0.00     0.064 A 
ATOM    112  C   UNL A   1      38.527  30.434  29.566  1.00  0.00     0.173 A 
ATOM    113  C   UNL A   1      39.124  28.584  30.944  1.00  0.00     0.173 A 
ATOM    114  F   UNL A   1      38.746  31.303  28.569  1.00  0.00    -0.203 F 
ATOM    115  C   UNL A   1      37.381  30.631  30.343  1.00  0.00     0.198 A 
ATOM    116  C   UNL A   1      37.953  28.750  31.681  1.00  0.00     0.198 A 
ATOM    117  F   UNL A   1      39.933  27.627  31.406  1.00  0.00    -0.203 F 
ATOM    118  F   UNL A   1      36.589  31.683  30.098  1.00  0.00    -0.200 F 
ATOM    119  C   UNL A   1      37.100  29.795  31.405  1.00  0.00     0.200 A 
ATOM    120  F   UNL A   1      37.706  27.931  32.713  1.00  0.00    -0.200 F 
ATOM    121  F   UNL A   1      36.038  30.020  32.189  1.00  0.00    -0.200 F 
ENDBRANCH  91 111
BRANCH  94 122
ATOM    122  C   UNL A   1      44.856  25.398  35.080  1.00  0.00     0.064 A 
ATOM    123  C   UNL A   1      44.473  24.051  34.949  1.00  0.00     0.173 A 
ATOM    124  C   UNL A   1      45.553  25.730  36.251  1.00  0.00     0.173 A 
ATOM    125  F   UNL A   1      43.818  23.643  33.853  1.00  0.00    -0.203 F 
ATOM    126  C   UNL A   1      44.816  23.085  35.902  1.00  0.00     0.198 A 
ATOM    127  C   UNL A   1      45.892  24.761  37.203  1.00  0.00     0.198 A 
ATOM    128  F   UNL A   1      45.982  26.985  36.433  1.00  0.00    -0.203 F 
ATOM    129  F   UNL A   1      44.488  21.800  35.708  1.00  0.00    -0.200 F 
ATOM    130  C   UNL A   1      45.545  23.438  37.020  1.00  0.00     0.200 A 
ATOM    131  F   UNL A   1      46.599  25.079  38.292  1.00  0.00    -0.200 F 
ATOM    132  F   UNL A   1      45.936  22.511  37.906  1.00  0.00    -0.200 F 
ENDBRANCH  94 122
BRANCH 109 133
ATOM    133  C   UNL A   1      45.671  30.848  32.216  1.00  0.00     0.064 A 
ATOM    134  C   UNL A   1      46.741  30.252  31.523  1.00  0.00     0.173 A 
ATOM    135  C   UNL A   1      45.948  32.017  32.935  1.00  0.00     0.173 A 
ATOM    136  F   UNL A   1      46.546  29.192  30.727  1.00  0.00    -0.203 F 
ATOM    137  C   UNL A   1      48.031  30.778  31.589  1.00  0.00     0.198 A 
ATOM    138  C   UNL A   1      47.228  32.562  32.970  1.00  0.00     0.198 A 
ATOM    139  F   UNL A   1      44.958  32.660  33.574  1.00  0.00    -0.203 F 
ATOM    140  F   UNL A   1      49.036  30.185  30.927  1.00  0.00    -0.200 F 
ATOM    141  C   UNL A   1      48.271  31.937  32.308  1.00  0.00     0.200 A 
ATOM    142  F   UNL A   1      47.441  33.711  33.626  1.00  0.00    -0.200 F 
ATOM    143  F   UNL A   1      49.502  32.468  32.342  1.00  0.00    -0.200 F 
ENDBRANCH 109 133
ENDBRANCH  74  77
ENDBRANCH  64  67
ENDBRANCH  60  63
ENDBRANCH  57  60
ENDBRANCH  54  57
ENDBRANCH  51  54
ENDBRANCH   1  51
TORSDOF 19
ENDMDL
MODEL 10
REMARK VINA RESULT:     -11.5      3.440      5.718
REMARK SMILES CS(=O)(=O)c1ccc(-n2nc(C(F)(F)F)cc2-c2ccc(CC(=O)NCCCCCCNC(=O)c3ccc(-c4c5nc(c(-c6c(F)c(F)c(F)c(F)c6F)c6ccc([nH]6)c(-c6c(F)c(F)c(F)c(F)c6F)c6nc(c(-c7c(F)c(F)c(F)c(F)c7F)c7ccc4[nH]7)C=C6)C=C5)cc3)cc2)cc1
REMARK SMILES IDX 27 1 26 4 25 7 23 8 24 9 22 11 21 14 18 15 19 16 99 17 20 18
REMARK SMILES IDX 98 20 17 24 9 25 10 26 11 27 16 28 8 30 5 31 6 32 101 33
REMARK SMILES IDX 7 34 100 36 2 40 3 41 4 42 1 43 12 47 13 48 14 49 15 50
REMARK SMILES IDX 28 51 29 54 30 57 31 60 32 63 33 64 34 66 35 67 36 68 97 69
REMARK SMILES IDX 37 70 96 72 38 74 39 77 40 78 90 79 41 80 95 81 89 82 91 83
REMARK SMILES IDX 42 84 94 85 88 87 87 89 43 91 75 94 55 95 74 96 56 97 59 98
REMARK SMILES IDX 73 99 92 100 57 101 58 103 72 105 93 106 60 109 44 111
REMARK SMILES IDX 45 112 53 113 46 114 47 115 51 116 54 117 48 118 49 119
REMARK SMILES IDX 52 120 50 121 76 122 77 123 85 124 78 125 79 126 83 127
REMARK SMILES IDX 86 128 80 129 81 130 84 131 82 132 61 133 62 134 70 135
REMARK SMILES IDX 63 136 64 137 68 138 71 139 65 140 66 141 69 142 67 143
REMARK H PARENT 27 2 27 3 26 5 26 6 25 10 22 12 22 13 19 19 99 21 20 22 98 23
REMARK H PARENT 16 29 6 35 101 37 7 38 100 39 1 44 1 45 1 46 28 52 28 53 29 55
REMARK H PARENT 29 56 30 58 30 59 31 61 31 62 32 65 36 71 97 73 37 75 96 76
REMARK H PARENT 95 86 89 88 91 90 94 92 88 93 56 102 59 104 92 107 57 108
REMARK H PARENT 93 110
REMARK Flexibility Score: inf
ROOT
ATOM      1  C   UNL A   1      39.054  28.440  27.544  1.00  0.00    -0.036 C 
ATOM      2  H   UNL A   1      39.594  29.307  27.224  1.00  0.00     0.028 H 
ATOM      3  H   UNL A   1      38.539  27.959  26.739  1.00  0.00     0.028 H 
ENDROOT
BRANCH   1   4
ATOM      4  C   UNL A   1      37.990  28.881  28.552  1.00  0.00     0.017 C 
ATOM      5  H   UNL A   1      37.191  28.169  28.548  1.00  0.00     0.049 H 
ATOM      6  H   UNL A   1      38.447  28.936  29.518  1.00  0.00     0.049 H 
BRANCH   4   7
ATOM      7  N   UNL A   1      37.460  30.189  28.224  1.00  0.00    -0.356 N 
ATOM      8  C   UNL A   1      36.168  30.562  27.988  1.00  0.00     0.224 C 
ATOM      9  O   UNL A   1      35.946  31.722  27.637  1.00  0.00    -0.275 OA
ATOM     10  H   UNL A   1      38.126  30.912  28.165  1.00  0.00     0.163 HD
BRANCH   8  11
ATOM     11  C   UNL A   1      35.037  29.572  28.204  1.00  0.00     0.052 C 
ATOM     12  H   UNL A   1      35.455  28.587  28.255  1.00  0.00     0.042 H 
ATOM     13  H   UNL A   1      34.544  29.856  29.110  1.00  0.00     0.042 H 
BRANCH  11  14
ATOM     14  C   UNL A   1      33.993  29.588  27.115  1.00  0.00    -0.039 A 
ATOM     15  C   UNL A   1      31.991  29.489  25.154  1.00  0.00     0.000 A 
ATOM     16  C   UNL A   1      33.256  28.942  24.906  1.00  0.00    -0.053 A 
ATOM     17  C   UNL A   1      31.749  30.138  26.365  1.00  0.00    -0.053 A 
ATOM     18  C   UNL A   1      34.248  28.980  25.882  1.00  0.00    -0.058 A 
ATOM     19  H   UNL A   1      33.455  28.505  23.992  1.00  0.00     0.063 H 
ATOM     20  C   UNL A   1      32.750  30.202  27.333  1.00  0.00    -0.058 A 
ATOM     21  H   UNL A   1      30.830  30.571  26.544  1.00  0.00     0.063 H 
ATOM     22  H   UNL A   1      35.173  28.561  25.695  1.00  0.00     0.063 H 
ATOM     23  H   UNL A   1      32.575  30.704  28.217  1.00  0.00     0.063 H 
BRANCH  15  24
ATOM     24  C   UNL A   1      30.943  29.414  24.149  1.00  0.00     0.075 A 
ATOM     25  N   UNL A   1      30.740  28.352  23.287  1.00  0.00    -0.233 N 
ATOM     26  N   UNL A   1      29.768  28.603  22.373  1.00  0.00    -0.163 NA
ATOM     27  C   UNL A   1      29.322  29.841  22.673  1.00  0.00     0.167 A 
ATOM     28  C   UNL A   1      30.017  30.370  23.788  1.00  0.00    -0.003 A 
ATOM     29  H   UNL A   1      29.861  31.285  24.238  1.00  0.00     0.067 H 
BRANCH  25  30
ATOM     30  C   UNL A   1      31.436  27.121  23.277  1.00  0.00     0.065 A 
ATOM     31  C   UNL A   1      32.759  24.674  23.290  1.00  0.00     0.067 A 
ATOM     32  C   UNL A   1      33.095  25.644  22.335  1.00  0.00    -0.041 A 
ATOM     33  C   UNL A   1      31.744  24.913  24.218  1.00  0.00    -0.041 A 
ATOM     34  C   UNL A   1      32.432  26.878  22.326  1.00  0.00    -0.035 A 
ATOM     35  H   UNL A   1      33.831  25.448  21.638  1.00  0.00     0.064 H 
ATOM     36  C   UNL A   1      31.070  26.134  24.199  1.00  0.00    -0.035 A 
ATOM     37  H   UNL A   1      31.493  24.192  24.914  1.00  0.00     0.064 H 
ATOM     38  H   UNL A   1      32.675  27.596  21.627  1.00  0.00     0.065 H 
ATOM     39  H   UNL A   1      30.302  26.311  24.864  1.00  0.00     0.065 H 
BRANCH  31  40
ATOM     40  S   UNL A   1      33.534  23.070  23.250  1.00  0.00     0.175 S 
ATOM     41  O   UNL A   1      33.679  22.656  24.641  1.00  0.00    -0.224 OA
ATOM     42  O   UNL A   1      34.669  23.145  22.365  1.00  0.00    -0.224 OA
BRANCH  40  43
ATOM     43  C   UNL A   1      32.358  21.995  22.498  1.00  0.00     0.043 C 
ATOM     44  H   UNL A   1      31.874  22.503  21.691  1.00  0.00     0.040 H 
ATOM     45  H   UNL A   1      31.627  21.701  23.223  1.00  0.00     0.040 H 
ATOM     46  H   UNL A   1      32.857  21.126  22.123  1.00  0.00     0.040 H 
ENDBRANCH  40  43
ENDBRANCH  31  40
ENDBRANCH  25  30
BRANCH  27  47
ATOM     47  C   UNL A   1      28.242  30.547  21.897  1.00  0.00     0.435 C 
ATOM     48  F   UNL A   1      28.698  31.655  21.255  1.00  0.00    -0.164 F 
ATOM     49  F   UNL A   1      27.677  29.745  20.954  1.00  0.00    -0.164 F 
ATOM     50  F   UNL A   1      27.227  30.961  22.706  1.00  0.00    -0.164 F 
ENDBRANCH  27  47
ENDBRANCH  15  24
ENDBRANCH  11  14
ENDBRANCH   8  11
ENDBRANCH   4   7
ENDBRANCH   1   4
BRANCH   1  51
ATOM     51  C   UNL A   1      40.057  27.423  28.102  1.00  0.00    -0.052 C 
ATOM     52  H   UNL A   1      40.411  27.793  29.042  1.00  0.00     0.027 H 
ATOM     53  H   UNL A   1      40.820  27.326  27.359  1.00  0.00     0.027 H 
BRANCH  51  54
ATOM     54  C   UNL A   1      39.509  26.005  28.329  1.00  0.00    -0.052 C 
ATOM     55  H   UNL A   1      38.480  26.002  28.039  1.00  0.00     0.027 H 
ATOM     56  H   UNL A   1      39.677  25.796  29.365  1.00  0.00     0.027 H 
BRANCH  54  57
ATOM     57  C   UNL A   1      40.214  24.874  27.563  1.00  0.00    -0.036 C 
ATOM     58  H   UNL A   1      39.555  24.032  27.523  1.00  0.00     0.028 H 
ATOM     59  H   UNL A   1      41.121  24.658  28.090  1.00  0.00     0.028 H 
BRANCH  57  60
ATOM     60  C   UNL A   1      40.605  25.247  26.143  1.00  0.00     0.018 C 
ATOM     61  H   UNL A   1      40.578  26.313  26.048  1.00  0.00     0.049 H 
ATOM     62  H   UNL A   1      39.911  24.776  25.479  1.00  0.00     0.049 H 
BRANCH  60  63
ATOM     63  N   UNL A   1      41.947  24.779  25.789  1.00  0.00    -0.352 N 
ATOM     64  C   UNL A   1      43.087  25.521  25.539  1.00  0.00     0.251 C 
ATOM     65  H   UNL A   1      42.053  23.802  25.720  1.00  0.00     0.163 HD
ATOM     66  O   UNL A   1      44.015  25.057  24.889  1.00  0.00    -0.269 OA
BRANCH  64  67
ATOM     67  C   UNL A   1      43.180  26.882  26.097  1.00  0.00     0.039 A 
ATOM     68  C   UNL A   1      42.476  27.964  25.558  1.00  0.00    -0.049 A 
ATOM     69  C   UNL A   1      44.008  27.056  27.200  1.00  0.00    -0.049 A 
ATOM     70  C   UNL A   1      42.578  29.209  26.180  1.00  0.00    -0.053 A 
ATOM     71  H   UNL A   1      41.891  27.844  24.716  1.00  0.00     0.063 H 
ATOM     72  C   UNL A   1      43.937  28.210  27.926  1.00  0.00    -0.053 A 
ATOM     73  H   UNL A   1      44.674  26.315  27.470  1.00  0.00     0.063 H 
ATOM     74  C   UNL A   1      43.312  29.316  27.369  1.00  0.00    -0.014 A 
ATOM     75  H   UNL A   1      42.120  30.039  25.771  1.00  0.00     0.063 H 
ATOM     76  H   UNL A   1      44.340  28.259  28.874  1.00  0.00     0.063 H 
BRANCH  74  77
ATOM     77  C   UNL A   1      43.363  30.532  28.170  1.00  0.00     0.031 A 
ATOM     78  C   UNL A   1      44.173  31.611  27.558  1.00  0.00     0.074 A 
ATOM     79  C   UNL A   1      42.504  30.753  29.191  1.00  0.00     0.049 A 
ATOM     80  N   UNL A   1      45.275  32.105  28.012  1.00  0.00    -0.248 NA
ATOM     81  C   UNL A   1      43.816  32.086  26.211  1.00  0.00    -0.034 C 
ATOM     82  C   UNL A   1      41.459  29.868  29.704  1.00  0.00    -0.036 A 
ATOM     83  N   UNL A   1      42.311  31.878  29.931  1.00  0.00    -0.354 N 
ATOM     84  C   UNL A   1      45.619  33.122  27.128  1.00  0.00     0.074 A 
ATOM     85  C   UNL A   1      44.841  32.897  25.941  1.00  0.00    -0.034 C 
ATOM     86  H   UNL A   1      42.994  31.855  25.631  1.00  0.00     0.065 H 
ATOM     87  C   UNL A   1      40.596  30.568  30.479  1.00  0.00    -0.036 A 
ATOM     88  H   UNL A   1      41.388  28.858  29.505  1.00  0.00     0.065 H 
ATOM     89  C   UNL A   1      41.117  31.906  30.661  1.00  0.00     0.049 A 
ATOM     90  H   UNL A   1      42.961  32.617  29.952  1.00  0.00     0.167 HD
ATOM     91  C   UNL A   1      46.279  34.226  27.577  1.00  0.00     0.037 A 
ATOM     92  H   UNL A   1      45.045  33.303  25.014  1.00  0.00     0.065 H 
ATOM     93  H   UNL A   1      39.714  30.207  30.875  1.00  0.00     0.065 H 
ATOM     94  C   UNL A   1      40.616  32.961  31.359  1.00  0.00     0.037 A 
ATOM     95  C   UNL A   1      46.878  33.968  28.868  1.00  0.00     0.049 A 
ATOM     96  C   UNL A   1      41.749  33.894  31.574  1.00  0.00     0.074 A 
ATOM     97  C   UNL A   1      47.752  33.012  29.355  1.00  0.00    -0.036 A 
ATOM     98  N   UNL A   1      46.273  34.501  29.982  1.00  0.00    -0.354 N 
ATOM     99  N   UNL A   1      42.744  33.626  32.371  1.00  0.00    -0.248 NA
ATOM    100  C   UNL A   1      42.014  34.861  30.520  1.00  0.00    -0.034 C 
ATOM    101  C   UNL A   1      47.236  32.658  30.637  1.00  0.00    -0.036 A 
ATOM    102  H   UNL A   1      48.594  32.636  28.890  1.00  0.00     0.065 H 
ATOM    103  C   UNL A   1      46.152  33.491  30.903  1.00  0.00     0.049 A 
ATOM    104  H   UNL A   1      45.981  35.434  30.098  1.00  0.00     0.167 HD
ATOM    105  C   UNL A   1      43.863  34.033  31.666  1.00  0.00     0.074 A 
ATOM    106  C   UNL A   1      43.349  34.836  30.553  1.00  0.00    -0.034 C 
ATOM    107  H   UNL A   1      41.366  35.402  29.926  1.00  0.00     0.065 H 
ATOM    108  H   UNL A   1      47.599  31.917  31.256  1.00  0.00     0.065 H 
ATOM    109  C   UNL A   1      45.069  33.422  31.851  1.00  0.00     0.037 A 
ATOM    110  H   UNL A   1      43.950  35.327  29.873  1.00  0.00     0.065 H 
BRANCH  91 111
ATOM    111  C   UNL A   1      46.034  35.632  27.066  1.00  0.00     0.064 A 
ATOM    112  C   UNL A   1      47.151  36.433  26.747  1.00  0.00     0.173 A 
ATOM    113  C   UNL A   1      44.806  36.325  27.150  1.00  0.00     0.173 A 
ATOM    114  F   UNL A   1      48.373  35.892  26.641  1.00  0.00    -0.203 F 
ATOM    115  C   UNL A   1      47.058  37.823  26.628  1.00  0.00     0.198 A 
ATOM    116  C   UNL A   1      44.708  37.704  26.976  1.00  0.00     0.198 A 
ATOM    117  F   UNL A   1      43.662  35.734  27.506  1.00  0.00    -0.203 F 
ATOM    118  F   UNL A   1      48.172  38.549  26.465  1.00  0.00    -0.200 F 
ATOM    119  C   UNL A   1      45.839  38.458  26.752  1.00  0.00     0.200 A 
ATOM    120  F   UNL A   1      43.515  38.300  27.109  1.00  0.00    -0.200 F 
ATOM    121  F   UNL A   1      45.755  39.793  26.703  1.00  0.00    -0.200 F 
ENDBRANCH  91 111
BRANCH  94 122
ATOM    122  C   UNL A   1      39.225  33.393  31.649  1.00  0.00     0.064 A 
ATOM    123  C   UNL A   1      38.365  33.822  30.622  1.00  0.00     0.173 A 
ATOM    124  C   UNL A   1      38.614  33.075  32.872  1.00  0.00     0.173 A 
ATOM    125  F   UNL A   1      38.861  34.128  29.415  1.00  0.00    -0.203 F 
ATOM    126  C   UNL A   1      36.975  33.874  30.789  1.00  0.00     0.198 A 
ATOM    127  C   UNL A   1      37.225  33.133  33.036  1.00  0.00     0.198 A 
ATOM    128  F   UNL A   1      39.362  32.627  33.888  1.00  0.00    -0.203 F 
ATOM    129  F   UNL A   1      36.186  34.226  29.765  1.00  0.00    -0.200 F 
ATOM    130  C   UNL A   1      36.405  33.509  31.991  1.00  0.00     0.200 A 
ATOM    131  F   UNL A   1      36.650  32.781  34.190  1.00  0.00    -0.200 F 
ATOM    132  F   UNL A   1      35.073  33.492  32.142  1.00  0.00    -0.200 F 
ENDBRANCH  94 122
BRANCH 109 133
ATOM    133  C   UNL A   1      45.215  32.459  32.997  1.00  0.00     0.064 A 
ATOM    134  C   UNL A   1      44.950  31.079  32.923  1.00  0.00     0.173 A 
ATOM    135  C   UNL A   1      45.780  32.939  34.184  1.00  0.00     0.173 A 
ATOM    136  F   UNL A   1      44.506  30.518  31.791  1.00  0.00    -0.203 F 
ATOM    137  C   UNL A   1      45.197  30.234  34.005  1.00  0.00     0.198 A 
ATOM    138  C   UNL A   1      46.061  32.089  35.249  1.00  0.00     0.198 A 
ATOM    139  F   UNL A   1      46.103  34.237  34.295  1.00  0.00    -0.203 F 
ATOM    140  F   UNL A   1      44.926  28.923  33.914  1.00  0.00    -0.200 F 
ATOM    141  C   UNL A   1      45.759  30.740  35.166  1.00  0.00     0.200 A 
ATOM    142  F   UNL A   1      46.652  32.577  36.348  1.00  0.00    -0.200 F 
ATOM    143  F   UNL A   1      46.035  29.925  36.193  1.00  0.00    -0.200 F 
ENDBRANCH 109 133
ENDBRANCH  74  77
ENDBRANCH  64  67
ENDBRANCH  60  63
ENDBRANCH  57  60
ENDBRANCH  54  57
ENDBRANCH  51  54
ENDBRANCH   1  51
TORSDOF 19
ENDMDL
