MODEL 1
REMARK VINA RESULT:     -12.9      0.000      0.000
REMARK SMILES NS(=O)(=O)c1ccc(/N=C/c2ccc(O)c(C(=O)NCCCCCCNC(=O)c3ccc(-c4c5nc(c(-c6c(F)c(F)c(F)c(F)c6F)c6ccc([nH]6)c(-c6c(F)c(F)c(F)c(F)c6F)c6nc(c(-c7c(F)c(F)c(F)c(F)c7F)c7ccc4[nH]7)C=C6)C=C5)cc3)c2)cc1
REMARK SMILES IDX 21 1 20 4 19 7 17 8 18 9 16 11 11 12 12 13 92 14 13 15 14 18
REMARK SMILES IDX 10 20 9 21 8 23 5 24 6 25 94 26 7 27 93 29 2 33 3 34 4 35
REMARK SMILES IDX 1 36 15 39 22 41 23 44 24 47 25 50 26 53 27 54 28 56 29 57
REMARK SMILES IDX 30 58 91 59 31 60 90 62 32 64 33 67 34 68 84 69 35 70 89 71
REMARK SMILES IDX 83 72 85 73 36 74 88 75 82 77 81 79 37 81 69 84 49 85 68 86
REMARK SMILES IDX 50 87 53 88 67 89 86 90 51 91 52 93 66 95 87 96 54 99 38 101
REMARK SMILES IDX 39 102 47 103 40 104 41 105 45 106 48 107 42 108 43 109
REMARK SMILES IDX 46 110 44 111 70 112 71 113 79 114 72 115 73 116 77 117
REMARK SMILES IDX 80 118 74 119 75 120 78 121 76 122 55 123 56 124 64 125
REMARK SMILES IDX 57 126 58 127 62 128 65 129 59 130 60 131 63 132 61 133
REMARK H PARENT 21 2 21 3 20 5 20 6 19 10 12 16 92 17 13 19 10 22 6 28 94 30
REMARK H PARENT 7 31 93 32 1 37 1 38 15 40 22 42 22 43 23 45 23 46 24 48 24 49
REMARK H PARENT 25 51 25 52 26 55 30 61 91 63 31 65 90 66 89 76 83 78 85 80
REMARK H PARENT 88 82 82 83 50 92 53 94 86 97 51 98 87 100
REMARK Flexibility Score: inf
ROOT
ATOM      1  C   UNL A   1      33.826  29.205  26.970  1.00  0.00    -0.036 C 
ATOM      2  H   UNL A   1      34.366  30.098  26.731  1.00  0.00     0.028 H 
ATOM      3  H   UNL A   1      34.150  28.708  27.861  1.00  0.00     0.028 H 
ENDROOT
BRANCH   1   4
ATOM      4  C   UNL A   1      34.073  28.204  25.846  1.00  0.00     0.018 C 
ATOM      5  H   UNL A   1      35.020  27.737  26.017  1.00  0.00     0.049 H 
ATOM      6  H   UNL A   1      33.255  27.514  25.868  1.00  0.00     0.049 H 
BRANCH   4   7
ATOM      7  N   UNL A   1      34.088  28.786  24.513  1.00  0.00    -0.352 N 
ATOM      8  C   UNL A   1      33.158  28.720  23.499  1.00  0.00     0.255 C 
ATOM      9  O   UNL A   1      33.419  29.232  22.410  1.00  0.00    -0.269 OA
ATOM     10  H   UNL A   1      34.892  29.312  24.301  1.00  0.00     0.163 HD
BRANCH   8  11
ATOM     11  C   UNL A   1      31.875  27.984  23.634  1.00  0.00     0.082 A 
ATOM     12  C   UNL A   1      30.645  25.908  23.860  1.00  0.00    -0.006 A 
ATOM     13  C   UNL A   1      29.445  26.558  23.576  1.00  0.00    -0.050 A 
ATOM     14  C   UNL A   1      31.836  26.633  23.971  1.00  0.00    -0.037 A 
ATOM     15  C   UNL A   1      29.454  27.940  23.368  1.00  0.00    -0.019 A 
ATOM     16  H   UNL A   1      28.562  26.027  23.522  1.00  0.00     0.063 H 
ATOM     17  H   UNL A   1      32.693  26.163  24.306  1.00  0.00     0.064 H 
ATOM     18  C   UNL A   1      30.662  28.643  23.383  1.00  0.00     0.128 A 
ATOM     19  H   UNL A   1      28.568  28.442  23.202  1.00  0.00     0.066 H 
BRANCH  12  20
ATOM     20  C   UNL A   1      30.712  24.431  23.890  1.00  0.00     0.035 C 
ATOM     21  N   UNL A   1      31.844  23.853  24.134  1.00  0.00    -0.256 NA
ATOM     22  H   UNL A   1      29.864  23.867  23.719  1.00  0.00     0.085 H 
BRANCH  21  23
ATOM     23  C   UNL A   1      31.969  22.462  24.052  1.00  0.00     0.063 A 
ATOM     24  C   UNL A   1      32.484  19.710  24.008  1.00  0.00     0.082 A 
ATOM     25  C   UNL A   1      32.401  20.378  25.231  1.00  0.00    -0.040 A 
ATOM     26  C   UNL A   1      32.308  20.401  22.807  1.00  0.00    -0.040 A 
ATOM     27  C   UNL A   1      32.151  21.753  25.244  1.00  0.00    -0.035 A 
ATOM     28  H   UNL A   1      32.522  19.863  26.117  1.00  0.00     0.064 H 
ATOM     29  C   UNL A   1      32.060  21.777  22.834  1.00  0.00    -0.035 A 
ATOM     30  H   UNL A   1      32.362  19.901  21.906  1.00  0.00     0.064 H 
ATOM     31  H   UNL A   1      32.101  22.252  26.146  1.00  0.00     0.065 H 
ATOM     32  H   UNL A   1      31.942  22.293  21.947  1.00  0.00     0.065 H 
BRANCH  24  33
ATOM     33  S   UNL A   1      32.822  17.975  24.001  1.00  0.00     0.238 S 
ATOM     34  O   UNL A   1      31.931  17.319  24.934  1.00  0.00    -0.207 OA
ATOM     35  O   UNL A   1      34.250  17.792  24.012  1.00  0.00    -0.207 OA
BRANCH  33  36
ATOM     36  N   UNL A   1      32.294  17.471  22.486  1.00  0.00    -0.225 NA
ATOM     37  H   UNL A   1      33.094  17.158  21.934  1.00  0.00     0.137 HD
ATOM     38  H   UNL A   1      31.836  18.248  22.010  1.00  0.00     0.137 HD
ENDBRANCH  33  36
ENDBRANCH  24  33
ENDBRANCH  21  23
ENDBRANCH  12  20
BRANCH  18  39
ATOM     39  O   UNL A   1      30.585  29.987  23.127  1.00  0.00    -0.507 OA
ATOM     40  H   UNL A   1      29.779  30.361  22.832  1.00  0.00     0.293 HD
ENDBRANCH  18  39
ENDBRANCH   8  11
ENDBRANCH   4   7
ENDBRANCH   1   4
BRANCH   1  41
ATOM     41  C   UNL A   1      32.375  29.600  27.240  1.00  0.00    -0.052 C 
ATOM     42  H   UNL A   1      32.329  30.002  28.231  1.00  0.00     0.027 H 
ATOM     43  H   UNL A   1      31.809  28.704  27.092  1.00  0.00     0.027 H 
BRANCH  41  44
ATOM     44  C   UNL A   1      31.749  30.628  26.295  1.00  0.00    -0.052 C 
ATOM     45  H   UNL A   1      30.820  30.227  25.949  1.00  0.00     0.027 H 
ATOM     46  H   UNL A   1      32.480  30.789  25.530  1.00  0.00     0.027 H 
BRANCH  44  47
ATOM     47  C   UNL A   1      31.468  32.015  26.878  1.00  0.00    -0.036 C 
ATOM     48  H   UNL A   1      30.816  31.890  27.717  1.00  0.00     0.028 H 
ATOM     49  H   UNL A   1      31.047  32.583  26.075  1.00  0.00     0.028 H 
BRANCH  47  50
ATOM     50  C   UNL A   1      32.683  32.805  27.346  1.00  0.00     0.018 C 
ATOM     51  H   UNL A   1      33.418  32.792  26.569  1.00  0.00     0.049 H 
ATOM     52  H   UNL A   1      33.036  32.341  28.244  1.00  0.00     0.049 H 
BRANCH  50  53
ATOM     53  N   UNL A   1      32.379  34.189  27.668  1.00  0.00    -0.352 N 
ATOM     54  C   UNL A   1      32.987  35.020  28.580  1.00  0.00     0.251 C 
ATOM     55  H   UNL A   1      31.634  34.588  27.164  1.00  0.00     0.163 HD
ATOM     56  O   UNL A   1      32.531  36.138  28.805  1.00  0.00    -0.269 OA
BRANCH  54  57
ATOM     57  C   UNL A   1      34.180  34.553  29.320  1.00  0.00     0.039 A 
ATOM     58  C   UNL A   1      34.008  33.954  30.572  1.00  0.00    -0.049 A 
ATOM     59  C   UNL A   1      35.460  34.697  28.780  1.00  0.00    -0.049 A 
ATOM     60  C   UNL A   1      35.113  33.430  31.249  1.00  0.00    -0.053 A 
ATOM     61  H   UNL A   1      33.068  33.899  30.995  1.00  0.00     0.063 H 
ATOM     62  C   UNL A   1      36.550  34.118  29.425  1.00  0.00    -0.053 A 
ATOM     63  H   UNL A   1      35.598  35.228  27.905  1.00  0.00     0.063 H 
ATOM     64  C   UNL A   1      36.387  33.475  30.663  1.00  0.00    -0.014 A 
ATOM     65  H   UNL A   1      34.990  33.007  32.183  1.00  0.00     0.063 H 
ATOM     66  H   UNL A   1      37.485  34.163  28.991  1.00  0.00     0.063 H 
BRANCH  64  67
ATOM     67  C   UNL A   1      37.576  32.870  31.314  1.00  0.00     0.031 A 
ATOM     68  C   UNL A   1      38.277  31.716  30.655  1.00  0.00     0.074 A 
ATOM     69  C   UNL A   1      37.958  33.285  32.537  1.00  0.00     0.049 A 
ATOM     70  N   UNL A   1      39.208  30.928  31.128  1.00  0.00    -0.248 NA
ATOM     71  C   UNL A   1      37.851  31.390  29.285  1.00  0.00    -0.034 C 
ATOM     72  C   UNL A   1      37.350  34.383  33.287  1.00  0.00    -0.036 A 
ATOM     73  N   UNL A   1      38.935  32.808  33.377  1.00  0.00    -0.354 N 
ATOM     74  C   UNL A   1      39.454  29.995  30.131  1.00  0.00     0.074 A 
ATOM     75  C   UNL A   1      38.555  30.295  29.037  1.00  0.00    -0.034 C 
ATOM     76  H   UNL A   1      37.179  31.885  28.676  1.00  0.00     0.065 H 
ATOM     77  C   UNL A   1      37.964  34.495  34.476  1.00  0.00    -0.036 A 
ATOM     78  H   UNL A   1      36.573  34.976  32.956  1.00  0.00     0.065 H 
ATOM     79  C   UNL A   1      38.974  33.447  34.593  1.00  0.00     0.049 A 
ATOM     80  H   UNL A   1      39.548  32.078  33.132  1.00  0.00     0.167 HD
ATOM     81  C   UNL A   1      40.356  28.986  30.126  1.00  0.00     0.037 A 
ATOM     82  H   UNL A   1      38.473  29.732  28.177  1.00  0.00     0.065 H 
ATOM     83  H   UNL A   1      37.755  35.209  35.193  1.00  0.00     0.065 H 
ATOM     84  C   UNL A   1      39.721  33.199  35.685  1.00  0.00     0.037 A 
ATOM     85  C   UNL A   1      41.269  28.711  31.203  1.00  0.00     0.049 A 
ATOM     86  C   UNL A   1      40.707  32.061  35.659  1.00  0.00     0.074 A 
ATOM     87  C   UNL A   1      42.260  27.748  31.270  1.00  0.00    -0.036 A 
ATOM     88  N   UNL A   1      41.301  29.405  32.404  1.00  0.00    -0.354 N 
ATOM     89  N   UNL A   1      40.973  31.217  34.691  1.00  0.00    -0.248 NA
ATOM     90  C   UNL A   1      41.503  31.841  36.876  1.00  0.00    -0.034 C 
ATOM     91  C   UNL A   1      42.869  27.835  32.525  1.00  0.00    -0.036 A 
ATOM     92  H   UNL A   1      42.507  27.080  30.522  1.00  0.00     0.065 H 
ATOM     93  C   UNL A   1      42.289  28.883  33.223  1.00  0.00     0.049 A 
ATOM     94  H   UNL A   1      40.710  30.156  32.639  1.00  0.00     0.167 HD
ATOM     95  C   UNL A   1      41.986  30.396  35.166  1.00  0.00     0.074 A 
ATOM     96  C   UNL A   1      42.293  30.842  36.507  1.00  0.00    -0.034 C 
ATOM     97  H   UNL A   1      41.459  32.335  37.780  1.00  0.00     0.065 H 
ATOM     98  H   UNL A   1      43.625  27.224  32.873  1.00  0.00     0.065 H 
ATOM     99  C   UNL A   1      42.607  29.365  34.543  1.00  0.00     0.037 A 
ATOM    100  H   UNL A   1      43.032  30.435  37.102  1.00  0.00     0.065 H 
BRANCH  81 101
ATOM    101  C   UNL A   1      40.398  28.099  28.916  1.00  0.00     0.064 A 
ATOM    102  C   UNL A   1      39.678  26.897  28.860  1.00  0.00     0.173 A 
ATOM    103  C   UNL A   1      41.138  28.476  27.785  1.00  0.00     0.173 A 
ATOM    104  F   UNL A   1      38.964  26.488  29.920  1.00  0.00    -0.203 F 
ATOM    105  C   UNL A   1      39.720  26.088  27.728  1.00  0.00     0.198 A 
ATOM    106  C   UNL A   1      41.155  27.679  26.643  1.00  0.00     0.198 A 
ATOM    107  F   UNL A   1      41.838  29.619  27.782  1.00  0.00    -0.203 F 
ATOM    108  F   UNL A   1      39.062  24.922  27.715  1.00  0.00    -0.200 F 
ATOM    109  C   UNL A   1      40.452  26.483  26.617  1.00  0.00     0.200 A 
ATOM    110  F   UNL A   1      41.852  28.068  25.566  1.00  0.00    -0.200 F 
ATOM    111  F   UNL A   1      40.486  25.707  25.526  1.00  0.00    -0.200 F 
ENDBRANCH  81 101
BRANCH  84 112
ATOM    112  C   UNL A   1      39.578  34.055  36.893  1.00  0.00     0.064 A 
ATOM    113  C   UNL A   1      40.249  35.282  36.986  1.00  0.00     0.173 A 
ATOM    114  C   UNL A   1      38.772  33.671  37.975  1.00  0.00     0.173 A 
ATOM    115  F   UNL A   1      41.041  35.689  35.982  1.00  0.00    -0.203 F 
ATOM    116  C   UNL A   1      40.141  36.079  38.123  1.00  0.00     0.198 A 
ATOM    117  C   UNL A   1      38.646  34.478  39.103  1.00  0.00     0.198 A 
ATOM    118  F   UNL A   1      38.080  32.524  37.924  1.00  0.00    -0.203 F 
ATOM    119  F   UNL A   1      40.824  37.229  38.200  1.00  0.00    -0.200 F 
ATOM    120  C   UNL A   1      39.337  35.678  39.180  1.00  0.00     0.200 A 
ATOM    121  F   UNL A   1      37.852  34.099  40.113  1.00  0.00    -0.200 F 
ATOM    122  F   UNL A   1      39.230  36.448  40.272  1.00  0.00    -0.200 F 
ENDBRANCH  84 112
BRANCH  99 123
ATOM    123  C   UNL A   1      43.728  28.685  35.270  1.00  0.00     0.064 A 
ATOM    124  C   UNL A   1      43.507  27.576  36.097  1.00  0.00     0.173 A 
ATOM    125  C   UNL A   1      45.052  29.107  35.072  1.00  0.00     0.173 A 
ATOM    126  F   UNL A   1      42.258  27.144  36.328  1.00  0.00    -0.203 F 
ATOM    127  C   UNL A   1      44.572  26.918  36.707  1.00  0.00     0.198 A 
ATOM    128  C   UNL A   1      46.115  28.432  35.663  1.00  0.00     0.198 A 
ATOM    129  F   UNL A   1      45.316  30.160  34.283  1.00  0.00    -0.203 F 
ATOM    130  F   UNL A   1      44.337  25.876  37.517  1.00  0.00    -0.200 F 
ATOM    131  C   UNL A   1      45.874  27.339  36.483  1.00  0.00     0.200 A 
ATOM    132  F   UNL A   1      47.374  28.832  35.434  1.00  0.00    -0.200 F 
ATOM    133  F   UNL A   1      46.898  26.694  37.058  1.00  0.00    -0.200 F 
ENDBRANCH  99 123
ENDBRANCH  64  67
ENDBRANCH  54  57
ENDBRANCH  50  53
ENDBRANCH  47  50
ENDBRANCH  44  47
ENDBRANCH  41  44
ENDBRANCH   1  41
TORSDOF 18
ENDMDL
MODEL 2
REMARK VINA RESULT:     -12.6      1.707      7.306
REMARK SMILES NS(=O)(=O)c1ccc(/N=C/c2ccc(O)c(C(=O)NCCCCCCNC(=O)c3ccc(-c4c5nc(c(-c6c(F)c(F)c(F)c(F)c6F)c6ccc([nH]6)c(-c6c(F)c(F)c(F)c(F)c6F)c6nc(c(-c7c(F)c(F)c(F)c(F)c7F)c7ccc4[nH]7)C=C6)C=C5)cc3)c2)cc1
REMARK SMILES IDX 21 1 20 4 19 7 17 8 18 9 16 11 11 12 12 13 92 14 13 15 14 18
REMARK SMILES IDX 10 20 9 21 8 23 5 24 6 25 94 26 7 27 93 29 2 33 3 34 4 35
REMARK SMILES IDX 1 36 15 39 22 41 23 44 24 47 25 50 26 53 27 54 28 56 29 57
REMARK SMILES IDX 30 58 91 59 31 60 90 62 32 64 33 67 34 68 84 69 35 70 89 71
REMARK SMILES IDX 83 72 85 73 36 74 88 75 82 77 81 79 37 81 69 84 49 85 68 86
REMARK SMILES IDX 50 87 53 88 67 89 86 90 51 91 52 93 66 95 87 96 54 99 38 101
REMARK SMILES IDX 39 102 47 103 40 104 41 105 45 106 48 107 42 108 43 109
REMARK SMILES IDX 46 110 44 111 70 112 71 113 79 114 72 115 73 116 77 117
REMARK SMILES IDX 80 118 74 119 75 120 78 121 76 122 55 123 56 124 64 125
REMARK SMILES IDX 57 126 58 127 62 128 65 129 59 130 60 131 63 132 61 133
REMARK H PARENT 21 2 21 3 20 5 20 6 19 10 12 16 92 17 13 19 10 22 6 28 94 30
REMARK H PARENT 7 31 93 32 1 37 1 38 15 40 22 42 22 43 23 45 23 46 24 48 24 49
REMARK H PARENT 25 51 25 52 26 55 30 61 91 63 31 65 90 66 89 76 83 78 85 80
REMARK H PARENT 88 82 82 83 50 92 53 94 86 97 51 98 87 100
REMARK Flexibility Score: inf
ROOT
ATOM      1  C   UNL A   1      35.128  30.685  28.061  1.00  0.00    -0.036 C 
ATOM      2  H   UNL A   1      36.137  30.574  27.720  1.00  0.00     0.028 H 
ATOM      3  H   UNL A   1      34.999  30.592  29.120  1.00  0.00     0.028 H 
ENDROOT
BRANCH   1   4
ATOM      4  C   UNL A   1      34.311  29.547  27.461  1.00  0.00     0.018 C 
ATOM      5  H   UNL A   1      34.607  28.635  27.937  1.00  0.00     0.049 H 
ATOM      6  H   UNL A   1      33.282  29.791  27.627  1.00  0.00     0.049 H 
BRANCH   4   7
ATOM      7  N   UNL A   1      34.471  29.383  26.025  1.00  0.00    -0.352 N 
ATOM      8  C   UNL A   1      34.000  28.402  25.180  1.00  0.00     0.255 C 
ATOM      9  O   UNL A   1      34.329  28.423  23.992  1.00  0.00    -0.269 OA
ATOM     10  H   UNL A   1      35.001  30.086  25.585  1.00  0.00     0.163 HD
BRANCH   8  11
ATOM     11  C   UNL A   1      33.171  27.265  25.653  1.00  0.00     0.082 A 
ATOM     12  C   UNL A   1      32.819  24.884  25.943  1.00  0.00    -0.006 A 
ATOM     13  C   UNL A   1      31.479  25.096  26.263  1.00  0.00    -0.050 A 
ATOM     14  C   UNL A   1      33.676  25.968  25.724  1.00  0.00    -0.037 A 
ATOM     15  C   UNL A   1      30.994  26.405  26.327  1.00  0.00    -0.019 A 
ATOM     16  H   UNL A   1      30.853  24.297  26.452  1.00  0.00     0.063 H 
ATOM     17  H   UNL A   1      34.690  25.806  25.614  1.00  0.00     0.064 H 
ATOM     18  C   UNL A   1      31.831  27.478  26.011  1.00  0.00     0.128 A 
ATOM     19  H   UNL A   1      30.016  26.579  26.606  1.00  0.00     0.066 H 
BRANCH  12  20
ATOM     20  C   UNL A   1      33.321  23.521  25.672  1.00  0.00     0.035 C 
ATOM     21  N   UNL A   1      32.860  22.867  24.655  1.00  0.00    -0.256 NA
ATOM     22  H   UNL A   1      34.033  23.095  26.288  1.00  0.00     0.085 H 
BRANCH  21  23
ATOM     23  C   UNL A   1      33.223  21.533  24.438  1.00  0.00     0.063 A 
ATOM     24  C   UNL A   1      33.719  18.790  24.169  1.00  0.00     0.082 A 
ATOM     25  C   UNL A   1      32.545  19.335  23.646  1.00  0.00    -0.040 A 
ATOM     26  C   UNL A   1      34.649  19.602  24.822  1.00  0.00    -0.040 A 
ATOM     27  C   UNL A   1      32.301  20.702  23.792  1.00  0.00    -0.035 A 
ATOM     28  H   UNL A   1      31.863  18.733  23.157  1.00  0.00     0.064 H 
ATOM     29  C   UNL A   1      34.394  20.969  24.962  1.00  0.00    -0.035 A 
ATOM     30  H   UNL A   1      35.520  19.195  25.200  1.00  0.00     0.064 H 
ATOM     31  H   UNL A   1      31.429  21.106  23.416  1.00  0.00     0.065 H 
ATOM     32  H   UNL A   1      35.074  21.569  25.455  1.00  0.00     0.065 H 
BRANCH  24  33
ATOM     33  S   UNL A   1      34.007  17.054  24.001  1.00  0.00     0.238 S 
ATOM     34  O   UNL A   1      35.053  16.661  24.921  1.00  0.00    -0.207 OA
ATOM     35  O   UNL A   1      34.028  16.732  22.597  1.00  0.00    -0.207 OA
BRANCH  33  36
ATOM     36  N   UNL A   1      32.610  16.355  24.623  1.00  0.00    -0.225 NA
ATOM     37  H   UNL A   1      32.860  15.542  25.188  1.00  0.00     0.137 HD
ATOM     38  H   UNL A   1      32.005  16.063  23.856  1.00  0.00     0.137 HD
ENDBRANCH  33  36
ENDBRANCH  24  33
ENDBRANCH  21  23
ENDBRANCH  12  20
BRANCH  18  39
ATOM     39  O   UNL A   1      31.263  28.724  26.056  1.00  0.00    -0.507 OA
ATOM     40  H   UNL A   1      31.757  29.452  26.378  1.00  0.00     0.293 HD
ENDBRANCH  18  39
ENDBRANCH   8  11
ENDBRANCH   4   7
ENDBRANCH   1   4
BRANCH   1  41
ATOM     41  C   UNL A   1      34.683  32.109  27.731  1.00  0.00    -0.052 C 
ATOM     42  H   UNL A   1      33.803  32.039  27.125  1.00  0.00     0.027 H 
ATOM     43  H   UNL A   1      35.525  32.560  27.249  1.00  0.00     0.027 H 
BRANCH  41  44
ATOM     44  C   UNL A   1      34.359  33.026  28.912  1.00  0.00    -0.052 C 
ATOM     45  H   UNL A   1      35.245  33.579  29.145  1.00  0.00     0.027 H 
ATOM     46  H   UNL A   1      34.021  32.374  29.690  1.00  0.00     0.027 H 
BRANCH  44  47
ATOM     47  C   UNL A   1      33.224  34.032  28.710  1.00  0.00    -0.036 C 
ATOM     48  H   UNL A   1      32.398  33.716  29.312  1.00  0.00     0.028 H 
ATOM     49  H   UNL A   1      33.026  34.033  27.659  1.00  0.00     0.028 H 
BRANCH  47  50
ATOM     50  C   UNL A   1      33.537  35.479  29.070  1.00  0.00     0.018 C 
ATOM     51  H   UNL A   1      33.412  36.082  28.196  1.00  0.00     0.049 H 
ATOM     52  H   UNL A   1      34.542  35.503  29.437  1.00  0.00     0.049 H 
BRANCH  50  53
ATOM     53  N   UNL A   1      32.683  36.007  30.121  1.00  0.00    -0.352 N 
ATOM     54  C   UNL A   1      32.760  35.814  31.480  1.00  0.00     0.251 C 
ATOM     55  H   UNL A   1      31.946  36.584  29.817  1.00  0.00     0.163 HD
ATOM     56  O   UNL A   1      31.886  36.251  32.222  1.00  0.00    -0.269 OA
BRANCH  54  57
ATOM     57  C   UNL A   1      33.888  35.045  32.051  1.00  0.00     0.039 A 
ATOM     58  C   UNL A   1      33.659  33.744  32.507  1.00  0.00    -0.049 A 
ATOM     59  C   UNL A   1      35.168  35.600  32.127  1.00  0.00    -0.049 A 
ATOM     60  C   UNL A   1      34.727  32.971  32.970  1.00  0.00    -0.053 A 
ATOM     61  H   UNL A   1      32.702  33.355  32.501  1.00  0.00     0.063 H 
ATOM     62  C   UNL A   1      36.240  34.809  32.529  1.00  0.00    -0.053 A 
ATOM     63  H   UNL A   1      35.318  36.593  31.885  1.00  0.00     0.063 H 
ATOM     64  C   UNL A   1      36.032  33.485  32.950  1.00  0.00    -0.014 A 
ATOM     65  H   UNL A   1      34.555  32.018  33.328  1.00  0.00     0.063 H 
ATOM     66  H   UNL A   1      37.196  35.198  32.518  1.00  0.00     0.063 H 
BRANCH  64  67
ATOM     67  C   UNL A   1      37.205  32.677  33.367  1.00  0.00     0.031 A 
ATOM     68  C   UNL A   1      37.886  32.973  34.672  1.00  0.00     0.074 A 
ATOM     69  C   UNL A   1      37.718  31.755  32.530  1.00  0.00     0.049 A 
ATOM     70  N   UNL A   1      39.020  32.521  35.141  1.00  0.00    -0.248 NA
ATOM     71  C   UNL A   1      37.206  33.930  35.560  1.00  0.00    -0.034 C 
ATOM     72  C   UNL A   1      37.159  31.387  31.229  1.00  0.00    -0.036 A 
ATOM     73  N   UNL A   1      38.846  30.979  32.640  1.00  0.00    -0.354 N 
ATOM     74  C   UNL A   1      39.208  33.162  36.357  1.00  0.00     0.074 A 
ATOM     75  C   UNL A   1      38.085  34.056  36.544  1.00  0.00    -0.034 C 
ATOM     76  H   UNL A   1      36.285  34.383  35.448  1.00  0.00     0.065 H 
ATOM     77  C   UNL A   1      37.946  30.459  30.661  1.00  0.00    -0.036 A 
ATOM     78  H   UNL A   1      36.298  31.777  30.816  1.00  0.00     0.065 H 
ATOM     79  C   UNL A   1      39.090  30.204  31.531  1.00  0.00     0.049 A 
ATOM     80  H   UNL A   1      39.425  30.979  33.436  1.00  0.00     0.167 HD
ATOM     81  C   UNL A   1      40.221  33.009  37.243  1.00  0.00     0.037 A 
ATOM     82  H   UNL A   1      37.982  34.707  37.338  1.00  0.00     0.065 H 
ATOM     83  H   UNL A   1      37.770  30.001  29.752  1.00  0.00     0.065 H 
ATOM     84  C   UNL A   1      40.130  29.399  31.241  1.00  0.00     0.037 A 
ATOM     85  C   UNL A   1      41.319  32.096  37.067  1.00  0.00     0.049 A 
ATOM     86  C   UNL A   1      41.251  29.258  32.236  1.00  0.00     0.074 A 
ATOM     87  C   UNL A   1      42.364  31.826  37.933  1.00  0.00    -0.036 A 
ATOM     88  N   UNL A   1      41.510  31.302  35.945  1.00  0.00    -0.354 N 
ATOM     89  N   UNL A   1      41.394  29.826  33.409  1.00  0.00    -0.248 NA
ATOM     90  C   UNL A   1      42.357  28.360  31.871  1.00  0.00    -0.034 C 
ATOM     91  C   UNL A   1      43.207  30.894  37.321  1.00  0.00    -0.036 A 
ATOM     92  H   UNL A   1      42.497  32.240  38.868  1.00  0.00     0.065 H 
ATOM     93  C   UNL A   1      42.664  30.549  36.093  1.00  0.00     0.049 A 
ATOM     94  H   UNL A   1      40.915  31.277  35.162  1.00  0.00     0.167 HD
ATOM     95  C   UNL A   1      42.578  29.329  33.935  1.00  0.00     0.074 A 
ATOM     96  C   UNL A   1      43.117  28.409  32.957  1.00  0.00    -0.034 C 
ATOM     97  H   UNL A   1      42.504  27.830  30.998  1.00  0.00     0.065 H 
ATOM     98  H   UNL A   1      44.086  30.524  37.717  1.00  0.00     0.065 H 
ATOM     99  C   UNL A   1      43.165  29.609  35.124  1.00  0.00     0.037 A 
ATOM    100  H   UNL A   1      43.982  27.860  33.087  1.00  0.00     0.065 H 
BRANCH  81 101
ATOM    101  C   UNL A   1      40.191  33.853  38.483  1.00  0.00     0.064 A 
ATOM    102  C   UNL A   1      39.472  33.461  39.622  1.00  0.00     0.173 A 
ATOM    103  C   UNL A   1      40.921  35.050  38.546  1.00  0.00     0.173 A 
ATOM    104  F   UNL A   1      38.750  32.330  39.608  1.00  0.00    -0.203 F 
ATOM    105  C   UNL A   1      39.460  34.250  40.768  1.00  0.00     0.198 A 
ATOM    106  C   UNL A   1      40.930  35.823  39.704  1.00  0.00     0.198 A 
ATOM    107  F   UNL A   1      41.631  35.467  37.488  1.00  0.00    -0.203 F 
ATOM    108  F   UNL A   1      38.729  33.879  41.828  1.00  0.00    -0.200 F 
ATOM    109  C   UNL A   1      40.195  35.426  40.812  1.00  0.00     0.200 A 
ATOM    110  F   UNL A   1      41.651  36.952  39.749  1.00  0.00    -0.200 F 
ATOM    111  F   UNL A   1      40.188  36.182  41.918  1.00  0.00    -0.200 F 
ENDBRANCH  81 101
BRANCH  84 112
ATOM    112  C   UNL A   1      40.154  28.652  29.955  1.00  0.00     0.064 A 
ATOM    113  C   UNL A   1      40.839  29.160  28.843  1.00  0.00     0.173 A 
ATOM    114  C   UNL A   1      39.500  27.420  29.809  1.00  0.00     0.173 A 
ATOM    115  F   UNL A   1      41.472  30.340  28.929  1.00  0.00    -0.203 F 
ATOM    116  C   UNL A   1      40.847  28.480  27.628  1.00  0.00     0.198 A 
ATOM    117  C   UNL A   1      39.526  26.729  28.600  1.00  0.00     0.198 A 
ATOM    118  F   UNL A   1      38.860  26.871  30.850  1.00  0.00    -0.203 F 
ATOM    119  F   UNL A   1      41.478  29.008  26.571  1.00  0.00    -0.200 F 
ATOM    120  C   UNL A   1      40.193  27.263  27.507  1.00  0.00     0.200 A 
ATOM    121  F   UNL A   1      38.912  25.543  28.492  1.00  0.00    -0.200 F 
ATOM    122  F   UNL A   1      40.205  26.607  26.339  1.00  0.00    -0.200 F 
ENDBRANCH  84 112
BRANCH  99 123
ATOM    123  C   UNL A   1      44.420  28.867  35.473  1.00  0.00     0.064 A 
ATOM    124  C   UNL A   1      44.388  27.635  36.140  1.00  0.00     0.173 A 
ATOM    125  C   UNL A   1      45.667  29.365  35.065  1.00  0.00     0.173 A 
ATOM    126  F   UNL A   1      43.221  27.125  36.563  1.00  0.00    -0.203 F 
ATOM    127  C   UNL A   1      45.563  26.931  36.394  1.00  0.00     0.198 A 
ATOM    128  C   UNL A   1      46.836  28.646  35.298  1.00  0.00     0.198 A 
ATOM    129  F   UNL A   1      45.749  30.537  34.418  1.00  0.00    -0.203 F 
ATOM    130  F   UNL A   1      45.513  25.767  37.057  1.00  0.00    -0.200 F 
ATOM    131  C   UNL A   1      46.783  27.431  35.964  1.00  0.00     0.200 A 
ATOM    132  F   UNL A   1      48.013  29.124  34.870  1.00  0.00    -0.200 F 
ATOM    133  F   UNL A   1      47.910  26.743  36.194  1.00  0.00    -0.200 F 
ENDBRANCH  99 123
ENDBRANCH  64  67
ENDBRANCH  54  57
ENDBRANCH  50  53
ENDBRANCH  47  50
ENDBRANCH  44  47
ENDBRANCH  41  44
ENDBRANCH   1  41
TORSDOF 18
ENDMDL
MODEL 3
REMARK VINA RESULT:     -12.6      2.748      3.660
REMARK SMILES NS(=O)(=O)c1ccc(/N=C/c2ccc(O)c(C(=O)NCCCCCCNC(=O)c3ccc(-c4c5nc(c(-c6c(F)c(F)c(F)c(F)c6F)c6ccc([nH]6)c(-c6c(F)c(F)c(F)c(F)c6F)c6nc(c(-c7c(F)c(F)c(F)c(F)c7F)c7ccc4[nH]7)C=C6)C=C5)cc3)c2)cc1
REMARK SMILES IDX 21 1 20 4 19 7 17 8 18 9 16 11 11 12 12 13 92 14 13 15 14 18
REMARK SMILES IDX 10 20 9 21 8 23 5 24 6 25 94 26 7 27 93 29 2 33 3 34 4 35
REMARK SMILES IDX 1 36 15 39 22 41 23 44 24 47 25 50 26 53 27 54 28 56 29 57
REMARK SMILES IDX 30 58 91 59 31 60 90 62 32 64 33 67 34 68 84 69 35 70 89 71
REMARK SMILES IDX 83 72 85 73 36 74 88 75 82 77 81 79 37 81 69 84 49 85 68 86
REMARK SMILES IDX 50 87 53 88 67 89 86 90 51 91 52 93 66 95 87 96 54 99 38 101
REMARK SMILES IDX 39 102 47 103 40 104 41 105 45 106 48 107 42 108 43 109
REMARK SMILES IDX 46 110 44 111 70 112 71 113 79 114 72 115 73 116 77 117
REMARK SMILES IDX 80 118 74 119 75 120 78 121 76 122 55 123 56 124 64 125
REMARK SMILES IDX 57 126 58 127 62 128 65 129 59 130 60 131 63 132 61 133
REMARK H PARENT 21 2 21 3 20 5 20 6 19 10 12 16 92 17 13 19 10 22 6 28 94 30
REMARK H PARENT 7 31 93 32 1 37 1 38 15 40 22 42 22 43 23 45 23 46 24 48 24 49
REMARK H PARENT 25 51 25 52 26 55 30 61 91 63 31 65 90 66 89 76 83 78 85 80
REMARK H PARENT 88 82 82 83 50 92 53 94 86 97 51 98 87 100
REMARK Flexibility Score: inf
ROOT
ATOM      1  C   UNL A   1      33.537  28.496  25.780  1.00  0.00    -0.036 C 
ATOM      2  H   UNL A   1      33.923  29.182  25.055  1.00  0.00     0.028 H 
ATOM      3  H   UNL A   1      34.190  28.296  26.604  1.00  0.00     0.028 H 
ENDROOT
BRANCH   1   4
ATOM      4  C   UNL A   1      33.350  27.151  25.087  1.00  0.00     0.018 C 
ATOM      5  H   UNL A   1      34.095  26.478  25.457  1.00  0.00     0.049 H 
ATOM      6  H   UNL A   1      32.352  26.832  25.306  1.00  0.00     0.049 H 
BRANCH   4   7
ATOM      7  N   UNL A   1      33.460  27.199  23.638  1.00  0.00    -0.352 N 
ATOM      8  C   UNL A   1      33.595  26.184  22.718  1.00  0.00     0.255 C 
ATOM      9  O   UNL A   1      33.751  26.466  21.529  1.00  0.00    -0.269 OA
ATOM     10  H   UNL A   1      33.433  28.105  23.252  1.00  0.00     0.163 HD
BRANCH   8  11
ATOM     11  C   UNL A   1      33.643  24.751  23.106  1.00  0.00     0.082 A 
ATOM     12  C   UNL A   1      34.888  22.791  23.801  1.00  0.00    -0.006 A 
ATOM     13  C   UNL A   1      33.791  21.971  23.540  1.00  0.00    -0.050 A 
ATOM     14  C   UNL A   1      34.783  24.180  23.665  1.00  0.00    -0.037 A 
ATOM     15  C   UNL A   1      32.597  22.551  23.105  1.00  0.00    -0.019 A 
ATOM     16  H   UNL A   1      33.861  20.949  23.667  1.00  0.00     0.063 H 
ATOM     17  H   UNL A   1      35.557  24.785  23.983  1.00  0.00     0.064 H 
ATOM     18  C   UNL A   1      32.529  23.928  22.877  1.00  0.00     0.128 A 
ATOM     19  H   UNL A   1      31.764  21.962  22.950  1.00  0.00     0.066 H 
BRANCH  12  20
ATOM     20  C   UNL A   1      36.218  22.206  24.070  1.00  0.00     0.035 C 
ATOM     21  N   UNL A   1      36.448  21.658  25.220  1.00  0.00    -0.256 NA
ATOM     22  H   UNL A   1      36.956  22.234  23.348  1.00  0.00     0.085 H 
BRANCH  21  23
ATOM     23  C   UNL A   1      37.729  21.202  25.551  1.00  0.00     0.063 A 
ATOM     24  C   UNL A   1      40.395  20.476  26.010  1.00  0.00     0.082 A 
ATOM     25  C   UNL A   1      39.979  21.782  26.274  1.00  0.00    -0.040 A 
ATOM     26  C   UNL A   1      39.492  19.528  25.522  1.00  0.00    -0.040 A 
ATOM     27  C   UNL A   1      38.649  22.138  26.035  1.00  0.00    -0.035 A 
ATOM     28  H   UNL A   1      40.646  22.478  26.642  1.00  0.00     0.064 H 
ATOM     29  C   UNL A   1      38.164  19.897  25.287  1.00  0.00    -0.035 A 
ATOM     30  H   UNL A   1      39.803  18.561  25.337  1.00  0.00     0.064 H 
ATOM     31  H   UNL A   1      38.341  23.106  26.218  1.00  0.00     0.065 H 
ATOM     32  H   UNL A   1      37.498  19.202  24.915  1.00  0.00     0.065 H 
BRANCH  24  33
ATOM     33  S   UNL A   1      42.084  20.041  26.294  1.00  0.00     0.238 S 
ATOM     34  O   UNL A   1      42.830  21.240  26.609  1.00  0.00    -0.207 OA
ATOM     35  O   UNL A   1      42.487  19.104  25.277  1.00  0.00    -0.207 OA
BRANCH  33  36
ATOM     36  N   UNL A   1      42.037  19.179  27.737  1.00  0.00    -0.225 NA
ATOM     37  H   UNL A   1      42.463  18.262  27.599  1.00  0.00     0.137 HD
ATOM     38  H   UNL A   1      41.068  19.062  28.033  1.00  0.00     0.137 HD
ENDBRANCH  33  36
ENDBRANCH  24  33
ENDBRANCH  21  23
ENDBRANCH  12  20
BRANCH  18  39
ATOM     39  O   UNL A   1      31.334  24.408  22.410  1.00  0.00    -0.507 OA
ATOM     40  H   UNL A   1      30.873  23.944  21.739  1.00  0.00     0.293 HD
ENDBRANCH  18  39
ENDBRANCH   8  11
ENDBRANCH   4   7
ENDBRANCH   1   4
BRANCH   1  41
ATOM     41  C   UNL A   1      32.295  29.133  26.404  1.00  0.00    -0.052 C 
ATOM     42  H   UNL A   1      32.487  29.259  27.449  1.00  0.00     0.027 H 
ATOM     43  H   UNL A   1      31.492  28.466  26.171  1.00  0.00     0.027 H 
BRANCH  41  44
ATOM     44  C   UNL A   1      31.860  30.491  25.848  1.00  0.00    -0.052 C 
ATOM     45  H   UNL A   1      30.954  30.342  25.301  1.00  0.00     0.027 H 
ATOM     46  H   UNL A   1      32.687  30.833  25.261  1.00  0.00     0.027 H 
BRANCH  44  47
ATOM     47  C   UNL A   1      31.608  31.602  26.870  1.00  0.00    -0.036 C 
ATOM     48  H   UNL A   1      31.233  31.146  27.762  1.00  0.00     0.028 H 
ATOM     49  H   UNL A   1      30.922  32.275  26.398  1.00  0.00     0.028 H 
BRANCH  47  50
ATOM     50  C   UNL A   1      32.816  32.449  27.252  1.00  0.00     0.018 C 
ATOM     51  H   UNL A   1      33.498  32.460  26.429  1.00  0.00     0.049 H 
ATOM     52  H   UNL A   1      33.246  32.010  28.128  1.00  0.00     0.049 H 
BRANCH  50  53
ATOM     53  N   UNL A   1      32.473  33.822  27.584  1.00  0.00    -0.352 N 
ATOM     54  C   UNL A   1      33.060  34.665  28.499  1.00  0.00     0.251 C 
ATOM     55  H   UNL A   1      31.714  34.202  27.086  1.00  0.00     0.163 HD
ATOM     56  O   UNL A   1      32.573  35.767  28.732  1.00  0.00    -0.269 OA
BRANCH  54  57
ATOM     57  C   UNL A   1      34.270  34.229  29.230  1.00  0.00     0.039 A 
ATOM     58  C   UNL A   1      34.119  33.551  30.444  1.00  0.00    -0.049 A 
ATOM     59  C   UNL A   1      35.546  34.478  28.719  1.00  0.00    -0.049 A 
ATOM     60  C   UNL A   1      35.245  33.056  31.108  1.00  0.00    -0.053 A 
ATOM     61  H   UNL A   1      33.179  33.417  30.848  1.00  0.00     0.063 H 
ATOM     62  C   UNL A   1      36.660  33.929  29.347  1.00  0.00    -0.053 A 
ATOM     63  H   UNL A   1      35.662  35.064  27.877  1.00  0.00     0.063 H 
ATOM     64  C   UNL A   1      36.521  33.210  30.546  1.00  0.00    -0.014 A 
ATOM     65  H   UNL A   1      35.137  32.575  32.015  1.00  0.00     0.063 H 
ATOM     66  H   UNL A   1      37.596  34.054  28.931  1.00  0.00     0.063 H 
BRANCH  64  67
ATOM     67  C   UNL A   1      37.737  32.640  31.180  1.00  0.00     0.031 A 
ATOM     68  C   UNL A   1      38.428  31.470  30.542  1.00  0.00     0.074 A 
ATOM     69  C   UNL A   1      38.152  33.103  32.374  1.00  0.00     0.049 A 
ATOM     70  N   UNL A   1      39.382  30.709  31.014  1.00  0.00    -0.248 NA
ATOM     71  C   UNL A   1      37.964  31.090  29.199  1.00  0.00    -0.034 C 
ATOM     72  C   UNL A   1      37.555  34.223  33.103  1.00  0.00    -0.036 A 
ATOM     73  N   UNL A   1      39.159  32.668  33.200  1.00  0.00    -0.354 N 
ATOM     74  C   UNL A   1      39.608  29.742  30.044  1.00  0.00     0.074 A 
ATOM     75  C   UNL A   1      38.672  29.993  28.969  1.00  0.00    -0.034 C 
ATOM     76  H   UNL A   1      37.269  31.555  28.594  1.00  0.00     0.065 H 
ATOM     77  C   UNL A   1      38.204  34.385  34.267  1.00  0.00    -0.036 A 
ATOM     78  H   UNL A   1      36.762  34.796  32.774  1.00  0.00     0.065 H 
ATOM     79  C   UNL A   1      39.229  33.352  34.390  1.00  0.00     0.049 A 
ATOM     80  H   UNL A   1      39.772  31.935  32.962  1.00  0.00     0.167 HD
ATOM     81  C   UNL A   1      40.520  28.742  30.048  1.00  0.00     0.037 A 
ATOM     82  H   UNL A   1      38.570  29.398  28.133  1.00  0.00     0.065 H 
ATOM     83  H   UNL A   1      38.010  35.122  34.963  1.00  0.00     0.065 H 
ATOM     84  C   UNL A   1      40.013  33.151  35.467  1.00  0.00     0.037 A 
ATOM     85  C   UNL A   1      41.469  28.516  31.105  1.00  0.00     0.049 A 
ATOM     86  C   UNL A   1      41.010  32.022  35.451  1.00  0.00     0.074 A 
ATOM     87  C   UNL A   1      42.473  27.566  31.176  1.00  0.00    -0.036 A 
ATOM     88  N   UNL A   1      41.531  29.254  32.278  1.00  0.00    -0.354 N 
ATOM     89  N   UNL A   1      41.254  31.146  34.507  1.00  0.00    -0.248 NA
ATOM     90  C   UNL A   1      41.845  31.855  36.650  1.00  0.00    -0.034 C 
ATOM     91  C   UNL A   1      43.119  27.705  32.407  1.00  0.00    -0.036 A 
ATOM     92  H   UNL A   1      42.703  26.874  30.446  1.00  0.00     0.065 H 
ATOM     93  C   UNL A   1      42.549  28.772  33.085  1.00  0.00     0.049 A 
ATOM     94  H   UNL A   1      40.940  30.008  32.504  1.00  0.00     0.167 HD
ATOM     95  C   UNL A   1      42.290  30.352  34.979  1.00  0.00     0.074 A 
ATOM     96  C   UNL A   1      42.634  30.851  36.293  1.00  0.00    -0.034 C 
ATOM     97  H   UNL A   1      41.824  32.382  37.536  1.00  0.00     0.065 H 
ATOM     98  H   UNL A   1      43.892  27.115  32.754  1.00  0.00     0.065 H 
ATOM     99  C   UNL A   1      42.903  29.306  34.375  1.00  0.00     0.037 A 
ATOM    100  H   UNL A   1      43.396  30.473  36.879  1.00  0.00     0.065 H 
BRANCH  81 101
ATOM    101  C   UNL A   1      40.534  27.812  28.871  1.00  0.00     0.064 A 
ATOM    102  C   UNL A   1      41.355  28.047  27.758  1.00  0.00     0.173 A 
ATOM    103  C   UNL A   1      39.745  26.652  28.872  1.00  0.00     0.173 A 
ATOM    104  F   UNL A   1      42.121  29.148  27.704  1.00  0.00    -0.203 F 
ATOM    105  C   UNL A   1      41.364  27.171  26.676  1.00  0.00     0.198 A 
ATOM    106  C   UNL A   1      39.777  25.762  27.801  1.00  0.00     0.198 A 
ATOM    107  F   UNL A   1      38.948  26.376  29.914  1.00  0.00    -0.203 F 
ATOM    108  F   UNL A   1      42.121  27.440  25.604  1.00  0.00    -0.200 F 
ATOM    109  C   UNL A   1      40.581  26.026  26.701  1.00  0.00     0.200 A 
ATOM    110  F   UNL A   1      39.030  24.650  27.832  1.00  0.00    -0.200 F 
ATOM    111  F   UNL A   1      40.595  25.180  25.663  1.00  0.00    -0.200 F 
ENDBRANCH  81 101
BRANCH  84 112
ATOM    112  C   UNL A   1      39.898  34.049  36.647  1.00  0.00     0.064 A 
ATOM    113  C   UNL A   1      39.042  33.729  37.710  1.00  0.00     0.173 A 
ATOM    114  C   UNL A   1      40.635  35.239  36.740  1.00  0.00     0.173 A 
ATOM    115  F   UNL A   1      38.307  32.608  37.663  1.00  0.00    -0.203 F 
ATOM    116  C   UNL A   1      38.908  34.576  38.807  1.00  0.00     0.198 A 
ATOM    117  C   UNL A   1      40.517  36.074  37.848  1.00  0.00     0.198 A 
ATOM    118  F   UNL A   1      41.493  35.575  35.768  1.00  0.00    -0.203 F 
ATOM    119  F   UNL A   1      38.055  34.264  39.792  1.00  0.00    -0.200 F 
ATOM    120  C   UNL A   1      39.648  35.747  38.878  1.00  0.00     0.200 A 
ATOM    121  F   UNL A   1      41.250  37.194  37.924  1.00  0.00    -0.200 F 
ATOM    122  F   UNL A   1      39.522  36.558  39.936  1.00  0.00    -0.200 F 
ENDBRANCH  84 112
BRANCH  99 123
ATOM    123  C   UNL A   1      44.054  28.664  35.090  1.00  0.00     0.064 A 
ATOM    124  C   UNL A   1      43.874  27.564  35.940  1.00  0.00     0.173 A 
ATOM    125  C   UNL A   1      45.363  29.113  34.859  1.00  0.00     0.173 A 
ATOM    126  F   UNL A   1      42.641  27.109  36.204  1.00  0.00    -0.203 F 
ATOM    127  C   UNL A   1      44.966  26.942  36.541  1.00  0.00     0.198 A 
ATOM    128  C   UNL A   1      46.453  28.471  35.440  1.00  0.00     0.198 A 
ATOM    129  F   UNL A   1      45.587  30.158  34.047  1.00  0.00    -0.203 F 
ATOM    130  F   UNL A   1      44.770  25.909  37.372  1.00  0.00    -0.200 F 
ATOM    131  C   UNL A   1      46.254  27.389  36.282  1.00  0.00     0.200 A 
ATOM    132  F   UNL A   1      47.698  28.896  35.179  1.00  0.00    -0.200 F 
ATOM    133  F   UNL A   1      47.303  26.776  36.848  1.00  0.00    -0.200 F 
ENDBRANCH  99 123
ENDBRANCH  64  67
ENDBRANCH  54  57
ENDBRANCH  50  53
ENDBRANCH  47  50
ENDBRANCH  44  47
ENDBRANCH  41  44
ENDBRANCH   1  41
TORSDOF 18
ENDMDL
MODEL 4
REMARK VINA RESULT:     -12.5      2.707      3.470
REMARK SMILES NS(=O)(=O)c1ccc(/N=C/c2ccc(O)c(C(=O)NCCCCCCNC(=O)c3ccc(-c4c5nc(c(-c6c(F)c(F)c(F)c(F)c6F)c6ccc([nH]6)c(-c6c(F)c(F)c(F)c(F)c6F)c6nc(c(-c7c(F)c(F)c(F)c(F)c7F)c7ccc4[nH]7)C=C6)C=C5)cc3)c2)cc1
REMARK SMILES IDX 21 1 20 4 19 7 17 8 18 9 16 11 11 12 12 13 92 14 13 15 14 18
REMARK SMILES IDX 10 20 9 21 8 23 5 24 6 25 94 26 7 27 93 29 2 33 3 34 4 35
REMARK SMILES IDX 1 36 15 39 22 41 23 44 24 47 25 50 26 53 27 54 28 56 29 57
REMARK SMILES IDX 30 58 91 59 31 60 90 62 32 64 33 67 34 68 84 69 35 70 89 71
REMARK SMILES IDX 83 72 85 73 36 74 88 75 82 77 81 79 37 81 69 84 49 85 68 86
REMARK SMILES IDX 50 87 53 88 67 89 86 90 51 91 52 93 66 95 87 96 54 99 38 101
REMARK SMILES IDX 39 102 47 103 40 104 41 105 45 106 48 107 42 108 43 109
REMARK SMILES IDX 46 110 44 111 70 112 71 113 79 114 72 115 73 116 77 117
REMARK SMILES IDX 80 118 74 119 75 120 78 121 76 122 55 123 56 124 64 125
REMARK SMILES IDX 57 126 58 127 62 128 65 129 59 130 60 131 63 132 61 133
REMARK H PARENT 21 2 21 3 20 5 20 6 19 10 12 16 92 17 13 19 10 22 6 28 94 30
REMARK H PARENT 7 31 93 32 1 37 1 38 15 40 22 42 22 43 23 45 23 46 24 48 24 49
REMARK H PARENT 25 51 25 52 26 55 30 61 91 63 31 65 90 66 89 76 83 78 85 80
REMARK H PARENT 88 82 82 83 50 92 53 94 86 97 51 98 87 100
REMARK Flexibility Score: inf
ROOT
ATOM      1  C   UNL A   1      33.521  28.557  25.730  1.00  0.00    -0.036 C 
ATOM      2  H   UNL A   1      33.878  29.233  24.981  1.00  0.00     0.028 H 
ATOM      3  H   UNL A   1      34.189  28.404  26.553  1.00  0.00     0.028 H 
ENDROOT
BRANCH   1   4
ATOM      4  C   UNL A   1      33.372  27.186  25.080  1.00  0.00     0.018 C 
ATOM      5  H   UNL A   1      34.150  26.553  25.455  1.00  0.00     0.049 H 
ATOM      6  H   UNL A   1      32.392  26.837  25.328  1.00  0.00     0.049 H 
BRANCH   4   7
ATOM      7  N   UNL A   1      33.454  27.196  23.628  1.00  0.00    -0.352 N 
ATOM      8  C   UNL A   1      33.578  26.156  22.734  1.00  0.00     0.255 C 
ATOM      9  O   UNL A   1      33.709  26.407  21.535  1.00  0.00    -0.269 OA
ATOM     10  H   UNL A   1      33.414  28.090  23.218  1.00  0.00     0.163 HD
BRANCH   8  11
ATOM     11  C   UNL A   1      33.643  24.734  23.160  1.00  0.00     0.082 A 
ATOM     12  C   UNL A   1      34.920  22.786  23.828  1.00  0.00    -0.006 A 
ATOM     13  C   UNL A   1      33.803  21.967  23.664  1.00  0.00    -0.050 A 
ATOM     14  C   UNL A   1      34.815  24.171  23.659  1.00  0.00    -0.037 A 
ATOM     15  C   UNL A   1      32.587  22.544  23.293  1.00  0.00    -0.019 A 
ATOM     16  H   UNL A   1      33.875  20.949  23.817  1.00  0.00     0.063 H 
ATOM     17  H   UNL A   1      35.612  24.779  23.906  1.00  0.00     0.064 H 
ATOM     18  C   UNL A   1      32.512  23.914  23.029  1.00  0.00     0.128 A 
ATOM     19  H   UNL A   1      31.741  21.957  23.211  1.00  0.00     0.066 H 
BRANCH  12  20
ATOM     20  C   UNL A   1      36.262  22.198  24.025  1.00  0.00     0.035 C 
ATOM     21  N   UNL A   1      36.631  21.848  25.216  1.00  0.00    -0.256 NA
ATOM     22  H   UNL A   1      36.897  22.068  23.222  1.00  0.00     0.085 H 
BRANCH  21  23
ATOM     23  C   UNL A   1      37.935  21.401  25.457  1.00  0.00     0.063 A 
ATOM     24  C   UNL A   1      40.429  20.327  26.141  1.00  0.00     0.082 A 
ATOM     25  C   UNL A   1      39.452  19.502  25.579  1.00  0.00    -0.040 A 
ATOM     26  C   UNL A   1      40.174  21.682  26.361  1.00  0.00    -0.040 A 
ATOM     27  C   UNL A   1      38.208  20.045  25.248  1.00  0.00    -0.035 A 
ATOM     28  H   UNL A   1      39.646  18.503  25.410  1.00  0.00     0.064 H 
ATOM     29  C   UNL A   1      38.924  22.212  26.026  1.00  0.00    -0.035 A 
ATOM     30  H   UNL A   1      40.903  22.289  26.769  1.00  0.00     0.064 H 
ATOM     31  H   UNL A   1      37.479  19.436  24.843  1.00  0.00     0.065 H 
ATOM     32  H   UNL A   1      38.729  23.211  26.199  1.00  0.00     0.065 H 
BRANCH  24  33
ATOM     33  S   UNL A   1      41.992  19.627  26.578  1.00  0.00     0.238 S 
ATOM     34  O   UNL A   1      41.992  19.326  27.993  1.00  0.00    -0.207 OA
ATOM     35  O   UNL A   1      43.027  20.393  25.933  1.00  0.00    -0.207 OA
BRANCH  33  36
ATOM     36  N   UNL A   1      41.981  18.123  25.825  1.00  0.00    -0.225 NA
ATOM     37  H   UNL A   1      42.705  18.098  25.106  1.00  0.00     0.137 HD
ATOM     38  H   UNL A   1      41.070  17.964  25.395  1.00  0.00     0.137 HD
ENDBRANCH  33  36
ENDBRANCH  24  33
ENDBRANCH  21  23
ENDBRANCH  12  20
BRANCH  18  39
ATOM     39  O   UNL A   1      31.291  24.390  22.629  1.00  0.00    -0.507 OA
ATOM     40  H   UNL A   1      30.904  24.076  21.836  1.00  0.00     0.293 HD
ENDBRANCH  18  39
ENDBRANCH   8  11
ENDBRANCH   4   7
ENDBRANCH   1   4
BRANCH   1  41
ATOM     41  C   UNL A   1      32.266  29.172  26.347  1.00  0.00    -0.052 C 
ATOM     42  H   UNL A   1      32.440  29.276  27.398  1.00  0.00     0.027 H 
ATOM     43  H   UNL A   1      31.471  28.505  26.087  1.00  0.00     0.027 H 
BRANCH  41  44
ATOM     44  C   UNL A   1      31.830  30.539  25.814  1.00  0.00    -0.052 C 
ATOM     45  H   UNL A   1      30.925  30.399  25.262  1.00  0.00     0.027 H 
ATOM     46  H   UNL A   1      32.657  30.892  25.235  1.00  0.00     0.027 H 
BRANCH  44  47
ATOM     47  C   UNL A   1      31.574  31.632  26.854  1.00  0.00    -0.036 C 
ATOM     48  H   UNL A   1      31.212  31.159  27.743  1.00  0.00     0.028 H 
ATOM     49  H   UNL A   1      30.877  32.304  26.398  1.00  0.00     0.028 H 
BRANCH  47  50
ATOM     50  C   UNL A   1      32.776  32.487  27.239  1.00  0.00     0.018 C 
ATOM     51  H   UNL A   1      33.461  32.500  26.417  1.00  0.00     0.049 H 
ATOM     52  H   UNL A   1      33.206  32.051  28.116  1.00  0.00     0.049 H 
BRANCH  50  53
ATOM     53  N   UNL A   1      32.424  33.858  27.567  1.00  0.00    -0.352 N 
ATOM     54  C   UNL A   1      32.999  34.703  28.487  1.00  0.00     0.251 C 
ATOM     55  H   UNL A   1      31.668  34.235  27.061  1.00  0.00     0.163 HD
ATOM     56  O   UNL A   1      32.505  35.803  28.716  1.00  0.00    -0.269 OA
BRANCH  54  57
ATOM     57  C   UNL A   1      34.203  34.272  29.231  1.00  0.00     0.039 A 
ATOM     58  C   UNL A   1      34.045  33.628  30.461  1.00  0.00    -0.049 A 
ATOM     59  C   UNL A   1      35.482  34.493  28.714  1.00  0.00    -0.049 A 
ATOM     60  C   UNL A   1      35.164  33.137  31.139  1.00  0.00    -0.053 A 
ATOM     61  H   UNL A   1      33.103  33.515  30.868  1.00  0.00     0.063 H 
ATOM     62  C   UNL A   1      36.590  33.949  29.357  1.00  0.00    -0.053 A 
ATOM     63  H   UNL A   1      35.605  35.057  27.857  1.00  0.00     0.063 H 
ATOM     64  C   UNL A   1      36.442  33.261  30.573  1.00  0.00    -0.014 A 
ATOM     65  H   UNL A   1      35.050  32.681  32.058  1.00  0.00     0.063 H 
ATOM     66  H   UNL A   1      37.528  34.052  28.938  1.00  0.00     0.063 H 
BRANCH  64  67
ATOM     67  C   UNL A   1      37.651  32.694  31.223  1.00  0.00     0.031 A 
ATOM     68  C   UNL A   1      38.385  31.561  30.566  1.00  0.00     0.074 A 
ATOM     69  C   UNL A   1      38.023  33.125  32.444  1.00  0.00     0.049 A 
ATOM     70  N   UNL A   1      39.340  30.803  31.039  1.00  0.00    -0.248 NA
ATOM     71  C   UNL A   1      37.966  31.217  29.198  1.00  0.00    -0.034 C 
ATOM     72  C   UNL A   1      37.382  34.206  33.192  1.00  0.00    -0.036 A 
ATOM     73  N   UNL A   1      39.015  32.681  33.283  1.00  0.00    -0.354 N 
ATOM     74  C   UNL A   1      39.612  29.874  30.044  1.00  0.00     0.074 A 
ATOM     75  C   UNL A   1      38.702  30.144  28.952  1.00  0.00    -0.034 C 
ATOM     76  H   UNL A   1      37.278  31.689  28.589  1.00  0.00     0.065 H 
ATOM     77  C   UNL A   1      37.995  34.341  34.379  1.00  0.00    -0.036 A 
ATOM     78  H   UNL A   1      36.588  34.775  32.860  1.00  0.00     0.065 H 
ATOM     79  C   UNL A   1      39.037  33.325  34.497  1.00  0.00     0.049 A 
ATOM     80  H   UNL A   1      39.649  31.968  33.039  1.00  0.00     0.167 HD
ATOM     81  C   UNL A   1      40.545  28.893  30.040  1.00  0.00     0.037 A 
ATOM     82  H   UNL A   1      38.636  29.576  28.093  1.00  0.00     0.065 H 
ATOM     83  H   UNL A   1      37.766  35.050  35.094  1.00  0.00     0.065 H 
ATOM     84  C   UNL A   1      39.794  33.103  35.588  1.00  0.00     0.037 A 
ATOM     85  C   UNL A   1      41.468  28.650  31.117  1.00  0.00     0.049 A 
ATOM     86  C   UNL A   1      40.815  31.995  35.563  1.00  0.00     0.074 A 
ATOM     87  C   UNL A   1      42.489  27.717  31.184  1.00  0.00    -0.036 A 
ATOM     88  N   UNL A   1      41.481  29.348  32.315  1.00  0.00    -0.354 N 
ATOM     89  N   UNL A   1      41.103  31.156  34.598  1.00  0.00    -0.248 NA
ATOM     90  C   UNL A   1      41.619  31.803  36.779  1.00  0.00    -0.034 C 
ATOM     91  C   UNL A   1      43.098  27.827  32.438  1.00  0.00    -0.036 A 
ATOM     92  H   UNL A   1      42.754  27.055  30.438  1.00  0.00     0.065 H 
ATOM     93  C   UNL A   1      42.487  28.859  33.134  1.00  0.00     0.049 A 
ATOM     94  H   UNL A   1      40.869  30.081  32.549  1.00  0.00     0.167 HD
ATOM     95  C   UNL A   1      42.142  30.368  35.072  1.00  0.00     0.074 A 
ATOM     96  C   UNL A   1      42.439  30.827  36.412  1.00  0.00    -0.034 C 
ATOM     97  H   UNL A   1      41.562  32.299  37.682  1.00  0.00     0.065 H 
ATOM     98  H   UNL A   1      43.872  27.240  32.786  1.00  0.00     0.065 H 
ATOM     99  C   UNL A   1      42.793  29.354  34.451  1.00  0.00     0.037 A 
ATOM    100  H   UNL A   1      43.191  30.445  37.006  1.00  0.00     0.065 H 
BRANCH  81 101
ATOM    101  C   UNL A   1      40.612  28.005  28.834  1.00  0.00     0.064 A 
ATOM    102  C   UNL A   1      39.859  26.823  28.748  1.00  0.00     0.173 A 
ATOM    103  C   UNL A   1      41.408  28.358  27.734  1.00  0.00     0.173 A 
ATOM    104  F   UNL A   1      39.090  26.437  29.777  1.00  0.00    -0.203 F 
ATOM    105  C   UNL A   1      39.925  26.013  27.618  1.00  0.00     0.198 A 
ATOM    106  C   UNL A   1      41.449  27.560  26.593  1.00  0.00     0.198 A 
ATOM    107  F   UNL A   1      42.141  29.480  27.761  1.00  0.00    -0.203 F 
ATOM    108  F   UNL A   1      39.234  24.866  27.577  1.00  0.00    -0.200 F 
ATOM    109  C   UNL A   1      40.714  26.385  26.539  1.00  0.00     0.200 A 
ATOM    110  F   UNL A   1      42.201  27.927  25.546  1.00  0.00    -0.200 F 
ATOM    111  F   UNL A   1      40.771  25.608  25.449  1.00  0.00    -0.200 F 
ENDBRANCH  81 101
BRANCH  84 112
ATOM    112  C   UNL A   1      39.627  33.957  36.794  1.00  0.00     0.064 A 
ATOM    113  C   UNL A   1      40.274  35.198  36.888  1.00  0.00     0.173 A 
ATOM    114  C   UNL A   1      38.824  33.559  37.872  1.00  0.00     0.173 A 
ATOM    115  F   UNL A   1      41.062  35.619  35.887  1.00  0.00    -0.203 F 
ATOM    116  C   UNL A   1      40.143  35.994  38.023  1.00  0.00     0.198 A 
ATOM    117  C   UNL A   1      38.676  34.366  38.998  1.00  0.00     0.198 A 
ATOM    118  F   UNL A   1      38.156  32.399  37.819  1.00  0.00    -0.203 F 
ATOM    119  F   UNL A   1      40.803  37.158  38.101  1.00  0.00    -0.200 F 
ATOM    120  C   UNL A   1      39.343  35.580  39.077  1.00  0.00     0.200 A 
ATOM    121  F   UNL A   1      37.884  33.973  40.005  1.00  0.00    -0.200 F 
ATOM    122  F   UNL A   1      39.215  36.348  40.166  1.00  0.00    -0.200 F 
ENDBRANCH  84 112
BRANCH  99 123
ATOM    123  C   UNL A   1      43.936  28.712  35.177  1.00  0.00     0.064 A 
ATOM    124  C   UNL A   1      45.250  29.184  35.051  1.00  0.00     0.173 A 
ATOM    125  C   UNL A   1      43.697  27.656  36.070  1.00  0.00     0.173 A 
ATOM    126  F   UNL A   1      45.530  30.182  34.200  1.00  0.00    -0.203 F 
ATOM    127  C   UNL A   1      46.286  28.616  35.788  1.00  0.00     0.198 A 
ATOM    128  C   UNL A   1      44.731  27.108  36.824  1.00  0.00     0.198 A 
ATOM    129  F   UNL A   1      42.456  27.173  36.231  1.00  0.00    -0.203 F 
ATOM    130  F   UNL A   1      47.539  29.064  35.633  1.00  0.00    -0.200 F 
ATOM    131  C   UNL A   1      46.025  27.586  36.680  1.00  0.00     0.200 A 
ATOM    132  F   UNL A   1      44.475  26.122  37.696  1.00  0.00    -0.200 F 
ATOM    133  F   UNL A   1      47.021  27.052  37.401  1.00  0.00    -0.200 F 
ENDBRANCH  99 123
ENDBRANCH  64  67
ENDBRANCH  54  57
ENDBRANCH  50  53
ENDBRANCH  47  50
ENDBRANCH  44  47
ENDBRANCH  41  44
ENDBRANCH   1  41
TORSDOF 18
ENDMDL
MODEL 5
REMARK VINA RESULT:     -12.3      2.553      7.841
REMARK SMILES NS(=O)(=O)c1ccc(/N=C/c2ccc(O)c(C(=O)NCCCCCCNC(=O)c3ccc(-c4c5nc(c(-c6c(F)c(F)c(F)c(F)c6F)c6ccc([nH]6)c(-c6c(F)c(F)c(F)c(F)c6F)c6nc(c(-c7c(F)c(F)c(F)c(F)c7F)c7ccc4[nH]7)C=C6)C=C5)cc3)c2)cc1
REMARK SMILES IDX 21 1 20 4 19 7 17 8 18 9 16 11 11 12 12 13 92 14 13 15 14 18
REMARK SMILES IDX 10 20 9 21 8 23 5 24 6 25 94 26 7 27 93 29 2 33 3 34 4 35
REMARK SMILES IDX 1 36 15 39 22 41 23 44 24 47 25 50 26 53 27 54 28 56 29 57
REMARK SMILES IDX 30 58 91 59 31 60 90 62 32 64 33 67 34 68 84 69 35 70 89 71
REMARK SMILES IDX 83 72 85 73 36 74 88 75 82 77 81 79 37 81 69 84 49 85 68 86
REMARK SMILES IDX 50 87 53 88 67 89 86 90 51 91 52 93 66 95 87 96 54 99 38 101
REMARK SMILES IDX 39 102 47 103 40 104 41 105 45 106 48 107 42 108 43 109
REMARK SMILES IDX 46 110 44 111 70 112 71 113 79 114 72 115 73 116 77 117
REMARK SMILES IDX 80 118 74 119 75 120 78 121 76 122 55 123 56 124 64 125
REMARK SMILES IDX 57 126 58 127 62 128 65 129 59 130 60 131 63 132 61 133
REMARK H PARENT 21 2 21 3 20 5 20 6 19 10 12 16 92 17 13 19 10 22 6 28 94 30
REMARK H PARENT 7 31 93 32 1 37 1 38 15 40 22 42 22 43 23 45 23 46 24 48 24 49
REMARK H PARENT 25 51 25 52 26 55 30 61 91 63 31 65 90 66 89 76 83 78 85 80
REMARK H PARENT 88 82 82 83 50 92 53 94 86 97 51 98 87 100
REMARK Flexibility Score: inf
ROOT
ATOM      1  C   UNL A   1      34.781  30.472  27.987  1.00  0.00    -0.036 C 
ATOM      2  H   UNL A   1      35.744  30.134  27.665  1.00  0.00     0.028 H 
ATOM      3  H   UNL A   1      34.586  30.348  29.032  1.00  0.00     0.028 H 
ENDROOT
BRANCH   1   4
ATOM      4  C   UNL A   1      33.734  29.615  27.284  1.00  0.00     0.018 C 
ATOM      5  H   UNL A   1      33.957  28.587  27.480  1.00  0.00     0.049 H 
ATOM      6  H   UNL A   1      32.783  29.918  27.671  1.00  0.00     0.049 H 
BRANCH   4   7
ATOM      7  N   UNL A   1      33.672  29.799  25.843  1.00  0.00    -0.352 N 
ATOM      8  C   UNL A   1      33.385  28.901  24.839  1.00  0.00     0.255 C 
ATOM      9  O   UNL A   1      33.469  29.265  23.665  1.00  0.00    -0.269 OA
ATOM     10  H   UNL A   1      33.866  30.714  25.535  1.00  0.00     0.163 HD
BRANCH   8  11
ATOM     11  C   UNL A   1      33.055  27.478  25.105  1.00  0.00     0.082 A 
ATOM     12  C   UNL A   1      33.721  25.243  25.765  1.00  0.00    -0.006 A 
ATOM     13  C   UNL A   1      32.510  24.722  25.313  1.00  0.00    -0.050 A 
ATOM     14  C   UNL A   1      33.954  26.622  25.738  1.00  0.00    -0.037 A 
ATOM     15  C   UNL A   1      31.545  25.591  24.799  1.00  0.00    -0.019 A 
ATOM     16  H   UNL A   1      32.327  23.706  25.359  1.00  0.00     0.063 H 
ATOM     17  H   UNL A   1      34.798  27.008  26.190  1.00  0.00     0.064 H 
ATOM     18  C   UNL A   1      31.823  26.956  24.684  1.00  0.00     0.128 A 
ATOM     19  H   UNL A   1      30.627  25.226  24.503  1.00  0.00     0.066 H 
BRANCH  12  20
ATOM     20  C   UNL A   1      34.838  24.345  26.130  1.00  0.00     0.035 C 
ATOM     21  N   UNL A   1      35.890  24.306  25.377  1.00  0.00    -0.256 NA
ATOM     22  H   UNL A   1      34.779  23.756  26.975  1.00  0.00     0.085 H 
BRANCH  21  23
ATOM     23  C   UNL A   1      36.912  23.383  25.624  1.00  0.00     0.063 A 
ATOM     24  C   UNL A   1      39.130  21.705  25.955  1.00  0.00     0.082 A 
ATOM     25  C   UNL A   1      39.170  23.010  26.449  1.00  0.00    -0.040 A 
ATOM     26  C   UNL A   1      37.991  21.229  25.300  1.00  0.00    -0.040 A 
ATOM     27  C   UNL A   1      38.063  23.843  26.273  1.00  0.00    -0.035 A 
ATOM     28  H   UNL A   1      40.010  23.356  26.940  1.00  0.00     0.064 H 
ATOM     29  C   UNL A   1      36.890  22.073  25.130  1.00  0.00    -0.035 A 
ATOM     30  H   UNL A   1      37.963  20.260  24.944  1.00  0.00     0.064 H 
ATOM     31  H   UNL A   1      38.094  24.812  26.627  1.00  0.00     0.065 H 
ATOM     32  H   UNL A   1      36.052  21.727  24.636  1.00  0.00     0.065 H 
BRANCH  24  33
ATOM     33  S   UNL A   1      40.544  20.666  26.161  1.00  0.00     0.238 S 
ATOM     34  O   UNL A   1      41.709  21.350  25.643  1.00  0.00    -0.207 OA
ATOM     35  O   UNL A   1      40.181  19.325  25.781  1.00  0.00    -0.207 OA
BRANCH  33  36
ATOM     36  N   UNL A   1      40.777  20.635  27.827  1.00  0.00    -0.225 NA
ATOM     37  H   UNL A   1      41.709  20.272  28.033  1.00  0.00     0.137 HD
ATOM     38  H   UNL A   1      40.075  20.035  28.258  1.00  0.00     0.137 HD
ENDBRANCH  33  36
ENDBRANCH  24  33
ENDBRANCH  21  23
ENDBRANCH  12  20
BRANCH  18  39
ATOM     39  O   UNL A   1      30.838  27.731  24.129  1.00  0.00    -0.507 OA
ATOM     40  H   UNL A   1      31.007  28.630  23.930  1.00  0.00     0.293 HD
ENDBRANCH  18  39
ENDBRANCH   8  11
ENDBRANCH   4   7
ENDBRANCH   1   4
BRANCH   1  41
ATOM     41  C   UNL A   1      34.717  31.980  27.747  1.00  0.00    -0.052 C 
ATOM     42  H   UNL A   1      34.030  32.150  26.944  1.00  0.00     0.027 H 
ATOM     43  H   UNL A   1      35.726  32.274  27.545  1.00  0.00     0.027 H 
BRANCH  41  44
ATOM     44  C   UNL A   1      34.275  32.851  28.925  1.00  0.00    -0.052 C 
ATOM     45  H   UNL A   1      35.140  33.360  29.293  1.00  0.00     0.027 H 
ATOM     46  H   UNL A   1      33.823  32.175  29.620  1.00  0.00     0.027 H 
BRANCH  44  47
ATOM     47  C   UNL A   1      33.204  33.905  28.636  1.00  0.00    -0.036 C 
ATOM     48  H   UNL A   1      32.328  33.640  29.192  1.00  0.00     0.028 H 
ATOM     49  H   UNL A   1      33.071  33.895  27.575  1.00  0.00     0.028 H 
BRANCH  47  50
ATOM     50  C   UNL A   1      33.564  35.342  28.992  1.00  0.00     0.018 C 
ATOM     51  H   UNL A   1      33.474  35.943  28.111  1.00  0.00     0.049 H 
ATOM     52  H   UNL A   1      34.563  35.333  29.374  1.00  0.00     0.049 H 
BRANCH  50  53
ATOM     53  N   UNL A   1      32.712  35.909  30.025  1.00  0.00    -0.352 N 
ATOM     54  C   UNL A   1      32.786  35.755  31.389  1.00  0.00     0.251 C 
ATOM     55  H   UNL A   1      31.980  36.483  29.703  1.00  0.00     0.163 HD
ATOM     56  O   UNL A   1      31.914  36.221  32.116  1.00  0.00    -0.269 OA
BRANCH  54  57
ATOM     57  C   UNL A   1      33.907  34.994  31.984  1.00  0.00     0.039 A 
ATOM     58  C   UNL A   1      33.652  33.738  32.541  1.00  0.00    -0.049 A 
ATOM     59  C   UNL A   1      35.205  35.512  31.984  1.00  0.00    -0.049 A 
ATOM     60  C   UNL A   1      34.709  32.966  33.032  1.00  0.00    -0.053 A 
ATOM     61  H   UNL A   1      32.684  33.381  32.591  1.00  0.00     0.063 H 
ATOM     62  C   UNL A   1      36.264  34.718  32.414  1.00  0.00    -0.053 A 
ATOM     63  H   UNL A   1      35.377  36.479  31.666  1.00  0.00     0.063 H 
ATOM     64  C   UNL A   1      36.028  33.436  32.938  1.00  0.00    -0.014 A 
ATOM     65  H   UNL A   1      34.519  32.048  33.464  1.00  0.00     0.063 H 
ATOM     66  H   UNL A   1      37.231  35.074  32.348  1.00  0.00     0.063 H 
BRANCH  64  67
ATOM     67  C   UNL A   1      37.189  32.622  33.381  1.00  0.00     0.031 A 
ATOM     68  C   UNL A   1      37.857  32.933  34.689  1.00  0.00     0.074 A 
ATOM     69  C   UNL A   1      37.701  31.682  32.565  1.00  0.00     0.049 A 
ATOM     70  N   UNL A   1      38.982  32.478  35.178  1.00  0.00    -0.248 NA
ATOM     71  C   UNL A   1      37.178  33.911  35.554  1.00  0.00    -0.034 C 
ATOM     72  C   UNL A   1      37.153  31.298  31.264  1.00  0.00    -0.036 A 
ATOM     73  N   UNL A   1      38.820  30.896  32.700  1.00  0.00    -0.354 N 
ATOM     74  C   UNL A   1      39.163  33.137  36.386  1.00  0.00     0.074 A 
ATOM     75  C   UNL A   1      38.047  34.045  36.544  1.00  0.00    -0.034 C 
ATOM     76  H   UNL A   1      36.263  34.372  35.423  1.00  0.00     0.065 H 
ATOM     77  C   UNL A   1      37.936  30.354  30.720  1.00  0.00    -0.036 A 
ATOM     78  H   UNL A   1      36.300  31.690  30.835  1.00  0.00     0.065 H 
ATOM     79  C   UNL A   1      39.068  30.101  31.607  1.00  0.00     0.049 A 
ATOM     80  H   UNL A   1      39.390  30.904  33.503  1.00  0.00     0.167 HD
ATOM     81  C   UNL A   1      40.164  32.988  37.285  1.00  0.00     0.037 A 
ATOM     82  H   UNL A   1      37.942  34.709  37.327  1.00  0.00     0.065 H 
ATOM     83  H   UNL A   1      37.766  29.882  29.817  1.00  0.00     0.065 H 
ATOM     84  C   UNL A   1      40.103  29.281  31.342  1.00  0.00     0.037 A 
ATOM     85  C   UNL A   1      41.254  32.061  37.136  1.00  0.00     0.049 A 
ATOM     86  C   UNL A   1      41.211  29.145  32.352  1.00  0.00     0.074 A 
ATOM     87  C   UNL A   1      42.286  31.795  38.018  1.00  0.00    -0.036 A 
ATOM     88  N   UNL A   1      41.450  31.247  36.030  1.00  0.00    -0.354 N 
ATOM     89  N   UNL A   1      41.347  29.731  33.517  1.00  0.00    -0.248 NA
ATOM     90  C   UNL A   1      42.312  28.230  32.014  1.00  0.00    -0.034 C 
ATOM     91  C   UNL A   1      43.127  30.844  37.431  1.00  0.00    -0.036 A 
ATOM     92  H   UNL A   1      42.413  32.223  38.949  1.00  0.00     0.065 H 
ATOM     93  C   UNL A   1      42.594  30.485  36.203  1.00  0.00     0.049 A 
ATOM     94  H   UNL A   1      40.863  31.215  35.241  1.00  0.00     0.167 HD
ATOM     95  C   UNL A   1      42.520  29.230  34.065  1.00  0.00     0.074 A 
ATOM     96  C   UNL A   1      43.060  28.289  33.108  1.00  0.00    -0.034 C 
ATOM     97  H   UNL A   1      42.463  27.684  31.152  1.00  0.00     0.065 H 
ATOM     98  H   UNL A   1      43.997  30.472  37.843  1.00  0.00     0.065 H 
ATOM     99  C   UNL A   1      43.096  29.524  35.256  1.00  0.00     0.037 A 
ATOM    100  H   UNL A   1      43.917  27.734  33.257  1.00  0.00     0.065 H 
BRANCH  81 101
ATOM    101  C   UNL A   1      40.129  33.853  38.510  1.00  0.00     0.064 A 
ATOM    102  C   UNL A   1      39.423  33.469  39.661  1.00  0.00     0.173 A 
ATOM    103  C   UNL A   1      40.841  35.061  38.549  1.00  0.00     0.173 A 
ATOM    104  F   UNL A   1      38.717  32.328  39.671  1.00  0.00    -0.203 F 
ATOM    105  C   UNL A   1      39.406  34.278  40.794  1.00  0.00     0.198 A 
ATOM    106  C   UNL A   1      40.846  35.854  39.694  1.00  0.00     0.198 A 
ATOM    107  F   UNL A   1      41.539  35.471  37.479  1.00  0.00    -0.203 F 
ATOM    108  F   UNL A   1      38.687  33.914  41.863  1.00  0.00    -0.200 F 
ATOM    109  C   UNL A   1      40.123  35.466  40.812  1.00  0.00     0.200 A 
ATOM    110  F   UNL A   1      41.549  36.994  39.715  1.00  0.00    -0.200 F 
ATOM    111  F   UNL A   1      40.111  36.239  41.905  1.00  0.00    -0.200 F 
ENDBRANCH  81 101
BRANCH  84 112
ATOM    112  C   UNL A   1      40.134  28.512  30.069  1.00  0.00     0.064 A 
ATOM    113  C   UNL A   1      39.479  27.277  29.962  1.00  0.00     0.173 A 
ATOM    114  C   UNL A   1      40.812  28.989  28.938  1.00  0.00     0.173 A 
ATOM    115  F   UNL A   1      38.825  26.773  31.020  1.00  0.00    -0.203 F 
ATOM    116  C   UNL A   1      39.522  26.538  28.783  1.00  0.00     0.198 A 
ATOM    117  C   UNL A   1      40.837  28.260  27.752  1.00  0.00     0.198 A 
ATOM    118  F   UNL A   1      41.425  30.180  28.975  1.00  0.00    -0.203 F 
ATOM    119  F   UNL A   1      38.919  25.344  28.721  1.00  0.00    -0.200 F 
ATOM    120  C   UNL A   1      40.199  27.030  27.677  1.00  0.00     0.200 A 
ATOM    121  F   UNL A   1      41.472  28.748  26.678  1.00  0.00    -0.200 F 
ATOM    122  F   UNL A   1      40.236  26.321  26.541  1.00  0.00    -0.200 F 
ENDBRANCH  84 112
BRANCH  99 123
ATOM    123  C   UNL A   1      44.340  28.775  35.631  1.00  0.00     0.064 A 
ATOM    124  C   UNL A   1      45.617  29.261  35.317  1.00  0.00     0.173 A 
ATOM    125  C   UNL A   1      44.249  27.595  36.384  1.00  0.00     0.173 A 
ATOM    126  F   UNL A   1      45.754  30.378  34.587  1.00  0.00    -0.203 F 
ATOM    127  C   UNL A   1      46.759  28.584  35.735  1.00  0.00     0.198 A 
ATOM    128  C   UNL A   1      45.394  26.935  36.823  1.00  0.00     0.198 A 
ATOM    129  F   UNL A   1      43.050  27.094  36.717  1.00  0.00    -0.203 F 
ATOM    130  F   UNL A   1      47.971  29.050  35.401  1.00  0.00    -0.200 F 
ATOM    131  C   UNL A   1      46.648  27.429  36.496  1.00  0.00     0.200 A 
ATOM    132  F   UNL A   1      45.284  25.827  37.569  1.00  0.00    -0.200 F 
ATOM    133  F   UNL A   1      47.749  26.790  36.912  1.00  0.00    -0.200 F 
ENDBRANCH  99 123
ENDBRANCH  64  67
ENDBRANCH  54  57
ENDBRANCH  50  53
ENDBRANCH  47  50
ENDBRANCH  44  47
ENDBRANCH  41  44
ENDBRANCH   1  41
TORSDOF 18
ENDMDL
MODEL 6
REMARK VINA RESULT:     -11.9      1.034      7.295
REMARK SMILES NS(=O)(=O)c1ccc(/N=C/c2ccc(O)c(C(=O)NCCCCCCNC(=O)c3ccc(-c4c5nc(c(-c6c(F)c(F)c(F)c(F)c6F)c6ccc([nH]6)c(-c6c(F)c(F)c(F)c(F)c6F)c6nc(c(-c7c(F)c(F)c(F)c(F)c7F)c7ccc4[nH]7)C=C6)C=C5)cc3)c2)cc1
REMARK SMILES IDX 21 1 20 4 19 7 17 8 18 9 16 11 11 12 12 13 92 14 13 15 14 18
REMARK SMILES IDX 10 20 9 21 8 23 5 24 6 25 94 26 7 27 93 29 2 33 3 34 4 35
REMARK SMILES IDX 1 36 15 39 22 41 23 44 24 47 25 50 26 53 27 54 28 56 29 57
REMARK SMILES IDX 30 58 91 59 31 60 90 62 32 64 33 67 34 68 84 69 35 70 89 71
REMARK SMILES IDX 83 72 85 73 36 74 88 75 82 77 81 79 37 81 69 84 49 85 68 86
REMARK SMILES IDX 50 87 53 88 67 89 86 90 51 91 52 93 66 95 87 96 54 99 38 101
REMARK SMILES IDX 39 102 47 103 40 104 41 105 45 106 48 107 42 108 43 109
REMARK SMILES IDX 46 110 44 111 70 112 71 113 79 114 72 115 73 116 77 117
REMARK SMILES IDX 80 118 74 119 75 120 78 121 76 122 55 123 56 124 64 125
REMARK SMILES IDX 57 126 58 127 62 128 65 129 59 130 60 131 63 132 61 133
REMARK H PARENT 21 2 21 3 20 5 20 6 19 10 12 16 92 17 13 19 10 22 6 28 94 30
REMARK H PARENT 7 31 93 32 1 37 1 38 15 40 22 42 22 43 23 45 23 46 24 48 24 49
REMARK H PARENT 25 51 25 52 26 55 30 61 91 63 31 65 90 66 89 76 83 78 85 80
REMARK H PARENT 88 82 82 83 50 92 53 94 86 97 51 98 87 100
REMARK Flexibility Score: inf
ROOT
ATOM      1  C   UNL A   1      34.951  29.617  27.345  1.00  0.00    -0.036 C 
ATOM      2  H   UNL A   1      35.908  29.298  26.987  1.00  0.00     0.028 H 
ATOM      3  H   UNL A   1      34.685  29.244  28.313  1.00  0.00     0.028 H 
ENDROOT
BRANCH   1   4
ATOM      4  C   UNL A   1      33.895  29.055  26.400  1.00  0.00     0.018 C 
ATOM      5  H   UNL A   1      33.708  28.038  26.674  1.00  0.00     0.049 H 
ATOM      6  H   UNL A   1      33.033  29.681  26.500  1.00  0.00     0.049 H 
BRANCH   4   7
ATOM      7  N   UNL A   1      34.267  29.086  24.994  1.00  0.00    -0.352 N 
ATOM      8  C   UNL A   1      33.704  28.456  23.907  1.00  0.00     0.255 C 
ATOM      9  O   UNL A   1      34.242  28.565  22.803  1.00  0.00    -0.269 OA
ATOM     10  H   UNL A   1      35.049  29.648  24.786  1.00  0.00     0.163 HD
BRANCH   8  11
ATOM     11  C   UNL A   1      32.513  27.576  24.017  1.00  0.00     0.082 A 
ATOM     12  C   UNL A   1      31.521  25.367  24.134  1.00  0.00    -0.006 A 
ATOM     13  C   UNL A   1      30.251  25.899  23.914  1.00  0.00    -0.050 A 
ATOM     14  C   UNL A   1      32.629  26.211  24.269  1.00  0.00    -0.037 A 
ATOM     15  C   UNL A   1      30.105  27.283  23.794  1.00  0.00    -0.019 A 
ATOM     16  H   UNL A   1      29.430  25.278  23.842  1.00  0.00     0.063 H 
ATOM     17  H   UNL A   1      33.540  25.818  24.557  1.00  0.00     0.064 H 
ATOM     18  C   UNL A   1      31.229  28.112  23.832  1.00  0.00     0.128 A 
ATOM     19  H   UNL A   1      29.166  27.694  23.676  1.00  0.00     0.066 H 
BRANCH  12  20
ATOM     20  C   UNL A   1      31.748  23.908  24.069  1.00  0.00     0.035 C 
ATOM     21  N   UNL A   1      32.838  23.414  24.564  1.00  0.00    -0.256 NA
ATOM     22  H   UNL A   1      31.045  23.290  23.634  1.00  0.00     0.085 H 
BRANCH  21  23
ATOM     23  C   UNL A   1      33.140  22.057  24.414  1.00  0.00     0.063 A 
ATOM     24  C   UNL A   1      33.512  19.284  24.285  1.00  0.00     0.082 A 
ATOM     25  C   UNL A   1      32.350  19.850  23.757  1.00  0.00    -0.040 A 
ATOM     26  C   UNL A   1      34.491  20.088  24.873  1.00  0.00    -0.040 A 
ATOM     27  C   UNL A   1      32.169  21.233  23.833  1.00  0.00    -0.035 A 
ATOM     28  H   UNL A   1      31.633  19.254  23.317  1.00  0.00     0.064 H 
ATOM     29  C   UNL A   1      34.297  21.471  24.943  1.00  0.00    -0.035 A 
ATOM     30  H   UNL A   1      35.352  19.665  25.254  1.00  0.00     0.064 H 
ATOM     31  H   UNL A   1      31.306  21.654  23.454  1.00  0.00     0.065 H 
ATOM     32  H   UNL A   1      35.014  22.067  25.387  1.00  0.00     0.065 H 
BRANCH  24  33
ATOM     33  S   UNL A   1      33.723  17.531  24.206  1.00  0.00     0.238 S 
ATOM     34  O   UNL A   1      33.834  17.134  22.819  1.00  0.00    -0.207 OA
ATOM     35  O   UNL A   1      32.802  16.921  25.130  1.00  0.00    -0.207 OA
BRANCH  33  36
ATOM     36  N   UNL A   1      35.260  17.284  24.842  1.00  0.00    -0.225 NA
ATOM     37  H   UNL A   1      35.245  16.475  25.464  1.00  0.00     0.137 HD
ATOM     38  H   UNL A   1      35.548  18.110  25.366  1.00  0.00     0.137 HD
ENDBRANCH  33  36
ENDBRANCH  24  33
ENDBRANCH  21  23
ENDBRANCH  12  20
BRANCH  18  39
ATOM     39  O   UNL A   1      31.001  29.452  23.663  1.00  0.00    -0.507 OA
ATOM     40  H   UNL A   1      31.383  29.904  22.937  1.00  0.00     0.293 HD
ENDBRANCH  18  39
ENDBRANCH   8  11
ENDBRANCH   4   7
ENDBRANCH   1   4
BRANCH   1  41
ATOM     41  C   UNL A   1      35.000  31.136  27.505  1.00  0.00    -0.052 C 
ATOM     42  H   UNL A   1      34.878  31.567  26.533  1.00  0.00     0.027 H 
ATOM     43  H   UNL A   1      35.942  31.337  27.971  1.00  0.00     0.027 H 
BRANCH  41  44
ATOM     44  C   UNL A   1      33.955  31.770  28.426  1.00  0.00    -0.052 C 
ATOM     45  H   UNL A   1      34.478  32.290  29.201  1.00  0.00     0.027 H 
ATOM     46  H   UNL A   1      33.347  30.958  28.764  1.00  0.00     0.027 H 
BRANCH  44  47
ATOM     47  C   UNL A   1      32.981  32.758  27.781  1.00  0.00    -0.036 C 
ATOM     48  H   UNL A   1      32.107  32.803  28.397  1.00  0.00     0.028 H 
ATOM     49  H   UNL A   1      32.804  32.384  26.794  1.00  0.00     0.028 H 
BRANCH  47  50
ATOM     50  C   UNL A   1      33.493  34.182  27.595  1.00  0.00     0.018 C 
ATOM     51  H   UNL A   1      33.285  34.490  26.592  1.00  0.00     0.049 H 
ATOM     52  H   UNL A   1      34.542  34.171  27.805  1.00  0.00     0.049 H 
BRANCH  50  53
ATOM     53  N   UNL A   1      32.882  35.136  28.506  1.00  0.00    -0.352 N 
ATOM     54  C   UNL A   1      33.153  35.360  29.835  1.00  0.00     0.251 C 
ATOM     55  H   UNL A   1      32.176  35.700  28.117  1.00  0.00     0.163 HD
ATOM     56  O   UNL A   1      32.462  36.136  30.489  1.00  0.00    -0.269 OA
BRANCH  54  57
ATOM     57  C   UNL A   1      34.263  34.636  30.492  1.00  0.00     0.039 A 
ATOM     58  C   UNL A   1      33.978  33.796  31.572  1.00  0.00    -0.049 A 
ATOM     59  C   UNL A   1      35.577  34.776  30.040  1.00  0.00    -0.049 A 
ATOM     60  C   UNL A   1      34.999  33.037  32.153  1.00  0.00    -0.053 A 
ATOM     61  H   UNL A   1      33.015  33.735  31.941  1.00  0.00     0.063 H 
ATOM     62  C   UNL A   1      36.581  33.974  30.576  1.00  0.00    -0.053 A 
ATOM     63  H   UNL A   1      35.803  35.471  29.311  1.00  0.00     0.063 H 
ATOM     64  C   UNL A   1      36.301  33.094  31.635  1.00  0.00    -0.014 A 
ATOM     65  H   UNL A   1      34.793  32.434  32.965  1.00  0.00     0.063 H 
ATOM     66  H   UNL A   1      37.538  34.028  30.194  1.00  0.00     0.063 H 
BRANCH  64  67
ATOM     67  C   UNL A   1      37.401  32.255  32.174  1.00  0.00     0.031 A 
ATOM     68  C   UNL A   1      38.019  32.601  33.498  1.00  0.00     0.074 A 
ATOM     69  C   UNL A   1      37.911  31.255  31.429  1.00  0.00     0.049 A 
ATOM     70  N   UNL A   1      39.097  32.123  34.063  1.00  0.00    -0.248 NA
ATOM     71  C   UNL A   1      37.342  33.647  34.280  1.00  0.00    -0.034 C 
ATOM     72  C   UNL A   1      37.410  30.832  30.121  1.00  0.00    -0.036 A 
ATOM     73  N   UNL A   1      38.986  30.431  31.657  1.00  0.00    -0.354 N 
ATOM     74  C   UNL A   1      39.248  32.831  35.247  1.00  0.00     0.074 A 
ATOM     75  C   UNL A   1      38.168  33.792  35.307  1.00  0.00    -0.034 C 
ATOM     76  H   UNL A   1      36.456  34.139  34.082  1.00  0.00     0.065 H 
ATOM     77  C   UNL A   1      38.176  29.830  29.661  1.00  0.00    -0.036 A 
ATOM     78  H   UNL A   1      36.598  31.238  29.632  1.00  0.00     0.065 H 
ATOM     79  C   UNL A   1      39.251  29.574  30.616  1.00  0.00     0.049 A 
ATOM     80  H   UNL A   1      39.516  30.453  32.486  1.00  0.00     0.167 HD
ATOM     81  C   UNL A   1      40.197  32.685  36.202  1.00  0.00     0.037 A 
ATOM     82  H   UNL A   1      38.054  34.497  36.051  1.00  0.00     0.065 H 
ATOM     83  H   UNL A   1      38.029  29.323  28.774  1.00  0.00     0.065 H 
ATOM     84  C   UNL A   1      40.261  28.699  30.442  1.00  0.00     0.037 A 
ATOM     85  C   UNL A   1      41.251  31.706  36.151  1.00  0.00     0.049 A 
ATOM     86  C   UNL A   1      41.312  28.566  31.512  1.00  0.00     0.074 A 
ATOM     87  C   UNL A   1      42.226  31.440  37.096  1.00  0.00    -0.036 A 
ATOM     88  N   UNL A   1      41.464  30.832  35.096  1.00  0.00    -0.354 N 
ATOM     89  N   UNL A   1      41.416  29.202  32.654  1.00  0.00    -0.248 NA
ATOM     90  C   UNL A   1      42.386  27.590  31.273  1.00  0.00    -0.034 C 
ATOM     91  C   UNL A   1      43.052  30.428  36.597  1.00  0.00    -0.036 A 
ATOM     92  H   UNL A   1      42.327  31.908  38.011  1.00  0.00     0.065 H 
ATOM     93  C   UNL A   1      42.563  30.032  35.362  1.00  0.00     0.049 A 
ATOM     94  H   UNL A   1      40.915  30.787  34.280  1.00  0.00     0.167 HD
ATOM     95  C   UNL A   1      42.538  28.679  33.283  1.00  0.00     0.074 A 
ATOM     96  C   UNL A   1      43.082  27.671  32.399  1.00  0.00    -0.034 C 
ATOM     97  H   UNL A   1      42.554  26.998  30.446  1.00  0.00     0.065 H 
ATOM     98  H   UNL A   1      43.883  30.040  37.069  1.00  0.00     0.065 H 
ATOM     99  C   UNL A   1      43.068  29.006  34.486  1.00  0.00     0.037 A 
ATOM    100  H   UNL A   1      43.906  27.088  32.617  1.00  0.00     0.065 H 
BRANCH  81 101
ATOM    101  C   UNL A   1      40.141  33.608  37.383  1.00  0.00     0.064 A 
ATOM    102  C   UNL A   1      40.909  34.781  37.437  1.00  0.00     0.173 A 
ATOM    103  C   UNL A   1      39.280  33.336  38.457  1.00  0.00     0.173 A 
ATOM    104  F   UNL A   1      41.755  35.080  36.439  1.00  0.00    -0.203 F 
ATOM    105  C   UNL A   1      40.840  35.632  38.536  1.00  0.00     0.198 A 
ATOM    106  C   UNL A   1      39.192  34.205  39.542  1.00  0.00     0.198 A 
ATOM    107  F   UNL A   1      38.517  32.233  38.452  1.00  0.00    -0.203 F 
ATOM    108  F   UNL A   1      41.618  36.722  38.587  1.00  0.00    -0.200 F 
ATOM    109  C   UNL A   1      39.977  35.348  39.584  1.00  0.00     0.200 A 
ATOM    110  F   UNL A   1      38.347  33.936  40.547  1.00  0.00    -0.200 F 
ATOM    111  F   UNL A   1      39.906  36.172  40.638  1.00  0.00    -0.200 F 
ENDBRANCH  81 101
BRANCH  84 112
ATOM    112  C   UNL A   1      40.319  27.869  29.209  1.00  0.00     0.064 A 
ATOM    113  C   UNL A   1      41.102  28.264  28.115  1.00  0.00     0.173 A 
ATOM    114  C   UNL A   1      39.601  26.670  29.096  1.00  0.00     0.173 A 
ATOM    115  F   UNL A   1      41.800  29.408  28.171  1.00  0.00    -0.203 F 
ATOM    116  C   UNL A   1      41.145  27.506  26.948  1.00  0.00     0.198 A 
ATOM    117  C   UNL A   1      39.660  25.901  27.936  1.00  0.00     0.198 A 
ATOM    118  F   UNL A   1      38.865  26.228  30.124  1.00  0.00    -0.203 F 
ATOM    119  F   UNL A   1      41.872  27.927  25.905  1.00  0.00    -0.200 F 
ATOM    120  C   UNL A   1      40.426  26.323  26.859  1.00  0.00     0.200 A 
ATOM    121  F   UNL A   1      38.982  24.747  27.861  1.00  0.00    -0.200 F 
ATOM    122  F   UNL A   1      40.470  25.593  25.737  1.00  0.00    -0.200 F 
ENDBRANCH  84 112
BRANCH  99 123
ATOM    123  C   UNL A   1      44.258  28.225  34.959  1.00  0.00     0.064 A 
ATOM    124  C   UNL A   1      45.568  28.669  34.734  1.00  0.00     0.173 A 
ATOM    125  C   UNL A   1      44.077  27.056  35.713  1.00  0.00     0.173 A 
ATOM    126  F   UNL A   1      45.792  29.773  34.007  1.00  0.00    -0.203 F 
ATOM    127  C   UNL A   1      46.656  27.963  35.242  1.00  0.00     0.198 A 
ATOM    128  C   UNL A   1      45.166  26.368  36.240  1.00  0.00     0.198 A 
ATOM    129  F   UNL A   1      42.841  26.595  35.961  1.00  0.00    -0.203 F 
ATOM    130  F   UNL A   1      47.902  28.390  34.993  1.00  0.00    -0.200 F 
ATOM    131  C   UNL A   1      46.454  26.821  36.002  1.00  0.00     0.200 A 
ATOM    132  F   UNL A   1      44.968  25.272  36.986  1.00  0.00    -0.200 F 
ATOM    133  F   UNL A   1      47.503  26.153  36.504  1.00  0.00    -0.200 F 
ENDBRANCH  99 123
ENDBRANCH  64  67
ENDBRANCH  54  57
ENDBRANCH  50  53
ENDBRANCH  47  50
ENDBRANCH  44  47
ENDBRANCH  41  44
ENDBRANCH   1  41
TORSDOF 18
ENDMDL
MODEL 7
REMARK VINA RESULT:     -11.8      7.469     15.330
REMARK SMILES NS(=O)(=O)c1ccc(/N=C/c2ccc(O)c(C(=O)NCCCCCCNC(=O)c3ccc(-c4c5nc(c(-c6c(F)c(F)c(F)c(F)c6F)c6ccc([nH]6)c(-c6c(F)c(F)c(F)c(F)c6F)c6nc(c(-c7c(F)c(F)c(F)c(F)c7F)c7ccc4[nH]7)C=C6)C=C5)cc3)c2)cc1
REMARK SMILES IDX 21 1 20 4 19 7 17 8 18 9 16 11 11 12 12 13 92 14 13 15 14 18
REMARK SMILES IDX 10 20 9 21 8 23 5 24 6 25 94 26 7 27 93 29 2 33 3 34 4 35
REMARK SMILES IDX 1 36 15 39 22 41 23 44 24 47 25 50 26 53 27 54 28 56 29 57
REMARK SMILES IDX 30 58 91 59 31 60 90 62 32 64 33 67 34 68 84 69 35 70 89 71
REMARK SMILES IDX 83 72 85 73 36 74 88 75 82 77 81 79 37 81 69 84 49 85 68 86
REMARK SMILES IDX 50 87 53 88 67 89 86 90 51 91 52 93 66 95 87 96 54 99 38 101
REMARK SMILES IDX 39 102 47 103 40 104 41 105 45 106 48 107 42 108 43 109
REMARK SMILES IDX 46 110 44 111 70 112 71 113 79 114 72 115 73 116 77 117
REMARK SMILES IDX 80 118 74 119 75 120 78 121 76 122 55 123 56 124 64 125
REMARK SMILES IDX 57 126 58 127 62 128 65 129 59 130 60 131 63 132 61 133
REMARK H PARENT 21 2 21 3 20 5 20 6 19 10 12 16 92 17 13 19 10 22 6 28 94 30
REMARK H PARENT 7 31 93 32 1 37 1 38 15 40 22 42 22 43 23 45 23 46 24 48 24 49
REMARK H PARENT 25 51 25 52 26 55 30 61 91 63 31 65 90 66 89 76 83 78 85 80
REMARK H PARENT 88 82 82 83 50 92 53 94 86 97 51 98 87 100
REMARK Flexibility Score: inf
ROOT
ATOM      1  C   UNL A   1      49.517  21.085  33.990  1.00  0.00    -0.036 C 
ATOM      2  H   UNL A   1      49.335  21.276  32.953  1.00  0.00     0.028 H 
ATOM      3  H   UNL A   1      50.392  20.503  34.194  1.00  0.00     0.028 H 
ENDROOT
BRANCH   1   4
ATOM      4  C   UNL A   1      48.354  20.251  34.515  1.00  0.00     0.018 C 
ATOM      5  H   UNL A   1      48.122  19.504  33.785  1.00  0.00     0.049 H 
ATOM      6  H   UNL A   1      48.672  19.839  35.449  1.00  0.00     0.049 H 
BRANCH   4   7
ATOM      7  N   UNL A   1      47.143  21.009  34.788  1.00  0.00    -0.352 N 
ATOM      8  C   UNL A   1      46.361  21.067  35.920  1.00  0.00     0.255 C 
ATOM      9  O   UNL A   1      45.321  21.727  35.900  1.00  0.00    -0.269 OA
ATOM     10  H   UNL A   1      46.833  21.574  34.044  1.00  0.00     0.163 HD
BRANCH   8  11
ATOM     11  C   UNL A   1      46.674  20.296  37.151  1.00  0.00     0.082 A 
ATOM     12  C   UNL A   1      46.190  18.489  38.692  1.00  0.00    -0.006 A 
ATOM     13  C   UNL A   1      47.066  19.024  39.634  1.00  0.00    -0.050 A 
ATOM     14  C   UNL A   1      46.061  19.076  37.429  1.00  0.00    -0.037 A 
ATOM     15  C   UNL A   1      47.788  20.176  39.313  1.00  0.00    -0.019 A 
ATOM     16  H   UNL A   1      47.181  18.575  40.557  1.00  0.00     0.063 H 
ATOM     17  H   UNL A   1      45.509  18.601  36.697  1.00  0.00     0.064 H 
ATOM     18  C   UNL A   1      47.582  20.814  38.087  1.00  0.00     0.128 A 
ATOM     19  H   UNL A   1      48.474  20.558  39.983  1.00  0.00     0.066 H 
BRANCH  12  20
ATOM     20  C   UNL A   1      45.265  17.395  39.060  1.00  0.00     0.035 C 
ATOM     21  N   UNL A   1      44.467  17.553  40.066  1.00  0.00    -0.256 NA
ATOM     22  H   UNL A   1      45.258  16.515  38.520  1.00  0.00     0.085 H 
BRANCH  21  23
ATOM     23  C   UNL A   1      43.666  16.497  40.515  1.00  0.00     0.063 A 
ATOM     24  C   UNL A   1      42.312  14.251  41.496  1.00  0.00     0.082 A 
ATOM     25  C   UNL A   1      43.040  15.057  42.374  1.00  0.00    -0.040 A 
ATOM     26  C   UNL A   1      42.250  14.558  40.135  1.00  0.00    -0.040 A 
ATOM     27  C   UNL A   1      43.719  16.171  41.874  1.00  0.00    -0.035 A 
ATOM     28  H   UNL A   1      43.076  14.832  43.380  1.00  0.00     0.064 H 
ATOM     29  C   UNL A   1      42.935  15.675  39.648  1.00  0.00    -0.035 A 
ATOM     30  H   UNL A   1      41.703  13.963  39.492  1.00  0.00     0.064 H 
ATOM     31  H   UNL A   1      44.268  16.762  42.518  1.00  0.00     0.065 H 
ATOM     32  H   UNL A   1      42.901  15.897  38.640  1.00  0.00     0.065 H 
BRANCH  24  33
ATOM     33  S   UNL A   1      41.474  12.830  42.132  1.00  0.00     0.238 S 
ATOM     34  O   UNL A   1      40.699  13.222  43.290  1.00  0.00    -0.207 OA
ATOM     35  O   UNL A   1      42.397  11.725  42.138  1.00  0.00    -0.207 OA
BRANCH  33  36
ATOM     36  N   UNL A   1      40.328  12.481  40.953  1.00  0.00    -0.225 NA
ATOM     37  H   UNL A   1      40.766  12.516  40.032  1.00  0.00     0.137 HD
ATOM     38  H   UNL A   1      39.573  13.165  40.998  1.00  0.00     0.137 HD
ENDBRANCH  33  36
ENDBRANCH  24  33
ENDBRANCH  21  23
ENDBRANCH  12  20
BRANCH  18  39
ATOM     39  O   UNL A   1      48.299  21.961  37.871  1.00  0.00    -0.507 OA
ATOM     40  H   UNL A   1      49.223  21.915  37.725  1.00  0.00     0.293 HD
ENDBRANCH  18  39
ENDBRANCH   8  11
ENDBRANCH   4   7
ENDBRANCH   1   4
BRANCH   1  41
ATOM     41  C   UNL A   1      49.768  22.430  34.671  1.00  0.00    -0.052 C 
ATOM     42  H   UNL A   1      50.729  22.380  35.140  1.00  0.00     0.027 H 
ATOM     43  H   UNL A   1      48.946  22.561  35.343  1.00  0.00     0.027 H 
BRANCH  41  44
ATOM     44  C   UNL A   1      49.755  23.672  33.777  1.00  0.00    -0.052 C 
ATOM     45  H   UNL A   1      49.488  23.359  32.790  1.00  0.00     0.027 H 
ATOM     46  H   UNL A   1      50.736  24.091  33.863  1.00  0.00     0.027 H 
BRANCH  44  47
ATOM     47  C   UNL A   1      48.803  24.800  34.180  1.00  0.00    -0.036 C 
ATOM     48  H   UNL A   1      48.628  25.404  33.315  1.00  0.00     0.028 H 
ATOM     49  H   UNL A   1      49.289  25.312  34.983  1.00  0.00     0.028 H 
BRANCH  47  50
ATOM     50  C   UNL A   1      47.447  24.369  34.729  1.00  0.00     0.018 C 
ATOM     51  H   UNL A   1      47.293  23.339  34.485  1.00  0.00     0.049 H 
ATOM     52  H   UNL A   1      46.710  25.004  34.284  1.00  0.00     0.049 H 
BRANCH  50  53
ATOM     53  N   UNL A   1      47.336  24.522  36.170  1.00  0.00    -0.352 N 
ATOM     54  C   UNL A   1      46.505  25.347  36.891  1.00  0.00     0.251 C 
ATOM     55  H   UNL A   1      47.940  23.958  36.704  1.00  0.00     0.163 HD
ATOM     56  O   UNL A   1      46.617  25.431  38.111  1.00  0.00    -0.269 OA
BRANCH  54  57
ATOM     57  C   UNL A   1      45.490  26.165  36.191  1.00  0.00     0.039 A 
ATOM     58  C   UNL A   1      45.860  27.413  35.683  1.00  0.00    -0.049 A 
ATOM     59  C   UNL A   1      44.183  25.699  36.027  1.00  0.00    -0.049 A 
ATOM     60  C   UNL A   1      44.941  28.164  34.944  1.00  0.00    -0.053 A 
ATOM     61  H   UNL A   1      46.810  27.780  35.853  1.00  0.00     0.063 H 
ATOM     62  C   UNL A   1      43.289  26.417  35.238  1.00  0.00    -0.053 A 
ATOM     63  H   UNL A   1      43.883  24.825  36.487  1.00  0.00     0.063 H 
ATOM     64  C   UNL A   1      43.660  27.654  34.685  1.00  0.00    -0.014 A 
ATOM     65  H   UNL A   1      45.206  29.096  34.588  1.00  0.00     0.063 H 
ATOM     66  H   UNL A   1      42.346  26.039  35.059  1.00  0.00     0.063 H 
BRANCH  64  67
ATOM     67  C   UNL A   1      42.675  28.385  33.848  1.00  0.00     0.031 A 
ATOM     68  C   UNL A   1      41.721  29.349  34.493  1.00  0.00     0.074 A 
ATOM     69  C   UNL A   1      42.569  28.104  32.535  1.00  0.00     0.049 A 
ATOM     70  N   UNL A   1      40.674  29.947  33.987  1.00  0.00    -0.248 NA
ATOM     71  C   UNL A   1      41.967  29.661  35.909  1.00  0.00    -0.034 C 
ATOM     72  C   UNL A   1      43.425  27.176  31.795  1.00  0.00    -0.036 A 
ATOM     73  N   UNL A   1      41.674  28.553  31.595  1.00  0.00    -0.354 N 
ATOM     74  C   UNL A   1      40.117  30.676  35.028  1.00  0.00     0.074 A 
ATOM     75  C   UNL A   1      40.925  30.425  36.202  1.00  0.00    -0.034 C 
ATOM     76  H   UNL A   1      42.748  29.364  36.516  1.00  0.00     0.065 H 
ATOM     77  C   UNL A   1      43.013  27.122  30.519  1.00  0.00    -0.036 A 
ATOM     78  H   UNL A   1      44.218  26.648  32.192  1.00  0.00     0.065 H 
ATOM     79  C   UNL A   1      41.835  27.971  30.361  1.00  0.00     0.049 A 
ATOM     80  H   UNL A   1      40.982  29.226  31.788  1.00  0.00     0.167 HD
ATOM     81  C   UNL A   1      39.035  31.490  35.002  1.00  0.00     0.037 A 
ATOM     82  H   UNL A   1      40.717  30.793  37.143  1.00  0.00     0.065 H 
ATOM     83  H   UNL A   1      43.458  26.568  29.769  1.00  0.00     0.065 H 
ATOM     84  C   UNL A   1      41.101  28.090  29.237  1.00  0.00     0.037 A 
ATOM     85  C   UNL A   1      38.254  31.761  33.824  1.00  0.00     0.049 A 
ATOM     86  C   UNL A   1      39.894  28.990  29.239  1.00  0.00     0.074 A 
ATOM     87  C   UNL A   1      37.175  32.616  33.682  1.00  0.00    -0.036 A 
ATOM     88  N   UNL A   1      38.472  31.179  32.584  1.00  0.00    -0.354 N 
ATOM     89  N   UNL A   1      39.407  29.720  30.213  1.00  0.00    -0.248 NA
ATOM     90  C   UNL A   1      39.135  29.089  27.983  1.00  0.00    -0.034 C 
ATOM     91  C   UNL A   1      36.718  32.525  32.364  1.00  0.00    -0.036 A 
ATOM     92  H   UNL A   1      36.777  33.217  34.421  1.00  0.00     0.065 H 
ATOM     93  C   UNL A   1      37.540  31.649  31.673  1.00  0.00     0.049 A 
ATOM     94  H   UNL A   1      39.184  30.530  32.381  1.00  0.00     0.167 HD
ATOM     95  C   UNL A   1      38.313  30.389  29.681  1.00  0.00     0.074 A 
ATOM     96  C   UNL A   1      38.208  29.984  28.296  1.00  0.00    -0.034 C 
ATOM     97  H   UNL A   1      39.285  28.592  27.092  1.00  0.00     0.065 H 
ATOM     98  H   UNL A   1      35.906  33.027  31.971  1.00  0.00     0.065 H 
ATOM     99  C   UNL A   1      37.474  31.263  30.287  1.00  0.00     0.037 A 
ATOM    100  H   UNL A   1      37.501  30.345  27.636  1.00  0.00     0.065 H 
BRANCH  81 101
ATOM    101  C   UNL A   1      38.630  32.146  36.289  1.00  0.00     0.064 A 
ATOM    102  C   UNL A   1      37.917  31.449  37.276  1.00  0.00     0.173 A 
ATOM    103  C   UNL A   1      38.991  33.476  36.554  1.00  0.00     0.173 A 
ATOM    104  F   UNL A   1      37.539  30.179  37.067  1.00  0.00    -0.203 F 
ATOM    105  C   UNL A   1      37.555  32.068  38.469  1.00  0.00     0.198 A 
ATOM    106  C   UNL A   1      38.652  34.083  37.761  1.00  0.00     0.198 A 
ATOM    107  F   UNL A   1      39.679  34.184  35.648  1.00  0.00    -0.203 F 
ATOM    108  F   UNL A   1      36.834  31.398  39.378  1.00  0.00    -0.200 F 
ATOM    109  C   UNL A   1      37.929  33.382  38.714  1.00  0.00     0.200 A 
ATOM    110  F   UNL A   1      39.025  35.348  38.001  1.00  0.00    -0.200 F 
ATOM    111  F   UNL A   1      37.585  33.974  39.865  1.00  0.00    -0.200 F 
ENDBRANCH  81 101
BRANCH  84 112
ATOM    112  C   UNL A   1      41.496  27.347  28.010  1.00  0.00     0.064 A 
ATOM    113  C   UNL A   1      40.960  26.081  27.735  1.00  0.00     0.173 A 
ATOM    114  C   UNL A   1      42.410  27.881  27.090  1.00  0.00     0.173 A 
ATOM    115  F   UNL A   1      40.090  25.523  28.590  1.00  0.00    -0.203 F 
ATOM    116  C   UNL A   1      41.342  25.368  26.602  1.00  0.00     0.198 A 
ATOM    117  C   UNL A   1      42.775  27.177  25.945  1.00  0.00     0.198 A 
ATOM    118  F   UNL A   1      42.925  29.102  27.287  1.00  0.00    -0.203 F 
ATOM    119  F   UNL A   1      40.843  24.144  26.384  1.00  0.00    -0.200 F 
ATOM    120  C   UNL A   1      42.247  25.917  25.706  1.00  0.00     0.200 A 
ATOM    121  F   UNL A   1      43.632  27.719  25.070  1.00  0.00    -0.200 F 
ATOM    122  F   UNL A   1      42.611  25.231  24.614  1.00  0.00    -0.200 F 
ENDBRANCH  84 112
BRANCH  99 123
ATOM    123  C   UNL A   1      36.406  31.899  29.449  1.00  0.00     0.064 A 
ATOM    124  C   UNL A   1      35.313  31.166  28.965  1.00  0.00     0.173 A 
ATOM    125  C   UNL A   1      36.441  33.278  29.192  1.00  0.00     0.173 A 
ATOM    126  F   UNL A   1      35.241  29.843  29.173  1.00  0.00    -0.203 F 
ATOM    127  C   UNL A   1      34.297  31.792  28.246  1.00  0.00     0.198 A 
ATOM    128  C   UNL A   1      35.412  33.904  28.495  1.00  0.00     0.198 A 
ATOM    129  F   UNL A   1      37.463  34.024  29.639  1.00  0.00    -0.203 F 
ATOM    130  F   UNL A   1      33.275  31.069  27.770  1.00  0.00    -0.200 F 
ATOM    131  C   UNL A   1      34.342  33.160  28.021  1.00  0.00     0.200 A 
ATOM    132  F   UNL A   1      35.450  35.228  28.290  1.00  0.00    -0.200 F 
ATOM    133  F   UNL A   1      33.355  33.762  27.344  1.00  0.00    -0.200 F 
ENDBRANCH  99 123
ENDBRANCH  64  67
ENDBRANCH  54  57
ENDBRANCH  50  53
ENDBRANCH  47  50
ENDBRANCH  44  47
ENDBRANCH  41  44
ENDBRANCH   1  41
TORSDOF 18
ENDMDL
MODEL 8
REMARK VINA RESULT:     -11.7      5.723     11.244
REMARK SMILES NS(=O)(=O)c1ccc(/N=C/c2ccc(O)c(C(=O)NCCCCCCNC(=O)c3ccc(-c4c5nc(c(-c6c(F)c(F)c(F)c(F)c6F)c6ccc([nH]6)c(-c6c(F)c(F)c(F)c(F)c6F)c6nc(c(-c7c(F)c(F)c(F)c(F)c7F)c7ccc4[nH]7)C=C6)C=C5)cc3)c2)cc1
REMARK SMILES IDX 21 1 20 4 19 7 17 8 18 9 16 11 11 12 12 13 92 14 13 15 14 18
REMARK SMILES IDX 10 20 9 21 8 23 5 24 6 25 94 26 7 27 93 29 2 33 3 34 4 35
REMARK SMILES IDX 1 36 15 39 22 41 23 44 24 47 25 50 26 53 27 54 28 56 29 57
REMARK SMILES IDX 30 58 91 59 31 60 90 62 32 64 33 67 34 68 84 69 35 70 89 71
REMARK SMILES IDX 83 72 85 73 36 74 88 75 82 77 81 79 37 81 69 84 49 85 68 86
REMARK SMILES IDX 50 87 53 88 67 89 86 90 51 91 52 93 66 95 87 96 54 99 38 101
REMARK SMILES IDX 39 102 47 103 40 104 41 105 45 106 48 107 42 108 43 109
REMARK SMILES IDX 46 110 44 111 70 112 71 113 79 114 72 115 73 116 77 117
REMARK SMILES IDX 80 118 74 119 75 120 78 121 76 122 55 123 56 124 64 125
REMARK SMILES IDX 57 126 58 127 62 128 65 129 59 130 60 131 63 132 61 133
REMARK H PARENT 21 2 21 3 20 5 20 6 19 10 12 16 92 17 13 19 10 22 6 28 94 30
REMARK H PARENT 7 31 93 32 1 37 1 38 15 40 22 42 22 43 23 45 23 46 24 48 24 49
REMARK H PARENT 25 51 25 52 26 55 30 61 91 63 31 65 90 66 89 76 83 78 85 80
REMARK H PARENT 88 82 82 83 50 92 53 94 86 97 51 98 87 100
REMARK Flexibility Score: inf
ROOT
ATOM      1  C   UNL A   1      43.434  30.345  28.229  1.00  0.00    -0.036 C 
ATOM      2  H   UNL A   1      43.309  30.244  29.287  1.00  0.00     0.028 H 
ATOM      3  H   UNL A   1      42.529  30.508  27.681  1.00  0.00     0.028 H 
ENDROOT
BRANCH   1   4
ATOM      4  C   UNL A   1      43.984  29.025  27.702  1.00  0.00     0.018 C 
ATOM      5  H   UNL A   1      45.051  29.054  27.775  1.00  0.00     0.049 H 
ATOM      6  H   UNL A   1      43.544  28.253  28.298  1.00  0.00     0.049 H 
BRANCH   4   7
ATOM      7  N   UNL A   1      43.632  28.733  26.321  1.00  0.00    -0.352 N 
ATOM      8  C   UNL A   1      42.446  28.294  25.776  1.00  0.00     0.255 C 
ATOM      9  O   UNL A   1      42.398  28.034  24.572  1.00  0.00    -0.269 OA
ATOM     10  H   UNL A   1      44.358  28.872  25.672  1.00  0.00     0.163 HD
BRANCH   8  11
ATOM     11  C   UNL A   1      41.232  28.039  26.593  1.00  0.00     0.082 A 
ATOM     12  C   UNL A   1      39.199  28.819  27.655  1.00  0.00    -0.006 A 
ATOM     13  C   UNL A   1      39.101  27.640  28.392  1.00  0.00    -0.050 A 
ATOM     14  C   UNL A   1      40.210  28.979  26.702  1.00  0.00    -0.037 A 
ATOM     15  C   UNL A   1      40.048  26.633  28.191  1.00  0.00    -0.019 A 
ATOM     16  H   UNL A   1      38.338  27.512  29.076  1.00  0.00     0.063 H 
ATOM     17  H   UNL A   1      40.198  29.799  26.075  1.00  0.00     0.064 H 
ATOM     18  C   UNL A   1      41.112  26.838  27.309  1.00  0.00     0.128 A 
ATOM     19  H   UNL A   1      39.963  25.737  28.696  1.00  0.00     0.066 H 
BRANCH  12  20
ATOM     20  C   UNL A   1      38.342  29.981  27.977  1.00  0.00     0.035 C 
ATOM     21  N   UNL A   1      37.082  29.937  27.683  1.00  0.00    -0.256 NA
ATOM     22  H   UNL A   1      38.744  30.816  28.430  1.00  0.00     0.085 H 
BRANCH  21  23
ATOM     23  C   UNL A   1      36.268  31.061  27.863  1.00  0.00     0.063 A 
ATOM     24  C   UNL A   1      34.725  33.309  28.504  1.00  0.00     0.082 A 
ATOM     25  C   UNL A   1      36.116  33.375  28.599  1.00  0.00    -0.040 A 
ATOM     26  C   UNL A   1      34.097  32.132  28.088  1.00  0.00    -0.040 A 
ATOM     27  C   UNL A   1      36.878  32.247  28.285  1.00  0.00    -0.035 A 
ATOM     28  H   UNL A   1      36.577  34.249  28.898  1.00  0.00     0.064 H 
ATOM     29  C   UNL A   1      34.871  31.010  27.778  1.00  0.00    -0.035 A 
ATOM     30  H   UNL A   1      33.068  32.091  28.012  1.00  0.00     0.064 H 
ATOM     31  H   UNL A   1      37.906  32.290  28.365  1.00  0.00     0.065 H 
ATOM     32  H   UNL A   1      34.408  30.135  27.482  1.00  0.00     0.065 H 
BRANCH  24  33
ATOM     33  S   UNL A   1      33.768  34.733  28.925  1.00  0.00     0.238 S 
ATOM     34  O   UNL A   1      34.003  35.063  30.314  1.00  0.00    -0.207 OA
ATOM     35  O   UNL A   1      32.451  34.578  28.363  1.00  0.00    -0.207 OA
BRANCH  33  36
ATOM     36  N   UNL A   1      34.503  35.977  28.064  1.00  0.00    -0.225 NA
ATOM     37  H   UNL A   1      34.589  35.708  27.084  1.00  0.00     0.137 HD
ATOM     38  H   UNL A   1      35.429  36.157  28.450  1.00  0.00     0.137 HD
ENDBRANCH  33  36
ENDBRANCH  24  33
ENDBRANCH  21  23
ENDBRANCH  12  20
BRANCH  18  39
ATOM     39  O   UNL A   1      42.020  25.816  27.204  1.00  0.00    -0.507 OA
ATOM     40  H   UNL A   1      41.798  24.961  27.513  1.00  0.00     0.293 HD
ENDBRANCH  18  39
ENDBRANCH   8  11
ENDBRANCH   4   7
ENDBRANCH   1   4
BRANCH   1  41
ATOM     41  C   UNL A   1      44.278  31.596  27.982  1.00  0.00    -0.052 C 
ATOM     42  H   UNL A   1      45.267  31.273  27.729  1.00  0.00     0.027 H 
ATOM     43  H   UNL A   1      44.208  32.163  28.886  1.00  0.00     0.027 H 
BRANCH  41  44
ATOM     44  C   UNL A   1      43.806  32.543  26.877  1.00  0.00    -0.052 C 
ATOM     45  H   UNL A   1      43.544  33.473  27.337  1.00  0.00     0.027 H 
ATOM     46  H   UNL A   1      42.993  32.036  26.400  1.00  0.00     0.027 H 
BRANCH  44  47
ATOM     47  C   UNL A   1      44.803  32.845  25.757  1.00  0.00    -0.036 C 
ATOM     48  H   UNL A   1      44.762  32.036  25.057  1.00  0.00     0.028 H 
ATOM     49  H   UNL A   1      45.751  32.960  26.241  1.00  0.00     0.028 H 
BRANCH  47  50
ATOM     50  C   UNL A   1      44.576  34.140  24.986  1.00  0.00     0.018 C 
ATOM     51  H   UNL A   1      43.782  34.681  25.456  1.00  0.00     0.049 H 
ATOM     52  H   UNL A   1      44.340  33.871  23.978  1.00  0.00     0.049 H 
BRANCH  50  53
ATOM     53  N   UNL A   1      45.751  34.995  24.940  1.00  0.00    -0.352 N 
ATOM     54  C   UNL A   1      46.256  35.826  25.912  1.00  0.00     0.251 C 
ATOM     55  H   UNL A   1      46.255  34.976  24.095  1.00  0.00     0.163 HD
ATOM     56  O   UNL A   1      47.205  36.566  25.667  1.00  0.00    -0.269 OA
BRANCH  54  57
ATOM     57  C   UNL A   1      45.632  35.854  27.253  1.00  0.00     0.039 A 
ATOM     58  C   UNL A   1      44.522  36.676  27.467  1.00  0.00    -0.049 A 
ATOM     59  C   UNL A   1      46.133  35.067  28.293  1.00  0.00    -0.049 A 
ATOM     60  C   UNL A   1      43.866  36.653  28.701  1.00  0.00    -0.053 A 
ATOM     61  H   UNL A   1      44.187  37.299  26.714  1.00  0.00     0.063 H 
ATOM     62  C   UNL A   1      45.442  34.997  29.500  1.00  0.00    -0.053 A 
ATOM     63  H   UNL A   1      47.011  34.538  28.167  1.00  0.00     0.063 H 
ATOM     64  C   UNL A   1      44.300  35.786  29.714  1.00  0.00    -0.014 A 
ATOM     65  H   UNL A   1      43.060  37.276  28.867  1.00  0.00     0.063 H 
ATOM     66  H   UNL A   1      45.773  34.362  30.243  1.00  0.00     0.063 H 
BRANCH  64  67
ATOM     67  C   UNL A   1      43.592  35.677  31.016  1.00  0.00     0.031 A 
ATOM     68  C   UNL A   1      44.089  36.456  32.199  1.00  0.00     0.074 A 
ATOM     69  C   UNL A   1      42.577  34.804  31.158  1.00  0.00     0.049 A 
ATOM     70  N   UNL A   1      43.742  36.371  33.457  1.00  0.00    -0.248 NA
ATOM     71  C   UNL A   1      45.141  37.450  31.931  1.00  0.00    -0.034 C 
ATOM     72  C   UNL A   1      42.014  33.978  30.090  1.00  0.00    -0.036 A 
ATOM     73  N   UNL A   1      41.858  34.445  32.271  1.00  0.00    -0.354 N 
ATOM     74  C   UNL A   1      44.552  37.272  34.134  1.00  0.00     0.074 A 
ATOM     75  C   UNL A   1      45.431  37.872  33.153  1.00  0.00    -0.034 C 
ATOM     76  H   UNL A   1      45.547  37.742  31.027  1.00  0.00     0.065 H 
ATOM     77  C   UNL A   1      41.039  33.208  30.599  1.00  0.00    -0.036 A 
ATOM     78  H   UNL A   1      42.317  33.987  29.104  1.00  0.00     0.065 H 
ATOM     79  C   UNL A   1      40.942  33.447  32.036  1.00  0.00     0.049 A 
ATOM     80  H   UNL A   1      41.987  34.861  33.154  1.00  0.00     0.167 HD
ATOM     81  C   UNL A   1      44.555  37.576  35.453  1.00  0.00     0.037 A 
ATOM     82  H   UNL A   1      46.183  38.543  33.375  1.00  0.00     0.065 H 
ATOM     83  H   UNL A   1      40.452  32.551  30.060  1.00  0.00     0.065 H 
ATOM     84  C   UNL A   1      40.136  32.785  32.888  1.00  0.00     0.037 A 
ATOM     85  C   UNL A   1      43.659  36.998  36.419  1.00  0.00     0.049 A 
ATOM     86  C   UNL A   1      40.169  33.132  34.353  1.00  0.00     0.074 A 
ATOM     87  C   UNL A   1      43.544  37.282  37.768  1.00  0.00    -0.036 A 
ATOM     88  N   UNL A   1      42.721  36.016  36.133  1.00  0.00    -0.354 N 
ATOM     89  N   UNL A   1      40.900  34.024  34.977  1.00  0.00    -0.248 NA
ATOM     90  C   UNL A   1      39.261  32.383  35.235  1.00  0.00    -0.034 C 
ATOM     91  C   UNL A   1      42.560  36.448  38.307  1.00  0.00    -0.036 A 
ATOM     92  H   UNL A   1      44.090  37.989  38.286  1.00  0.00     0.065 H 
ATOM     93  C   UNL A   1      42.030  35.676  37.285  1.00  0.00     0.049 A 
ATOM     94  H   UNL A   1      42.568  35.621  35.245  1.00  0.00     0.167 HD
ATOM     95  C   UNL A   1      40.516  33.970  36.309  1.00  0.00     0.074 A 
ATOM     96  C   UNL A   1      39.484  32.961  36.408  1.00  0.00    -0.034 C 
ATOM     97  H   UNL A   1      38.618  31.611  35.003  1.00  0.00     0.065 H 
ATOM     98  H   UNL A   1      42.275  36.414  39.299  1.00  0.00     0.065 H 
ATOM     99  C   UNL A   1      40.978  34.695  37.357  1.00  0.00     0.037 A 
ATOM    100  H   UNL A   1      38.985  32.721  37.279  1.00  0.00     0.065 H 
BRANCH  81 101
ATOM    101  C   UNL A   1      45.564  38.578  35.931  1.00  0.00     0.064 A 
ATOM    102  C   UNL A   1      45.271  39.949  35.981  1.00  0.00     0.173 A 
ATOM    103  C   UNL A   1      46.825  38.158  36.381  1.00  0.00     0.173 A 
ATOM    104  F   UNL A   1      44.083  40.402  35.553  1.00  0.00    -0.203 F 
ATOM    105  C   UNL A   1      46.215  40.867  36.435  1.00  0.00     0.198 A 
ATOM    106  C   UNL A   1      47.756  39.076  36.862  1.00  0.00     0.198 A 
ATOM    107  F   UNL A   1      47.153  36.858  36.362  1.00  0.00    -0.203 F 
ATOM    108  F   UNL A   1      45.930  42.175  36.430  1.00  0.00    -0.200 F 
ATOM    109  C   UNL A   1      47.453  40.429  36.882  1.00  0.00     0.200 A 
ATOM    110  F   UNL A   1      48.947  38.650  37.305  1.00  0.00    -0.200 F 
ATOM    111  F   UNL A   1      48.357  41.312  37.325  1.00  0.00    -0.200 F 
ENDBRANCH  81 101
BRANCH  84 112
ATOM    112  C   UNL A   1      39.215  31.736  32.374  1.00  0.00     0.064 A 
ATOM    113  C   UNL A   1      39.649  30.410  32.230  1.00  0.00     0.173 A 
ATOM    114  C   UNL A   1      37.891  32.029  32.018  1.00  0.00     0.173 A 
ATOM    115  F   UNL A   1      40.910  30.081  32.547  1.00  0.00    -0.203 F 
ATOM    116  C   UNL A   1      38.803  29.426  31.728  1.00  0.00     0.198 A 
ATOM    117  C   UNL A   1      37.038  31.039  31.536  1.00  0.00     0.198 A 
ATOM    118  F   UNL A   1      37.415  33.272  32.169  1.00  0.00    -0.203 F 
ATOM    119  F   UNL A   1      39.255  28.175  31.565  1.00  0.00    -0.200 F 
ATOM    120  C   UNL A   1      37.496  29.739  31.383  1.00  0.00     0.200 A 
ATOM    121  F   UNL A   1      35.770  31.341  31.224  1.00  0.00    -0.200 F 
ATOM    122  F   UNL A   1      36.682  28.790  30.903  1.00  0.00    -0.200 F 
ENDBRANCH  84 112
BRANCH  99 123
ATOM    123  C   UNL A   1      40.330  34.481  38.692  1.00  0.00     0.064 A 
ATOM    124  C   UNL A   1      40.655  33.385  39.503  1.00  0.00     0.173 A 
ATOM    125  C   UNL A   1      39.428  35.430  39.196  1.00  0.00     0.173 A 
ATOM    126  F   UNL A   1      41.502  32.444  39.059  1.00  0.00    -0.203 F 
ATOM    127  C   UNL A   1      40.092  33.242  40.768  1.00  0.00     0.198 A 
ATOM    128  C   UNL A   1      38.887  35.297  40.472  1.00  0.00     0.198 A 
ATOM    129  F   UNL A   1      39.090  36.500  38.461  1.00  0.00    -0.203 F 
ATOM    130  F   UNL A   1      40.395  32.173  41.517  1.00  0.00    -0.200 F 
ATOM    131  C   UNL A   1      39.217  34.203  41.256  1.00  0.00     0.200 A 
ATOM    132  F   UNL A   1      38.052  36.233  40.946  1.00  0.00    -0.200 F 
ATOM    133  F   UNL A   1      38.690  34.072  42.481  1.00  0.00    -0.200 F 
ENDBRANCH  99 123
ENDBRANCH  64  67
ENDBRANCH  54  57
ENDBRANCH  50  53
ENDBRANCH  47  50
ENDBRANCH  44  47
ENDBRANCH  41  44
ENDBRANCH   1  41
TORSDOF 18
ENDMDL
MODEL 9
REMARK VINA RESULT:     -11.5      7.499     13.691
REMARK SMILES NS(=O)(=O)c1ccc(/N=C/c2ccc(O)c(C(=O)NCCCCCCNC(=O)c3ccc(-c4c5nc(c(-c6c(F)c(F)c(F)c(F)c6F)c6ccc([nH]6)c(-c6c(F)c(F)c(F)c(F)c6F)c6nc(c(-c7c(F)c(F)c(F)c(F)c7F)c7ccc4[nH]7)C=C6)C=C5)cc3)c2)cc1
REMARK SMILES IDX 21 1 20 4 19 7 17 8 18 9 16 11 11 12 12 13 92 14 13 15 14 18
REMARK SMILES IDX 10 20 9 21 8 23 5 24 6 25 94 26 7 27 93 29 2 33 3 34 4 35
REMARK SMILES IDX 1 36 15 39 22 41 23 44 24 47 25 50 26 53 27 54 28 56 29 57
REMARK SMILES IDX 30 58 91 59 31 60 90 62 32 64 33 67 34 68 84 69 35 70 89 71
REMARK SMILES IDX 83 72 85 73 36 74 88 75 82 77 81 79 37 81 69 84 49 85 68 86
REMARK SMILES IDX 50 87 53 88 67 89 86 90 51 91 52 93 66 95 87 96 54 99 38 101
REMARK SMILES IDX 39 102 47 103 40 104 41 105 45 106 48 107 42 108 43 109
REMARK SMILES IDX 46 110 44 111 70 112 71 113 79 114 72 115 73 116 77 117
REMARK SMILES IDX 80 118 74 119 75 120 78 121 76 122 55 123 56 124 64 125
REMARK SMILES IDX 57 126 58 127 62 128 65 129 59 130 60 131 63 132 61 133
REMARK H PARENT 21 2 21 3 20 5 20 6 19 10 12 16 92 17 13 19 10 22 6 28 94 30
REMARK H PARENT 7 31 93 32 1 37 1 38 15 40 22 42 22 43 23 45 23 46 24 48 24 49
REMARK H PARENT 25 51 25 52 26 55 30 61 91 63 31 65 90 66 89 76 83 78 85 80
REMARK H PARENT 88 82 82 83 50 92 53 94 86 97 51 98 87 100
REMARK Flexibility Score: inf
ROOT
ATOM      1  C   UNL A   1      49.428  20.610  33.631  1.00  0.00    -0.036 C 
ATOM      2  H   UNL A   1      49.288  20.877  32.604  1.00  0.00     0.028 H 
ATOM      3  H   UNL A   1      50.231  19.925  33.813  1.00  0.00     0.028 H 
ENDROOT
BRANCH   1   4
ATOM      4  C   UNL A   1      48.172  19.879  34.092  1.00  0.00     0.018 C 
ATOM      5  H   UNL A   1      47.882  19.195  33.321  1.00  0.00     0.049 H 
ATOM      6  H   UNL A   1      48.424  19.391  35.010  1.00  0.00     0.049 H 
BRANCH   4   7
ATOM      7  N   UNL A   1      47.041  20.746  34.379  1.00  0.00    -0.352 N 
ATOM      8  C   UNL A   1      46.290  20.885  35.525  1.00  0.00     0.255 C 
ATOM      9  O   UNL A   1      45.314  21.637  35.517  1.00  0.00    -0.269 OA
ATOM     10  H   UNL A   1      46.768  21.329  33.634  1.00  0.00     0.163 HD
BRANCH   8  11
ATOM     11  C   UNL A   1      46.556  20.101  36.758  1.00  0.00     0.082 A 
ATOM     12  C   UNL A   1      45.927  18.380  38.345  1.00  0.00    -0.006 A 
ATOM     13  C   UNL A   1      46.888  18.828  39.250  1.00  0.00    -0.050 A 
ATOM     14  C   UNL A   1      45.822  18.961  37.076  1.00  0.00    -0.037 A 
ATOM     15  C   UNL A   1      47.721  19.889  38.887  1.00  0.00    -0.019 A 
ATOM     16  H   UNL A   1      46.983  18.381  40.176  1.00  0.00     0.063 H 
ATOM     17  H   UNL A   1      45.197  18.540  36.370  1.00  0.00     0.064 H 
ATOM     18  C   UNL A   1      47.546  20.528  37.656  1.00  0.00     0.128 A 
ATOM     19  H   UNL A   1      48.467  20.202  39.528  1.00  0.00     0.066 H 
BRANCH  12  20
ATOM     20  C   UNL A   1      44.900  17.401  38.760  1.00  0.00     0.035 C 
ATOM     21  N   UNL A   1      44.591  17.301  40.013  1.00  0.00    -0.256 NA
ATOM     22  H   UNL A   1      44.435  16.803  38.058  1.00  0.00     0.085 H 
BRANCH  21  23
ATOM     23  C   UNL A   1      43.714  16.304  40.455  1.00  0.00     0.063 A 
ATOM     24  C   UNL A   1      42.193  14.176  41.455  1.00  0.00     0.082 A 
ATOM     25  C   UNL A   1      42.864  15.022  42.340  1.00  0.00    -0.040 A 
ATOM     26  C   UNL A   1      42.271  14.385  40.076  1.00  0.00    -0.040 A 
ATOM     27  C   UNL A   1      43.627  16.076  41.833  1.00  0.00    -0.035 A 
ATOM     28  H   UNL A   1      42.797  14.870  43.359  1.00  0.00     0.064 H 
ATOM     29  C   UNL A   1      43.038  15.443  39.581  1.00  0.00    -0.035 A 
ATOM     30  H   UNL A   1      41.766  13.762  39.427  1.00  0.00     0.064 H 
ATOM     31  H   UNL A   1      44.134  16.696  42.484  1.00  0.00     0.065 H 
ATOM     32  H   UNL A   1      43.108  15.592  38.562  1.00  0.00     0.065 H 
BRANCH  24  33
ATOM     33  S   UNL A   1      41.248  12.832  42.105  1.00  0.00     0.238 S 
ATOM     34  O   UNL A   1      40.403  12.301  41.056  1.00  0.00    -0.207 OA
ATOM     35  O   UNL A   1      40.752  13.211  43.402  1.00  0.00    -0.207 OA
BRANCH  33  36
ATOM     36  N   UNL A   1      42.395  11.631  42.373  1.00  0.00    -0.225 NA
ATOM     37  H   UNL A   1      42.773  11.316  41.478  1.00  0.00     0.137 HD
ATOM     38  H   UNL A   1      41.958  10.844  42.853  1.00  0.00     0.137 HD
ENDBRANCH  33  36
ENDBRANCH  24  33
ENDBRANCH  21  23
ENDBRANCH  12  20
BRANCH  18  39
ATOM     39  O   UNL A   1      48.378  21.586  37.398  1.00  0.00    -0.507 OA
ATOM     40  H   UNL A   1      48.775  22.052  38.106  1.00  0.00     0.293 HD
ENDBRANCH  18  39
ENDBRANCH   8  11
ENDBRANCH   4   7
ENDBRANCH   1   4
BRANCH   1  41
ATOM     41  C   UNL A   1      49.809  21.880  34.391  1.00  0.00    -0.052 C 
ATOM     42  H   UNL A   1      50.641  21.642  35.021  1.00  0.00     0.027 H 
ATOM     43  H   UNL A   1      48.921  22.171  34.911  1.00  0.00     0.027 H 
BRANCH  41  44
ATOM     44  C   UNL A   1      50.199  23.099  33.552  1.00  0.00    -0.052 C 
ATOM     45  H   UNL A   1      49.857  22.927  32.553  1.00  0.00     0.027 H 
ATOM     46  H   UNL A   1      51.261  23.182  33.653  1.00  0.00     0.027 H 
BRANCH  44  47
ATOM     47  C   UNL A   1      49.645  24.451  34.006  1.00  0.00    -0.036 C 
ATOM     48  H   UNL A   1      49.384  25.007  33.130  1.00  0.00     0.028 H 
ATOM     49  H   UNL A   1      50.422  24.895  34.593  1.00  0.00     0.028 H 
BRANCH  47  50
ATOM     50  C   UNL A   1      48.421  24.405  34.911  1.00  0.00     0.018 C 
ATOM     51  H   UNL A   1      48.268  23.394  35.225  1.00  0.00     0.049 H 
ATOM     52  H   UNL A   1      47.594  24.782  34.346  1.00  0.00     0.049 H 
BRANCH  50  53
ATOM     53  N   UNL A   1      48.549  25.240  36.094  1.00  0.00    -0.352 N 
ATOM     54  C   UNL A   1      47.795  26.325  36.474  1.00  0.00     0.251 C 
ATOM     55  H   UNL A   1      49.278  24.995  36.709  1.00  0.00     0.163 HD
ATOM     56  O   UNL A   1      48.109  26.988  37.458  1.00  0.00    -0.269 OA
BRANCH  54  57
ATOM     57  C   UNL A   1      46.613  26.717  35.674  1.00  0.00     0.039 A 
ATOM     58  C   UNL A   1      45.427  25.991  35.818  1.00  0.00    -0.049 A 
ATOM     59  C   UNL A   1      46.671  27.799  34.793  1.00  0.00    -0.049 A 
ATOM     60  C   UNL A   1      44.277  26.396  35.136  1.00  0.00    -0.053 A 
ATOM     61  H   UNL A   1      45.402  25.158  36.427  1.00  0.00     0.063 H 
ATOM     62  C   UNL A   1      45.510  28.240  34.165  1.00  0.00    -0.053 A 
ATOM     63  H   UNL A   1      47.571  28.272  34.611  1.00  0.00     0.063 H 
ATOM     64  C   UNL A   1      44.301  27.546  34.333  1.00  0.00    -0.014 A 
ATOM     65  H   UNL A   1      43.406  25.848  35.225  1.00  0.00     0.063 H 
ATOM     66  H   UNL A   1      45.538  29.083  33.569  1.00  0.00     0.063 H 
BRANCH  64  67
ATOM     67  C   UNL A   1      43.086  28.054  33.646  1.00  0.00     0.031 A 
ATOM     68  C   UNL A   1      42.860  27.726  32.198  1.00  0.00     0.074 A 
ATOM     69  C   UNL A   1      42.249  28.889  34.290  1.00  0.00     0.049 A 
ATOM     70  N   UNL A   1      41.976  28.209  31.363  1.00  0.00    -0.248 NA
ATOM     71  C   UNL A   1      43.772  26.737  31.602  1.00  0.00    -0.034 C 
ATOM     72  C   UNL A   1      42.368  29.296  35.690  1.00  0.00    -0.036 A 
ATOM     73  N   UNL A   1      41.144  29.570  33.838  1.00  0.00    -0.354 N 
ATOM     74  C   UNL A   1      42.247  27.612  30.140  1.00  0.00     0.074 A 
ATOM     75  C   UNL A   1      43.395  26.752  30.332  1.00  0.00    -0.034 C 
ATOM     76  H   UNL A   1      44.513  26.178  32.055  1.00  0.00     0.065 H 
ATOM     77  C   UNL A   1      41.380  30.156  35.982  1.00  0.00    -0.036 A 
ATOM     78  H   UNL A   1      43.095  28.972  36.347  1.00  0.00     0.065 H 
ATOM     79  C   UNL A   1      40.588  30.401  34.780  1.00  0.00     0.049 A 
ATOM     80  H   UNL A   1      40.787  29.473  32.926  1.00  0.00     0.167 HD
ATOM     81  C   UNL A   1      41.589  27.761  28.966  1.00  0.00     0.037 A 
ATOM     82  H   UNL A   1      43.858  26.220  29.580  1.00  0.00     0.065 H 
ATOM     83  H   UNL A   1      41.208  30.577  36.909  1.00  0.00     0.065 H 
ATOM     84  C   UNL A   1      39.571  31.279  34.678  1.00  0.00     0.037 A 
ATOM     85  C   UNL A   1      40.429  28.593  28.789  1.00  0.00     0.049 A 
ATOM     86  C   UNL A   1      38.866  31.436  33.357  1.00  0.00     0.074 A 
ATOM     87  C   UNL A   1      39.656  28.766  27.654  1.00  0.00    -0.036 A 
ATOM     88  N   UNL A   1      39.874  29.392  29.778  1.00  0.00    -0.354 N 
ATOM     89  N   UNL A   1      39.093  30.827  32.218  1.00  0.00    -0.248 NA
ATOM     90  C   UNL A   1      37.758  32.402  33.305  1.00  0.00    -0.034 C 
ATOM     91  C   UNL A   1      38.655  29.697  27.945  1.00  0.00    -0.036 A 
ATOM     92  H   UNL A   1      39.795  28.290  26.748  1.00  0.00     0.065 H 
ATOM     93  C   UNL A   1      38.775  30.069  29.275  1.00  0.00     0.049 A 
ATOM     94  H   UNL A   1      40.211  29.467  30.699  1.00  0.00     0.167 HD
ATOM     95  C   UNL A   1      38.138  31.303  31.331  1.00  0.00     0.074 A 
ATOM     96  C   UNL A   1      37.324  32.252  32.060  1.00  0.00    -0.034 C 
ATOM     97  H   UNL A   1      37.408  33.031  34.043  1.00  0.00     0.065 H 
ATOM     98  H   UNL A   1      37.944  30.047  27.283  1.00  0.00     0.065 H 
ATOM     99  C   UNL A   1      37.953  30.981  30.028  1.00  0.00     0.037 A 
ATOM    100  H   UNL A   1      36.511  32.748  31.663  1.00  0.00     0.065 H 
BRANCH  81 101
ATOM    101  C   UNL A   1      42.111  27.009  27.778  1.00  0.00     0.064 A 
ATOM    102  C   UNL A   1      41.661  25.716  27.470  1.00  0.00     0.173 A 
ATOM    103  C   UNL A   1      43.047  27.602  26.916  1.00  0.00     0.173 A 
ATOM    104  F   UNL A   1      40.775  25.102  28.268  1.00  0.00    -0.203 F 
ATOM    105  C   UNL A   1      42.149  25.033  26.359  1.00  0.00     0.198 A 
ATOM    106  C   UNL A   1      43.511  26.927  25.790  1.00  0.00     0.198 A 
ATOM    107  F   UNL A   1      43.504  28.838  27.161  1.00  0.00    -0.203 F 
ATOM    108  F   UNL A   1      41.739  23.783  26.111  1.00  0.00    -0.200 F 
ATOM    109  C   UNL A   1      43.068  25.642  25.516  1.00  0.00     0.200 A 
ATOM    110  F   UNL A   1      44.389  27.521  24.970  1.00  0.00    -0.200 F 
ATOM    111  F   UNL A   1      43.532  24.986  24.444  1.00  0.00    -0.200 F 
ENDBRANCH  81 101
BRANCH  84 112
ATOM    112  C   UNL A   1      39.149  32.067  35.866  1.00  0.00     0.064 A 
ATOM    113  C   UNL A   1      38.246  31.533  36.796  1.00  0.00     0.173 A 
ATOM    114  C   UNL A   1      39.633  33.362  36.100  1.00  0.00     0.173 A 
ATOM    115  F   UNL A   1      37.746  30.302  36.612  1.00  0.00    -0.203 F 
ATOM    116  C   UNL A   1      37.825  32.272  37.898  1.00  0.00     0.198 A 
ATOM    117  C   UNL A   1      39.229  34.093  37.214  1.00  0.00     0.198 A 
ATOM    118  F   UNL A   1      40.525  33.907  35.261  1.00  0.00    -0.203 F 
ATOM    119  F   UNL A   1      36.933  31.751  38.751  1.00  0.00    -0.200 F 
ATOM    120  C   UNL A   1      38.319  33.551  38.109  1.00  0.00     0.200 A 
ATOM    121  F   UNL A   1      39.725  35.320  37.427  1.00  0.00    -0.200 F 
ATOM    122  F   UNL A   1      37.916  34.260  39.172  1.00  0.00    -0.200 F 
ENDBRANCH  84 112
BRANCH  99 123
ATOM    123  C   UNL A   1      36.788  31.602  29.316  1.00  0.00     0.064 A 
ATOM    124  C   UNL A   1      35.665  30.849  28.942  1.00  0.00     0.173 A 
ATOM    125  C   UNL A   1      36.766  32.984  29.074  1.00  0.00     0.173 A 
ATOM    126  F   UNL A   1      35.645  29.523  29.139  1.00  0.00    -0.203 F 
ATOM    127  C   UNL A   1      34.566  31.459  28.343  1.00  0.00     0.198 A 
ATOM    128  C   UNL A   1      35.655  33.593  28.499  1.00  0.00     0.198 A 
ATOM    129  F   UNL A   1      37.814  33.748  29.420  1.00  0.00    -0.203 F 
ATOM    130  F   UNL A   1      33.514  30.718  27.969  1.00  0.00    -0.200 F 
ATOM    131  C   UNL A   1      34.557  32.830  28.132  1.00  0.00     0.200 A 
ATOM    132  F   UNL A   1      35.642  34.920  28.308  1.00  0.00    -0.200 F 
ATOM    133  F   UNL A   1      33.490  33.417  27.572  1.00  0.00    -0.200 F 
ENDBRANCH  99 123
ENDBRANCH  64  67
ENDBRANCH  54  57
ENDBRANCH  50  53
ENDBRANCH  47  50
ENDBRANCH  44  47
ENDBRANCH  41  44
ENDBRANCH   1  41
TORSDOF 18
ENDMDL
MODEL 10
REMARK VINA RESULT:     -11.4      6.657     12.093
REMARK SMILES NS(=O)(=O)c1ccc(/N=C/c2ccc(O)c(C(=O)NCCCCCCNC(=O)c3ccc(-c4c5nc(c(-c6c(F)c(F)c(F)c(F)c6F)c6ccc([nH]6)c(-c6c(F)c(F)c(F)c(F)c6F)c6nc(c(-c7c(F)c(F)c(F)c(F)c7F)c7ccc4[nH]7)C=C6)C=C5)cc3)c2)cc1
REMARK SMILES IDX 21 1 20 4 19 7 17 8 18 9 16 11 11 12 12 13 92 14 13 15 14 18
REMARK SMILES IDX 10 20 9 21 8 23 5 24 6 25 94 26 7 27 93 29 2 33 3 34 4 35
REMARK SMILES IDX 1 36 15 39 22 41 23 44 24 47 25 50 26 53 27 54 28 56 29 57
REMARK SMILES IDX 30 58 91 59 31 60 90 62 32 64 33 67 34 68 84 69 35 70 89 71
REMARK SMILES IDX 83 72 85 73 36 74 88 75 82 77 81 79 37 81 69 84 49 85 68 86
REMARK SMILES IDX 50 87 53 88 67 89 86 90 51 91 52 93 66 95 87 96 54 99 38 101
REMARK SMILES IDX 39 102 47 103 40 104 41 105 45 106 48 107 42 108 43 109
REMARK SMILES IDX 46 110 44 111 70 112 71 113 79 114 72 115 73 116 77 117
REMARK SMILES IDX 80 118 74 119 75 120 78 121 76 122 55 123 56 124 64 125
REMARK SMILES IDX 57 126 58 127 62 128 65 129 59 130 60 131 63 132 61 133
REMARK H PARENT 21 2 21 3 20 5 20 6 19 10 12 16 92 17 13 19 10 22 6 28 94 30
REMARK H PARENT 7 31 93 32 1 37 1 38 15 40 22 42 22 43 23 45 23 46 24 48 24 49
REMARK H PARENT 25 51 25 52 26 55 30 61 91 63 31 65 90 66 89 76 83 78 85 80
REMARK H PARENT 88 82 82 83 50 92 53 94 86 97 51 98 87 100
REMARK Flexibility Score: inf
ROOT
ATOM      1  C   UNL A   1      45.353  34.975  33.094  1.00  0.00    -0.036 C 
ATOM      2  H   UNL A   1      45.927  34.518  32.314  1.00  0.00     0.028 H 
ATOM      3  H   UNL A   1      45.906  35.633  33.733  1.00  0.00     0.028 H 
ENDROOT
BRANCH   1   4
ATOM      4  C   UNL A   1      44.850  33.864  34.008  1.00  0.00     0.018 C 
ATOM      5  H   UNL A   1      44.140  33.278  33.462  1.00  0.00     0.049 H 
ATOM      6  H   UNL A   1      45.712  33.305  34.309  1.00  0.00     0.049 H 
BRANCH   4   7
ATOM      7  N   UNL A   1      44.212  34.330  35.229  1.00  0.00    -0.352 N 
ATOM      8  C   UNL A   1      42.917  34.178  35.674  1.00  0.00     0.255 C 
ATOM      9  O   UNL A   1      42.572  34.733  36.719  1.00  0.00    -0.269 OA
ATOM     10  H   UNL A   1      44.800  34.836  35.835  1.00  0.00     0.163 HD
BRANCH   8  11
ATOM     11  C   UNL A   1      41.886  33.435  34.905  1.00  0.00     0.082 A 
ATOM     12  C   UNL A   1      39.753  33.362  33.757  1.00  0.00    -0.006 A 
ATOM     13  C   UNL A   1      39.792  31.969  33.721  1.00  0.00    -0.050 A 
ATOM     14  C   UNL A   1      40.832  34.089  34.270  1.00  0.00    -0.037 A 
ATOM     15  C   UNL A   1      40.909  31.307  34.237  1.00  0.00    -0.019 A 
ATOM     16  H   UNL A   1      39.007  31.434  33.318  1.00  0.00     0.063 H 
ATOM     17  H   UNL A   1      40.849  35.117  34.175  1.00  0.00     0.064 H 
ATOM     18  C   UNL A   1      41.940  32.035  34.836  1.00  0.00     0.128 A 
ATOM     19  H   UNL A   1      40.972  30.279  34.176  1.00  0.00     0.066 H 
BRANCH  12  20
ATOM     20  C   UNL A   1      38.514  34.089  33.407  1.00  0.00     0.035 C 
ATOM     21  N   UNL A   1      37.389  33.449  33.384  1.00  0.00    -0.256 NA
ATOM     22  H   UNL A   1      38.547  35.097  33.183  1.00  0.00     0.085 H 
BRANCH  21  23
ATOM     23  C   UNL A   1      36.220  34.076  32.942  1.00  0.00     0.063 A 
ATOM     24  C   UNL A   1      34.047  35.478  31.866  1.00  0.00     0.082 A 
ATOM     25  C   UNL A   1      34.768  34.596  31.059  1.00  0.00    -0.040 A 
ATOM     26  C   UNL A   1      34.397  35.664  33.205  1.00  0.00    -0.040 A 
ATOM     27  C   UNL A   1      35.855  33.907  31.602  1.00  0.00    -0.035 A 
ATOM     28  H   UNL A   1      34.501  34.454  30.073  1.00  0.00     0.064 H 
ATOM     29  C   UNL A   1      35.488  34.969  33.736  1.00  0.00    -0.035 A 
ATOM     30  H   UNL A   1      33.856  36.312  33.799  1.00  0.00     0.064 H 
ATOM     31  H   UNL A   1      36.398  33.263  31.005  1.00  0.00     0.065 H 
ATOM     32  H   UNL A   1      35.757  35.114  34.722  1.00  0.00     0.065 H 
BRANCH  24  33
ATOM     33  S   UNL A   1      32.687  36.363  31.165  1.00  0.00     0.238 S 
ATOM     34  O   UNL A   1      31.638  36.473  32.156  1.00  0.00    -0.207 OA
ATOM     35  O   UNL A   1      32.465  35.870  29.831  1.00  0.00    -0.207 OA
BRANCH  33  36
ATOM     36  N   UNL A   1      33.275  37.930  30.996  1.00  0.00    -0.225 NA
ATOM     37  H   UNL A   1      33.952  38.121  31.735  1.00  0.00     0.137 HD
ATOM     38  H   UNL A   1      32.502  38.592  31.063  1.00  0.00     0.137 HD
ENDBRANCH  33  36
ENDBRANCH  24  33
ENDBRANCH  21  23
ENDBRANCH  12  20
BRANCH  18  39
ATOM     39  O   UNL A   1      42.977  31.305  35.354  1.00  0.00    -0.507 OA
ATOM     40  H   UNL A   1      43.861  31.536  35.149  1.00  0.00     0.293 HD
ENDBRANCH  18  39
ENDBRANCH   8  11
ENDBRANCH   4   7
ENDBRANCH   1   4
BRANCH   1  41
ATOM     41  C   UNL A   1      44.297  35.860  32.432  1.00  0.00    -0.052 C 
ATOM     42  H   UNL A   1      43.486  35.965  33.122  1.00  0.00     0.027 H 
ATOM     43  H   UNL A   1      44.048  35.361  31.518  1.00  0.00     0.027 H 
BRANCH  41  44
ATOM     44  C   UNL A   1      44.733  37.266  32.014  1.00  0.00    -0.052 C 
ATOM     45  H   UNL A   1      45.688  37.181  31.539  1.00  0.00     0.027 H 
ATOM     46  H   UNL A   1      44.733  37.840  32.917  1.00  0.00     0.027 H 
BRANCH  44  47
ATOM     47  C   UNL A   1      43.804  38.019  31.060  1.00  0.00    -0.036 C 
ATOM     48  H   UNL A   1      44.014  39.064  31.157  1.00  0.00     0.028 H 
ATOM     49  H   UNL A   1      42.812  37.741  31.348  1.00  0.00     0.028 H 
BRANCH  47  50
ATOM     50  C   UNL A   1      43.920  37.655  29.585  1.00  0.00     0.018 C 
ATOM     51  H   UNL A   1      43.202  38.228  29.036  1.00  0.00     0.049 H 
ATOM     52  H   UNL A   1      43.744  36.603  29.503  1.00  0.00     0.049 H 
BRANCH  50  53
ATOM     53  N   UNL A   1      45.238  37.916  29.030  1.00  0.00    -0.352 N 
ATOM     54  C   UNL A   1      46.162  37.025  28.538  1.00  0.00     0.251 C 
ATOM     55  H   UNL A   1      45.506  38.862  29.003  1.00  0.00     0.163 HD
ATOM     56  O   UNL A   1      47.280  37.408  28.204  1.00  0.00    -0.269 OA
BRANCH  54  57
ATOM     57  C   UNL A   1      45.820  35.589  28.440  1.00  0.00     0.039 A 
ATOM     58  C   UNL A   1      46.211  34.728  29.470  1.00  0.00    -0.049 A 
ATOM     59  C   UNL A   1      45.111  35.094  27.344  1.00  0.00    -0.049 A 
ATOM     60  C   UNL A   1      45.825  33.385  29.439  1.00  0.00    -0.053 A 
ATOM     61  H   UNL A   1      46.783  35.084  30.253  1.00  0.00     0.063 H 
ATOM     62  C   UNL A   1      44.673  33.772  27.345  1.00  0.00    -0.053 A 
ATOM     63  H   UNL A   1      44.910  35.706  26.536  1.00  0.00     0.063 H 
ATOM     64  C   UNL A   1      45.021  32.906  28.394  1.00  0.00    -0.014 A 
ATOM     65  H   UNL A   1      46.132  32.744  30.188  1.00  0.00     0.063 H 
ATOM     66  H   UNL A   1      44.088  33.426  26.567  1.00  0.00     0.063 H 
BRANCH  64  67
ATOM     67  C   UNL A   1      44.530  31.506  28.355  1.00  0.00     0.031 A 
ATOM     68  C   UNL A   1      45.310  30.465  27.605  1.00  0.00     0.074 A 
ATOM     69  C   UNL A   1      43.338  31.196  28.901  1.00  0.00     0.049 A 
ATOM     70  N   UNL A   1      44.975  29.240  27.291  1.00  0.00    -0.248 NA
ATOM     71  C   UNL A   1      46.639  30.869  27.121  1.00  0.00    -0.034 C 
ATOM     72  C   UNL A   1      42.479  32.121  29.640  1.00  0.00    -0.036 A 
ATOM     73  N   UNL A   1      42.629  30.019  28.890  1.00  0.00    -0.354 N 
ATOM     74  C   UNL A   1      46.033  28.740  26.544  1.00  0.00     0.074 A 
ATOM     75  C   UNL A   1      47.009  29.802  26.427  1.00  0.00    -0.034 C 
ATOM     76  H   UNL A   1      47.150  31.752  27.279  1.00  0.00     0.065 H 
ATOM     77  C   UNL A   1      41.360  31.479  30.010  1.00  0.00    -0.036 A 
ATOM     78  H   UNL A   1      42.699  33.108  29.845  1.00  0.00     0.065 H 
ATOM     79  C   UNL A   1      41.398  30.114  29.492  1.00  0.00     0.049 A 
ATOM     80  H   UNL A   1      42.971  29.188  28.488  1.00  0.00     0.167 HD
ATOM     81  C   UNL A   1      46.179  27.502  26.014  1.00  0.00     0.037 A 
ATOM     82  H   UNL A   1      47.880  29.736  25.878  1.00  0.00     0.065 H 
ATOM     83  H   UNL A   1      40.594  31.885  30.572  1.00  0.00     0.065 H 
ATOM     84  C   UNL A   1      40.404  29.210  29.592  1.00  0.00     0.037 A 
ATOM     85  C   UNL A   1      45.219  26.441  26.161  1.00  0.00     0.049 A 
ATOM     86  C   UNL A   1      40.586  27.846  28.981  1.00  0.00     0.074 A 
ATOM     87  C   UNL A   1      45.301  25.135  25.711  1.00  0.00    -0.036 A 
ATOM     88  N   UNL A   1      43.999  26.567  26.809  1.00  0.00    -0.354 N 
ATOM     89  N   UNL A   1      41.613  27.363  28.324  1.00  0.00    -0.248 NA
ATOM     90  C   UNL A   1      39.472  26.897  29.127  1.00  0.00    -0.034 C 
ATOM     91  C   UNL A   1      44.116  24.479  26.056  1.00  0.00    -0.036 A 
ATOM     92  H   UNL A   1      46.100  24.717  25.207  1.00  0.00     0.065 H 
ATOM     93  C   UNL A   1      43.315  25.363  26.762  1.00  0.00     0.049 A 
ATOM     94  H   UNL A   1      43.670  27.388  27.240  1.00  0.00     0.167 HD
ATOM     95  C   UNL A   1      41.287  26.050  28.014  1.00  0.00     0.074 A 
ATOM     96  C   UNL A   1      39.967  25.807  28.556  1.00  0.00    -0.034 C 
ATOM     97  H   UNL A   1      38.548  27.041  29.561  1.00  0.00     0.065 H 
ATOM     98  H   UNL A   1      43.879  23.501  25.826  1.00  0.00     0.065 H 
ATOM     99  C   UNL A   1      42.017  25.128  27.341  1.00  0.00     0.037 A 
ATOM    100  H   UNL A   1      39.474  24.901  28.506  1.00  0.00     0.065 H 
BRANCH  81 101
ATOM    101  C   UNL A   1      47.424  27.230  25.223  1.00  0.00     0.064 A 
ATOM    102  C   UNL A   1      47.531  27.594  23.872  1.00  0.00     0.173 A 
ATOM    103  C   UNL A   1      48.537  26.632  25.832  1.00  0.00     0.173 A 
ATOM    104  F   UNL A   1      46.490  28.160  23.241  1.00  0.00    -0.203 F 
ATOM    105  C   UNL A   1      48.695  27.342  23.152  1.00  0.00     0.198 A 
ATOM    106  C   UNL A   1      49.711  26.407  25.117  1.00  0.00     0.198 A 
ATOM    107  F   UNL A   1      48.491  26.271  27.123  1.00  0.00    -0.203 F 
ATOM    108  F   UNL A   1      48.758  27.656  21.852  1.00  0.00    -0.200 F 
ATOM    109  C   UNL A   1      49.787  26.756  23.777  1.00  0.00     0.200 A 
ATOM    110  F   UNL A   1      50.769  25.853  25.725  1.00  0.00    -0.200 F 
ATOM    111  F   UNL A   1      50.909  26.520  23.085  1.00  0.00    -0.200 F 
ENDBRANCH  81 101
BRANCH  84 112
ATOM    112  C   UNL A   1      39.151  29.561  30.313  1.00  0.00     0.064 A 
ATOM    113  C   UNL A   1      38.990  29.240  31.668  1.00  0.00     0.173 A 
ATOM    114  C   UNL A   1      38.094  30.222  29.671  1.00  0.00     0.173 A 
ATOM    115  F   UNL A   1      39.969  28.598  32.324  1.00  0.00    -0.203 F 
ATOM    116  C   UNL A   1      37.812  29.542  32.345  1.00  0.00     0.198 A 
ATOM    117  C   UNL A   1      36.924  30.544  30.354  1.00  0.00     0.198 A 
ATOM    118  F   UNL A   1      38.209  30.584  28.386  1.00  0.00    -0.203 F 
ATOM    119  F   UNL A   1      37.670  29.189  33.629  1.00  0.00    -0.200 F 
ATOM    120  C   UNL A   1      36.779  30.196  31.689  1.00  0.00     0.200 A 
ATOM    121  F   UNL A   1      35.937  31.195  29.723  1.00  0.00    -0.200 F 
ATOM    122  F   UNL A   1      35.648  30.490  32.342  1.00  0.00    -0.200 F 
ENDBRANCH  84 112
BRANCH  99 123
ATOM    123  C   UNL A   1      41.446  23.748  27.207  1.00  0.00     0.064 A 
ATOM    124  C   UNL A   1      40.320  23.489  26.413  1.00  0.00     0.173 A 
ATOM    125  C   UNL A   1      42.083  22.661  27.824  1.00  0.00     0.173 A 
ATOM    126  F   UNL A   1      39.668  24.498  25.815  1.00  0.00    -0.203 F 
ATOM    127  C   UNL A   1      39.848  22.190  26.249  1.00  0.00     0.198 A 
ATOM    128  C   UNL A   1      41.623  21.361  27.636  1.00  0.00     0.198 A 
ATOM    129  F   UNL A   1      43.168  22.857  28.588  1.00  0.00    -0.203 F 
ATOM    130  F   UNL A   1      38.754  21.967  25.507  1.00  0.00    -0.200 F 
ATOM    131  C   UNL A   1      40.504  21.126  26.851  1.00  0.00     0.200 A 
ATOM    132  F   UNL A   1      42.267  20.333  28.208  1.00  0.00    -0.200 F 
ATOM    133  F   UNL A   1      40.058  19.875  26.677  1.00  0.00    -0.200 F 
ENDBRANCH  99 123
ENDBRANCH  64  67
ENDBRANCH  54  57
ENDBRANCH  50  53
ENDBRANCH  47  50
ENDBRANCH  44  47
ENDBRANCH  41  44
ENDBRANCH   1  41
TORSDOF 18
ENDMDL
