MODEL 1
REMARK VINA RESULT:     -10.6      0.000      0.000
REMARK SMILES CCOc1cccc(OCC)c1-c1ccc([C@@H](C)C(=O)NCCCCCCNC(=O)c2ccc(-c3c4nc(c(-c5c(F)c(F)c(F)c(F)c5F)c5ccc([nH]5)c(-c5c(F)c(F)c(F)c(F)c5F)c5nc(c(-c6c(F)c(F)c(F)c(F)c6F)c6ccc3[nH]6)C=C5)C=C4)cc2)cc1F
REMARK SMILES IDX 23 1 22 4 21 7 19 8 20 9 17 11 16 13 13 14 14 15 95 16 15 17
REMARK SMILES IDX 94 19 96 20 12 23 4 24 5 25 6 26 8 28 7 29 3 32 2 33 1 36
REMARK SMILES IDX 9 40 10 41 11 44 18 48 24 52 25 55 26 58 27 61 28 64 29 65
REMARK SMILES IDX 30 67 31 68 32 69 93 70 33 71 92 73 34 75 35 78 36 79 86 80
REMARK SMILES IDX 37 81 91 82 85 83 87 84 38 85 90 86 84 88 83 90 39 92 71 95
REMARK SMILES IDX 51 96 70 97 52 98 55 99 69 100 88 101 53 102 54 104 68 106
REMARK SMILES IDX 89 107 56 110 40 112 41 113 49 114 42 115 43 116 47 117
REMARK SMILES IDX 50 118 44 119 45 120 48 121 46 122 72 123 73 124 81 125
REMARK SMILES IDX 74 126 75 127 79 128 82 129 76 130 77 131 80 132 78 133
REMARK SMILES IDX 57 134 58 135 66 136 59 137 60 138 64 139 67 140 61 141
REMARK SMILES IDX 62 142 65 143 63 144
REMARK H PARENT 23 2 23 3 22 5 22 6 21 10 17 12 14 18 15 21 94 22 5 27 6 30
REMARK H PARENT 7 31 2 34 2 35 1 37 1 38 1 39 10 42 10 43 11 45 11 46 11 47
REMARK H PARENT 18 49 18 50 18 51 24 53 24 54 25 56 25 57 26 59 26 60 27 62
REMARK H PARENT 27 63 28 66 32 72 93 74 33 76 92 77 91 87 85 89 87 91 90 93
REMARK H PARENT 84 94 52 103 55 105 88 108 53 109 89 111
REMARK Flexibility Score: inf
ROOT
ATOM      1  C   UNL A   1      39.520  22.836  26.958  1.00  0.00    -0.036 C 
ATOM      2  H   UNL A   1      38.932  22.169  27.553  1.00  0.00     0.028 H 
ATOM      3  H   UNL A   1      40.126  23.506  27.531  1.00  0.00     0.028 H 
ENDROOT
BRANCH   1   4
ATOM      4  C   UNL A   1      38.556  23.726  26.147  1.00  0.00     0.017 C 
ATOM      5  H   UNL A   1      37.926  24.262  26.825  1.00  0.00     0.049 H 
ATOM      6  H   UNL A   1      39.139  24.400  25.555  1.00  0.00     0.049 H 
BRANCH   4   7
ATOM      7  N   UNL A   1      37.725  22.932  25.252  1.00  0.00    -0.356 N 
ATOM      8  C   UNL A   1      36.423  22.532  25.251  1.00  0.00     0.227 C 
ATOM      9  O   UNL A   1      36.113  21.762  24.330  1.00  0.00    -0.274 OA
ATOM     10  H   UNL A   1      38.220  22.609  24.465  1.00  0.00     0.163 HD
BRANCH   8  11
ATOM     11  C   UNL A   1      35.339  22.952  26.271  1.00  0.00     0.060 C 
ATOM     12  H   UNL A   1      35.905  23.426  27.046  1.00  0.00     0.045 H 
BRANCH  11  13
ATOM     13  C   UNL A   1      34.382  24.020  25.770  1.00  0.00    -0.033 A 
ATOM     14  C   UNL A   1      32.712  26.125  24.830  1.00  0.00     0.025 A 
ATOM     15  C   UNL A   1      34.029  25.994  24.402  1.00  0.00    -0.051 A 
ATOM     16  C   UNL A   1      32.247  25.195  25.769  1.00  0.00     0.131 A 
ATOM     17  C   UNL A   1      34.790  24.905  24.784  1.00  0.00    -0.057 A 
ATOM     18  H   UNL A   1      34.441  26.716  23.792  1.00  0.00     0.063 H 
ATOM     19  C   UNL A   1      33.076  24.171  26.258  1.00  0.00    -0.022 A 
ATOM     20  F   UNL A   1      30.993  25.278  26.239  1.00  0.00    -0.206 F 
ATOM     21  H   UNL A   1      35.697  24.745  24.318  1.00  0.00     0.063 H 
ATOM     22  H   UNL A   1      32.722  23.526  26.982  1.00  0.00     0.066 H 
BRANCH  14  23
ATOM     23  C   UNL A   1      31.957  27.277  24.327  1.00  0.00     0.069 A 
ATOM     24  C   UNL A   1      31.064  27.041  23.247  1.00  0.00     0.130 A 
ATOM     25  C   UNL A   1      30.184  28.018  22.780  1.00  0.00    -0.019 A 
ATOM     26  C   UNL A   1      30.154  29.259  23.398  1.00  0.00    -0.055 A 
ATOM     27  H   UNL A   1      29.560  27.820  21.983  1.00  0.00     0.066 H 
ATOM     28  C   UNL A   1      31.929  28.552  24.939  1.00  0.00     0.130 A 
ATOM     29  C   UNL A   1      31.027  29.520  24.454  1.00  0.00    -0.019 A 
ATOM     30  H   UNL A   1      29.492  29.983  23.081  1.00  0.00     0.063 H 
ATOM     31  H   UNL A   1      31.011  30.453  24.895  1.00  0.00     0.066 H 
BRANCH  24  32
ATOM     32  O   UNL A   1      31.112  25.836  22.584  1.00  0.00    -0.493 OA
BRANCH  32  33
ATOM     33  C   UNL A   1      31.543  25.953  21.224  1.00  0.00     0.085 C 
ATOM     34  H   UNL A   1      30.837  25.471  20.580  1.00  0.00     0.070 H 
ATOM     35  H   UNL A   1      31.614  26.986  20.954  1.00  0.00     0.070 H 
BRANCH  33  36
ATOM     36  C   UNL A   1      32.903  25.288  21.079  1.00  0.00    -0.031 C 
ATOM     37  H   UNL A   1      32.906  24.666  20.208  1.00  0.00     0.027 H 
ATOM     38  H   UNL A   1      33.101  24.689  21.944  1.00  0.00     0.027 H 
ATOM     39  H   UNL A   1      33.659  26.039  20.984  1.00  0.00     0.027 H 
ENDBRANCH  33  36
ENDBRANCH  32  33
ENDBRANCH  24  32
BRANCH  28  40
ATOM     40  O   UNL A   1      32.662  29.083  25.967  1.00  0.00    -0.493 OA
BRANCH  40  41
ATOM     41  C   UNL A   1      32.153  29.406  27.252  1.00  0.00     0.085 C 
ATOM     42  H   UNL A   1      31.457  30.214  27.161  1.00  0.00     0.070 H 
ATOM     43  H   UNL A   1      32.967  29.689  27.885  1.00  0.00     0.070 H 
BRANCH  41  44
ATOM     44  C   UNL A   1      31.447  28.204  27.867  1.00  0.00    -0.031 C 
ATOM     45  H   UNL A   1      31.517  28.257  28.934  1.00  0.00     0.027 H 
ATOM     46  H   UNL A   1      31.910  27.304  27.523  1.00  0.00     0.027 H 
ATOM     47  H   UNL A   1      30.417  28.209  27.576  1.00  0.00     0.027 H 
ENDBRANCH  41  44
ENDBRANCH  40  41
ENDBRANCH  28  40
ENDBRANCH  14  23
ENDBRANCH  11  13
BRANCH  11  48
ATOM     48  C   UNL A   1      34.629  21.789  26.957  1.00  0.00    -0.049 C 
ATOM     49  H   UNL A   1      33.620  22.066  27.176  1.00  0.00     0.024 H 
ATOM     50  H   UNL A   1      35.138  21.547  27.867  1.00  0.00     0.024 H 
ATOM     51  H   UNL A   1      34.633  20.938  26.309  1.00  0.00     0.024 H 
ENDBRANCH  11  48
ENDBRANCH   8  11
ENDBRANCH   4   7
ENDBRANCH   1   4
BRANCH   1  52
ATOM     52  C   UNL A   1      40.494  21.995  26.135  1.00  0.00    -0.052 C 
ATOM     53  H   UNL A   1      41.259  22.643  25.761  1.00  0.00     0.027 H 
ATOM     54  H   UNL A   1      39.914  21.535  25.363  1.00  0.00     0.027 H 
BRANCH  52  55
ATOM     55  C   UNL A   1      41.168  20.854  26.902  1.00  0.00    -0.052 C 
ATOM     56  H   UNL A   1      40.552  20.617  27.744  1.00  0.00     0.027 H 
ATOM     57  H   UNL A   1      42.142  21.216  27.162  1.00  0.00     0.027 H 
BRANCH  55  58
ATOM     58  C   UNL A   1      41.401  19.561  26.112  1.00  0.00    -0.036 C 
ATOM     59  H   UNL A   1      41.481  19.817  25.076  1.00  0.00     0.028 H 
ATOM     60  H   UNL A   1      40.571  18.925  26.335  1.00  0.00     0.028 H 
BRANCH  58  61
ATOM     61  C   UNL A   1      42.652  18.774  26.501  1.00  0.00     0.018 C 
ATOM     62  H   UNL A   1      42.354  17.825  26.896  1.00  0.00     0.049 H 
ATOM     63  H   UNL A   1      43.188  19.346  27.229  1.00  0.00     0.049 H 
BRANCH  61  64
ATOM     64  N   UNL A   1      43.535  18.554  25.365  1.00  0.00    -0.352 N 
ATOM     65  C   UNL A   1      44.211  19.457  24.587  1.00  0.00     0.251 C 
ATOM     66  H   UNL A   1      43.666  17.610  25.118  1.00  0.00     0.163 HD
ATOM     67  O   UNL A   1      44.720  19.092  23.526  1.00  0.00    -0.269 OA
BRANCH  65  68
ATOM     68  C   UNL A   1      44.331  20.870  25.002  1.00  0.00     0.039 A 
ATOM     69  C   UNL A   1      45.001  21.172  26.192  1.00  0.00    -0.049 A 
ATOM     70  C   UNL A   1      43.745  21.893  24.250  1.00  0.00    -0.049 A 
ATOM     71  C   UNL A   1      45.135  22.502  26.595  1.00  0.00    -0.053 A 
ATOM     72  H   UNL A   1      45.395  20.414  26.770  1.00  0.00     0.063 H 
ATOM     73  C   UNL A   1      43.936  23.223  24.621  1.00  0.00    -0.053 A 
ATOM     74  H   UNL A   1      43.174  21.663  23.422  1.00  0.00     0.063 H 
ATOM     75  C   UNL A   1      44.631  23.541  25.797  1.00  0.00    -0.014 A 
ATOM     76  H   UNL A   1      45.608  22.722  27.486  1.00  0.00     0.063 H 
ATOM     77  H   UNL A   1      43.563  23.979  24.024  1.00  0.00     0.063 H 
BRANCH  75  78
ATOM     78  C   UNL A   1      44.822  24.966  26.175  1.00  0.00     0.031 A 
ATOM     79  C   UNL A   1      46.178  25.605  26.061  1.00  0.00     0.074 A 
ATOM     80  C   UNL A   1      43.787  25.664  26.682  1.00  0.00     0.049 A 
ATOM     81  N   UNL A   1      46.562  26.804  26.419  1.00  0.00    -0.248 NA
ATOM     82  C   UNL A   1      47.253  24.777  25.490  1.00  0.00    -0.034 C 
ATOM     83  C   UNL A   1      42.434  25.143  26.882  1.00  0.00    -0.036 A 
ATOM     84  N   UNL A   1      43.716  26.957  27.136  1.00  0.00    -0.354 N 
ATOM     85  C   UNL A   1      47.918  26.872  26.126  1.00  0.00     0.074 A 
ATOM     86  C   UNL A   1      48.304  25.576  25.611  1.00  0.00    -0.034 C 
ATOM     87  H   UNL A   1      47.202  23.824  25.098  1.00  0.00     0.065 H 
ATOM     88  C   UNL A   1      41.665  26.108  27.409  1.00  0.00    -0.036 A 
ATOM     89  H   UNL A   1      42.123  24.185  26.656  1.00  0.00     0.065 H 
ATOM     90  C   UNL A   1      42.476  27.304  27.617  1.00  0.00     0.049 A 
ATOM     91  H   UNL A   1      44.479  27.578  27.118  1.00  0.00     0.167 HD
ATOM     92  C   UNL A   1      48.758  27.926  26.252  1.00  0.00     0.037 A 
ATOM     93  H   UNL A   1      49.270  25.309  25.368  1.00  0.00     0.065 H 
ATOM     94  H   UNL A   1      40.661  26.020  27.630  1.00  0.00     0.065 H 
ATOM     95  C   UNL A   1      42.047  28.451  28.176  1.00  0.00     0.037 A 
ATOM     96  C   UNL A   1      48.368  29.221  26.749  1.00  0.00     0.049 A 
ATOM     97  C   UNL A   1      43.004  29.604  28.313  1.00  0.00     0.074 A 
ATOM     98  C   UNL A   1      49.136  30.364  26.877  1.00  0.00    -0.036 A 
ATOM     99  N   UNL A   1      47.096  29.541  27.202  1.00  0.00    -0.354 N 
ATOM    100  N   UNL A   1      44.269  29.674  27.977  1.00  0.00    -0.248 NA
ATOM    101  C   UNL A   1      42.471  30.843  28.899  1.00  0.00    -0.034 C 
ATOM    102  C   UNL A   1      48.340  31.366  27.444  1.00  0.00    -0.036 A 
ATOM    103  H   UNL A   1      50.126  30.463  26.600  1.00  0.00     0.065 H 
ATOM    104  C   UNL A   1      47.063  30.860  27.623  1.00  0.00     0.049 A 
ATOM    105  H   UNL A   1      46.331  28.923  27.220  1.00  0.00     0.167 HD
ATOM    106  C   UNL A   1      44.675  30.965  28.285  1.00  0.00     0.074 A 
ATOM    107  C   UNL A   1      43.517  31.651  28.818  1.00  0.00    -0.034 C 
ATOM    108  H   UNL A   1      41.528  31.032  29.275  1.00  0.00     0.065 H 
ATOM    109  H   UNL A   1      48.652  32.319  27.686  1.00  0.00     0.065 H 
ATOM    110  C   UNL A   1      45.899  31.531  28.142  1.00  0.00     0.037 A 
ATOM    111  H   UNL A   1      43.508  32.645  29.099  1.00  0.00     0.065 H 
BRANCH  92 112
ATOM    112  C   UNL A   1      50.187  27.732  25.834  1.00  0.00     0.064 A 
ATOM    113  C   UNL A   1      51.201  27.504  26.778  1.00  0.00     0.173 A 
ATOM    114  C   UNL A   1      50.541  27.724  24.476  1.00  0.00     0.173 A 
ATOM    115  F   UNL A   1      50.917  27.512  28.088  1.00  0.00    -0.203 F 
ATOM    116  C   UNL A   1      52.520  27.302  26.378  1.00  0.00     0.198 A 
ATOM    117  C   UNL A   1      51.856  27.491  24.080  1.00  0.00     0.198 A 
ATOM    118  F   UNL A   1      49.610  27.930  23.532  1.00  0.00    -0.203 F 
ATOM    119  F   UNL A   1      53.478  27.130  27.300  1.00  0.00    -0.200 F 
ATOM    120  C   UNL A   1      52.845  27.287  25.030  1.00  0.00     0.200 A 
ATOM    121  F   UNL A   1      52.166  27.464  22.776  1.00  0.00    -0.200 F 
ATOM    122  F   UNL A   1      54.112  27.081  24.648  1.00  0.00    -0.200 F 
ENDBRANCH  92 112
BRANCH  95 123
ATOM    123  C   UNL A   1      40.640  28.571  28.640  1.00  0.00     0.064 A 
ATOM    124  C   UNL A   1      39.628  29.008  27.773  1.00  0.00     0.173 A 
ATOM    125  C   UNL A   1      40.280  28.268  29.962  1.00  0.00     0.173 A 
ATOM    126  F   UNL A   1      39.926  29.328  26.505  1.00  0.00    -0.203 F 
ATOM    127  C   UNL A   1      38.316  29.160  28.216  1.00  0.00     0.198 A 
ATOM    128  C   UNL A   1      38.962  28.392  30.395  1.00  0.00     0.198 A 
ATOM    129  F   UNL A   1      41.208  27.840  30.830  1.00  0.00    -0.203 F 
ATOM    130  F   UNL A   1      37.379  29.627  27.380  1.00  0.00    -0.200 F 
ATOM    131  C   UNL A   1      37.983  28.847  29.525  1.00  0.00     0.200 A 
ATOM    132  F   UNL A   1      38.642  28.074  31.657  1.00  0.00    -0.200 F 
ATOM    133  F   UNL A   1      36.720  28.994  29.951  1.00  0.00    -0.200 F 
ENDBRANCH  95 123
BRANCH 110 134
ATOM    134  C   UNL A   1      46.040  32.973  28.534  1.00  0.00     0.064 A 
ATOM    135  C   UNL A   1      46.421  33.349  29.831  1.00  0.00     0.173 A 
ATOM    136  C   UNL A   1      45.826  33.990  27.591  1.00  0.00     0.173 A 
ATOM    137  F   UNL A   1      46.621  32.416  30.774  1.00  0.00    -0.203 F 
ATOM    138  C   UNL A   1      46.560  34.691  30.174  1.00  0.00     0.198 A 
ATOM    139  C   UNL A   1      45.996  35.329  27.930  1.00  0.00     0.198 A 
ATOM    140  F   UNL A   1      45.466  33.682  26.336  1.00  0.00    -0.203 F 
ATOM    141  F   UNL A   1      46.878  35.029  31.432  1.00  0.00    -0.200 F 
ATOM    142  C   UNL A   1      46.355  35.679  29.223  1.00  0.00     0.200 A 
ATOM    143  F   UNL A   1      45.810  36.281  27.005  1.00  0.00    -0.200 F 
ATOM    144  F   UNL A   1      46.496  36.969  29.553  1.00  0.00    -0.200 F 
ENDBRANCH 110 134
ENDBRANCH  75  78
ENDBRANCH  65  68
ENDBRANCH  61  64
ENDBRANCH  58  61
ENDBRANCH  55  58
ENDBRANCH  52  55
ENDBRANCH   1  52
TORSDOF 22
ENDMDL
MODEL 2
REMARK VINA RESULT:     -10.3      1.690      7.520
REMARK SMILES CCOc1cccc(OCC)c1-c1ccc([C@@H](C)C(=O)NCCCCCCNC(=O)c2ccc(-c3c4nc(c(-c5c(F)c(F)c(F)c(F)c5F)c5ccc([nH]5)c(-c5c(F)c(F)c(F)c(F)c5F)c5nc(c(-c6c(F)c(F)c(F)c(F)c6F)c6ccc3[nH]6)C=C5)C=C4)cc2)cc1F
REMARK SMILES IDX 23 1 22 4 21 7 19 8 20 9 17 11 16 13 13 14 14 15 95 16 15 17
REMARK SMILES IDX 94 19 96 20 12 23 4 24 5 25 6 26 8 28 7 29 3 32 2 33 1 36
REMARK SMILES IDX 9 40 10 41 11 44 18 48 24 52 25 55 26 58 27 61 28 64 29 65
REMARK SMILES IDX 30 67 31 68 32 69 93 70 33 71 92 73 34 75 35 78 36 79 86 80
REMARK SMILES IDX 37 81 91 82 85 83 87 84 38 85 90 86 84 88 83 90 39 92 71 95
REMARK SMILES IDX 51 96 70 97 52 98 55 99 69 100 88 101 53 102 54 104 68 106
REMARK SMILES IDX 89 107 56 110 40 112 41 113 49 114 42 115 43 116 47 117
REMARK SMILES IDX 50 118 44 119 45 120 48 121 46 122 72 123 73 124 81 125
REMARK SMILES IDX 74 126 75 127 79 128 82 129 76 130 77 131 80 132 78 133
REMARK SMILES IDX 57 134 58 135 66 136 59 137 60 138 64 139 67 140 61 141
REMARK SMILES IDX 62 142 65 143 63 144
REMARK H PARENT 23 2 23 3 22 5 22 6 21 10 17 12 14 18 15 21 94 22 5 27 6 30
REMARK H PARENT 7 31 2 34 2 35 1 37 1 38 1 39 10 42 10 43 11 45 11 46 11 47
REMARK H PARENT 18 49 18 50 18 51 24 53 24 54 25 56 25 57 26 59 26 60 27 62
REMARK H PARENT 27 63 28 66 32 72 93 74 33 76 92 77 91 87 85 89 87 91 90 93
REMARK H PARENT 84 94 52 103 55 105 88 108 53 109 89 111
REMARK Flexibility Score: inf
ROOT
ATOM      1  C   UNL A   1      36.493  22.886  23.526  1.00  0.00    -0.036 C 
ATOM      2  H   UNL A   1      37.150  23.615  23.101  1.00  0.00     0.028 H 
ATOM      3  H   UNL A   1      36.094  22.194  22.815  1.00  0.00     0.028 H 
ENDROOT
BRANCH   1   4
ATOM      4  C   UNL A   1      35.278  23.631  24.117  1.00  0.00     0.017 C 
ATOM      5  H   UNL A   1      35.551  24.044  25.065  1.00  0.00     0.049 H 
ATOM      6  H   UNL A   1      34.991  24.402  23.434  1.00  0.00     0.049 H 
BRANCH   4   7
ATOM      7  N   UNL A   1      34.143  22.735  24.299  1.00  0.00    -0.356 N 
ATOM      8  C   UNL A   1      32.899  22.638  23.754  1.00  0.00     0.227 C 
ATOM      9  O   UNL A   1      32.173  21.769  24.259  1.00  0.00    -0.274 OA
ATOM     10  H   UNL A   1      34.315  22.039  24.973  1.00  0.00     0.163 HD
BRANCH   8  11
ATOM     11  C   UNL A   1      32.342  23.494  22.592  1.00  0.00     0.060 C 
ATOM     12  H   UNL A   1      31.442  22.983  22.323  1.00  0.00     0.045 H 
BRANCH  11  13
ATOM     13  C   UNL A   1      31.900  24.891  22.995  1.00  0.00    -0.033 A 
ATOM     14  C   UNL A   1      31.228  27.550  23.757  1.00  0.00     0.025 A 
ATOM     15  C   UNL A   1      32.308  27.283  22.925  1.00  0.00    -0.051 A 
ATOM     16  C   UNL A   1      30.498  26.452  24.233  1.00  0.00     0.131 A 
ATOM     17  C   UNL A   1      32.555  25.998  22.477  1.00  0.00    -0.057 A 
ATOM     18  H   UNL A   1      32.933  28.052  22.636  1.00  0.00     0.063 H 
ATOM     19  C   UNL A   1      30.843  25.135  23.883  1.00  0.00    -0.022 A 
ATOM     20  F   UNL A   1      29.456  26.640  25.057  1.00  0.00    -0.206 F 
ATOM     21  H   UNL A   1      33.253  25.858  21.730  1.00  0.00     0.063 H 
ATOM     22  H   UNL A   1      30.316  24.344  24.283  1.00  0.00     0.066 H 
BRANCH  14  23
ATOM     23  C   UNL A   1      31.003  28.949  24.133  1.00  0.00     0.069 A 
ATOM     24  C   UNL A   1      29.922  29.622  23.501  1.00  0.00     0.130 A 
ATOM     25  C   UNL A   1      29.515  30.901  23.882  1.00  0.00    -0.019 A 
ATOM     26  C   UNL A   1      30.166  31.539  24.926  1.00  0.00    -0.055 A 
ATOM     27  H   UNL A   1      28.737  31.368  23.391  1.00  0.00     0.066 H 
ATOM     28  C   UNL A   1      31.669  29.617  25.188  1.00  0.00     0.130 A 
ATOM     29  C   UNL A   1      31.235  30.906  25.557  1.00  0.00    -0.019 A 
ATOM     30  H   UNL A   1      29.860  32.475  25.235  1.00  0.00     0.063 H 
ATOM     31  H   UNL A   1      31.726  31.397  26.321  1.00  0.00     0.066 H 
BRANCH  24  32
ATOM     32  O   UNL A   1      29.296  29.030  22.428  1.00  0.00    -0.493 OA
BRANCH  32  33
ATOM     33  C   UNL A   1      27.897  29.324  22.354  1.00  0.00     0.085 C 
ATOM     34  H   UNL A   1      27.731  30.349  22.614  1.00  0.00     0.070 H 
ATOM     35  H   UNL A   1      27.543  29.154  21.358  1.00  0.00     0.070 H 
BRANCH  33  36
ATOM     36  C   UNL A   1      27.152  28.423  23.326  1.00  0.00    -0.031 C 
ATOM     37  H   UNL A   1      26.457  29.007  23.893  1.00  0.00     0.027 H 
ATOM     38  H   UNL A   1      27.852  27.959  23.990  1.00  0.00     0.027 H 
ATOM     39  H   UNL A   1      26.623  27.670  22.781  1.00  0.00     0.027 H 
ENDBRANCH  33  36
ENDBRANCH  32  33
ENDBRANCH  24  32
BRANCH  28  40
ATOM     40  O   UNL A   1      32.735  29.252  25.966  1.00  0.00    -0.493 OA
BRANCH  40  41
ATOM     41  C   UNL A   1      32.781  28.105  26.801  1.00  0.00     0.085 C 
ATOM     42  H   UNL A   1      33.647  28.160  27.426  1.00  0.00     0.070 H 
ATOM     43  H   UNL A   1      32.824  27.230  26.185  1.00  0.00     0.070 H 
BRANCH  41  44
ATOM     44  C   UNL A   1      31.536  28.028  27.676  1.00  0.00    -0.031 C 
ATOM     45  H   UNL A   1      30.665  28.162  27.068  1.00  0.00     0.027 H 
ATOM     46  H   UNL A   1      31.574  28.795  28.419  1.00  0.00     0.027 H 
ATOM     47  H   UNL A   1      31.494  27.070  28.152  1.00  0.00     0.027 H 
ENDBRANCH  41  44
ENDBRANCH  40  41
ENDBRANCH  28  40
ENDBRANCH  14  23
ENDBRANCH  11  13
BRANCH  11  48
ATOM     48  C   UNL A   1      33.197  23.481  21.329  1.00  0.00    -0.049 C 
ATOM     49  H   UNL A   1      32.578  23.276  20.481  1.00  0.00     0.024 H 
ATOM     50  H   UNL A   1      33.947  22.722  21.414  1.00  0.00     0.024 H 
ATOM     51  H   UNL A   1      33.666  24.434  21.206  1.00  0.00     0.024 H 
ENDBRANCH  11  48
ENDBRANCH   8  11
ENDBRANCH   4   7
ENDBRANCH   1   4
BRANCH   1  52
ATOM     52  C   UNL A   1      37.300  22.048  24.516  1.00  0.00    -0.052 C 
ATOM     53  H   UNL A   1      37.237  22.516  25.476  1.00  0.00     0.027 H 
ATOM     54  H   UNL A   1      38.297  22.005  24.130  1.00  0.00     0.027 H 
BRANCH  52  55
ATOM     55  C   UNL A   1      36.834  20.597  24.661  1.00  0.00    -0.052 C 
ATOM     56  H   UNL A   1      36.376  20.306  23.739  1.00  0.00     0.027 H 
ATOM     57  H   UNL A   1      36.168  20.589  25.499  1.00  0.00     0.027 H 
BRANCH  55  58
ATOM     58  C   UNL A   1      37.926  19.572  24.987  1.00  0.00    -0.036 C 
ATOM     59  H   UNL A   1      38.316  19.198  24.063  1.00  0.00     0.028 H 
ATOM     60  H   UNL A   1      37.458  18.823  25.591  1.00  0.00     0.028 H 
BRANCH  58  61
ATOM     61  C   UNL A   1      39.098  20.105  25.812  1.00  0.00     0.018 C 
ATOM     62  H   UNL A   1      38.745  20.353  26.792  1.00  0.00     0.049 H 
ATOM     63  H   UNL A   1      39.488  20.966  25.311  1.00  0.00     0.049 H 
BRANCH  61  64
ATOM     64  N   UNL A   1      40.170  19.130  25.932  1.00  0.00    -0.352 N 
ATOM     65  C   UNL A   1      41.519  19.318  26.088  1.00  0.00     0.251 C 
ATOM     66  H   UNL A   1      39.883  18.189  25.894  1.00  0.00     0.163 HD
ATOM     67  O   UNL A   1      42.293  18.372  25.933  1.00  0.00    -0.269 OA
BRANCH  65  68
ATOM     68  C   UNL A   1      42.060  20.649  26.434  1.00  0.00     0.039 A 
ATOM     69  C   UNL A   1      42.360  21.547  25.404  1.00  0.00    -0.049 A 
ATOM     70  C   UNL A   1      42.316  20.998  27.763  1.00  0.00    -0.049 A 
ATOM     71  C   UNL A   1      42.860  22.814  25.711  1.00  0.00    -0.053 A 
ATOM     72  H   UNL A   1      42.212  21.273  24.421  1.00  0.00     0.063 H 
ATOM     73  C   UNL A   1      42.754  22.285  28.070  1.00  0.00    -0.053 A 
ATOM     74  H   UNL A   1      42.181  20.305  28.514  1.00  0.00     0.063 H 
ATOM     75  C   UNL A   1      43.032  23.205  27.049  1.00  0.00    -0.014 A 
ATOM     76  H   UNL A   1      43.104  23.467  24.950  1.00  0.00     0.063 H 
ATOM     77  H   UNL A   1      42.874  22.563  29.057  1.00  0.00     0.063 H 
BRANCH  75  78
ATOM     78  C   UNL A   1      43.499  24.573  27.397  1.00  0.00     0.031 A 
ATOM     79  C   UNL A   1      42.533  25.589  27.939  1.00  0.00     0.074 A 
ATOM     80  C   UNL A   1      44.782  24.916  27.165  1.00  0.00     0.049 A 
ATOM     81  N   UNL A   1      42.731  26.852  28.221  1.00  0.00    -0.248 NA
ATOM     82  C   UNL A   1      41.154  25.131  28.171  1.00  0.00    -0.034 C 
ATOM     83  C   UNL A   1      45.804  24.032  26.603  1.00  0.00    -0.036 A 
ATOM     84  N   UNL A   1      45.439  26.105  27.358  1.00  0.00    -0.354 N 
ATOM     85  C   UNL A   1      41.505  27.340  28.654  1.00  0.00     0.074 A 
ATOM     86  C   UNL A   1      40.556  26.253  28.547  1.00  0.00    -0.034 C 
ATOM     87  H   UNL A   1      40.756  24.185  28.068  1.00  0.00     0.065 H 
ATOM     88  C   UNL A   1      46.961  24.705  26.506  1.00  0.00    -0.036 A 
ATOM     89  H   UNL A   1      45.658  23.049  26.325  1.00  0.00     0.065 H 
ATOM     90  C   UNL A   1      46.755  26.076  26.964  1.00  0.00     0.049 A 
ATOM     91  H   UNL A   1      45.010  26.903  27.743  1.00  0.00     0.167 HD
ATOM     92  C   UNL A   1      41.205  28.575  29.122  1.00  0.00     0.037 A 
ATOM     93  H   UNL A   1      39.547  26.340  28.740  1.00  0.00     0.065 H 
ATOM     94  H   UNL A   1      47.854  24.316  26.163  1.00  0.00     0.065 H 
ATOM     95  C   UNL A   1      47.686  27.049  26.958  1.00  0.00     0.037 A 
ATOM     96  C   UNL A   1      42.155  29.651  29.244  1.00  0.00     0.049 A 
ATOM     97  C   UNL A   1      47.323  28.415  27.475  1.00  0.00     0.074 A 
ATOM     98  C   UNL A   1      41.957  30.925  29.744  1.00  0.00    -0.036 A 
ATOM     99  N   UNL A   1      43.485  29.575  28.859  1.00  0.00    -0.354 N 
ATOM    100  N   UNL A   1      46.175  28.847  27.938  1.00  0.00    -0.248 NA
ATOM    101  C   UNL A   1      48.388  29.428  27.478  1.00  0.00    -0.034 C 
ATOM    102  C   UNL A   1      43.157  31.634  29.625  1.00  0.00    -0.036 A 
ATOM    103  H   UNL A   1      41.075  31.291  30.138  1.00  0.00     0.065 H 
ATOM    104  C   UNL A   1      44.116  30.785  29.097  1.00  0.00     0.049 A 
ATOM    105  H   UNL A   1      43.918  28.778  28.474  1.00  0.00     0.167 HD
ATOM    106  C   UNL A   1      46.385  30.168  28.309  1.00  0.00     0.074 A 
ATOM    107  C   UNL A   1      47.776  30.462  28.035  1.00  0.00    -0.034 C 
ATOM    108  H   UNL A   1      49.359  29.353  27.135  1.00  0.00     0.065 H 
ATOM    109  H   UNL A   1      43.303  32.621  29.888  1.00  0.00     0.065 H 
ATOM    110  C   UNL A   1      45.504  31.058  28.828  1.00  0.00     0.037 A 
ATOM    111  H   UNL A   1      48.232  31.364  28.248  1.00  0.00     0.065 H 
BRANCH  92 112
ATOM    112  C   UNL A   1      39.789  28.831  29.551  1.00  0.00     0.064 A 
ATOM    113  C   UNL A   1      39.365  28.578  30.865  1.00  0.00     0.173 A 
ATOM    114  C   UNL A   1      38.857  29.380  28.656  1.00  0.00     0.173 A 
ATOM    115  F   UNL A   1      40.213  28.044  31.756  1.00  0.00    -0.203 F 
ATOM    116  C   UNL A   1      38.055  28.841  31.260  1.00  0.00     0.198 A 
ATOM    117  C   UNL A   1      37.557  29.670  29.063  1.00  0.00     0.198 A 
ATOM    118  F   UNL A   1      39.211  29.647  27.390  1.00  0.00    -0.203 F 
ATOM    119  F   UNL A   1      37.662  28.550  32.507  1.00  0.00    -0.200 F 
ATOM    120  C   UNL A   1      37.155  29.394  30.361  1.00  0.00     0.200 A 
ATOM    121  F   UNL A   1      36.692  30.217  28.197  1.00  0.00    -0.200 F 
ATOM    122  F   UNL A   1      35.899  29.656  30.745  1.00  0.00    -0.200 F 
ENDBRANCH  92 112
BRANCH  95 123
ATOM    123  C   UNL A   1      49.056  26.766  26.456  1.00  0.00     0.064 A 
ATOM    124  C   UNL A   1      50.050  26.267  27.311  1.00  0.00     0.173 A 
ATOM    125  C   UNL A   1      49.404  27.000  25.118  1.00  0.00     0.173 A 
ATOM    126  F   UNL A   1      49.771  26.046  28.605  1.00  0.00    -0.203 F 
ATOM    127  C   UNL A   1      51.346  26.039  26.852  1.00  0.00     0.198 A 
ATOM    128  C   UNL A   1      50.693  26.742  24.654  1.00  0.00     0.198 A 
ATOM    129  F   UNL A   1      48.490  27.469  24.258  1.00  0.00    -0.203 F 
ATOM    130  F   UNL A   1      52.288  25.612  27.703  1.00  0.00    -0.200 F 
ATOM    131  C   UNL A   1      51.664  26.272  25.524  1.00  0.00     0.200 A 
ATOM    132  F   UNL A   1      50.992  26.954  23.365  1.00  0.00    -0.200 F 
ATOM    133  F   UNL A   1      52.911  26.051  25.083  1.00  0.00    -0.200 F 
ENDBRANCH  95 123
BRANCH 110 134
ATOM    134  C   UNL A   1      46.026  32.424  29.167  1.00  0.00     0.064 A 
ATOM    135  C   UNL A   1      45.976  33.480  28.245  1.00  0.00     0.173 A 
ATOM    136  C   UNL A   1      46.548  32.688  30.442  1.00  0.00     0.173 A 
ATOM    137  F   UNL A   1      45.501  33.275  27.007  1.00  0.00    -0.203 F 
ATOM    138  C   UNL A   1      46.453  34.745  28.581  1.00  0.00     0.198 A 
ATOM    139  C   UNL A   1      46.996  33.961  30.784  1.00  0.00     0.198 A 
ATOM    140  F   UNL A   1      46.612  31.713  31.362  1.00  0.00    -0.203 F 
ATOM    141  F   UNL A   1      46.440  35.727  27.669  1.00  0.00    -0.200 F 
ATOM    142  C   UNL A   1      46.955  34.986  29.851  1.00  0.00     0.200 A 
ATOM    143  F   UNL A   1      47.468  34.195  32.015  1.00  0.00    -0.200 F 
ATOM    144  F   UNL A   1      47.406  36.205  30.174  1.00  0.00    -0.200 F 
ENDBRANCH 110 134
ENDBRANCH  75  78
ENDBRANCH  65  68
ENDBRANCH  61  64
ENDBRANCH  58  61
ENDBRANCH  55  58
ENDBRANCH  52  55
ENDBRANCH   1  52
TORSDOF 22
ENDMDL
MODEL 3
REMARK VINA RESULT:      -9.7      1.123      2.190
REMARK SMILES CCOc1cccc(OCC)c1-c1ccc([C@@H](C)C(=O)NCCCCCCNC(=O)c2ccc(-c3c4nc(c(-c5c(F)c(F)c(F)c(F)c5F)c5ccc([nH]5)c(-c5c(F)c(F)c(F)c(F)c5F)c5nc(c(-c6c(F)c(F)c(F)c(F)c6F)c6ccc3[nH]6)C=C5)C=C4)cc2)cc1F
REMARK SMILES IDX 23 1 22 4 21 7 19 8 20 9 17 11 16 13 13 14 14 15 95 16 15 17
REMARK SMILES IDX 94 19 96 20 12 23 4 24 5 25 6 26 8 28 7 29 3 32 2 33 1 36
REMARK SMILES IDX 9 40 10 41 11 44 18 48 24 52 25 55 26 58 27 61 28 64 29 65
REMARK SMILES IDX 30 67 31 68 32 69 93 70 33 71 92 73 34 75 35 78 36 79 86 80
REMARK SMILES IDX 37 81 91 82 85 83 87 84 38 85 90 86 84 88 83 90 39 92 71 95
REMARK SMILES IDX 51 96 70 97 52 98 55 99 69 100 88 101 53 102 54 104 68 106
REMARK SMILES IDX 89 107 56 110 40 112 41 113 49 114 42 115 43 116 47 117
REMARK SMILES IDX 50 118 44 119 45 120 48 121 46 122 72 123 73 124 81 125
REMARK SMILES IDX 74 126 75 127 79 128 82 129 76 130 77 131 80 132 78 133
REMARK SMILES IDX 57 134 58 135 66 136 59 137 60 138 64 139 67 140 61 141
REMARK SMILES IDX 62 142 65 143 63 144
REMARK H PARENT 23 2 23 3 22 5 22 6 21 10 17 12 14 18 15 21 94 22 5 27 6 30
REMARK H PARENT 7 31 2 34 2 35 1 37 1 38 1 39 10 42 10 43 11 45 11 46 11 47
REMARK H PARENT 18 49 18 50 18 51 24 53 24 54 25 56 25 57 26 59 26 60 27 62
REMARK H PARENT 27 63 28 66 32 72 93 74 33 76 92 77 91 87 85 89 87 91 90 93
REMARK H PARENT 84 94 52 103 55 105 88 108 53 109 89 111
REMARK Flexibility Score: inf
ROOT
ATOM      1  C   UNL A   1      40.721  22.140  26.536  1.00  0.00    -0.036 C 
ATOM      2  H   UNL A   1      40.876  22.897  27.277  1.00  0.00     0.028 H 
ATOM      3  H   UNL A   1      40.987  22.443  25.545  1.00  0.00     0.028 H 
ENDROOT
BRANCH   1   4
ATOM      4  C   UNL A   1      39.213  21.823  26.489  1.00  0.00     0.017 C 
ATOM      5  H   UNL A   1      39.070  20.783  26.693  1.00  0.00     0.049 H 
ATOM      6  H   UNL A   1      38.719  22.426  27.223  1.00  0.00     0.049 H 
BRANCH   4   7
ATOM      7  N   UNL A   1      38.644  22.134  25.184  1.00  0.00    -0.356 N 
ATOM      8  C   UNL A   1      37.381  22.213  24.680  1.00  0.00     0.227 C 
ATOM      9  O   UNL A   1      37.318  22.419  23.459  1.00  0.00    -0.274 OA
ATOM     10  H   UNL A   1      39.333  22.333  24.510  1.00  0.00     0.163 HD
BRANCH   8  11
ATOM     11  C   UNL A   1      36.068  22.074  25.484  1.00  0.00     0.060 C 
ATOM     12  H   UNL A   1      36.374  22.283  26.488  1.00  0.00     0.045 H 
BRANCH  11  13
ATOM     13  C   UNL A   1      35.018  23.123  25.163  1.00  0.00    -0.033 A 
ATOM     14  C   UNL A   1      33.033  25.021  24.414  1.00  0.00     0.025 A 
ATOM     15  C   UNL A   1      32.956  23.692  24.015  1.00  0.00    -0.051 A 
ATOM     16  C   UNL A   1      34.145  25.399  25.178  1.00  0.00     0.131 A 
ATOM     17  C   UNL A   1      33.868  22.761  24.477  1.00  0.00    -0.057 A 
ATOM     18  H   UNL A   1      32.209  23.396  23.367  1.00  0.00     0.063 H 
ATOM     19  C   UNL A   1      35.143  24.472  25.526  1.00  0.00    -0.022 A 
ATOM     20  F   UNL A   1      34.291  26.671  25.577  1.00  0.00    -0.206 F 
ATOM     21  H   UNL A   1      33.687  21.760  24.304  1.00  0.00     0.063 H 
ATOM     22  H   UNL A   1      35.974  24.786  26.050  1.00  0.00     0.066 H 
BRANCH  14  23
ATOM     23  C   UNL A   1      31.988  25.928  23.927  1.00  0.00     0.069 A 
ATOM     24  C   UNL A   1      30.984  26.314  24.856  1.00  0.00     0.130 A 
ATOM     25  C   UNL A   1      30.027  27.285  24.559  1.00  0.00    -0.019 A 
ATOM     26  C   UNL A   1      30.059  27.916  23.326  1.00  0.00    -0.055 A 
ATOM     27  H   UNL A   1      29.301  27.530  25.250  1.00  0.00     0.066 H 
ATOM     28  C   UNL A   1      32.000  26.569  22.666  1.00  0.00     0.130 A 
ATOM     29  C   UNL A   1      31.026  27.549  22.392  1.00  0.00    -0.019 A 
ATOM     30  H   UNL A   1      29.373  28.653  23.100  1.00  0.00     0.063 H 
ATOM     31  H   UNL A   1      31.030  28.012  21.469  1.00  0.00     0.066 H 
BRANCH  24  32
ATOM     32  O   UNL A   1      30.900  25.664  26.066  1.00  0.00    -0.493 OA
BRANCH  32  33
ATOM     33  C   UNL A   1      29.876  24.664  26.104  1.00  0.00     0.085 C 
ATOM     34  H   UNL A   1      29.062  25.006  26.708  1.00  0.00     0.070 H 
ATOM     35  H   UNL A   1      29.521  24.472  25.112  1.00  0.00     0.070 H 
BRANCH  33  36
ATOM     36  C   UNL A   1      30.454  23.389  26.699  1.00  0.00    -0.031 C 
ATOM     37  H   UNL A   1      29.704  22.894  27.280  1.00  0.00     0.027 H 
ATOM     38  H   UNL A   1      31.286  23.634  27.326  1.00  0.00     0.027 H 
ATOM     39  H   UNL A   1      30.779  22.743  25.911  1.00  0.00     0.027 H 
ENDBRANCH  33  36
ENDBRANCH  32  33
ENDBRANCH  24  32
BRANCH  28  40
ATOM     40  O   UNL A   1      32.810  26.408  21.573  1.00  0.00    -0.493 OA
BRANCH  40  41
ATOM     41  C   UNL A   1      32.481  25.650  20.418  1.00  0.00     0.085 C 
ATOM     42  H   UNL A   1      32.930  26.104  19.560  1.00  0.00     0.070 H 
ATOM     43  H   UNL A   1      31.416  25.629  20.311  1.00  0.00     0.070 H 
BRANCH  41  44
ATOM     44  C   UNL A   1      32.989  24.220  20.553  1.00  0.00    -0.031 C 
ATOM     45  H   UNL A   1      33.973  24.151  20.136  1.00  0.00     0.027 H 
ATOM     46  H   UNL A   1      32.333  23.557  20.029  1.00  0.00     0.027 H 
ATOM     47  H   UNL A   1      33.020  23.949  21.587  1.00  0.00     0.027 H 
ENDBRANCH  41  44
ENDBRANCH  40  41
ENDBRANCH  28  40
ENDBRANCH  14  23
ENDBRANCH  11  13
BRANCH  11  48
ATOM     48  C   UNL A   1      35.501  20.658  25.532  1.00  0.00    -0.049 C 
ATOM     49  H   UNL A   1      35.956  20.117  26.334  1.00  0.00     0.024 H 
ATOM     50  H   UNL A   1      35.705  20.161  24.606  1.00  0.00     0.024 H 
ATOM     51  H   UNL A   1      34.443  20.703  25.687  1.00  0.00     0.024 H 
ENDBRANCH  11  48
ENDBRANCH   8  11
ENDBRANCH   4   7
ENDBRANCH   1   4
BRANCH   1  52
ATOM     52  C   UNL A   1      41.634  20.963  26.871  1.00  0.00    -0.052 C 
ATOM     53  H   UNL A   1      41.381  20.614  27.851  1.00  0.00     0.027 H 
ATOM     54  H   UNL A   1      42.637  21.330  26.799  1.00  0.00     0.027 H 
BRANCH  52  55
ATOM     55  C   UNL A   1      41.540  19.779  25.905  1.00  0.00    -0.052 C 
ATOM     56  H   UNL A   1      41.918  20.100  24.957  1.00  0.00     0.027 H 
ATOM     57  H   UNL A   1      40.508  19.499  25.890  1.00  0.00     0.027 H 
BRANCH  55  58
ATOM     58  C   UNL A   1      42.308  18.517  26.315  1.00  0.00    -0.036 C 
ATOM     59  H   UNL A   1      42.007  17.721  25.665  1.00  0.00     0.028 H 
ATOM     60  H   UNL A   1      42.069  18.346  27.343  1.00  0.00     0.028 H 
BRANCH  58  61
ATOM     61  C   UNL A   1      43.832  18.629  26.250  1.00  0.00     0.018 C 
ATOM     62  H   UNL A   1      44.261  17.810  26.789  1.00  0.00     0.049 H 
ATOM     63  H   UNL A   1      44.112  19.567  26.682  1.00  0.00     0.049 H 
BRANCH  61  64
ATOM     64  N   UNL A   1      44.324  18.600  24.881  1.00  0.00    -0.352 N 
ATOM     65  C   UNL A   1      44.629  19.632  24.032  1.00  0.00     0.251 C 
ATOM     66  H   UNL A   1      44.458  17.699  24.507  1.00  0.00     0.163 HD
ATOM     67  O   UNL A   1      44.807  19.409  22.834  1.00  0.00    -0.269 OA
BRANCH  65  68
ATOM     68  C   UNL A   1      44.741  21.016  24.538  1.00  0.00     0.039 A 
ATOM     69  C   UNL A   1      45.391  21.242  25.755  1.00  0.00    -0.049 A 
ATOM     70  C   UNL A   1      44.168  22.084  23.842  1.00  0.00    -0.049 A 
ATOM     71  C   UNL A   1      45.518  22.544  26.244  1.00  0.00    -0.053 A 
ATOM     72  H   UNL A   1      45.776  20.448  26.291  1.00  0.00     0.063 H 
ATOM     73  C   UNL A   1      44.351  23.389  24.300  1.00  0.00    -0.053 A 
ATOM     74  H   UNL A   1      43.610  21.908  22.993  1.00  0.00     0.063 H 
ATOM     75  C   UNL A   1      45.026  23.632  25.505  1.00  0.00    -0.014 A 
ATOM     76  H   UNL A   1      45.976  22.707  27.155  1.00  0.00     0.063 H 
ATOM     77  H   UNL A   1      43.988  24.181  23.746  1.00  0.00     0.063 H 
BRANCH  75  78
ATOM     78  C   UNL A   1      45.211  25.029  25.976  1.00  0.00     0.031 A 
ATOM     79  C   UNL A   1      46.568  25.674  25.925  1.00  0.00     0.074 A 
ATOM     80  C   UNL A   1      44.167  25.694  26.508  1.00  0.00     0.049 A 
ATOM     81  N   UNL A   1      46.945  26.848  26.364  1.00  0.00    -0.248 NA
ATOM     82  C   UNL A   1      47.653  24.883  25.321  1.00  0.00    -0.034 C 
ATOM     83  C   UNL A   1      42.811  25.162  26.653  1.00  0.00    -0.036 A 
ATOM     84  N   UNL A   1      44.087  26.956  27.041  1.00  0.00    -0.354 N 
ATOM     85  C   UNL A   1      48.305  26.933  26.098  1.00  0.00     0.074 A 
ATOM     86  C   UNL A   1      48.701  25.672  25.509  1.00  0.00    -0.034 C 
ATOM     87  H   UNL A   1      47.609  23.956  24.869  1.00  0.00     0.065 H 
ATOM     88  C   UNL A   1      42.032  26.093  27.226  1.00  0.00    -0.036 A 
ATOM     89  H   UNL A   1      42.504  24.221  26.361  1.00  0.00     0.065 H 
ATOM     90  C   UNL A   1      42.839  27.273  27.523  1.00  0.00     0.049 A 
ATOM     91  H   UNL A   1      44.850  27.577  27.076  1.00  0.00     0.167 HD
ATOM     92  C   UNL A   1      49.143  27.977  26.305  1.00  0.00     0.037 A 
ATOM     93  H   UNL A   1      49.671  25.421  25.267  1.00  0.00     0.065 H 
ATOM     94  H   UNL A   1      41.025  25.991  27.425  1.00  0.00     0.065 H 
ATOM     95  C   UNL A   1      42.400  28.382  28.146  1.00  0.00     0.037 A 
ATOM     96  C   UNL A   1      48.744  29.238  26.876  1.00  0.00     0.049 A 
ATOM     97  C   UNL A   1      43.354  29.524  28.371  1.00  0.00     0.074 A 
ATOM     98  C   UNL A   1      49.509  30.371  27.089  1.00  0.00    -0.036 A 
ATOM     99  N   UNL A   1      47.465  29.530  27.327  1.00  0.00    -0.354 N 
ATOM    100  N   UNL A   1      44.625  29.615  28.062  1.00  0.00    -0.248 NA
ATOM    101  C   UNL A   1      42.811  30.724  29.025  1.00  0.00    -0.034 C 
ATOM    102  C   UNL A   1      48.703  31.335  27.704  1.00  0.00    -0.036 A 
ATOM    103  H   UNL A   1      50.503  30.486  26.836  1.00  0.00     0.065 H 
ATOM    104  C   UNL A   1      47.423  30.819  27.830  1.00  0.00     0.049 A 
ATOM    105  H   UNL A   1      46.699  28.912  27.294  1.00  0.00     0.167 HD
ATOM    106  C   UNL A   1      45.025  30.884  28.458  1.00  0.00     0.074 A 
ATOM    107  C   UNL A   1      43.857  31.535  29.013  1.00  0.00    -0.034 C 
ATOM    108  H   UNL A   1      41.862  30.889  29.397  1.00  0.00     0.065 H 
ATOM    109  H   UNL A   1      49.010  32.271  28.011  1.00  0.00     0.065 H 
ATOM    110  C   UNL A   1      46.250  31.457  28.370  1.00  0.00     0.037 A 
ATOM    111  H   UNL A   1      43.843  32.509  29.356  1.00  0.00     0.065 H 
BRANCH  92 112
ATOM    112  C   UNL A   1      50.579  27.809  25.900  1.00  0.00     0.064 A 
ATOM    113  C   UNL A   1      51.573  27.498  26.840  1.00  0.00     0.173 A 
ATOM    114  C   UNL A   1      50.959  27.911  24.552  1.00  0.00     0.173 A 
ATOM    115  F   UNL A   1      51.264  27.400  28.141  1.00  0.00    -0.203 F 
ATOM    116  C   UNL A   1      52.899  27.321  26.450  1.00  0.00     0.198 A 
ATOM    117  C   UNL A   1      52.280  27.703  24.163  1.00  0.00     0.198 A 
ATOM    118  F   UNL A   1      50.048  28.200  23.612  1.00  0.00    -0.203 F 
ATOM    119  F   UNL A   1      53.838  27.068  27.372  1.00  0.00    -0.200 F 
ATOM    120  C   UNL A   1      53.249  27.415  25.112  1.00  0.00     0.200 A 
ATOM    121  F   UNL A   1      52.615  27.781  22.868  1.00  0.00    -0.200 F 
ATOM    122  F   UNL A   1      54.523  27.233  24.738  1.00  0.00    -0.200 F 
ENDBRANCH  92 112
BRANCH  95 123
ATOM    123  C   UNL A   1      40.986  28.474  28.593  1.00  0.00     0.064 A 
ATOM    124  C   UNL A   1      39.980  28.920  27.723  1.00  0.00     0.173 A 
ATOM    125  C   UNL A   1      40.612  28.133  29.901  1.00  0.00     0.173 A 
ATOM    126  F   UNL A   1      40.291  29.276  26.467  1.00  0.00    -0.203 F 
ATOM    127  C   UNL A   1      38.660  29.044  28.152  1.00  0.00     0.198 A 
ATOM    128  C   UNL A   1      39.286  28.230  30.319  1.00  0.00     0.198 A 
ATOM    129  F   UNL A   1      41.533  27.695  30.771  1.00  0.00    -0.203 F 
ATOM    130  F   UNL A   1      37.730  29.522  27.314  1.00  0.00    -0.200 F 
ATOM    131  C   UNL A   1      38.313  28.695  29.447  1.00  0.00     0.200 A 
ATOM    132  F   UNL A   1      38.953  27.876  31.568  1.00  0.00    -0.200 F 
ATOM    133  F   UNL A   1      37.043  28.815  29.859  1.00  0.00    -0.200 F 
ENDBRANCH  95 123
BRANCH 110 134
ATOM    134  C   UNL A   1      46.384  32.871  28.856  1.00  0.00     0.064 A 
ATOM    135  C   UNL A   1      46.168  33.965  28.005  1.00  0.00     0.173 A 
ATOM    136  C   UNL A   1      46.696  33.134  30.198  1.00  0.00     0.173 A 
ATOM    137  F   UNL A   1      45.883  33.767  26.709  1.00  0.00    -0.203 F 
ATOM    138  C   UNL A   1      46.283  35.270  28.475  1.00  0.00     0.198 A 
ATOM    139  C   UNL A   1      46.781  34.440  30.672  1.00  0.00     0.198 A 
ATOM    140  F   UNL A   1      46.906  32.122  31.054  1.00  0.00    -0.203 F 
ATOM    141  F   UNL A   1      46.120  36.300  27.633  1.00  0.00    -0.200 F 
ATOM    142  C   UNL A   1      46.582  35.507  29.809  1.00  0.00     0.200 A 
ATOM    143  F   UNL A   1      47.056  34.666  31.963  1.00  0.00    -0.200 F 
ATOM    144  F   UNL A   1      46.686  36.764  30.261  1.00  0.00    -0.200 F 
ENDBRANCH 110 134
ENDBRANCH  75  78
ENDBRANCH  65  68
ENDBRANCH  61  64
ENDBRANCH  58  61
ENDBRANCH  55  58
ENDBRANCH  52  55
ENDBRANCH   1  52
TORSDOF 22
ENDMDL
MODEL 4
REMARK VINA RESULT:      -9.7      4.667      9.120
REMARK SMILES CCOc1cccc(OCC)c1-c1ccc([C@@H](C)C(=O)NCCCCCCNC(=O)c2ccc(-c3c4nc(c(-c5c(F)c(F)c(F)c(F)c5F)c5ccc([nH]5)c(-c5c(F)c(F)c(F)c(F)c5F)c5nc(c(-c6c(F)c(F)c(F)c(F)c6F)c6ccc3[nH]6)C=C5)C=C4)cc2)cc1F
REMARK SMILES IDX 23 1 22 4 21 7 19 8 20 9 17 11 16 13 13 14 14 15 95 16 15 17
REMARK SMILES IDX 94 19 96 20 12 23 4 24 5 25 6 26 8 28 7 29 3 32 2 33 1 36
REMARK SMILES IDX 9 40 10 41 11 44 18 48 24 52 25 55 26 58 27 61 28 64 29 65
REMARK SMILES IDX 30 67 31 68 32 69 93 70 33 71 92 73 34 75 35 78 36 79 86 80
REMARK SMILES IDX 37 81 91 82 85 83 87 84 38 85 90 86 84 88 83 90 39 92 71 95
REMARK SMILES IDX 51 96 70 97 52 98 55 99 69 100 88 101 53 102 54 104 68 106
REMARK SMILES IDX 89 107 56 110 40 112 41 113 49 114 42 115 43 116 47 117
REMARK SMILES IDX 50 118 44 119 45 120 48 121 46 122 72 123 73 124 81 125
REMARK SMILES IDX 74 126 75 127 79 128 82 129 76 130 77 131 80 132 78 133
REMARK SMILES IDX 57 134 58 135 66 136 59 137 60 138 64 139 67 140 61 141
REMARK SMILES IDX 62 142 65 143 63 144
REMARK H PARENT 23 2 23 3 22 5 22 6 21 10 17 12 14 18 15 21 94 22 5 27 6 30
REMARK H PARENT 7 31 2 34 2 35 1 37 1 38 1 39 10 42 10 43 11 45 11 46 11 47
REMARK H PARENT 18 49 18 50 18 51 24 53 24 54 25 56 25 57 26 59 26 60 27 62
REMARK H PARENT 27 63 28 66 32 72 93 74 33 76 92 77 91 87 85 89 87 91 90 93
REMARK H PARENT 84 94 52 103 55 105 88 108 53 109 89 111
REMARK Flexibility Score: inf
ROOT
ATOM      1  C   UNL A   1      44.249  24.726  26.936  1.00  0.00    -0.036 C 
ATOM      2  H   UNL A   1      45.204  24.880  27.392  1.00  0.00     0.028 H 
ATOM      3  H   UNL A   1      44.219  23.895  26.263  1.00  0.00     0.028 H 
ENDROOT
BRANCH   1   4
ATOM      4  C   UNL A   1      43.924  25.970  26.084  1.00  0.00     0.017 C 
ATOM      5  H   UNL A   1      42.998  25.808  25.572  1.00  0.00     0.049 H 
ATOM      6  H   UNL A   1      43.855  26.816  26.736  1.00  0.00     0.049 H 
BRANCH   4   7
ATOM      7  N   UNL A   1      44.969  26.231  25.103  1.00  0.00    -0.356 N 
ATOM      8  C   UNL A   1      46.152  26.907  25.116  1.00  0.00     0.227 C 
ATOM      9  O   UNL A   1      46.724  26.980  24.019  1.00  0.00    -0.274 OA
ATOM     10  H   UNL A   1      44.775  25.826  24.228  1.00  0.00     0.163 HD
BRANCH   8  11
ATOM     11  C   UNL A   1      46.814  27.563  26.350  1.00  0.00     0.060 C 
ATOM     12  H   UNL A   1      47.806  27.774  26.010  1.00  0.00     0.045 H 
BRANCH  11  13
ATOM     13  C   UNL A   1      46.232  28.913  26.734  1.00  0.00    -0.033 A 
ATOM     14  C   UNL A   1      45.286  31.481  27.516  1.00  0.00     0.025 A 
ATOM     15  C   UNL A   1      46.583  31.294  27.050  1.00  0.00    -0.051 A 
ATOM     16  C   UNL A   1      44.470  30.347  27.615  1.00  0.00     0.131 A 
ATOM     17  C   UNL A   1      46.991  30.063  26.572  1.00  0.00    -0.057 A 
ATOM     18  H   UNL A   1      47.247  32.083  27.059  1.00  0.00     0.063 H 
ATOM     19  C   UNL A   1      44.941  29.072  27.258  1.00  0.00    -0.022 A 
ATOM     20  F   UNL A   1      43.216  30.455  28.078  1.00  0.00    -0.206 F 
ATOM     21  H   UNL A   1      47.894  29.996  26.078  1.00  0.00     0.063 H 
ATOM     22  H   UNL A   1      44.333  28.247  27.382  1.00  0.00     0.066 H 
BRANCH  14  23
ATOM     23  C   UNL A   1      44.919  32.834  27.946  1.00  0.00     0.069 A 
ATOM     24  C   UNL A   1      44.058  33.572  27.089  1.00  0.00     0.130 A 
ATOM     25  C   UNL A   1      43.519  34.806  27.455  1.00  0.00    -0.019 A 
ATOM     26  C   UNL A   1      43.808  35.330  28.705  1.00  0.00    -0.055 A 
ATOM     27  H   UNL A   1      42.910  35.323  26.803  1.00  0.00     0.066 H 
ATOM     28  C   UNL A   1      45.220  33.388  29.213  1.00  0.00     0.130 A 
ATOM     29  C   UNL A   1      44.658  34.632  29.562  1.00  0.00    -0.019 A 
ATOM     30  H   UNL A   1      43.398  36.229  29.000  1.00  0.00     0.063 H 
ATOM     31  H   UNL A   1      44.884  35.040  30.483  1.00  0.00     0.066 H 
BRANCH  24  32
ATOM     32  O   UNL A   1      43.798  33.097  25.823  1.00  0.00    -0.493 OA
BRANCH  32  33
ATOM     33  C   UNL A   1      43.525  34.132  24.873  1.00  0.00     0.085 C 
ATOM     34  H   UNL A   1      42.590  33.939  24.390  1.00  0.00     0.070 H 
ATOM     35  H   UNL A   1      43.471  35.078  25.373  1.00  0.00     0.070 H 
BRANCH  33  36
ATOM     36  C   UNL A   1      44.639  34.159  23.839  1.00  0.00    -0.031 C 
ATOM     37  H   UNL A   1      44.971  33.159  23.646  1.00  0.00     0.027 H 
ATOM     38  H   UNL A   1      45.457  34.740  24.210  1.00  0.00     0.027 H 
ATOM     39  H   UNL A   1      44.274  34.594  22.932  1.00  0.00     0.027 H 
ENDBRANCH  33  36
ENDBRANCH  32  33
ENDBRANCH  24  32
BRANCH  28  40
ATOM     40  O   UNL A   1      46.015  32.941  30.234  1.00  0.00    -0.493 OA
BRANCH  40  41
ATOM     41  C   UNL A   1      47.421  32.759  30.155  1.00  0.00     0.085 C 
ATOM     42  H   UNL A   1      47.637  32.007  29.426  1.00  0.00     0.070 H 
ATOM     43  H   UNL A   1      47.785  32.459  31.115  1.00  0.00     0.070 H 
BRANCH  41  44
ATOM     44  C   UNL A   1      48.107  34.058  29.753  1.00  0.00    -0.031 C 
ATOM     45  H   UNL A   1      47.477  34.601  29.078  1.00  0.00     0.027 H 
ATOM     46  H   UNL A   1      49.037  33.837  29.273  1.00  0.00     0.027 H 
ATOM     47  H   UNL A   1      48.288  34.651  30.626  1.00  0.00     0.027 H 
ENDBRANCH  41  44
ENDBRANCH  40  41
ENDBRANCH  28  40
ENDBRANCH  14  23
ENDBRANCH  11  13
BRANCH  11  48
ATOM     48  C   UNL A   1      46.995  26.631  27.544  1.00  0.00    -0.049 C 
ATOM     49  H   UNL A   1      47.892  26.062  27.420  1.00  0.00     0.024 H 
ATOM     50  H   UNL A   1      46.158  25.967  27.608  1.00  0.00     0.024 H 
ATOM     51  H   UNL A   1      47.060  27.209  28.441  1.00  0.00     0.024 H 
ENDBRANCH  11  48
ENDBRANCH   8  11
ENDBRANCH   4   7
ENDBRANCH   1   4
BRANCH   1  52
ATOM     52  C   UNL A   1      43.248  24.402  28.043  1.00  0.00    -0.052 C 
ATOM     53  H   UNL A   1      42.294  24.791  27.753  1.00  0.00     0.027 H 
ATOM     54  H   UNL A   1      43.634  24.848  28.936  1.00  0.00     0.027 H 
BRANCH  52  55
ATOM     55  C   UNL A   1      43.082  22.911  28.346  1.00  0.00    -0.052 C 
ATOM     56  H   UNL A   1      42.999  22.800  29.407  1.00  0.00     0.027 H 
ATOM     57  H   UNL A   1      43.941  22.432  27.923  1.00  0.00     0.027 H 
BRANCH  55  58
ATOM     58  C   UNL A   1      41.867  22.229  27.706  1.00  0.00    -0.036 C 
ATOM     59  H   UNL A   1      40.992  22.555  28.227  1.00  0.00     0.028 H 
ATOM     60  H   UNL A   1      42.045  21.177  27.783  1.00  0.00     0.028 H 
BRANCH  58  61
ATOM     61  C   UNL A   1      41.666  22.514  26.218  1.00  0.00     0.018 C 
ATOM     62  H   UNL A   1      42.155  21.750  25.650  1.00  0.00     0.049 H 
ATOM     63  H   UNL A   1      42.080  23.478  26.008  1.00  0.00     0.049 H 
BRANCH  61  64
ATOM     64  N   UNL A   1      40.258  22.542  25.853  1.00  0.00    -0.352 N 
ATOM     65  C   UNL A   1      39.254  23.376  26.273  1.00  0.00     0.251 C 
ATOM     66  H   UNL A   1      39.984  21.855  25.203  1.00  0.00     0.163 HD
ATOM     67  O   UNL A   1      38.080  23.093  26.031  1.00  0.00    -0.269 OA
BRANCH  65  68
ATOM     68  C   UNL A   1      39.565  24.611  27.023  1.00  0.00     0.039 A 
ATOM     69  C   UNL A   1      39.178  24.705  28.363  1.00  0.00    -0.049 A 
ATOM     70  C   UNL A   1      40.193  25.692  26.399  1.00  0.00    -0.049 A 
ATOM     71  C   UNL A   1      39.473  25.859  29.093  1.00  0.00    -0.053 A 
ATOM     72  H   UNL A   1      38.675  23.924  28.812  1.00  0.00     0.063 H 
ATOM     73  C   UNL A   1      40.544  26.817  27.145  1.00  0.00    -0.053 A 
ATOM     74  H   UNL A   1      40.397  25.659  25.388  1.00  0.00     0.063 H 
ATOM     75  C   UNL A   1      40.186  26.912  28.498  1.00  0.00    -0.014 A 
ATOM     76  H   UNL A   1      39.165  25.937  30.075  1.00  0.00     0.063 H 
ATOM     77  H   UNL A   1      41.071  27.583  26.698  1.00  0.00     0.063 H 
BRANCH  75  78
ATOM     78  C   UNL A   1      40.568  28.119  29.276  1.00  0.00     0.031 A 
ATOM     79  C   UNL A   1      41.927  28.211  29.915  1.00  0.00     0.074 A 
ATOM     80  C   UNL A   1      39.668  29.104  29.459  1.00  0.00     0.049 A 
ATOM     81  N   UNL A   1      42.412  29.141  30.698  1.00  0.00    -0.248 NA
ATOM     82  C   UNL A   1      42.854  27.098  29.659  1.00  0.00    -0.034 C 
ATOM     83  C   UNL A   1      38.304  29.112  28.927  1.00  0.00    -0.036 A 
ATOM     84  N   UNL A   1      39.759  30.282  30.158  1.00  0.00    -0.354 N 
ATOM     85  C   UNL A   1      43.693  28.722  31.034  1.00  0.00     0.074 A 
ATOM     86  C   UNL A   1      43.891  27.430  30.414  1.00  0.00    -0.034 C 
ATOM     87  H   UNL A   1      42.729  26.273  29.050  1.00  0.00     0.065 H 
ATOM     88  C   UNL A   1      37.690  30.242  29.309  1.00  0.00    -0.036 A 
ATOM     89  H   UNL A   1      37.883  28.367  28.351  1.00  0.00     0.065 H 
ATOM     90  C   UNL A   1      38.601  31.022  30.142  1.00  0.00     0.049 A 
ATOM     91  H   UNL A   1      40.575  30.571  30.626  1.00  0.00     0.167 HD
ATOM     92  C   UNL A   1      44.627  29.368  31.771  1.00  0.00     0.037 A 
ATOM     93  H   UNL A   1      44.730  26.844  30.543  1.00  0.00     0.065 H 
ATOM     94  H   UNL A   1      36.728  30.517  29.055  1.00  0.00     0.065 H 
ATOM     95  C   UNL A   1      38.303  32.190  30.743  1.00  0.00     0.037 A 
ATOM     96  C   UNL A   1      44.435  30.663  32.373  1.00  0.00     0.049 A 
ATOM     97  C   UNL A   1      39.357  32.882  31.565  1.00  0.00     0.074 A 
ATOM     98  C   UNL A   1      45.334  31.418  33.104  1.00  0.00    -0.036 A 
ATOM     99  N   UNL A   1      43.257  31.393  32.312  1.00  0.00    -0.354 N 
ATOM    100  N   UNL A   1      40.585  32.504  31.825  1.00  0.00    -0.248 NA
ATOM    101  C   UNL A   1      38.987  34.170  32.169  1.00  0.00    -0.034 C 
ATOM    102  C   UNL A   1      44.689  32.587  33.519  1.00  0.00    -0.036 A 
ATOM    103  H   UNL A   1      46.314  31.163  33.307  1.00  0.00     0.065 H 
ATOM    104  C   UNL A   1      43.402  32.583  33.005  1.00  0.00     0.049 A 
ATOM    105  H   UNL A   1      42.439  31.108  31.845  1.00  0.00     0.167 HD
ATOM    106  C   UNL A   1      41.140  33.514  32.599  1.00  0.00     0.074 A 
ATOM    107  C   UNL A   1      40.121  34.532  32.750  1.00  0.00    -0.034 C 
ATOM    108  H   UNL A   1      38.080  34.663  32.146  1.00  0.00     0.065 H 
ATOM    109  H   UNL A   1      45.101  33.328  34.108  1.00  0.00     0.065 H 
ATOM    110  C   UNL A   1      42.381  33.591  33.137  1.00  0.00     0.037 A 
ATOM    111  H   UNL A   1      40.262  35.425  33.247  1.00  0.00     0.065 H 
BRANCH  92 112
ATOM    112  C   UNL A   1      45.954  28.692  31.961  1.00  0.00     0.064 A 
ATOM    113  C   UNL A   1      46.991  28.838  31.027  1.00  0.00     0.173 A 
ATOM    114  C   UNL A   1      46.211  27.929  33.111  1.00  0.00     0.173 A 
ATOM    115  F   UNL A   1      46.794  29.547  29.906  1.00  0.00    -0.203 F 
ATOM    116  C   UNL A   1      48.226  28.224  31.224  1.00  0.00     0.198 A 
ATOM    117  C   UNL A   1      47.457  27.343  33.319  1.00  0.00     0.198 A 
ATOM    118  F   UNL A   1      45.257  27.762  34.040  1.00  0.00    -0.203 F 
ATOM    119  F   UNL A   1      49.186  28.343  30.296  1.00  0.00    -0.200 F 
ATOM    120  C   UNL A   1      48.461  27.485  32.374  1.00  0.00     0.200 A 
ATOM    121  F   UNL A   1      47.686  26.640  34.437  1.00  0.00    -0.200 F 
ATOM    122  F   UNL A   1      49.653  26.905  32.567  1.00  0.00    -0.200 F 
ENDBRANCH  92 112
BRANCH  95 123
ATOM    123  C   UNL A   1      36.951  32.785  30.584  1.00  0.00     0.064 A 
ATOM    124  C   UNL A   1      36.624  33.543  29.449  1.00  0.00     0.173 A 
ATOM    125  C   UNL A   1      35.962  32.622  31.565  1.00  0.00     0.173 A 
ATOM    126  F   UNL A   1      37.542  33.744  28.492  1.00  0.00    -0.203 F 
ATOM    127  C   UNL A   1      35.370  34.136  29.316  1.00  0.00     0.198 A 
ATOM    128  C   UNL A   1      34.698  33.190  31.415  1.00  0.00     0.198 A 
ATOM    129  F   UNL A   1      36.219  31.901  32.665  1.00  0.00    -0.203 F 
ATOM    130  F   UNL A   1      35.104  34.898  28.247  1.00  0.00    -0.200 F 
ATOM    131  C   UNL A   1      34.407  33.955  30.296  1.00  0.00     0.200 A 
ATOM    132  F   UNL A   1      33.765  33.000  32.359  1.00  0.00    -0.200 F 
ATOM    133  F   UNL A   1      33.201  34.525  30.167  1.00  0.00    -0.200 F 
ENDBRANCH  95 123
BRANCH 110 134
ATOM    134  C   UNL A   1      42.720  34.832  33.911  1.00  0.00     0.064 A 
ATOM    135  C   UNL A   1      42.718  34.848  35.313  1.00  0.00     0.173 A 
ATOM    136  C   UNL A   1      43.086  36.008  33.240  1.00  0.00     0.173 A 
ATOM    137  F   UNL A   1      42.359  33.754  36.002  1.00  0.00    -0.203 F 
ATOM    138  C   UNL A   1      43.047  36.004  36.015  1.00  0.00     0.198 A 
ATOM    139  C   UNL A   1      43.444  37.153  33.945  1.00  0.00     0.198 A 
ATOM    140  F   UNL A   1      43.110  36.042  31.899  1.00  0.00    -0.203 F 
ATOM    141  F   UNL A   1      42.992  36.012  37.354  1.00  0.00    -0.200 F 
ATOM    142  C   UNL A   1      43.417  37.153  35.331  1.00  0.00     0.200 A 
ATOM    143  F   UNL A   1      43.814  38.258  33.283  1.00  0.00    -0.200 F 
ATOM    144  F   UNL A   1      43.740  38.263  36.009  1.00  0.00    -0.200 F 
ENDBRANCH 110 134
ENDBRANCH  75  78
ENDBRANCH  65  68
ENDBRANCH  61  64
ENDBRANCH  58  61
ENDBRANCH  55  58
ENDBRANCH  52  55
ENDBRANCH   1  52
TORSDOF 22
ENDMDL
MODEL 5
REMARK VINA RESULT:      -9.6      5.390     11.596
REMARK SMILES CCOc1cccc(OCC)c1-c1ccc([C@@H](C)C(=O)NCCCCCCNC(=O)c2ccc(-c3c4nc(c(-c5c(F)c(F)c(F)c(F)c5F)c5ccc([nH]5)c(-c5c(F)c(F)c(F)c(F)c5F)c5nc(c(-c6c(F)c(F)c(F)c(F)c6F)c6ccc3[nH]6)C=C5)C=C4)cc2)cc1F
REMARK SMILES IDX 23 1 22 4 21 7 19 8 20 9 17 11 16 13 13 14 14 15 95 16 15 17
REMARK SMILES IDX 94 19 96 20 12 23 4 24 5 25 6 26 8 28 7 29 3 32 2 33 1 36
REMARK SMILES IDX 9 40 10 41 11 44 18 48 24 52 25 55 26 58 27 61 28 64 29 65
REMARK SMILES IDX 30 67 31 68 32 69 93 70 33 71 92 73 34 75 35 78 36 79 86 80
REMARK SMILES IDX 37 81 91 82 85 83 87 84 38 85 90 86 84 88 83 90 39 92 71 95
REMARK SMILES IDX 51 96 70 97 52 98 55 99 69 100 88 101 53 102 54 104 68 106
REMARK SMILES IDX 89 107 56 110 40 112 41 113 49 114 42 115 43 116 47 117
REMARK SMILES IDX 50 118 44 119 45 120 48 121 46 122 72 123 73 124 81 125
REMARK SMILES IDX 74 126 75 127 79 128 82 129 76 130 77 131 80 132 78 133
REMARK SMILES IDX 57 134 58 135 66 136 59 137 60 138 64 139 67 140 61 141
REMARK SMILES IDX 62 142 65 143 63 144
REMARK H PARENT 23 2 23 3 22 5 22 6 21 10 17 12 14 18 15 21 94 22 5 27 6 30
REMARK H PARENT 7 31 2 34 2 35 1 37 1 38 1 39 10 42 10 43 11 45 11 46 11 47
REMARK H PARENT 18 49 18 50 18 51 24 53 24 54 25 56 25 57 26 59 26 60 27 62
REMARK H PARENT 27 63 28 66 32 72 93 74 33 76 92 77 91 87 85 89 87 91 90 93
REMARK H PARENT 84 94 52 103 55 105 88 108 53 109 89 111
REMARK Flexibility Score: inf
ROOT
ATOM      1  C   UNL A   1      33.736  36.613  31.788  1.00  0.00    -0.036 C 
ATOM      2  H   UNL A   1      34.674  36.817  31.316  1.00  0.00     0.028 H 
ATOM      3  H   UNL A   1      33.062  37.443  31.790  1.00  0.00     0.028 H 
ENDROOT
BRANCH   1   4
ATOM      4  C   UNL A   1      34.011  36.290  33.271  1.00  0.00     0.017 C 
ATOM      5  H   UNL A   1      34.893  36.810  33.582  1.00  0.00     0.049 H 
ATOM      6  H   UNL A   1      33.164  36.601  33.846  1.00  0.00     0.049 H 
BRANCH   4   7
ATOM      7  N   UNL A   1      34.204  34.861  33.478  1.00  0.00    -0.356 N 
ATOM      8  C   UNL A   1      35.270  34.016  33.414  1.00  0.00     0.227 C 
ATOM      9  O   UNL A   1      34.997  32.817  33.569  1.00  0.00    -0.274 OA
ATOM     10  H   UNL A   1      33.370  34.399  33.721  1.00  0.00     0.163 HD
BRANCH   8  11
ATOM     11  C   UNL A   1      36.743  34.422  33.173  1.00  0.00     0.060 C 
ATOM     12  H   UNL A   1      36.792  35.411  33.578  1.00  0.00     0.045 H 
BRANCH  11  13
ATOM     13  C   UNL A   1      37.757  33.618  33.968  1.00  0.00    -0.033 A 
ATOM     14  C   UNL A   1      39.713  32.052  35.318  1.00  0.00     0.025 A 
ATOM     15  C   UNL A   1      39.982  32.656  34.095  1.00  0.00    -0.051 A 
ATOM     16  C   UNL A   1      38.427  32.219  35.847  1.00  0.00     0.131 A 
ATOM     17  C   UNL A   1      39.060  33.501  33.507  1.00  0.00    -0.057 A 
ATOM     18  H   UNL A   1      40.881  32.473  33.622  1.00  0.00     0.063 H 
ATOM     19  C   UNL A   1      37.448  32.967  35.171  1.00  0.00    -0.022 A 
ATOM     20  F   UNL A   1      38.096  31.644  37.013  1.00  0.00    -0.206 F 
ATOM     21  H   UNL A   1      39.351  34.066  32.694  1.00  0.00     0.063 H 
ATOM     22  H   UNL A   1      36.496  33.037  35.562  1.00  0.00     0.066 H 
BRANCH  14  23
ATOM     23  C   UNL A   1      40.772  31.221  35.900  1.00  0.00     0.069 A 
ATOM     24  C   UNL A   1      40.912  29.902  35.389  1.00  0.00     0.130 A 
ATOM     25  C   UNL A   1      41.971  29.069  35.754  1.00  0.00    -0.019 A 
ATOM     26  C   UNL A   1      42.939  29.542  36.626  1.00  0.00    -0.055 A 
ATOM     27  H   UNL A   1      42.034  28.111  35.377  1.00  0.00     0.066 H 
ATOM     28  C   UNL A   1      41.758  31.686  36.802  1.00  0.00     0.130 A 
ATOM     29  C   UNL A   1      42.821  30.829  37.149  1.00  0.00    -0.019 A 
ATOM     30  H   UNL A   1      43.741  28.948  36.885  1.00  0.00     0.063 H 
ATOM     31  H   UNL A   1      43.536  31.165  37.813  1.00  0.00     0.066 H 
BRANCH  24  32
ATOM     32  O   UNL A   1      39.936  29.392  34.564  1.00  0.00    -0.493 OA
BRANCH  32  33
ATOM     33  C   UNL A   1      40.427  29.000  33.278  1.00  0.00     0.085 C 
ATOM     34  H   UNL A   1      40.521  29.862  32.651  1.00  0.00     0.070 H 
ATOM     35  H   UNL A   1      41.387  28.537  33.382  1.00  0.00     0.070 H 
BRANCH  33  36
ATOM     36  C   UNL A   1      39.447  28.019  32.654  1.00  0.00    -0.031 C 
ATOM     37  H   UNL A   1      38.693  27.763  33.369  1.00  0.00     0.027 H 
ATOM     38  H   UNL A   1      39.970  27.134  32.355  1.00  0.00     0.027 H 
ATOM     39  H   UNL A   1      38.989  28.468  31.798  1.00  0.00     0.027 H 
ENDBRANCH  33  36
ENDBRANCH  32  33
ENDBRANCH  24  32
BRANCH  28  40
ATOM     40  O   UNL A   1      41.892  32.875  37.468  1.00  0.00    -0.493 OA
BRANCH  40  41
ATOM     41  C   UNL A   1      40.948  33.407  38.385  1.00  0.00     0.085 C 
ATOM     42  H   UNL A   1      40.039  32.848  38.318  1.00  0.00     0.070 H 
ATOM     43  H   UNL A   1      40.770  34.434  38.141  1.00  0.00     0.070 H 
BRANCH  41  44
ATOM     44  C   UNL A   1      41.481  33.327  39.810  1.00  0.00    -0.031 C 
ATOM     45  H   UNL A   1      41.619  32.301  40.082  1.00  0.00     0.027 H 
ATOM     46  H   UNL A   1      40.782  33.782  40.479  1.00  0.00     0.027 H 
ATOM     47  H   UNL A   1      42.418  33.841  39.869  1.00  0.00     0.027 H 
ENDBRANCH  41  44
ENDBRANCH  40  41
ENDBRANCH  28  40
ENDBRANCH  14  23
ENDBRANCH  11  13
BRANCH  11  48
ATOM     48  C   UNL A   1      37.125  34.578  31.704  1.00  0.00    -0.049 C 
ATOM     49  H   UNL A   1      36.288  34.954  31.155  1.00  0.00     0.024 H 
ATOM     50  H   UNL A   1      37.413  33.626  31.308  1.00  0.00     0.024 H 
ATOM     51  H   UNL A   1      37.944  35.262  31.620  1.00  0.00     0.024 H 
ENDBRANCH  11  48
ENDBRANCH   8  11
ENDBRANCH   4   7
ENDBRANCH   1   4
BRANCH   1  52
ATOM     52  C   UNL A   1      33.039  35.512  30.991  1.00  0.00    -0.052 C 
ATOM     53  H   UNL A   1      32.133  35.915  30.589  1.00  0.00     0.027 H 
ATOM     54  H   UNL A   1      32.878  34.704  31.673  1.00  0.00     0.027 H 
BRANCH  52  55
ATOM     55  C   UNL A   1      33.860  34.937  29.833  1.00  0.00    -0.052 C 
ATOM     56  H   UNL A   1      34.739  35.537  29.726  1.00  0.00     0.027 H 
ATOM     57  H   UNL A   1      33.212  34.958  28.981  1.00  0.00     0.027 H 
BRANCH  55  58
ATOM     58  C   UNL A   1      34.302  33.478  29.985  1.00  0.00    -0.036 C 
ATOM     59  H   UNL A   1      33.456  32.908  30.309  1.00  0.00     0.028 H 
ATOM     60  H   UNL A   1      35.110  33.485  30.687  1.00  0.00     0.028 H 
BRANCH  58  61
ATOM     61  C   UNL A   1      34.853  32.826  28.716  1.00  0.00     0.018 C 
ATOM     62  H   UNL A   1      35.865  32.529  28.893  1.00  0.00     0.049 H 
ATOM     63  H   UNL A   1      34.791  33.543  27.924  1.00  0.00     0.049 H 
BRANCH  61  64
ATOM     64  N   UNL A   1      34.081  31.656  28.324  1.00  0.00    -0.352 N 
ATOM     65  C   UNL A   1      34.501  30.393  27.994  1.00  0.00     0.251 C 
ATOM     66  H   UNL A   1      33.107  31.793  28.290  1.00  0.00     0.163 HD
ATOM     67  O   UNL A   1      33.718  29.606  27.462  1.00  0.00    -0.269 OA
BRANCH  65  68
ATOM     68  C   UNL A   1      35.890  29.966  28.264  1.00  0.00     0.039 A 
ATOM     69  C   UNL A   1      36.846  30.089  27.251  1.00  0.00    -0.049 A 
ATOM     70  C   UNL A   1      36.243  29.402  29.494  1.00  0.00    -0.049 A 
ATOM     71  C   UNL A   1      38.166  29.703  27.491  1.00  0.00    -0.053 A 
ATOM     72  H   UNL A   1      36.576  30.465  26.329  1.00  0.00     0.063 H 
ATOM     73  C   UNL A   1      37.573  29.076  29.752  1.00  0.00    -0.053 A 
ATOM     74  H   UNL A   1      35.520  29.226  30.208  1.00  0.00     0.063 H 
ATOM     75  C   UNL A   1      38.548  29.222  28.753  1.00  0.00    -0.014 A 
ATOM     76  H   UNL A   1      38.865  29.771  26.734  1.00  0.00     0.063 H 
ATOM     77  H   UNL A   1      37.843  28.726  30.685  1.00  0.00     0.063 H 
BRANCH  75  78
ATOM     78  C   UNL A   1      39.961  28.868  29.048  1.00  0.00     0.031 A 
ATOM     79  C   UNL A   1      40.860  29.853  29.743  1.00  0.00     0.074 A 
ATOM     80  C   UNL A   1      40.451  27.684  28.631  1.00  0.00     0.049 A 
ATOM     81  N   UNL A   1      42.138  29.762  30.011  1.00  0.00    -0.248 NA
ATOM     82  C   UNL A   1      40.245  31.119  30.173  1.00  0.00    -0.034 C 
ATOM     83  C   UNL A   1      39.691  26.663  27.909  1.00  0.00    -0.036 A 
ATOM     84  N   UNL A   1      41.708  27.147  28.741  1.00  0.00    -0.354 N 
ATOM     85  C   UNL A   1      42.481  30.956  30.631  1.00  0.00     0.074 A 
ATOM     86  C   UNL A   1      41.291  31.779  30.652  1.00  0.00    -0.034 C 
ATOM     87  H   UNL A   1      39.259  31.416  30.117  1.00  0.00     0.065 H 
ATOM     88  C   UNL A   1      40.494  25.619  27.649  1.00  0.00    -0.036 A 
ATOM     89  H   UNL A   1      38.697  26.735  27.641  1.00  0.00     0.065 H 
ATOM     90  C   UNL A   1      41.832  25.910  28.154  1.00  0.00     0.049 A 
ATOM     91  H   UNL A   1      42.452  27.602  29.198  1.00  0.00     0.167 HD
ATOM     92  C   UNL A   1      43.674  31.323  31.157  1.00  0.00     0.037 A 
ATOM     93  H   UNL A   1      41.260  32.751  30.995  1.00  0.00     0.065 H 
ATOM     94  H   UNL A   1      40.210  24.750  27.171  1.00  0.00     0.065 H 
ATOM     95  C   UNL A   1      42.907  25.110  28.023  1.00  0.00     0.037 A 
ATOM     96  C   UNL A   1      44.853  30.496  31.151  1.00  0.00     0.049 A 
ATOM     97  C   UNL A   1      44.223  25.546  28.609  1.00  0.00     0.074 A 
ATOM     98  C   UNL A   1      46.097  30.762  31.694  1.00  0.00    -0.036 A 
ATOM     99  N   UNL A   1      44.932  29.239  30.570  1.00  0.00    -0.354 N 
ATOM    100  N   UNL A   1      44.519  26.654  29.245  1.00  0.00    -0.248 NA
ATOM    101  C   UNL A   1      45.353  24.617  28.467  1.00  0.00    -0.034 C 
ATOM    102  C   UNL A   1      46.941  29.684  31.407  1.00  0.00    -0.036 A 
ATOM    103  H   UNL A   1      46.359  31.611  32.221  1.00  0.00     0.065 H 
ATOM    104  C   UNL A   1      46.207  28.724  30.728  1.00  0.00     0.049 A 
ATOM    105  H   UNL A   1      44.190  28.781  30.113  1.00  0.00     0.167 HD
ATOM    106  C   UNL A   1      45.857  26.544  29.599  1.00  0.00     0.074 A 
ATOM    107  C   UNL A   1      46.310  25.253  29.125  1.00  0.00    -0.034 C 
ATOM    108  H   UNL A   1      45.391  23.707  27.980  1.00  0.00     0.065 H 
ATOM    109  H   UNL A   1      47.939  29.614  31.659  1.00  0.00     0.065 H 
ATOM    110  C   UNL A   1      46.640  27.433  30.258  1.00  0.00     0.037 A 
ATOM    111  H   UNL A   1      47.259  24.877  29.280  1.00  0.00     0.065 H 
BRANCH  92 112
ATOM    112  C   UNL A   1      43.765  32.678  31.798  1.00  0.00     0.064 A 
ATOM    113  C   UNL A   1      44.018  33.831  31.039  1.00  0.00     0.173 A 
ATOM    114  C   UNL A   1      43.549  32.835  33.176  1.00  0.00     0.173 A 
ATOM    115  F   UNL A   1      44.241  33.735  29.720  1.00  0.00    -0.203 F 
ATOM    116  C   UNL A   1      44.077  35.087  31.640  1.00  0.00     0.198 A 
ATOM    117  C   UNL A   1      43.580  34.095  33.767  1.00  0.00     0.198 A 
ATOM    118  F   UNL A   1      43.297  31.766  33.947  1.00  0.00    -0.203 F 
ATOM    119  F   UNL A   1      44.364  36.168  30.901  1.00  0.00    -0.200 F 
ATOM    120  C   UNL A   1      43.850  35.218  33.002  1.00  0.00     0.200 A 
ATOM    121  F   UNL A   1      43.346  34.222  35.081  1.00  0.00    -0.200 F 
ATOM    122  F   UNL A   1      43.897  36.428  33.575  1.00  0.00    -0.200 F 
ENDBRANCH  92 112
BRANCH  95 123
ATOM    123  C   UNL A   1      42.784  23.808  27.317  1.00  0.00     0.064 A 
ATOM    124  C   UNL A   1      42.296  22.671  27.978  1.00  0.00     0.173 A 
ATOM    125  C   UNL A   1      43.163  23.669  25.974  1.00  0.00     0.173 A 
ATOM    126  F   UNL A   1      41.939  22.749  29.269  1.00  0.00    -0.203 F 
ATOM    127  C   UNL A   1      42.217  21.440  27.330  1.00  0.00     0.198 A 
ATOM    128  C   UNL A   1      43.054  22.444  25.318  1.00  0.00     0.198 A 
ATOM    129  F   UNL A   1      43.628  24.726  25.293  1.00  0.00    -0.203 F 
ATOM    130  F   UNL A   1      41.797  20.359  28.000  1.00  0.00    -0.200 F 
ATOM    131  C   UNL A   1      42.592  21.329  25.999  1.00  0.00     0.200 A 
ATOM    132  F   UNL A   1      43.403  22.345  24.028  1.00  0.00    -0.200 F 
ATOM    133  F   UNL A   1      42.515  20.144  25.376  1.00  0.00    -0.200 F 
ENDBRANCH  95 123
BRANCH 110 134
ATOM    134  C   UNL A   1      48.058  27.028  30.535  1.00  0.00     0.064 A 
ATOM    135  C   UNL A   1      49.112  27.416  29.695  1.00  0.00     0.173 A 
ATOM    136  C   UNL A   1      48.371  26.271  31.675  1.00  0.00     0.173 A 
ATOM    137  F   UNL A   1      48.864  28.126  28.584  1.00  0.00    -0.203 F 
ATOM    138  C   UNL A   1      50.424  27.043  29.974  1.00  0.00     0.198 A 
ATOM    139  C   UNL A   1      49.687  25.925  31.967  1.00  0.00     0.198 A 
ATOM    140  F   UNL A   1      47.399  25.879  32.513  1.00  0.00    -0.203 F 
ATOM    141  F   UNL A   1      51.410  27.384  29.132  1.00  0.00    -0.200 F 
ATOM    142  C   UNL A   1      50.711  26.304  31.112  1.00  0.00     0.200 A 
ATOM    143  F   UNL A   1      49.963  25.223  33.074  1.00  0.00    -0.200 F 
ATOM    144  F   UNL A   1      51.975  25.951  31.383  1.00  0.00    -0.200 F 
ENDBRANCH 110 134
ENDBRANCH  75  78
ENDBRANCH  65  68
ENDBRANCH  61  64
ENDBRANCH  58  61
ENDBRANCH  55  58
ENDBRANCH  52  55
ENDBRANCH   1  52
TORSDOF 22
ENDMDL
MODEL 6
REMARK VINA RESULT:      -9.5      4.877      8.772
REMARK SMILES CCOc1cccc(OCC)c1-c1ccc([C@@H](C)C(=O)NCCCCCCNC(=O)c2ccc(-c3c4nc(c(-c5c(F)c(F)c(F)c(F)c5F)c5ccc([nH]5)c(-c5c(F)c(F)c(F)c(F)c5F)c5nc(c(-c6c(F)c(F)c(F)c(F)c6F)c6ccc3[nH]6)C=C5)C=C4)cc2)cc1F
REMARK SMILES IDX 23 1 22 4 21 7 19 8 20 9 17 11 16 13 13 14 14 15 95 16 15 17
REMARK SMILES IDX 94 19 96 20 12 23 4 24 5 25 6 26 8 28 7 29 3 32 2 33 1 36
REMARK SMILES IDX 9 40 10 41 11 44 18 48 24 52 25 55 26 58 27 61 28 64 29 65
REMARK SMILES IDX 30 67 31 68 32 69 93 70 33 71 92 73 34 75 35 78 36 79 86 80
REMARK SMILES IDX 37 81 91 82 85 83 87 84 38 85 90 86 84 88 83 90 39 92 71 95
REMARK SMILES IDX 51 96 70 97 52 98 55 99 69 100 88 101 53 102 54 104 68 106
REMARK SMILES IDX 89 107 56 110 40 112 41 113 49 114 42 115 43 116 47 117
REMARK SMILES IDX 50 118 44 119 45 120 48 121 46 122 72 123 73 124 81 125
REMARK SMILES IDX 74 126 75 127 79 128 82 129 76 130 77 131 80 132 78 133
REMARK SMILES IDX 57 134 58 135 66 136 59 137 60 138 64 139 67 140 61 141
REMARK SMILES IDX 62 142 65 143 63 144
REMARK H PARENT 23 2 23 3 22 5 22 6 21 10 17 12 14 18 15 21 94 22 5 27 6 30
REMARK H PARENT 7 31 2 34 2 35 1 37 1 38 1 39 10 42 10 43 11 45 11 46 11 47
REMARK H PARENT 18 49 18 50 18 51 24 53 24 54 25 56 25 57 26 59 26 60 27 62
REMARK H PARENT 27 63 28 66 32 72 93 74 33 76 92 77 91 87 85 89 87 91 90 93
REMARK H PARENT 84 94 52 103 55 105 88 108 53 109 89 111
REMARK Flexibility Score: inf
ROOT
ATOM      1  C   UNL A   1      42.058  21.496  26.817  1.00  0.00    -0.036 C 
ATOM      2  H   UNL A   1      41.521  20.642  26.462  1.00  0.00     0.028 H 
ATOM      3  H   UNL A   1      42.882  21.255  27.455  1.00  0.00     0.028 H 
ENDROOT
BRANCH   1   4
ATOM      4  C   UNL A   1      41.094  22.341  27.674  1.00  0.00     0.017 C 
ATOM      5  H   UNL A   1      40.295  22.692  27.055  1.00  0.00     0.049 H 
ATOM      6  H   UNL A   1      40.720  21.726  28.466  1.00  0.00     0.049 H 
BRANCH   4   7
ATOM      7  N   UNL A   1      41.773  23.486  28.267  1.00  0.00    -0.356 N 
ATOM      8  C   UNL A   1      41.795  24.825  28.019  1.00  0.00     0.227 C 
ATOM      9  O   UNL A   1      42.599  25.471  28.707  1.00  0.00    -0.274 OA
ATOM     10  H   UNL A   1      42.350  23.233  29.023  1.00  0.00     0.163 HD
BRANCH   8  11
ATOM     11  C   UNL A   1      40.924  25.575  26.984  1.00  0.00     0.060 C 
ATOM     12  H   UNL A   1      40.151  24.870  26.760  1.00  0.00     0.045 H 
BRANCH  11  13
ATOM     13  C   UNL A   1      40.202  26.794  27.533  1.00  0.00    -0.033 A 
ATOM     14  C   UNL A   1      38.980  29.166  28.524  1.00  0.00     0.025 A 
ATOM     15  C   UNL A   1      39.797  29.184  27.399  1.00  0.00    -0.051 A 
ATOM     16  C   UNL A   1      38.804  27.935  29.170  1.00  0.00     0.131 A 
ATOM     17  C   UNL A   1      40.294  28.008  26.869  1.00  0.00    -0.057 A 
ATOM     18  H   UNL A   1      40.035  30.084  26.955  1.00  0.00     0.063 H 
ATOM     19  C   UNL A   1      39.429  26.766  28.702  1.00  0.00    -0.022 A 
ATOM     20  F   UNL A   1      38.045  27.854  30.273  1.00  0.00    -0.206 F 
ATOM     21  H   UNL A   1      40.751  28.034  25.944  1.00  0.00     0.063 H 
ATOM     22  H   UNL A   1      39.319  25.882  29.223  1.00  0.00     0.066 H 
BRANCH  14  23
ATOM     23  C   UNL A   1      38.446  30.452  28.982  1.00  0.00     0.069 A 
ATOM     24  C   UNL A   1      39.251  31.201  29.882  1.00  0.00     0.130 A 
ATOM     25  C   UNL A   1      38.923  32.501  30.272  1.00  0.00    -0.019 A 
ATOM     26  C   UNL A   1      37.787  33.100  29.752  1.00  0.00    -0.055 A 
ATOM     27  H   UNL A   1      39.521  33.011  30.940  1.00  0.00     0.066 H 
ATOM     28  C   UNL A   1      37.280  31.070  28.471  1.00  0.00     0.130 A 
ATOM     29  C   UNL A   1      36.974  32.385  28.874  1.00  0.00    -0.019 A 
ATOM     30  H   UNL A   1      37.545  34.069  30.011  1.00  0.00     0.063 H 
ATOM     31  H   UNL A   1      36.120  32.832  28.508  1.00  0.00     0.066 H 
BRANCH  24  32
ATOM     32  O   UNL A   1      40.354  30.609  30.452  1.00  0.00    -0.493 OA
BRANCH  32  33
ATOM     33  C   UNL A   1      40.410  30.761  31.875  1.00  0.00     0.085 C 
ATOM     34  H   UNL A   1      41.427  30.879  32.185  1.00  0.00     0.070 H 
ATOM     35  H   UNL A   1      39.851  31.625  32.169  1.00  0.00     0.070 H 
BRANCH  33  36
ATOM     36  C   UNL A   1      39.819  29.520  32.526  1.00  0.00    -0.031 C 
ATOM     37  H   UNL A   1      38.858  29.315  32.100  1.00  0.00     0.027 H 
ATOM     38  H   UNL A   1      39.713  29.685  33.578  1.00  0.00     0.027 H 
ATOM     39  H   UNL A   1      40.468  28.686  32.360  1.00  0.00     0.027 H 
ENDBRANCH  33  36
ENDBRANCH  32  33
ENDBRANCH  24  32
BRANCH  28  40
ATOM     40  O   UNL A   1      36.310  30.614  27.618  1.00  0.00    -0.493 OA
BRANCH  40  41
ATOM     41  C   UNL A   1      35.163  29.873  28.008  1.00  0.00     0.085 C 
ATOM     42  H   UNL A   1      34.371  30.551  28.248  1.00  0.00     0.070 H 
ATOM     43  H   UNL A   1      35.411  29.277  28.862  1.00  0.00     0.070 H 
BRANCH  41  44
ATOM     44  C   UNL A   1      34.711  28.952  26.882  1.00  0.00    -0.031 C 
ATOM     45  H   UNL A   1      34.551  27.967  27.270  1.00  0.00     0.027 H 
ATOM     46  H   UNL A   1      35.464  28.918  26.124  1.00  0.00     0.027 H 
ATOM     47  H   UNL A   1      33.799  29.322  26.464  1.00  0.00     0.027 H 
ENDBRANCH  41  44
ENDBRANCH  40  41
ENDBRANCH  28  40
ENDBRANCH  14  23
ENDBRANCH  11  13
BRANCH  11  48
ATOM     48  C   UNL A   1      41.614  25.842  25.649  1.00  0.00    -0.049 C 
ATOM     49  H   UNL A   1      42.182  26.746  25.715  1.00  0.00     0.024 H 
ATOM     50  H   UNL A   1      40.876  25.940  24.880  1.00  0.00     0.024 H 
ATOM     51  H   UNL A   1      42.266  25.027  25.416  1.00  0.00     0.024 H 
ENDBRANCH  11  48
ENDBRANCH   8  11
ENDBRANCH   4   7
ENDBRANCH   1   4
BRANCH   1  52
ATOM     52  C   UNL A   1      42.662  22.206  25.607  1.00  0.00    -0.052 C 
ATOM     53  H   UNL A   1      42.185  23.160  25.509  1.00  0.00     0.027 H 
ATOM     54  H   UNL A   1      42.498  21.562  24.769  1.00  0.00     0.027 H 
BRANCH  52  55
ATOM     55  C   UNL A   1      44.174  22.435  25.682  1.00  0.00    -0.052 C 
ATOM     56  H   UNL A   1      44.631  21.858  24.906  1.00  0.00     0.027 H 
ATOM     57  H   UNL A   1      44.462  22.142  26.671  1.00  0.00     0.027 H 
BRANCH  55  58
ATOM     58  C   UNL A   1      44.640  23.887  25.525  1.00  0.00    -0.036 C 
ATOM     59  H   UNL A   1      44.022  24.502  26.146  1.00  0.00     0.028 H 
ATOM     60  H   UNL A   1      44.560  24.112  24.483  1.00  0.00     0.028 H 
BRANCH  58  61
ATOM     61  C   UNL A   1      46.098  24.150  25.902  1.00  0.00     0.018 C 
ATOM     62  H   UNL A   1      46.623  23.218  25.922  1.00  0.00     0.049 H 
ATOM     63  H   UNL A   1      46.110  24.621  26.863  1.00  0.00     0.049 H 
BRANCH  61  64
ATOM     64  N   UNL A   1      46.755  25.040  24.958  1.00  0.00    -0.352 N 
ATOM     65  C   UNL A   1      46.735  26.408  24.876  1.00  0.00     0.251 C 
ATOM     66  H   UNL A   1      47.297  24.589  24.271  1.00  0.00     0.163 HD
ATOM     67  O   UNL A   1      47.162  26.968  23.865  1.00  0.00    -0.269 OA
BRANCH  65  68
ATOM     68  C   UNL A   1      46.199  27.222  25.986  1.00  0.00     0.039 A 
ATOM     69  C   UNL A   1      44.822  27.459  26.049  1.00  0.00    -0.049 A 
ATOM     70  C   UNL A   1      47.050  27.792  26.937  1.00  0.00    -0.049 A 
ATOM     71  C   UNL A   1      44.293  28.215  27.097  1.00  0.00    -0.053 A 
ATOM     72  H   UNL A   1      44.198  27.075  25.322  1.00  0.00     0.063 H 
ATOM     73  C   UNL A   1      46.515  28.492  28.017  1.00  0.00    -0.053 A 
ATOM     74  H   UNL A   1      48.072  27.694  26.840  1.00  0.00     0.063 H 
ATOM     75  C   UNL A   1      45.133  28.712  28.108  1.00  0.00    -0.014 A 
ATOM     76  H   UNL A   1      43.281  28.410  27.129  1.00  0.00     0.063 H 
ATOM     77  H   UNL A   1      47.141  28.850  28.756  1.00  0.00     0.063 H 
BRANCH  75  78
ATOM     78  C   UNL A   1      44.581  29.462  29.266  1.00  0.00     0.031 A 
ATOM     79  C   UNL A   1      44.359  30.946  29.173  1.00  0.00     0.074 A 
ATOM     80  C   UNL A   1      44.341  28.815  30.423  1.00  0.00     0.049 A 
ATOM     81  N   UNL A   1      43.967  31.786  30.098  1.00  0.00    -0.248 NA
ATOM     82  C   UNL A   1      44.638  31.575  27.872  1.00  0.00    -0.034 C 
ATOM     83  C   UNL A   1      44.557  27.386  30.652  1.00  0.00    -0.036 A 
ATOM     84  N   UNL A   1      43.878  29.278  31.629  1.00  0.00    -0.354 N 
ATOM     85  C   UNL A   1      43.960  33.037  29.496  1.00  0.00     0.074 A 
ATOM     86  C   UNL A   1      44.439  32.857  28.142  1.00  0.00    -0.034 C 
ATOM     87  H   UNL A   1      44.916  31.134  26.981  1.00  0.00     0.065 H 
ATOM     88  C   UNL A   1      44.218  27.087  31.916  1.00  0.00    -0.036 A 
ATOM     89  H   UNL A   1      44.914  26.715  29.953  1.00  0.00     0.065 H 
ATOM     90  C   UNL A   1      43.795  28.307  32.597  1.00  0.00     0.049 A 
ATOM     91  H   UNL A   1      43.627  30.217  31.787  1.00  0.00     0.167 HD
ATOM     92  C   UNL A   1      43.568  34.223  30.018  1.00  0.00     0.037 A 
ATOM     93  H   UNL A   1      44.602  33.626  27.475  1.00  0.00     0.065 H 
ATOM     94  H   UNL A   1      44.250  26.146  32.338  1.00  0.00     0.065 H 
ATOM     95  C   UNL A   1      43.435  28.393  33.892  1.00  0.00     0.037 A 
ATOM     96  C   UNL A   1      43.076  34.397  31.361  1.00  0.00     0.049 A 
ATOM     97  C   UNL A   1      43.011  29.726  34.449  1.00  0.00     0.074 A 
ATOM     98  C   UNL A   1      42.616  35.551  31.969  1.00  0.00    -0.036 A 
ATOM     99  N   UNL A   1      42.982  33.384  32.303  1.00  0.00    -0.354 N 
ATOM    100  N   UNL A   1      42.953  30.891  33.852  1.00  0.00    -0.248 NA
ATOM    101  C   UNL A   1      42.595  29.754  35.858  1.00  0.00    -0.034 C 
ATOM    102  C   UNL A   1      42.281  35.245  33.292  1.00  0.00    -0.036 A 
ATOM    103  H   UNL A   1      42.533  36.479  31.524  1.00  0.00     0.065 H 
ATOM    104  C   UNL A   1      42.485  33.890  33.493  1.00  0.00     0.049 A 
ATOM    105  H   UNL A   1      43.231  32.444  32.149  1.00  0.00     0.167 HD
ATOM    106  C   UNL A   1      42.471  31.783  34.801  1.00  0.00     0.074 A 
ATOM    107  C   UNL A   1      42.235  31.019  36.008  1.00  0.00    -0.034 C 
ATOM    108  H   UNL A   1      42.586  28.987  36.550  1.00  0.00     0.065 H 
ATOM    109  H   UNL A   1      41.938  35.915  33.998  1.00  0.00     0.065 H 
ATOM    110  C   UNL A   1      42.246  33.114  34.683  1.00  0.00     0.037 A 
ATOM    111  H   UNL A   1      41.836  31.412  36.876  1.00  0.00     0.065 H 
BRANCH  92 112
ATOM    112  C   UNL A   1      43.641  35.432  29.131  1.00  0.00     0.064 A 
ATOM    113  C   UNL A   1      44.842  36.135  28.948  1.00  0.00     0.173 A 
ATOM    114  C   UNL A   1      42.513  35.867  28.417  1.00  0.00     0.173 A 
ATOM    115  F   UNL A   1      45.947  35.767  29.615  1.00  0.00    -0.203 F 
ATOM    116  C   UNL A   1      44.905  37.242  28.105  1.00  0.00     0.198 A 
ATOM    117  C   UNL A   1      42.588  36.955  27.551  1.00  0.00     0.198 A 
ATOM    118  F   UNL A   1      41.341  35.227  28.549  1.00  0.00    -0.203 F 
ATOM    119  F   UNL A   1      46.053  37.922  27.981  1.00  0.00    -0.200 F 
ATOM    120  C   UNL A   1      43.780  37.645  27.401  1.00  0.00     0.200 A 
ATOM    121  F   UNL A   1      41.503  37.336  26.862  1.00  0.00    -0.200 F 
ATOM    122  F   UNL A   1      43.846  38.703  26.582  1.00  0.00    -0.200 F 
ENDBRANCH  92 112
BRANCH  95 123
ATOM    123  C   UNL A   1      43.447  27.180  34.750  1.00  0.00     0.064 A 
ATOM    124  C   UNL A   1      44.614  26.776  35.414  1.00  0.00     0.173 A 
ATOM    125  C   UNL A   1      42.298  26.391  34.913  1.00  0.00     0.173 A 
ATOM    126  F   UNL A   1      45.744  27.486  35.274  1.00  0.00    -0.203 F 
ATOM    127  C   UNL A   1      44.639  25.617  36.187  1.00  0.00     0.198 A 
ATOM    128  C   UNL A   1      42.316  25.249  35.711  1.00  0.00     0.198 A 
ATOM    129  F   UNL A   1      41.154  26.737  34.306  1.00  0.00    -0.203 F 
ATOM    130  F   UNL A   1      45.781  25.227  36.768  1.00  0.00    -0.200 F 
ATOM    131  C   UNL A   1      43.489  24.857  36.339  1.00  0.00     0.200 A 
ATOM    132  F   UNL A   1      41.199  24.526  35.867  1.00  0.00    -0.200 F 
ATOM    133  F   UNL A   1      43.513  23.742  37.082  1.00  0.00    -0.200 F 
ENDBRANCH  95 123
BRANCH 110 134
ATOM    134  C   UNL A   1      41.685  33.826  35.880  1.00  0.00     0.064 A 
ATOM    135  C   UNL A   1      42.512  34.499  36.790  1.00  0.00     0.173 A 
ATOM    136  C   UNL A   1      40.300  33.864  36.098  1.00  0.00     0.173 A 
ATOM    137  F   UNL A   1      43.845  34.479  36.636  1.00  0.00    -0.203 F 
ATOM    138  C   UNL A   1      41.974  35.165  37.888  1.00  0.00     0.198 A 
ATOM    139  C   UNL A   1      39.763  34.556  37.179  1.00  0.00     0.198 A 
ATOM    140  F   UNL A   1      39.465  33.240  35.252  1.00  0.00    -0.203 F 
ATOM    141  F   UNL A   1      42.787  35.761  38.772  1.00  0.00    -0.200 F 
ATOM    142  C   UNL A   1      40.601  35.199  38.078  1.00  0.00     0.200 A 
ATOM    143  F   UNL A   1      38.436  34.599  37.353  1.00  0.00    -0.200 F 
ATOM    144  F   UNL A   1      40.085  35.846  39.131  1.00  0.00    -0.200 F 
ENDBRANCH 110 134
ENDBRANCH  75  78
ENDBRANCH  65  68
ENDBRANCH  61  64
ENDBRANCH  58  61
ENDBRANCH  55  58
ENDBRANCH  52  55
ENDBRANCH   1  52
TORSDOF 22
ENDMDL
MODEL 7
REMARK VINA RESULT:      -9.5      8.063     13.367
REMARK SMILES CCOc1cccc(OCC)c1-c1ccc([C@@H](C)C(=O)NCCCCCCNC(=O)c2ccc(-c3c4nc(c(-c5c(F)c(F)c(F)c(F)c5F)c5ccc([nH]5)c(-c5c(F)c(F)c(F)c(F)c5F)c5nc(c(-c6c(F)c(F)c(F)c(F)c6F)c6ccc3[nH]6)C=C5)C=C4)cc2)cc1F
REMARK SMILES IDX 23 1 22 4 21 7 19 8 20 9 17 11 16 13 13 14 14 15 95 16 15 17
REMARK SMILES IDX 94 19 96 20 12 23 4 24 5 25 6 26 8 28 7 29 3 32 2 33 1 36
REMARK SMILES IDX 9 40 10 41 11 44 18 48 24 52 25 55 26 58 27 61 28 64 29 65
REMARK SMILES IDX 30 67 31 68 32 69 93 70 33 71 92 73 34 75 35 78 36 79 86 80
REMARK SMILES IDX 37 81 91 82 85 83 87 84 38 85 90 86 84 88 83 90 39 92 71 95
REMARK SMILES IDX 51 96 70 97 52 98 55 99 69 100 88 101 53 102 54 104 68 106
REMARK SMILES IDX 89 107 56 110 40 112 41 113 49 114 42 115 43 116 47 117
REMARK SMILES IDX 50 118 44 119 45 120 48 121 46 122 72 123 73 124 81 125
REMARK SMILES IDX 74 126 75 127 79 128 82 129 76 130 77 131 80 132 78 133
REMARK SMILES IDX 57 134 58 135 66 136 59 137 60 138 64 139 67 140 61 141
REMARK SMILES IDX 62 142 65 143 63 144
REMARK H PARENT 23 2 23 3 22 5 22 6 21 10 17 12 14 18 15 21 94 22 5 27 6 30
REMARK H PARENT 7 31 2 34 2 35 1 37 1 38 1 39 10 42 10 43 11 45 11 46 11 47
REMARK H PARENT 18 49 18 50 18 51 24 53 24 54 25 56 25 57 26 59 26 60 27 62
REMARK H PARENT 27 63 28 66 32 72 93 74 33 76 92 77 91 87 85 89 87 91 90 93
REMARK H PARENT 84 94 52 103 55 105 88 108 53 109 89 111
REMARK Flexibility Score: inf
ROOT
ATOM      1  C   UNL A   1      43.391  26.321  37.614  1.00  0.00    -0.036 C 
ATOM      2  H   UNL A   1      42.501  26.590  38.143  1.00  0.00     0.028 H 
ATOM      3  H   UNL A   1      43.392  26.620  36.587  1.00  0.00     0.028 H 
ENDROOT
BRANCH   1   4
ATOM      4  C   UNL A   1      43.490  24.782  37.604  1.00  0.00     0.017 C 
ATOM      5  H   UNL A   1      44.518  24.499  37.693  1.00  0.00     0.049 H 
ATOM      6  H   UNL A   1      42.919  24.402  38.425  1.00  0.00     0.049 H 
BRANCH   4   7
ATOM      7  N   UNL A   1      42.949  24.222  36.372  1.00  0.00    -0.356 N 
ATOM      8  C   UNL A   1      43.480  23.587  35.291  1.00  0.00     0.227 C 
ATOM      9  O   UNL A   1      42.674  23.343  34.380  1.00  0.00    -0.274 OA
ATOM     10  H   UNL A   1      41.973  24.326  36.307  1.00  0.00     0.163 HD
BRANCH   8  11
ATOM     11  C   UNL A   1      44.956  23.159  35.118  1.00  0.00     0.060 C 
ATOM     12  H   UNL A   1      45.499  24.009  35.474  1.00  0.00     0.045 H 
BRANCH  11  13
ATOM     13  C   UNL A   1      45.388  22.009  36.012  1.00  0.00    -0.033 A 
ATOM     14  C   UNL A   1      46.317  19.951  37.745  1.00  0.00     0.025 A 
ATOM     15  C   UNL A   1      46.341  21.288  38.126  1.00  0.00    -0.051 A 
ATOM     16  C   UNL A   1      45.845  19.658  36.459  1.00  0.00     0.131 A 
ATOM     17  C   UNL A   1      45.786  22.262  37.317  1.00  0.00    -0.057 A 
ATOM     18  H   UNL A   1      46.776  21.556  39.022  1.00  0.00     0.063 H 
ATOM     19  C   UNL A   1      45.412  20.673  35.589  1.00  0.00    -0.022 A 
ATOM     20  F   UNL A   1      45.816  18.390  36.022  1.00  0.00    -0.206 F 
ATOM     21  H   UNL A   1      45.664  23.214  37.697  1.00  0.00     0.063 H 
ATOM     22  H   UNL A   1      45.111  20.434  34.631  1.00  0.00     0.066 H 
BRANCH  14  23
ATOM     23  C   UNL A   1      46.871  18.977  38.691  1.00  0.00     0.069 A 
ATOM     24  C   UNL A   1      48.203  19.194  39.135  1.00  0.00     0.130 A 
ATOM     25  C   UNL A   1      48.787  18.427  40.144  1.00  0.00    -0.019 A 
ATOM     26  C   UNL A   1      48.045  17.429  40.756  1.00  0.00    -0.055 A 
ATOM     27  H   UNL A   1      49.763  18.600  40.431  1.00  0.00     0.066 H 
ATOM     28  C   UNL A   1      46.129  17.945  39.313  1.00  0.00     0.130 A 
ATOM     29  C   UNL A   1      46.739  17.188  40.332  1.00  0.00    -0.019 A 
ATOM     30  H   UNL A   1      48.455  16.870  41.519  1.00  0.00     0.063 H 
ATOM     31  H   UNL A   1      46.201  16.430  40.781  1.00  0.00     0.066 H 
BRANCH  24  32
ATOM     32  O   UNL A   1      48.977  20.143  38.507  1.00  0.00    -0.493 OA
BRANCH  32  33
ATOM     33  C   UNL A   1      49.849  19.597  37.512  1.00  0.00     0.085 C 
ATOM     34  H   UNL A   1      50.865  19.682  37.838  1.00  0.00     0.070 H 
ATOM     35  H   UNL A   1      49.618  18.563  37.355  1.00  0.00     0.070 H 
BRANCH  33  36
ATOM     36  C   UNL A   1      49.663  20.369  36.215  1.00  0.00    -0.031 C 
ATOM     37  H   UNL A   1      50.336  19.990  35.474  1.00  0.00     0.027 H 
ATOM     38  H   UNL A   1      49.867  21.406  36.385  1.00  0.00     0.027 H 
ATOM     39  H   UNL A   1      48.656  20.254  35.873  1.00  0.00     0.027 H 
ENDBRANCH  33  36
ENDBRANCH  32  33
ENDBRANCH  24  32
BRANCH  28  40
ATOM     40  O   UNL A   1      44.856  17.486  39.100  1.00  0.00    -0.493 OA
BRANCH  40  41
ATOM     41  C   UNL A   1      44.305  16.312  39.677  1.00  0.00     0.085 C 
ATOM     42  H   UNL A   1      45.099  15.674  40.003  1.00  0.00     0.070 H 
ATOM     43  H   UNL A   1      43.708  15.813  38.942  1.00  0.00     0.070 H 
BRANCH  41  44
ATOM     44  C   UNL A   1      43.424  16.663  40.869  1.00  0.00    -0.031 C 
ATOM     45  H   UNL A   1      43.555  15.929  41.638  1.00  0.00     0.027 H 
ATOM     46  H   UNL A   1      42.399  16.679  40.564  1.00  0.00     0.027 H 
ATOM     47  H   UNL A   1      43.700  17.626  41.245  1.00  0.00     0.027 H 
ENDBRANCH  41  44
ENDBRANCH  40  41
ENDBRANCH  28  40
ENDBRANCH  14  23
ENDBRANCH  11  13
BRANCH  11  48
ATOM     48  C   UNL A   1      45.400  22.985  33.668  1.00  0.00    -0.049 C 
ATOM     49  H   UNL A   1      45.898  22.045  33.557  1.00  0.00     0.024 H 
ATOM     50  H   UNL A   1      46.071  23.777  33.404  1.00  0.00     0.024 H 
ATOM     51  H   UNL A   1      44.544  23.014  33.027  1.00  0.00     0.024 H 
ENDBRANCH  11  48
ENDBRANCH   8  11
ENDBRANCH   4   7
ENDBRANCH   1   4
BRANCH   1  52
ATOM     52  C   UNL A   1      44.563  27.054  38.264  1.00  0.00    -0.052 C 
ATOM     53  H   UNL A   1      44.172  27.693  39.028  1.00  0.00     0.027 H 
ATOM     54  H   UNL A   1      45.056  27.587  37.478  1.00  0.00     0.027 H 
BRANCH  52  55
ATOM     55  C   UNL A   1      45.621  26.146  38.896  1.00  0.00    -0.052 C 
ATOM     56  H   UNL A   1      45.959  25.465  38.144  1.00  0.00     0.027 H 
ATOM     57  H   UNL A   1      45.138  25.674  39.727  1.00  0.00     0.027 H 
BRANCH  55  58
ATOM     58  C   UNL A   1      46.850  26.854  39.477  1.00  0.00    -0.036 C 
ATOM     59  H   UNL A   1      47.602  26.114  39.659  1.00  0.00     0.028 H 
ATOM     60  H   UNL A   1      46.514  27.351  40.362  1.00  0.00     0.028 H 
BRANCH  58  61
ATOM     61  C   UNL A   1      47.460  27.939  38.590  1.00  0.00     0.018 C 
ATOM     62  H   UNL A   1      47.910  28.683  39.214  1.00  0.00     0.049 H 
ATOM     63  H   UNL A   1      46.676  28.356  37.994  1.00  0.00     0.049 H 
BRANCH  61  64
ATOM     64  N   UNL A   1      48.472  27.405  37.691  1.00  0.00    -0.352 N 
ATOM     65  C   UNL A   1      48.381  27.060  36.367  1.00  0.00     0.251 C 
ATOM     66  H   UNL A   1      49.359  27.271  38.096  1.00  0.00     0.163 HD
ATOM     67  O   UNL A   1      49.281  26.405  35.841  1.00  0.00    -0.269 OA
BRANCH  65  68
ATOM     68  C   UNL A   1      47.207  27.459  35.563  1.00  0.00     0.039 A 
ATOM     69  C   UNL A   1      46.214  26.511  35.296  1.00  0.00    -0.049 A 
ATOM     70  C   UNL A   1      47.103  28.748  35.033  1.00  0.00    -0.049 A 
ATOM     71  C   UNL A   1      45.091  26.872  34.548  1.00  0.00    -0.053 A 
ATOM     72  H   UNL A   1      46.312  25.547  35.650  1.00  0.00     0.063 H 
ATOM     73  C   UNL A   1      45.952  29.124  34.342  1.00  0.00    -0.053 A 
ATOM     74  H   UNL A   1      47.877  29.420  35.152  1.00  0.00     0.063 H 
ATOM     75  C   UNL A   1      44.936  28.190  34.091  1.00  0.00    -0.014 A 
ATOM     76  H   UNL A   1      44.372  26.165  34.330  1.00  0.00     0.063 H 
ATOM     77  H   UNL A   1      45.848  30.097  34.013  1.00  0.00     0.063 H 
BRANCH  75  78
ATOM     78  C   UNL A   1      43.717  28.610  33.352  1.00  0.00     0.031 A 
ATOM     79  C   UNL A   1      43.525  28.208  31.916  1.00  0.00     0.074 A 
ATOM     80  C   UNL A   1      42.814  29.407  33.956  1.00  0.00     0.049 A 
ATOM     81  N   UNL A   1      42.574  28.544  31.081  1.00  0.00    -0.248 NA
ATOM     82  C   UNL A   1      44.552  27.329  31.333  1.00  0.00    -0.034 C 
ATOM     83  C   UNL A   1      42.910  29.900  35.331  1.00  0.00    -0.036 A 
ATOM     84  N   UNL A   1      41.648  29.955  33.487  1.00  0.00    -0.354 N 
ATOM     85  C   UNL A   1      42.891  27.928  29.878  1.00  0.00     0.074 A 
ATOM     86  C   UNL A   1      44.150  27.242  30.073  1.00  0.00    -0.034 C 
ATOM     87  H   UNL A   1      45.371  26.896  31.786  1.00  0.00     0.065 H 
ATOM     88  C   UNL A   1      41.843  30.669  35.597  1.00  0.00    -0.036 A 
ATOM     89  H   UNL A   1      43.676  29.690  35.990  1.00  0.00     0.065 H 
ATOM     90  C   UNL A   1      41.006  30.754  34.403  1.00  0.00     0.049 A 
ATOM     91  H   UNL A   1      41.301  29.793  32.580  1.00  0.00     0.167 HD
ATOM     92  C   UNL A   1      42.184  27.916  28.723  1.00  0.00     0.037 A 
ATOM     93  H   UNL A   1      44.666  26.748  29.329  1.00  0.00     0.065 H 
ATOM     94  H   UNL A   1      41.644  31.127  36.500  1.00  0.00     0.065 H 
ATOM     95  C   UNL A   1      39.880  31.483  34.289  1.00  0.00     0.037 A 
ATOM     96  C   UNL A   1      40.923  28.586  28.535  1.00  0.00     0.049 A 
ATOM     97  C   UNL A   1      39.119  31.459  32.991  1.00  0.00     0.074 A 
ATOM     98  C   UNL A   1      40.110  28.600  27.416  1.00  0.00    -0.036 A 
ATOM     99  N   UNL A   1      40.292  29.362  29.496  1.00  0.00    -0.354 N 
ATOM    100  N   UNL A   1      39.399  30.824  31.879  1.00  0.00    -0.248 NA
ATOM    101  C   UNL A   1      37.878  32.246  32.935  1.00  0.00    -0.034 C 
ATOM    102  C   UNL A   1      39.007  29.417  27.685  1.00  0.00    -0.036 A 
ATOM    103  H   UNL A   1      40.286  28.093  26.533  1.00  0.00     0.065 H 
ATOM    104  C   UNL A   1      39.108  29.872  28.990  1.00  0.00     0.049 A 
ATOM    105  H   UNL A   1      40.635  29.527  30.404  1.00  0.00     0.167 HD
ATOM    106  C   UNL A   1      38.362  31.114  31.002  1.00  0.00     0.074 A 
ATOM    107  C   UNL A   1      37.436  31.965  31.719  1.00  0.00    -0.034 C 
ATOM    108  H   UNL A   1      37.462  32.857  33.655  1.00  0.00     0.065 H 
ATOM    109  H   UNL A   1      38.247  29.641  27.025  1.00  0.00     0.065 H 
ATOM    110  C   UNL A   1      38.192  30.711  29.719  1.00  0.00     0.037 A 
ATOM    111  H   UNL A   1      36.543  32.310  31.330  1.00  0.00     0.065 H 
BRANCH  92 112
ATOM    112  C   UNL A   1      42.752  27.143  27.567  1.00  0.00     0.064 A 
ATOM    113  C   UNL A   1      43.677  27.720  26.684  1.00  0.00     0.173 A 
ATOM    114  C   UNL A   1      42.405  25.797  27.366  1.00  0.00     0.173 A 
ATOM    115  F   UNL A   1      44.034  29.005  26.826  1.00  0.00    -0.203 F 
ATOM    116  C   UNL A   1      44.215  26.986  25.629  1.00  0.00     0.198 A 
ATOM    117  C   UNL A   1      42.968  25.060  26.329  1.00  0.00     0.198 A 
ATOM    118  F   UNL A   1      41.529  25.195  28.185  1.00  0.00    -0.203 F 
ATOM    119  F   UNL A   1      45.064  27.572  24.773  1.00  0.00    -0.200 F 
ATOM    120  C   UNL A   1      43.867  25.655  25.457  1.00  0.00     0.200 A 
ATOM    121  F   UNL A   1      42.640  23.769  26.172  1.00  0.00    -0.200 F 
ATOM    122  F   UNL A   1      44.394  24.949  24.448  1.00  0.00    -0.200 F 
ENDBRANCH  92 112
BRANCH  95 123
ATOM    123  C   UNL A   1      39.397  32.290  35.439  1.00  0.00     0.064 A 
ATOM    124  C   UNL A   1      39.763  33.636  35.583  1.00  0.00     0.173 A 
ATOM    125  C   UNL A   1      38.572  31.731  36.426  1.00  0.00     0.173 A 
ATOM    126  F   UNL A   1      40.567  34.211  34.675  1.00  0.00    -0.203 F 
ATOM    127  C   UNL A   1      39.344  34.384  36.681  1.00  0.00     0.198 A 
ATOM    128  C   UNL A   1      38.128  32.489  37.508  1.00  0.00     0.198 A 
ATOM    129  F   UNL A   1      38.186  30.450  36.333  1.00  0.00    -0.203 F 
ATOM    130  F   UNL A   1      39.752  35.653  36.819  1.00  0.00    -0.200 F 
ATOM    131  C   UNL A   1      38.523  33.811  37.640  1.00  0.00     0.200 A 
ATOM    132  F   UNL A   1      37.322  31.935  38.425  1.00  0.00    -0.200 F 
ATOM    133  F   UNL A   1      38.120  34.531  38.697  1.00  0.00    -0.200 F 
ENDBRANCH  95 123
BRANCH 110 134
ATOM    134  C   UNL A   1      36.943  31.158  29.017  1.00  0.00     0.064 A 
ATOM    135  C   UNL A   1      35.868  30.284  28.800  1.00  0.00     0.173 A 
ATOM    136  C   UNL A   1      36.807  32.487  28.589  1.00  0.00     0.173 A 
ATOM    137  F   UNL A   1      35.955  28.999  29.175  1.00  0.00    -0.203 F 
ATOM    138  C   UNL A   1      34.711  30.720  28.159  1.00  0.00     0.198 A 
ATOM    139  C   UNL A   1      35.638  32.927  27.976  1.00  0.00     0.198 A 
ATOM    140  F   UNL A   1      37.805  33.364  28.779  1.00  0.00    -0.203 F 
ATOM    141  F   UNL A   1      33.715  29.856  27.918  1.00  0.00    -0.200 F 
ATOM    142  C   UNL A   1      34.594  32.041  27.754  1.00  0.00     0.200 A 
ATOM    143  F   UNL A   1      35.521  34.207  27.598  1.00  0.00    -0.200 F 
ATOM    144  F   UNL A   1      33.477  32.460  27.143  1.00  0.00    -0.200 F 
ENDBRANCH 110 134
ENDBRANCH  75  78
ENDBRANCH  65  68
ENDBRANCH  61  64
ENDBRANCH  58  61
ENDBRANCH  55  58
ENDBRANCH  52  55
ENDBRANCH   1  52
TORSDOF 22
ENDMDL
MODEL 8
REMARK VINA RESULT:      -9.5      3.103      5.514
REMARK SMILES CCOc1cccc(OCC)c1-c1ccc([C@@H](C)C(=O)NCCCCCCNC(=O)c2ccc(-c3c4nc(c(-c5c(F)c(F)c(F)c(F)c5F)c5ccc([nH]5)c(-c5c(F)c(F)c(F)c(F)c5F)c5nc(c(-c6c(F)c(F)c(F)c(F)c6F)c6ccc3[nH]6)C=C5)C=C4)cc2)cc1F
REMARK SMILES IDX 23 1 22 4 21 7 19 8 20 9 17 11 16 13 13 14 14 15 95 16 15 17
REMARK SMILES IDX 94 19 96 20 12 23 4 24 5 25 6 26 8 28 7 29 3 32 2 33 1 36
REMARK SMILES IDX 9 40 10 41 11 44 18 48 24 52 25 55 26 58 27 61 28 64 29 65
REMARK SMILES IDX 30 67 31 68 32 69 93 70 33 71 92 73 34 75 35 78 36 79 86 80
REMARK SMILES IDX 37 81 91 82 85 83 87 84 38 85 90 86 84 88 83 90 39 92 71 95
REMARK SMILES IDX 51 96 70 97 52 98 55 99 69 100 88 101 53 102 54 104 68 106
REMARK SMILES IDX 89 107 56 110 40 112 41 113 49 114 42 115 43 116 47 117
REMARK SMILES IDX 50 118 44 119 45 120 48 121 46 122 72 123 73 124 81 125
REMARK SMILES IDX 74 126 75 127 79 128 82 129 76 130 77 131 80 132 78 133
REMARK SMILES IDX 57 134 58 135 66 136 59 137 60 138 64 139 67 140 61 141
REMARK SMILES IDX 62 142 65 143 63 144
REMARK H PARENT 23 2 23 3 22 5 22 6 21 10 17 12 14 18 15 21 94 22 5 27 6 30
REMARK H PARENT 7 31 2 34 2 35 1 37 1 38 1 39 10 42 10 43 11 45 11 46 11 47
REMARK H PARENT 18 49 18 50 18 51 24 53 24 54 25 56 25 57 26 59 26 60 27 62
REMARK H PARENT 27 63 28 66 32 72 93 74 33 76 92 77 91 87 85 89 87 91 90 93
REMARK H PARENT 84 94 52 103 55 105 88 108 53 109 89 111
REMARK Flexibility Score: inf
ROOT
ATOM      1  C   UNL A   1      39.379  28.355  27.441  1.00  0.00    -0.036 C 
ATOM      2  H   UNL A   1      39.391  28.603  26.400  1.00  0.00     0.028 H 
ATOM      3  H   UNL A   1      38.612  27.660  27.712  1.00  0.00     0.028 H 
ENDROOT
BRANCH   1   4
ATOM      4  C   UNL A   1      39.081  29.644  28.233  1.00  0.00     0.017 C 
ATOM      5  H   UNL A   1      39.926  29.880  28.844  1.00  0.00     0.049 H 
ATOM      6  H   UNL A   1      38.884  30.430  27.534  1.00  0.00     0.049 H 
BRANCH   4   7
ATOM      7  N   UNL A   1      37.909  29.485  29.085  1.00  0.00    -0.356 N 
ATOM      8  C   UNL A   1      36.593  29.822  28.982  1.00  0.00     0.227 C 
ATOM      9  O   UNL A   1      35.915  29.591  29.994  1.00  0.00    -0.274 OA
ATOM     10  H   UNL A   1      38.117  29.029  29.931  1.00  0.00     0.163 HD
BRANCH   8  11
ATOM     11  C   UNL A   1      35.905  30.444  27.745  1.00  0.00     0.060 C 
ATOM     12  H   UNL A   1      36.629  30.309  26.970  1.00  0.00     0.045 H 
BRANCH  11  13
ATOM     13  C   UNL A   1      34.671  29.697  27.269  1.00  0.00    -0.033 A 
ATOM     14  C   UNL A   1      32.434  28.273  26.234  1.00  0.00     0.025 A 
ATOM     15  C   UNL A   1      33.738  27.900  25.930  1.00  0.00    -0.051 A 
ATOM     16  C   UNL A   1      32.262  29.401  27.048  1.00  0.00     0.131 A 
ATOM     17  C   UNL A   1      34.812  28.534  26.527  1.00  0.00    -0.057 A 
ATOM     18  H   UNL A   1      33.907  27.140  25.252  1.00  0.00     0.063 H 
ATOM     19  C   UNL A   1      33.363  30.125  27.538  1.00  0.00    -0.022 A 
ATOM     20  F   UNL A   1      31.029  29.827  27.361  1.00  0.00    -0.206 F 
ATOM     21  H   UNL A   1      35.753  28.127  26.416  1.00  0.00     0.063 H 
ATOM     22  H   UNL A   1      33.207  30.977  28.098  1.00  0.00     0.066 H 
BRANCH  14  23
ATOM     23  C   UNL A   1      31.354  27.507  25.603  1.00  0.00     0.069 A 
ATOM     24  C   UNL A   1      30.703  28.104  24.490  1.00  0.00     0.130 A 
ATOM     25  C   UNL A   1      29.768  27.416  23.716  1.00  0.00    -0.019 A 
ATOM     26  C   UNL A   1      29.472  26.097  24.020  1.00  0.00    -0.055 A 
ATOM     27  H   UNL A   1      29.301  27.885  22.924  1.00  0.00     0.066 H 
ATOM     28  C   UNL A   1      31.032  26.164  25.913  1.00  0.00     0.130 A 
ATOM     29  C   UNL A   1      30.089  25.490  25.112  1.00  0.00    -0.019 A 
ATOM     30  H   UNL A   1      28.801  25.568  23.442  1.00  0.00     0.063 H 
ATOM     31  H   UNL A   1      29.847  24.513  25.343  1.00  0.00     0.066 H 
BRANCH  24  32
ATOM     32  O   UNL A   1      30.941  29.428  24.201  1.00  0.00    -0.493 OA
BRANCH  32  33
ATOM     33  C   UNL A   1      30.065  29.958  23.201  1.00  0.00     0.085 C 
ATOM     34  H   UNL A   1      30.640  30.325  22.377  1.00  0.00     0.070 H 
ATOM     35  H   UNL A   1      29.406  29.190  22.853  1.00  0.00     0.070 H 
BRANCH  33  36
ATOM     36  C   UNL A   1      29.257  31.095  23.806  1.00  0.00    -0.031 C 
ATOM     37  H   UNL A   1      29.574  31.262  24.815  1.00  0.00     0.027 H 
ATOM     38  H   UNL A   1      28.218  30.839  23.797  1.00  0.00     0.027 H 
ATOM     39  H   UNL A   1      29.409  31.986  23.233  1.00  0.00     0.027 H 
ENDBRANCH  33  36
ENDBRANCH  32  33
ENDBRANCH  24  32
BRANCH  28  40
ATOM     40  O   UNL A   1      31.464  25.333  26.912  1.00  0.00    -0.493 OA
BRANCH  40  41
ATOM     41  C   UNL A   1      31.677  23.936  26.776  1.00  0.00     0.085 C 
ATOM     42  H   UNL A   1      31.099  23.570  25.954  1.00  0.00     0.070 H 
ATOM     43  H   UNL A   1      31.379  23.451  27.683  1.00  0.00     0.070 H 
BRANCH  41  44
ATOM     44  C   UNL A   1      33.150  23.640  26.523  1.00  0.00    -0.031 C 
ATOM     45  H   UNL A   1      33.290  22.583  26.426  1.00  0.00     0.027 H 
ATOM     46  H   UNL A   1      33.733  24.003  27.342  1.00  0.00     0.027 H 
ATOM     47  H   UNL A   1      33.461  24.125  25.621  1.00  0.00     0.027 H 
ENDBRANCH  41  44
ENDBRANCH  40  41
ENDBRANCH  28  40
ENDBRANCH  14  23
ENDBRANCH  11  13
BRANCH  11  48
ATOM     48  C   UNL A   1      35.693  31.953  27.829  1.00  0.00    -0.049 C 
ATOM     49  H   UNL A   1      34.657  32.176  27.693  1.00  0.00     0.024 H 
ATOM     50  H   UNL A   1      36.266  32.436  27.064  1.00  0.00     0.024 H 
ATOM     51  H   UNL A   1      36.011  32.304  28.788  1.00  0.00     0.024 H 
ENDBRANCH  11  48
ENDBRANCH   8  11
ENDBRANCH   4   7
ENDBRANCH   1   4
BRANCH   1  52
ATOM     52  C   UNL A   1      40.701  27.666  27.774  1.00  0.00    -0.052 C 
ATOM     53  H   UNL A   1      41.327  28.373  28.277  1.00  0.00     0.027 H 
ATOM     54  H   UNL A   1      41.107  27.329  26.843  1.00  0.00     0.027 H 
BRANCH  52  55
ATOM     55  C   UNL A   1      40.575  26.424  28.661  1.00  0.00    -0.052 C 
ATOM     56  H   UNL A   1      40.155  26.731  29.595  1.00  0.00     0.027 H 
ATOM     57  H   UNL A   1      41.564  26.023  28.739  1.00  0.00     0.027 H 
BRANCH  55  58
ATOM     58  C   UNL A   1      39.708  25.289  28.105  1.00  0.00    -0.036 C 
ATOM     59  H   UNL A   1      38.682  25.568  28.225  1.00  0.00     0.028 H 
ATOM     60  H   UNL A   1      39.982  24.412  28.654  1.00  0.00     0.028 H 
BRANCH  58  61
ATOM     61  C   UNL A   1      39.937  24.952  26.632  1.00  0.00     0.018 C 
ATOM     62  H   UNL A   1      40.428  25.778  26.161  1.00  0.00     0.049 H 
ATOM     63  H   UNL A   1      38.983  24.763  26.185  1.00  0.00     0.049 H 
BRANCH  61  64
ATOM     64  N   UNL A   1      40.756  23.761  26.464  1.00  0.00    -0.352 N 
ATOM     65  C   UNL A   1      42.088  23.643  26.162  1.00  0.00     0.251 C 
ATOM     66  H   UNL A   1      40.279  22.909  26.586  1.00  0.00     0.163 HD
ATOM     67  O   UNL A   1      42.547  22.549  25.830  1.00  0.00    -0.269 OA
BRANCH  65  68
ATOM     68  C   UNL A   1      42.982  24.818  26.223  1.00  0.00     0.039 A 
ATOM     69  C   UNL A   1      43.671  25.084  27.410  1.00  0.00    -0.049 A 
ATOM     70  C   UNL A   1      43.107  25.684  25.132  1.00  0.00    -0.049 A 
ATOM     71  C   UNL A   1      44.531  26.183  27.484  1.00  0.00    -0.053 A 
ATOM     72  H   UNL A   1      43.545  24.470  28.230  1.00  0.00     0.063 H 
ATOM     73  C   UNL A   1      44.013  26.742  25.186  1.00  0.00    -0.053 A 
ATOM     74  H   UNL A   1      42.530  25.540  24.290  1.00  0.00     0.063 H 
ATOM     75  C   UNL A   1      44.732  27.003  26.362  1.00  0.00    -0.014 A 
ATOM     76  H   UNL A   1      45.020  26.392  28.368  1.00  0.00     0.063 H 
ATOM     77  H   UNL A   1      44.155  27.337  24.355  1.00  0.00     0.063 H 
BRANCH  75  78
ATOM     78  C   UNL A   1      45.693  28.137  26.400  1.00  0.00     0.031 A 
ATOM     79  C   UNL A   1      47.165  27.889  26.220  1.00  0.00     0.074 A 
ATOM     80  C   UNL A   1      45.244  29.380  26.660  1.00  0.00     0.049 A 
ATOM     81  N   UNL A   1      48.163  28.732  26.304  1.00  0.00    -0.248 NA
ATOM     82  C   UNL A   1      47.572  26.505  25.930  1.00  0.00    -0.034 C 
ATOM     83  C   UNL A   1      43.845  29.741  26.896  1.00  0.00    -0.036 A 
ATOM     84  N   UNL A   1      45.919  30.568  26.786  1.00  0.00    -0.354 N 
ATOM     85  C   UNL A   1      49.311  27.982  26.087  1.00  0.00     0.074 A 
ATOM     86  C   UNL A   1      48.893  26.607  25.921  1.00  0.00    -0.034 C 
ATOM     87  H   UNL A   1      46.982  25.672  25.776  1.00  0.00     0.065 H 
ATOM     88  C   UNL A   1      43.765  31.060  27.128  1.00  0.00    -0.036 A 
ATOM     89  H   UNL A   1      43.048  29.085  26.886  1.00  0.00     0.065 H 
ATOM     90  C   UNL A   1      45.107  31.633  27.093  1.00  0.00     0.049 A 
ATOM     91  H   UNL A   1      46.893  30.651  26.668  1.00  0.00     0.167 HD
ATOM     92  C   UNL A   1      50.595  28.406  26.008  1.00  0.00     0.037 A 
ATOM     93  H   UNL A   1      49.539  25.811  25.809  1.00  0.00     0.065 H 
ATOM     94  H   UNL A   1      42.894  31.586  27.302  1.00  0.00     0.065 H 
ATOM     95  C   UNL A   1      45.412  32.922  27.335  1.00  0.00     0.037 A 
ATOM     96  C   UNL A   1      51.008  29.779  26.156  1.00  0.00     0.049 A 
ATOM     97  C   UNL A   1      46.848  33.365  27.250  1.00  0.00     0.074 A 
ATOM     98  C   UNL A   1      52.280  30.314  26.054  1.00  0.00    -0.036 A 
ATOM     99  N   UNL A   1      50.153  30.833  26.440  1.00  0.00    -0.354 N 
ATOM    100  N   UNL A   1      47.919  32.656  26.986  1.00  0.00    -0.248 NA
ATOM    101  C   UNL A   1      47.118  34.790  27.489  1.00  0.00    -0.034 C 
ATOM    102  C   UNL A   1      52.200  31.686  26.315  1.00  0.00    -0.036 A 
ATOM    103  H   UNL A   1      53.140  29.791  25.823  1.00  0.00     0.065 H 
ATOM    104  C   UNL A   1      50.871  32.013  26.531  1.00  0.00     0.049 A 
ATOM    105  H   UNL A   1      49.178  30.754  26.559  1.00  0.00     0.167 HD
ATOM    106  C   UNL A   1      48.981  33.549  27.001  1.00  0.00     0.074 A 
ATOM    107  C   UNL A   1      48.425  34.856  27.282  1.00  0.00    -0.034 C 
ATOM    108  H   UNL A   1      46.461  35.542  27.750  1.00  0.00     0.065 H 
ATOM    109  H   UNL A   1      52.995  32.342  26.341  1.00  0.00     0.065 H 
ATOM    110  C   UNL A   1      50.300  33.308  26.801  1.00  0.00     0.037 A 
ATOM    111  H   UNL A   1      48.977  35.727  27.316  1.00  0.00     0.065 H 
BRANCH  92 112
ATOM    112  C   UNL A   1      51.654  27.376  25.738  1.00  0.00     0.064 A 
ATOM    113  C   UNL A   1      52.004  27.013  24.428  1.00  0.00     0.173 A 
ATOM    114  C   UNL A   1      52.359  26.779  26.795  1.00  0.00     0.173 A 
ATOM    115  F   UNL A   1      51.353  27.546  23.384  1.00  0.00    -0.203 F 
ATOM    116  C   UNL A   1      53.003  26.073  24.188  1.00  0.00     0.198 A 
ATOM    117  C   UNL A   1      53.378  25.862  26.548  1.00  0.00     0.198 A 
ATOM    118  F   UNL A   1      52.068  27.095  28.066  1.00  0.00    -0.203 F 
ATOM    119  F   UNL A   1      53.290  25.710  22.930  1.00  0.00    -0.200 F 
ATOM    120  C   UNL A   1      53.695  25.505  25.247  1.00  0.00     0.200 A 
ATOM    121  F   UNL A   1      54.054  25.324  27.573  1.00  0.00    -0.200 F 
ATOM    122  F   UNL A   1      54.663  24.609  25.013  1.00  0.00    -0.200 F 
ENDBRANCH  92 112
BRANCH  95 123
ATOM    123  C   UNL A   1      44.336  33.891  27.669  1.00  0.00     0.064 A 
ATOM    124  C   UNL A   1      43.795  34.737  26.689  1.00  0.00     0.173 A 
ATOM    125  C   UNL A   1      43.837  34.004  28.975  1.00  0.00     0.173 A 
ATOM    126  F   UNL A   1      44.254  34.681  25.430  1.00  0.00    -0.203 F 
ATOM    127  C   UNL A   1      42.815  35.674  27.009  1.00  0.00     0.198 A 
ATOM    128  C   UNL A   1      42.835  34.920  29.286  1.00  0.00     0.198 A 
ATOM    129  F   UNL A   1      44.314  33.214  29.948  1.00  0.00    -0.203 F 
ATOM    130  F   UNL A   1      42.353  36.504  26.064  1.00  0.00    -0.200 F 
ATOM    131  C   UNL A   1      42.332  35.762  28.305  1.00  0.00     0.200 A 
ATOM    132  F   UNL A   1      42.360  34.991  30.538  1.00  0.00    -0.200 F 
ATOM    133  F   UNL A   1      41.389  36.663  28.612  1.00  0.00    -0.200 F 
ENDBRANCH  95 123
BRANCH 110 134
ATOM    134  C   UNL A   1      51.229  34.486  26.846  1.00  0.00     0.064 A 
ATOM    135  C   UNL A   1      51.481  35.269  25.710  1.00  0.00     0.173 A 
ATOM    136  C   UNL A   1      51.847  34.858  28.050  1.00  0.00     0.173 A 
ATOM    137  F   UNL A   1      50.928  34.945  24.530  1.00  0.00    -0.203 F 
ATOM    138  C   UNL A   1      52.335  36.366  25.772  1.00  0.00     0.198 A 
ATOM    139  C   UNL A   1      52.676  35.973  28.115  1.00  0.00     0.198 A 
ATOM    140  F   UNL A   1      51.634  34.145  29.167  1.00  0.00    -0.203 F 
ATOM    141  F   UNL A   1      52.599  37.071  24.663  1.00  0.00    -0.200 F 
ATOM    142  C   UNL A   1      52.925  36.722  26.975  1.00  0.00     0.200 A 
ATOM    143  F   UNL A   1      53.235  36.323  29.282  1.00  0.00    -0.200 F 
ATOM    144  F   UNL A   1      53.742  37.783  27.034  1.00  0.00    -0.200 F 
ENDBRANCH 110 134
ENDBRANCH  75  78
ENDBRANCH  65  68
ENDBRANCH  61  64
ENDBRANCH  58  61
ENDBRANCH  55  58
ENDBRANCH  52  55
ENDBRANCH   1  52
TORSDOF 22
ENDMDL
MODEL 9
REMARK VINA RESULT:      -9.5      1.680      2.370
REMARK SMILES CCOc1cccc(OCC)c1-c1ccc([C@@H](C)C(=O)NCCCCCCNC(=O)c2ccc(-c3c4nc(c(-c5c(F)c(F)c(F)c(F)c5F)c5ccc([nH]5)c(-c5c(F)c(F)c(F)c(F)c5F)c5nc(c(-c6c(F)c(F)c(F)c(F)c6F)c6ccc3[nH]6)C=C5)C=C4)cc2)cc1F
REMARK SMILES IDX 23 1 22 4 21 7 19 8 20 9 17 11 16 13 13 14 14 15 95 16 15 17
REMARK SMILES IDX 94 19 96 20 12 23 4 24 5 25 6 26 8 28 7 29 3 32 2 33 1 36
REMARK SMILES IDX 9 40 10 41 11 44 18 48 24 52 25 55 26 58 27 61 28 64 29 65
REMARK SMILES IDX 30 67 31 68 32 69 93 70 33 71 92 73 34 75 35 78 36 79 86 80
REMARK SMILES IDX 37 81 91 82 85 83 87 84 38 85 90 86 84 88 83 90 39 92 71 95
REMARK SMILES IDX 51 96 70 97 52 98 55 99 69 100 88 101 53 102 54 104 68 106
REMARK SMILES IDX 89 107 56 110 40 112 41 113 49 114 42 115 43 116 47 117
REMARK SMILES IDX 50 118 44 119 45 120 48 121 46 122 72 123 73 124 81 125
REMARK SMILES IDX 74 126 75 127 79 128 82 129 76 130 77 131 80 132 78 133
REMARK SMILES IDX 57 134 58 135 66 136 59 137 60 138 64 139 67 140 61 141
REMARK SMILES IDX 62 142 65 143 63 144
REMARK H PARENT 23 2 23 3 22 5 22 6 21 10 17 12 14 18 15 21 94 22 5 27 6 30
REMARK H PARENT 7 31 2 34 2 35 1 37 1 38 1 39 10 42 10 43 11 45 11 46 11 47
REMARK H PARENT 18 49 18 50 18 51 24 53 24 54 25 56 25 57 26 59 26 60 27 62
REMARK H PARENT 27 63 28 66 32 72 93 74 33 76 92 77 91 87 85 89 87 91 90 93
REMARK H PARENT 84 94 52 103 55 105 88 108 53 109 89 111
REMARK Flexibility Score: inf
ROOT
ATOM      1  C   UNL A   1      36.081  22.026  25.614  1.00  0.00    -0.036 C 
ATOM      2  H   UNL A   1      35.694  21.051  25.405  1.00  0.00     0.028 H 
ATOM      3  H   UNL A   1      36.329  22.182  26.643  1.00  0.00     0.028 H 
ENDROOT
BRANCH   1   4
ATOM      4  C   UNL A   1      34.980  23.055  25.285  1.00  0.00     0.017 C 
ATOM      5  H   UNL A   1      35.124  23.924  25.891  1.00  0.00     0.049 H 
ATOM      6  H   UNL A   1      35.049  23.300  24.245  1.00  0.00     0.049 H 
BRANCH   4   7
ATOM      7  N   UNL A   1      33.652  22.513  25.540  1.00  0.00    -0.356 N 
ATOM      8  C   UNL A   1      32.419  22.689  24.988  1.00  0.00     0.227 C 
ATOM      9  O   UNL A   1      31.497  22.099  25.570  1.00  0.00    -0.274 OA
ATOM     10  H   UNL A   1      33.643  21.871  26.286  1.00  0.00     0.163 HD
BRANCH   8  11
ATOM     11  C   UNL A   1      32.094  23.535  23.735  1.00  0.00     0.060 C 
ATOM     12  H   UNL A   1      31.104  23.220  23.480  1.00  0.00     0.045 H 
BRANCH  11  13
ATOM     13  C   UNL A   1      31.980  25.028  23.994  1.00  0.00    -0.033 A 
ATOM     14  C   UNL A   1      31.606  27.807  24.480  1.00  0.00     0.025 A 
ATOM     15  C   UNL A   1      30.773  26.851  25.049  1.00  0.00    -0.051 A 
ATOM     16  C   UNL A   1      32.623  27.350  23.631  1.00  0.00     0.131 A 
ATOM     17  C   UNL A   1      31.035  25.502  24.890  1.00  0.00    -0.057 A 
ATOM     18  H   UNL A   1      29.951  27.150  25.596  1.00  0.00     0.063 H 
ATOM     19  C   UNL A   1      32.794  25.980  23.364  1.00  0.00    -0.022 A 
ATOM     20  F   UNL A   1      33.448  28.222  23.033  1.00  0.00    -0.206 F 
ATOM     21  H   UNL A   1      30.506  24.824  25.460  1.00  0.00     0.063 H 
ATOM     22  H   UNL A   1      33.522  25.674  22.700  1.00  0.00     0.066 H 
BRANCH  14  23
ATOM     23  C   UNL A   1      31.292  29.214  24.750  1.00  0.00     0.069 A 
ATOM     24  C   UNL A   1      30.374  29.850  23.871  1.00  0.00     0.130 A 
ATOM     25  C   UNL A   1      29.882  31.134  24.108  1.00  0.00    -0.019 A 
ATOM     26  C   UNL A   1      30.277  31.814  25.250  1.00  0.00    -0.055 A 
ATOM     27  H   UNL A   1      29.230  31.574  23.440  1.00  0.00     0.066 H 
ATOM     28  C   UNL A   1      31.699  29.924  25.904  1.00  0.00     0.130 A 
ATOM     29  C   UNL A   1      31.184  31.217  26.124  1.00  0.00    -0.019 A 
ATOM     30  H   UNL A   1      29.903  32.754  25.451  1.00  0.00     0.063 H 
ATOM     31  H   UNL A   1      31.487  31.738  26.961  1.00  0.00     0.066 H 
BRANCH  24  32
ATOM     32  O   UNL A   1      30.009  29.217  22.704  1.00  0.00    -0.493 OA
BRANCH  32  33
ATOM     33  C   UNL A   1      28.616  29.347  22.400  1.00  0.00     0.085 C 
ATOM     34  H   UNL A   1      28.265  30.305  22.722  1.00  0.00     0.070 H 
ATOM     35  H   UNL A   1      28.466  29.256  21.344  1.00  0.00     0.070 H 
BRANCH  33  36
ATOM     36  C   UNL A   1      27.849  28.252  23.125  1.00  0.00    -0.031 C 
ATOM     37  H   UNL A   1      26.955  28.023  22.583  1.00  0.00     0.027 H 
ATOM     38  H   UNL A   1      27.592  28.588  24.109  1.00  0.00     0.027 H 
ATOM     39  H   UNL A   1      28.459  27.376  23.195  1.00  0.00     0.027 H 
ENDBRANCH  33  36
ENDBRANCH  32  33
ENDBRANCH  24  32
BRANCH  28  40
ATOM     40  O   UNL A   1      32.567  29.598  26.911  1.00  0.00    -0.493 OA
BRANCH  40  41
ATOM     41  C   UNL A   1      33.982  29.692  26.833  1.00  0.00     0.085 C 
ATOM     42  H   UNL A   1      34.361  30.076  27.756  1.00  0.00     0.070 H 
ATOM     43  H   UNL A   1      34.240  30.347  26.026  1.00  0.00     0.070 H 
BRANCH  41  44
ATOM     44  C   UNL A   1      34.597  28.323  26.570  1.00  0.00    -0.031 C 
ATOM     45  H   UNL A   1      33.910  27.560  26.875  1.00  0.00     0.027 H 
ATOM     46  H   UNL A   1      35.506  28.227  27.125  1.00  0.00     0.027 H 
ATOM     47  H   UNL A   1      34.803  28.220  25.525  1.00  0.00     0.027 H 
ENDBRANCH  41  44
ENDBRANCH  40  41
ENDBRANCH  28  40
ENDBRANCH  14  23
ENDBRANCH  11  13
BRANCH  11  48
ATOM     48  C   UNL A   1      32.941  23.205  22.510  1.00  0.00    -0.049 C 
ATOM     49  H   UNL A   1      33.668  23.976  22.360  1.00  0.00     0.024 H 
ATOM     50  H   UNL A   1      32.310  23.139  21.647  1.00  0.00     0.024 H 
ATOM     51  H   UNL A   1      33.438  22.270  22.661  1.00  0.00     0.024 H 
ENDBRANCH  11  48
ENDBRANCH   8  11
ENDBRANCH   4   7
ENDBRANCH   1   4
BRANCH   1  52
ATOM     52  C   UNL A   1      37.388  22.186  24.842  1.00  0.00    -0.052 C 
ATOM     53  H   UNL A   1      37.519  23.226  24.621  1.00  0.00     0.027 H 
ATOM     54  H   UNL A   1      37.297  21.576  23.968  1.00  0.00     0.027 H 
BRANCH  52  55
ATOM     55  C   UNL A   1      38.637  21.695  25.579  1.00  0.00    -0.052 C 
ATOM     56  H   UNL A   1      38.475  21.838  26.627  1.00  0.00     0.027 H 
ATOM     57  H   UNL A   1      39.451  22.266  25.182  1.00  0.00     0.027 H 
BRANCH  55  58
ATOM     58  C   UNL A   1      39.011  20.225  25.356  1.00  0.00    -0.036 C 
ATOM     59  H   UNL A   1      39.655  20.174  24.503  1.00  0.00     0.028 H 
ATOM     60  H   UNL A   1      38.088  19.701  25.230  1.00  0.00     0.028 H 
BRANCH  58  61
ATOM     61  C   UNL A   1      39.723  19.547  26.527  1.00  0.00     0.018 C 
ATOM     62  H   UNL A   1      39.084  18.788  26.927  1.00  0.00     0.049 H 
ATOM     63  H   UNL A   1      39.939  20.297  27.260  1.00  0.00     0.049 H 
BRANCH  61  64
ATOM     64  N   UNL A   1      40.981  18.938  26.123  1.00  0.00    -0.352 N 
ATOM     65  C   UNL A   1      42.183  19.521  25.815  1.00  0.00     0.251 C 
ATOM     66  H   UNL A   1      40.966  17.956  26.062  1.00  0.00     0.163 HD
ATOM     67  O   UNL A   1      43.064  18.856  25.267  1.00  0.00    -0.269 OA
BRANCH  65  68
ATOM     68  C   UNL A   1      42.433  20.944  26.125  1.00  0.00     0.039 A 
ATOM     69  C   UNL A   1      42.653  21.319  27.454  1.00  0.00    -0.049 A 
ATOM     70  C   UNL A   1      42.405  21.915  25.119  1.00  0.00    -0.049 A 
ATOM     71  C   UNL A   1      42.903  22.657  27.766  1.00  0.00    -0.053 A 
ATOM     72  H   UNL A   1      42.630  20.609  28.202  1.00  0.00     0.063 H 
ATOM     73  C   UNL A   1      42.718  23.239  25.424  1.00  0.00    -0.053 A 
ATOM     74  H   UNL A   1      42.153  21.652  24.154  1.00  0.00     0.063 H 
ATOM     75  C   UNL A   1      42.969  23.624  26.749  1.00  0.00    -0.014 A 
ATOM     76  H   UNL A   1      43.041  22.937  28.750  1.00  0.00     0.063 H 
ATOM     77  H   UNL A   1      42.767  23.940  24.668  1.00  0.00     0.063 H 
BRANCH  75  78
ATOM     78  C   UNL A   1      43.300  25.040  27.054  1.00  0.00     0.031 A 
ATOM     79  C   UNL A   1      44.684  25.568  26.795  1.00  0.00     0.074 A 
ATOM     80  C   UNL A   1      42.370  25.833  27.622  1.00  0.00     0.049 A 
ATOM     81  N   UNL A   1      45.187  26.745  27.071  1.00  0.00    -0.248 NA
ATOM     82  C   UNL A   1      45.637  24.641  26.164  1.00  0.00    -0.034 C 
ATOM     83  C   UNL A   1      41.006  25.425  27.962  1.00  0.00    -0.036 A 
ATOM     84  N   UNL A   1      42.437  27.141  28.030  1.00  0.00    -0.354 N 
ATOM     85  C   UNL A   1      46.512  26.697  26.657  1.00  0.00     0.074 A 
ATOM     86  C   UNL A   1      46.751  25.359  26.161  1.00  0.00    -0.034 C 
ATOM     87  H   UNL A   1      45.480  23.682  25.816  1.00  0.00     0.065 H 
ATOM     88  C   UNL A   1      40.362  26.464  28.516  1.00  0.00    -0.036 A 
ATOM     89  H   UNL A   1      40.604  24.488  27.801  1.00  0.00     0.065 H 
ATOM     90  C   UNL A   1      41.276  27.599  28.605  1.00  0.00     0.049 A 
ATOM     91  H   UNL A   1      43.240  27.701  27.921  1.00  0.00     0.167 HD
ATOM     92  C   UNL A   1      47.436  27.686  26.667  1.00  0.00     0.037 A 
ATOM     93  H   UNL A   1      47.669  25.010  25.844  1.00  0.00     0.065 H 
ATOM     94  H   UNL A   1      39.379  26.462  28.829  1.00  0.00     0.065 H 
ATOM     95  C   UNL A   1      40.986  28.793  29.155  1.00  0.00     0.037 A 
ATOM     96  C   UNL A   1      47.191  29.022  27.146  1.00  0.00     0.049 A 
ATOM     97  C   UNL A   1      42.035  29.873  29.162  1.00  0.00     0.074 A 
ATOM     98  C   UNL A   1      48.051  30.106  27.161  1.00  0.00    -0.036 A 
ATOM     99  N   UNL A   1      45.994  29.455  27.696  1.00  0.00    -0.354 N 
ATOM    100  N   UNL A   1      43.267  29.833  28.712  1.00  0.00    -0.248 NA
ATOM    101  C   UNL A   1      41.652  31.167  29.743  1.00  0.00    -0.034 C 
ATOM    102  C   UNL A   1      47.387  31.184  27.756  1.00  0.00    -0.036 A 
ATOM    103  H   UNL A   1      49.016  30.118  26.794  1.00  0.00     0.065 H 
ATOM    104  C   UNL A   1      46.097  30.786  28.067  1.00  0.00     0.049 A 
ATOM    105  H   UNL A   1      45.189  28.899  27.807  1.00  0.00     0.167 HD
ATOM    106  C   UNL A   1      43.794  31.098  28.933  1.00  0.00     0.074 A 
ATOM    107  C   UNL A   1      42.744  31.888  29.539  1.00  0.00    -0.034 C 
ATOM    108  H   UNL A   1      40.764  31.441  30.194  1.00  0.00     0.065 H 
ATOM    109  H   UNL A   1      47.790  32.117  27.933  1.00  0.00     0.065 H 
ATOM    110  C   UNL A   1      45.039  31.562  28.660  1.00  0.00     0.037 A 
ATOM    111  H   UNL A   1      42.835  32.888  29.781  1.00  0.00     0.065 H 
BRANCH  92 112
ATOM    112  C   UNL A   1      48.803  27.367  26.133  1.00  0.00     0.064 A 
ATOM    113  C   UNL A   1      49.840  26.945  26.979  1.00  0.00     0.173 A 
ATOM    114  C   UNL A   1      49.068  27.438  24.756  1.00  0.00     0.173 A 
ATOM    115  F   UNL A   1      49.641  26.871  28.304  1.00  0.00    -0.203 F 
ATOM    116  C   UNL A   1      51.098  26.629  26.470  1.00  0.00     0.198 A 
ATOM    117  C   UNL A   1      50.318  27.092  24.248  1.00  0.00     0.198 A 
ATOM    118  F   UNL A   1      48.111  27.830  23.902  1.00  0.00    -0.203 F 
ATOM    119  F   UNL A   1      52.084  26.270  27.303  1.00  0.00    -0.200 F 
ATOM    120  C   UNL A   1      51.333  26.695  25.105  1.00  0.00     0.200 A 
ATOM    121  F   UNL A   1      50.539  27.144  22.927  1.00  0.00    -0.200 F 
ATOM    122  F   UNL A   1      52.540  26.381  24.616  1.00  0.00    -0.200 F 
ENDBRANCH  92 112
BRANCH  95 123
ATOM    123  C   UNL A   1      39.641  29.038  29.736  1.00  0.00     0.064 A 
ATOM    124  C   UNL A   1      38.625  29.641  28.980  1.00  0.00     0.173 A 
ATOM    125  C   UNL A   1      39.346  28.689  31.062  1.00  0.00     0.173 A 
ATOM    126  F   UNL A   1      38.865  30.010  27.712  1.00  0.00    -0.203 F 
ATOM    127  C   UNL A   1      37.375  29.907  29.535  1.00  0.00     0.198 A 
ATOM    128  C   UNL A   1      38.085  28.929  31.607  1.00  0.00     0.198 A 
ATOM    129  F   UNL A   1      40.278  28.104  31.827  1.00  0.00    -0.203 F 
ATOM    130  F   UNL A   1      36.441  30.531  28.805  1.00  0.00    -0.200 F 
ATOM    131  C   UNL A   1      37.105  29.547  30.846  1.00  0.00     0.200 A 
ATOM    132  F   UNL A   1      37.824  28.565  32.870  1.00  0.00    -0.200 F 
ATOM    133  F   UNL A   1      35.902  29.804  31.379  1.00  0.00    -0.200 F 
ENDBRANCH  95 123
BRANCH 110 134
ATOM    134  C   UNL A   1      45.322  33.000  28.983  1.00  0.00     0.064 A 
ATOM    135  C   UNL A   1      45.869  33.384  30.216  1.00  0.00     0.173 A 
ATOM    136  C   UNL A   1      45.078  34.002  28.031  1.00  0.00     0.173 A 
ATOM    137  F   UNL A   1      46.105  32.466  31.165  1.00  0.00    -0.203 F 
ATOM    138  C   UNL A   1      46.138  34.721  30.493  1.00  0.00     0.198 A 
ATOM    139  C   UNL A   1      45.376  35.334  28.300  1.00  0.00     0.198 A 
ATOM    140  F   UNL A   1      44.561  33.685  26.834  1.00  0.00    -0.203 F 
ATOM    141  F   UNL A   1      46.615  35.072  31.696  1.00  0.00    -0.200 F 
ATOM    142  C   UNL A   1      45.899  35.694  29.533  1.00  0.00     0.200 A 
ATOM    143  F   UNL A   1      45.157  36.270  27.367  1.00  0.00    -0.200 F 
ATOM    144  F   UNL A   1      46.165  36.980  29.800  1.00  0.00    -0.200 F 
ENDBRANCH 110 134
ENDBRANCH  75  78
ENDBRANCH  65  68
ENDBRANCH  61  64
ENDBRANCH  58  61
ENDBRANCH  55  58
ENDBRANCH  52  55
ENDBRANCH   1  52
TORSDOF 22
ENDMDL
MODEL 10
REMARK VINA RESULT:      -9.4      2.815      4.303
REMARK SMILES CCOc1cccc(OCC)c1-c1ccc([C@@H](C)C(=O)NCCCCCCNC(=O)c2ccc(-c3c4nc(c(-c5c(F)c(F)c(F)c(F)c5F)c5ccc([nH]5)c(-c5c(F)c(F)c(F)c(F)c5F)c5nc(c(-c6c(F)c(F)c(F)c(F)c6F)c6ccc3[nH]6)C=C5)C=C4)cc2)cc1F
REMARK SMILES IDX 23 1 22 4 21 7 19 8 20 9 17 11 16 13 13 14 14 15 95 16 15 17
REMARK SMILES IDX 94 19 96 20 12 23 4 24 5 25 6 26 8 28 7 29 3 32 2 33 1 36
REMARK SMILES IDX 9 40 10 41 11 44 18 48 24 52 25 55 26 58 27 61 28 64 29 65
REMARK SMILES IDX 30 67 31 68 32 69 93 70 33 71 92 73 34 75 35 78 36 79 86 80
REMARK SMILES IDX 37 81 91 82 85 83 87 84 38 85 90 86 84 88 83 90 39 92 71 95
REMARK SMILES IDX 51 96 70 97 52 98 55 99 69 100 88 101 53 102 54 104 68 106
REMARK SMILES IDX 89 107 56 110 40 112 41 113 49 114 42 115 43 116 47 117
REMARK SMILES IDX 50 118 44 119 45 120 48 121 46 122 72 123 73 124 81 125
REMARK SMILES IDX 74 126 75 127 79 128 82 129 76 130 77 131 80 132 78 133
REMARK SMILES IDX 57 134 58 135 66 136 59 137 60 138 64 139 67 140 61 141
REMARK SMILES IDX 62 142 65 143 63 144
REMARK H PARENT 23 2 23 3 22 5 22 6 21 10 17 12 14 18 15 21 94 22 5 27 6 30
REMARK H PARENT 7 31 2 34 2 35 1 37 1 38 1 39 10 42 10 43 11 45 11 46 11 47
REMARK H PARENT 18 49 18 50 18 51 24 53 24 54 25 56 25 57 26 59 26 60 27 62
REMARK H PARENT 27 63 28 66 32 72 93 74 33 76 92 77 91 87 85 89 87 91 90 93
REMARK H PARENT 84 94 52 103 55 105 88 108 53 109 89 111
REMARK Flexibility Score: inf
ROOT
ATOM      1  C   UNL A   1      35.396  23.054  26.127  1.00  0.00    -0.036 C 
ATOM      2  H   UNL A   1      35.287  22.074  25.714  1.00  0.00     0.028 H 
ATOM      3  H   UNL A   1      35.696  23.061  27.153  1.00  0.00     0.028 H 
ENDROOT
BRANCH   1   4
ATOM      4  C   UNL A   1      34.017  23.743  26.086  1.00  0.00     0.017 C 
ATOM      5  H   UNL A   1      33.904  24.348  26.961  1.00  0.00     0.049 H 
ATOM      6  H   UNL A   1      33.965  24.341  25.201  1.00  0.00     0.049 H 
BRANCH   4   7
ATOM      7  N   UNL A   1      32.935  22.767  26.042  1.00  0.00    -0.356 N 
ATOM      8  C   UNL A   1      31.885  22.534  25.208  1.00  0.00     0.227 C 
ATOM      9  O   UNL A   1      31.112  21.637  25.578  1.00  0.00    -0.274 OA
ATOM     10  H   UNL A   1      32.973  22.128  26.790  1.00  0.00     0.163 HD
BRANCH   8  11
ATOM     11  C   UNL A   1      31.593  23.271  23.880  1.00  0.00     0.060 C 
ATOM     12  H   UNL A   1      30.593  22.969  23.648  1.00  0.00     0.045 H 
BRANCH  11  13
ATOM     13  C   UNL A   1      31.530  24.785  24.001  1.00  0.00    -0.033 A 
ATOM     14  C   UNL A   1      31.253  27.606  24.256  1.00  0.00     0.025 A 
ATOM     15  C   UNL A   1      30.524  26.729  25.050  1.00  0.00    -0.051 A 
ATOM     16  C   UNL A   1      32.111  27.045  23.300  1.00  0.00     0.131 A 
ATOM     17  C   UNL A   1      30.750  25.366  24.989  1.00  0.00    -0.057 A 
ATOM     18  H   UNL A   1      29.806  27.098  25.693  1.00  0.00     0.063 H 
ATOM     19  C   UNL A   1      32.230  25.652  23.151  1.00  0.00    -0.022 A 
ATOM     20  F   UNL A   1      32.827  27.836  22.488  1.00  0.00    -0.206 F 
ATOM     21  H   UNL A   1      30.321  24.759  25.705  1.00  0.00     0.063 H 
ATOM     22  H   UNL A   1      32.835  25.266  22.410  1.00  0.00     0.066 H 
BRANCH  14  23
ATOM     23  C   UNL A   1      30.993  29.039  24.429  1.00  0.00     0.069 A 
ATOM     24  C   UNL A   1      29.918  29.595  23.685  1.00  0.00     0.130 A 
ATOM     25  C   UNL A   1      29.478  30.905  23.875  1.00  0.00    -0.019 A 
ATOM     26  C   UNL A   1      30.089  31.695  24.836  1.00  0.00    -0.055 A 
ATOM     27  H   UNL A   1      28.706  31.283  23.306  1.00  0.00     0.066 H 
ATOM     28  C   UNL A   1      31.619  29.860  25.397  1.00  0.00     0.130 A 
ATOM     29  C   UNL A   1      31.153  31.178  25.574  1.00  0.00    -0.019 A 
ATOM     30  H   UNL A   1      29.760  32.658  25.005  1.00  0.00     0.063 H 
ATOM     31  H   UNL A   1      31.614  31.780  26.274  1.00  0.00     0.066 H 
BRANCH  24  32
ATOM     32  O   UNL A   1      29.331  28.848  22.689  1.00  0.00    -0.493 OA
BRANCH  32  33
ATOM     33  C   UNL A   1      27.949  29.159  22.486  1.00  0.00     0.085 C 
ATOM     34  H   UNL A   1      27.776  30.191  22.706  1.00  0.00     0.070 H 
ATOM     35  H   UNL A   1      27.680  28.969  21.467  1.00  0.00     0.070 H 
BRANCH  33  36
ATOM     36  C   UNL A   1      27.108  28.292  23.410  1.00  0.00    -0.031 C 
ATOM     37  H   UNL A   1      26.676  27.487  22.851  1.00  0.00     0.027 H 
ATOM     38  H   UNL A   1      26.328  28.883  23.842  1.00  0.00     0.027 H 
ATOM     39  H   UNL A   1      27.726  27.894  24.187  1.00  0.00     0.027 H 
ENDBRANCH  33  36
ENDBRANCH  32  33
ENDBRANCH  24  32
BRANCH  28  40
ATOM     40  O   UNL A   1      32.671  29.628  26.243  1.00  0.00    -0.493 OA
BRANCH  40  41
ATOM     41  C   UNL A   1      33.108  30.513  27.263  1.00  0.00     0.085 C 
ATOM     42  H   UNL A   1      32.494  30.383  28.128  1.00  0.00     0.070 H 
ATOM     43  H   UNL A   1      33.034  31.518  26.903  1.00  0.00     0.070 H 
BRANCH  41  44
ATOM     44  C   UNL A   1      34.559  30.230  27.632  1.00  0.00    -0.031 C 
ATOM     45  H   UNL A   1      34.844  30.851  28.457  1.00  0.00     0.027 H 
ATOM     46  H   UNL A   1      35.189  30.439  26.794  1.00  0.00     0.027 H 
ATOM     47  H   UNL A   1      34.662  29.201  27.909  1.00  0.00     0.027 H 
ENDBRANCH  41  44
ENDBRANCH  40  41
ENDBRANCH  28  40
ENDBRANCH  14  23
ENDBRANCH  11  13
BRANCH  11  48
ATOM     48  C   UNL A   1      32.433  22.802  22.696  1.00  0.00    -0.049 C 
ATOM     49  H   UNL A   1      32.811  21.821  22.892  1.00  0.00     0.024 H 
ATOM     50  H   UNL A   1      33.251  23.477  22.550  1.00  0.00     0.024 H 
ATOM     51  H   UNL A   1      31.826  22.781  21.815  1.00  0.00     0.024 H 
ENDBRANCH  11  48
ENDBRANCH   8  11
ENDBRANCH   4   7
ENDBRANCH   1   4
BRANCH   1  52
ATOM     52  C   UNL A   1      36.512  23.763  25.362  1.00  0.00    -0.052 C 
ATOM     53  H   UNL A   1      36.219  24.782  25.215  1.00  0.00     0.027 H 
ATOM     54  H   UNL A   1      36.639  23.223  24.447  1.00  0.00     0.027 H 
BRANCH  52  55
ATOM     55  C   UNL A   1      37.875  23.755  26.057  1.00  0.00    -0.052 C 
ATOM     56  H   UNL A   1      37.720  24.006  27.086  1.00  0.00     0.027 H 
ATOM     57  H   UNL A   1      38.477  24.461  25.523  1.00  0.00     0.027 H 
BRANCH  55  58
ATOM     58  C   UNL A   1      38.645  22.431  26.008  1.00  0.00    -0.036 C 
ATOM     59  H   UNL A   1      38.928  22.250  24.992  1.00  0.00     0.028 H 
ATOM     60  H   UNL A   1      37.985  21.690  26.407  1.00  0.00     0.028 H 
BRANCH  58  61
ATOM     61  C   UNL A   1      39.908  22.376  26.867  1.00  0.00     0.018 C 
ATOM     62  H   UNL A   1      39.801  21.594  27.590  1.00  0.00     0.049 H 
ATOM     63  H   UNL A   1      40.026  23.328  27.341  1.00  0.00     0.049 H 
BRANCH  61  64
ATOM     64  N   UNL A   1      41.099  22.120  26.072  1.00  0.00    -0.352 N 
ATOM     65  C   UNL A   1      42.096  22.974  25.678  1.00  0.00     0.251 C 
ATOM     66  H   UNL A   1      41.205  21.189  25.770  1.00  0.00     0.163 HD
ATOM     67  O   UNL A   1      42.898  22.623  24.811  1.00  0.00    -0.269 OA
BRANCH  65  68
ATOM     68  C   UNL A   1      42.217  24.319  26.277  1.00  0.00     0.039 A 
ATOM     69  C   UNL A   1      42.540  24.430  27.633  1.00  0.00    -0.049 A 
ATOM     70  C   UNL A   1      41.968  25.469  25.521  1.00  0.00    -0.049 A 
ATOM     71  C   UNL A   1      42.671  25.693  28.216  1.00  0.00    -0.053 A 
ATOM     72  H   UNL A   1      42.681  23.581  28.202  1.00  0.00     0.063 H 
ATOM     73  C   UNL A   1      42.161  26.728  26.088  1.00  0.00    -0.053 A 
ATOM     74  H   UNL A   1      41.641  25.385  24.546  1.00  0.00     0.063 H 
ATOM     75  C   UNL A   1      42.513  26.853  27.440  1.00  0.00    -0.014 A 
ATOM     76  H   UNL A   1      42.884  25.774  29.222  1.00  0.00     0.063 H 
ATOM     77  H   UNL A   1      42.046  27.573  25.507  1.00  0.00     0.063 H 
BRANCH  75  78
ATOM     78  C   UNL A   1      42.714  28.204  28.026  1.00  0.00     0.031 A 
ATOM     79  C   UNL A   1      44.099  28.770  28.168  1.00  0.00     0.074 A 
ATOM     80  C   UNL A   1      41.652  28.893  28.487  1.00  0.00     0.049 A 
ATOM     81  N   UNL A   1      44.484  29.890  28.728  1.00  0.00    -0.248 NA
ATOM     82  C   UNL A   1      45.203  27.959  27.631  1.00  0.00    -0.034 C 
ATOM     83  C   UNL A   1      40.263  28.432  28.446  1.00  0.00    -0.036 A 
ATOM     84  N   UNL A   1      41.577  30.120  29.096  1.00  0.00    -0.354 N 
ATOM     85  C   UNL A   1      45.868  29.913  28.618  1.00  0.00     0.074 A 
ATOM     86  C   UNL A   1      46.262  28.672  27.988  1.00  0.00    -0.034 C 
ATOM     87  H   UNL A   1      45.164  27.067  27.113  1.00  0.00     0.065 H 
ATOM     88  C   UNL A   1      39.473  29.368  28.995  1.00  0.00    -0.036 A 
ATOM     89  H   UNL A   1      39.943  27.532  28.056  1.00  0.00     0.065 H 
ATOM     90  C   UNL A   1      40.301  30.477  29.460  1.00  0.00     0.049 A 
ATOM     91  H   UNL A   1      42.362  30.692  29.257  1.00  0.00     0.167 HD
ATOM     92  C   UNL A   1      46.728  30.891  28.988  1.00  0.00     0.037 A 
ATOM     93  H   UNL A   1      47.240  28.381  27.835  1.00  0.00     0.065 H 
ATOM     94  H   UNL A   1      38.446  29.313  29.076  1.00  0.00     0.065 H 
ATOM     95  C   UNL A   1      39.851  31.568  30.109  1.00  0.00     0.037 A 
ATOM     96  C   UNL A   1      46.332  32.133  29.600  1.00  0.00     0.049 A 
ATOM     97  C   UNL A   1      40.830  32.636  30.517  1.00  0.00     0.074 A 
ATOM     98  C   UNL A   1      47.125  33.203  29.974  1.00  0.00    -0.036 A 
ATOM     99  N   UNL A   1      45.027  32.469  29.928  1.00  0.00    -0.354 N 
ATOM    100  N   UNL A   1      42.131  32.672  30.354  1.00  0.00    -0.248 NA
ATOM    101  C   UNL A   1      40.278  33.820  31.191  1.00  0.00    -0.034 C 
ATOM    102  C   UNL A   1      46.306  34.171  30.565  1.00  0.00    -0.036 A 
ATOM    103  H   UNL A   1      48.146  33.276  29.839  1.00  0.00     0.065 H 
ATOM    104  C   UNL A   1      44.995  33.724  30.514  1.00  0.00     0.049 A 
ATOM    105  H   UNL A   1      44.240  31.900  29.769  1.00  0.00     0.167 HD
ATOM    106  C   UNL A   1      42.548  33.887  30.880  1.00  0.00     0.074 A 
ATOM    107  C   UNL A   1      41.360  34.568  31.350  1.00  0.00    -0.034 C 
ATOM    108  H   UNL A   1      39.303  34.016  31.468  1.00  0.00     0.065 H 
ATOM    109  H   UNL A   1      46.623  35.065  30.969  1.00  0.00     0.065 H 
ATOM    110  C   UNL A   1      43.803  34.392  30.967  1.00  0.00     0.037 A 
ATOM    111  H   UNL A   1      41.357  35.517  31.757  1.00  0.00     0.065 H 
BRANCH  92 112
ATOM    112  C   UNL A   1      48.190  30.665  28.730  1.00  0.00     0.064 A 
ATOM    113  C   UNL A   1      48.986  29.929  29.622  1.00  0.00     0.173 A 
ATOM    114  C   UNL A   1      48.794  31.147  27.558  1.00  0.00     0.173 A 
ATOM    115  F   UNL A   1      48.460  29.456  30.761  1.00  0.00    -0.203 F 
ATOM    116  C   UNL A   1      50.336  29.706  29.362  1.00  0.00     0.198 A 
ATOM    117  C   UNL A   1      50.136  30.896  27.287  1.00  0.00     0.198 A 
ATOM    118  F   UNL A   1      48.077  31.851  26.668  1.00  0.00    -0.203 F 
ATOM    119  F   UNL A   1      51.086  29.038  30.249  1.00  0.00    -0.200 F 
ATOM    120  C   UNL A   1      50.908  30.183  28.191  1.00  0.00     0.200 A 
ATOM    121  F   UNL A   1      50.684  31.345  26.149  1.00  0.00    -0.200 F 
ATOM    122  F   UNL A   1      52.204  29.957  27.938  1.00  0.00    -0.200 F 
ENDBRANCH  92 112
BRANCH  95 123
ATOM    123  C   UNL A   1      38.402  31.713  30.406  1.00  0.00     0.064 A 
ATOM    124  C   UNL A   1      37.561  32.452  29.560  1.00  0.00     0.173 A 
ATOM    125  C   UNL A   1      37.829  31.129  31.545  1.00  0.00     0.173 A 
ATOM    126  F   UNL A   1      38.066  33.046  28.468  1.00  0.00    -0.203 F 
ATOM    127  C   UNL A   1      36.211  32.623  29.857  1.00  0.00     0.198 A 
ATOM    128  C   UNL A   1      36.472  31.275  31.824  1.00  0.00     0.198 A 
ATOM    129  F   UNL A   1      38.586  30.406  32.383  1.00  0.00    -0.203 F 
ATOM    130  F   UNL A   1      35.443  33.377  29.059  1.00  0.00    -0.200 F 
ATOM    131  C   UNL A   1      35.666  32.030  30.986  1.00  0.00     0.200 A 
ATOM    132  F   UNL A   1      35.946  30.688  32.908  1.00  0.00    -0.200 F 
ATOM    133  F   UNL A   1      34.367  32.195  31.271  1.00  0.00    -0.200 F 
ENDBRANCH  95 123
BRANCH 110 134
ATOM    134  C   UNL A   1      43.952  35.762  31.563  1.00  0.00     0.064 A 
ATOM    135  C   UNL A   1      44.144  35.949  32.939  1.00  0.00     0.173 A 
ATOM    136  C   UNL A   1      43.940  36.898  30.740  1.00  0.00     0.173 A 
ATOM    137  F   UNL A   1      44.147  34.895  33.771  1.00  0.00    -0.203 F 
ATOM    138  C   UNL A   1      44.295  37.226  33.474  1.00  0.00     0.198 A 
ATOM    139  C   UNL A   1      44.121  38.171  31.274  1.00  0.00     0.198 A 
ATOM    140  F   UNL A   1      43.766  36.773  29.416  1.00  0.00    -0.203 F 
ATOM    141  F   UNL A   1      44.429  37.385  34.798  1.00  0.00    -0.200 F 
ATOM    142  C   UNL A   1      44.290  38.334  32.640  1.00  0.00     0.200 A 
ATOM    143  F   UNL A   1      44.130  39.239  30.466  1.00  0.00    -0.200 F 
ATOM    144  F   UNL A   1      44.442  39.562  33.155  1.00  0.00    -0.200 F 
ENDBRANCH 110 134
ENDBRANCH  75  78
ENDBRANCH  65  68
ENDBRANCH  61  64
ENDBRANCH  58  61
ENDBRANCH  55  58
ENDBRANCH  52  55
ENDBRANCH   1  52
TORSDOF 22
ENDMDL
