MODEL 1
REMARK VINA RESULT:     -12.5      0.000      0.000
REMARK SMILES CC1(C)Cc2c(-c3ccccc3)c(-c3ccc(Cl)cc3)c(CC(=O)NCCCCCCNC(=O)c3ccc(-c4c5nc(c(-c6c(F)c(F)c(F)c(F)c6F)c6ccc([nH]6)c(-c6c(F)c(F)c(F)c(F)c6F)c6nc(c(-c7c(F)c(F)c(F)c(F)c7F)c7ccc4[nH]7)C=C6)C=C5)cc3)n2C1
REMARK SMILES IDX 28 1 27 4 26 7 25 10 23 11 24 12 22 14 21 17 2 18 4 19 99 20
REMARK SMILES IDX 5 21 98 24 6 27 13 28 1 29 3 33 7 37 8 38 12 39 9 40 11 42
REMARK SMILES IDX 10 44 14 48 15 49 20 50 16 51 19 53 17 55 18 58 29 59 30 62
REMARK SMILES IDX 31 65 32 68 33 69 34 71 35 72 36 73 97 74 37 75 96 77 38 79
REMARK SMILES IDX 39 82 40 83 90 84 41 85 95 86 89 87 91 88 42 89 94 90 88 92
REMARK SMILES IDX 87 94 43 96 75 99 55 100 74 101 56 102 59 103 73 104 92 105
REMARK SMILES IDX 57 106 58 108 72 110 93 111 60 114 44 116 45 117 53 118
REMARK SMILES IDX 46 119 47 120 51 121 54 122 48 123 49 124 52 125 50 126
REMARK SMILES IDX 76 127 77 128 85 129 78 130 79 131 83 132 86 133 80 134
REMARK SMILES IDX 81 135 84 136 82 137 61 138 62 139 70 140 63 141 64 142
REMARK SMILES IDX 68 143 71 144 65 145 66 146 69 147 67 148
REMARK H PARENT 28 2 28 3 27 5 27 6 26 8 26 9 25 13 22 15 22 16 4 22 4 23
REMARK H PARENT 99 25 99 26 1 30 1 31 1 32 3 34 3 35 3 36 8 41 12 43 9 45
REMARK H PARENT 11 46 10 47 15 52 20 54 16 56 19 57 29 60 29 61 30 63 30 64
REMARK H PARENT 31 66 31 67 32 70 36 76 97 78 37 80 96 81 95 91 89 93 91 95
REMARK H PARENT 94 97 88 98 56 107 59 109 92 112 57 113 93 115
REMARK Flexibility Score: inf
ROOT
ATOM      1  C   UNL A   1      40.127  22.146  26.429  1.00  0.00    -0.052 C 
ATOM      2  H   UNL A   1      40.114  23.193  26.653  1.00  0.00     0.027 H 
ATOM      3  H   UNL A   1      40.713  21.895  25.570  1.00  0.00     0.027 H 
ENDROOT
BRANCH   1   4
ATOM      4  C   UNL A   1      38.694  21.719  26.099  1.00  0.00    -0.036 C 
ATOM      5  H   UNL A   1      38.724  21.096  25.229  1.00  0.00     0.028 H 
ATOM      6  H   UNL A   1      38.322  21.212  26.965  1.00  0.00     0.028 H 
BRANCH   4   7
ATOM      7  C   UNL A   1      37.734  22.873  25.825  1.00  0.00     0.017 C 
ATOM      8  H   UNL A   1      38.194  23.785  26.146  1.00  0.00     0.049 H 
ATOM      9  H   UNL A   1      37.529  22.882  24.775  1.00  0.00     0.049 H 
BRANCH   7  10
ATOM     10  N   UNL A   1      36.474  22.725  26.513  1.00  0.00    -0.356 N 
ATOM     11  C   UNL A   1      35.333  23.467  26.389  1.00  0.00     0.225 C 
ATOM     12  O   UNL A   1      34.345  23.100  27.030  1.00  0.00    -0.275 OA
ATOM     13  H   UNL A   1      36.430  21.986  27.163  1.00  0.00     0.163 HD
BRANCH  11  14
ATOM     14  C   UNL A   1      35.261  24.647  25.431  1.00  0.00     0.068 C 
ATOM     15  H   UNL A   1      35.543  25.531  25.965  1.00  0.00     0.043 H 
ATOM     16  H   UNL A   1      35.921  24.424  24.619  1.00  0.00     0.043 H 
BRANCH  14  17
ATOM     17  C   UNL A   1      33.903  24.874  24.831  1.00  0.00     0.036 A 
ATOM     18  C   UNL A   1      32.509  22.309  22.554  1.00  0.00    -0.012 C 
ATOM     19  C   UNL A   1      31.334  23.277  22.909  1.00  0.00    -0.005 C 
ATOM     20  C   UNL A   1      33.553  22.549  23.684  1.00  0.00     0.028 C 
ATOM     21  C   UNL A   1      32.020  24.320  23.706  1.00  0.00     0.027 A 
ATOM     22  H   UNL A   1      30.582  22.779  23.485  1.00  0.00     0.034 H 
ATOM     23  H   UNL A   1      30.818  23.659  22.052  1.00  0.00     0.034 H 
ATOM     24  N   UNL A   1      33.248  23.906  24.125  1.00  0.00    -0.346 N 
ATOM     25  H   UNL A   1      34.552  22.482  23.308  1.00  0.00     0.050 H 
ATOM     26  H   UNL A   1      33.497  21.826  24.472  1.00  0.00     0.050 H 
ATOM     27  C   UNL A   1      31.826  25.599  24.152  1.00  0.00     0.011 A 
ATOM     28  C   UNL A   1      33.014  25.954  24.888  1.00  0.00     0.011 A 
BRANCH  18  29
ATOM     29  C   UNL A   1      32.053  20.850  22.520  1.00  0.00    -0.058 C 
ATOM     30  H   UNL A   1      31.761  20.591  21.524  1.00  0.00     0.024 H 
ATOM     31  H   UNL A   1      31.222  20.721  23.182  1.00  0.00     0.024 H 
ATOM     32  H   UNL A   1      32.859  20.218  22.831  1.00  0.00     0.024 H 
ENDBRANCH  18  29
BRANCH  18  33
ATOM     33  C   UNL A   1      33.088  22.681  21.176  1.00  0.00    -0.058 C 
ATOM     34  H   UNL A   1      34.053  22.233  21.061  1.00  0.00     0.024 H 
ATOM     35  H   UNL A   1      33.177  23.744  21.101  1.00  0.00     0.024 H 
ATOM     36  H   UNL A   1      32.435  22.323  20.407  1.00  0.00     0.024 H 
ENDBRANCH  18  33
BRANCH  27  37
ATOM     37  C   UNL A   1      30.644  26.393  23.882  1.00  0.00    -0.016 A 
ATOM     38  C   UNL A   1      30.727  27.565  23.125  1.00  0.00    -0.054 A 
ATOM     39  C   UNL A   1      29.395  25.944  24.328  1.00  0.00    -0.054 A 
ATOM     40  C   UNL A   1      29.567  28.273  22.809  1.00  0.00    -0.062 A 
ATOM     41  H   UNL A   1      31.646  27.907  22.801  1.00  0.00     0.063 H 
ATOM     42  C   UNL A   1      28.237  26.651  24.010  1.00  0.00    -0.062 A 
ATOM     43  H   UNL A   1      29.331  25.084  24.895  1.00  0.00     0.063 H 
ATOM     44  C   UNL A   1      28.325  27.813  23.246  1.00  0.00    -0.062 A 
ATOM     45  H   UNL A   1      29.628  29.139  22.250  1.00  0.00     0.062 H 
ATOM     46  H   UNL A   1      27.319  26.316  24.339  1.00  0.00     0.062 H 
ATOM     47  H   UNL A   1      27.467  28.336  23.004  1.00  0.00     0.062 H 
ENDBRANCH  27  37
BRANCH  28  48
ATOM     48  C   UNL A   1      33.232  27.213  25.592  1.00  0.00    -0.016 A 
ATOM     49  C   UNL A   1      32.570  27.446  26.805  1.00  0.00    -0.053 A 
ATOM     50  C   UNL A   1      33.951  28.257  25.000  1.00  0.00    -0.053 A 
ATOM     51  C   UNL A   1      32.621  28.704  27.414  1.00  0.00    -0.043 A 
ATOM     52  H   UNL A   1      32.040  26.682  27.254  1.00  0.00     0.063 H 
ATOM     53  C   UNL A   1      34.022  29.509  25.617  1.00  0.00    -0.043 A 
ATOM     54  H   UNL A   1      34.432  28.102  24.100  1.00  0.00     0.063 H 
ATOM     55  C   UNL A   1      33.347  29.730  26.816  1.00  0.00     0.041 A 
ATOM     56  H   UNL A   1      32.123  28.871  28.302  1.00  0.00     0.064 H 
ATOM     57  H   UNL A   1      34.573  30.268  25.186  1.00  0.00     0.064 H 
ATOM     58  Cl  UNL A   1      33.384  31.290  27.540  1.00  0.00    -0.084 Cl
ENDBRANCH  28  48
ENDBRANCH  14  17
ENDBRANCH  11  14
ENDBRANCH   7  10
ENDBRANCH   4   7
ENDBRANCH   1   4
BRANCH   1  59
ATOM     59  C   UNL A   1      40.780  21.417  27.613  1.00  0.00    -0.052 C 
ATOM     60  H   UNL A   1      40.005  20.924  28.160  1.00  0.00     0.027 H 
ATOM     61  H   UNL A   1      41.297  22.176  28.163  1.00  0.00     0.027 H 
BRANCH  59  62
ATOM     62  C   UNL A   1      41.846  20.367  27.265  1.00  0.00    -0.036 C 
ATOM     63  H   UNL A   1      41.680  19.502  27.873  1.00  0.00     0.028 H 
ATOM     64  H   UNL A   1      42.799  20.819  27.446  1.00  0.00     0.028 H 
BRANCH  62  65
ATOM     65  C   UNL A   1      41.832  19.937  25.807  1.00  0.00     0.018 C 
ATOM     66  H   UNL A   1      41.415  20.729  25.219  1.00  0.00     0.049 H 
ATOM     67  H   UNL A   1      41.247  19.045  25.733  1.00  0.00     0.049 H 
BRANCH  65  68
ATOM     68  N   UNL A   1      43.168  19.637  25.307  1.00  0.00    -0.352 N 
ATOM     69  C   UNL A   1      44.172  20.518  24.962  1.00  0.00     0.251 C 
ATOM     70  H   UNL A   1      43.382  18.682  25.199  1.00  0.00     0.163 HD
ATOM     71  O   UNL A   1      45.095  20.170  24.245  1.00  0.00    -0.269 OA
BRANCH  69  72
ATOM     72  C   UNL A   1      44.101  21.904  25.464  1.00  0.00     0.039 A 
ATOM     73  C   UNL A   1      43.307  22.849  24.811  1.00  0.00    -0.049 A 
ATOM     74  C   UNL A   1      44.830  22.250  26.600  1.00  0.00    -0.049 A 
ATOM     75  C   UNL A   1      43.189  24.122  25.360  1.00  0.00    -0.053 A 
ATOM     76  H   UNL A   1      42.814  22.606  23.937  1.00  0.00     0.063 H 
ATOM     77  C   UNL A   1      44.618  23.465  27.209  1.00  0.00    -0.053 A 
ATOM     78  H   UNL A   1      45.530  21.595  26.984  1.00  0.00     0.063 H 
ATOM     79  C   UNL A   1      43.828  24.419  26.575  1.00  0.00    -0.014 A 
ATOM     80  H   UNL A   1      42.634  24.845  24.875  1.00  0.00     0.063 H 
ATOM     81  H   UNL A   1      45.039  23.667  28.129  1.00  0.00     0.063 H 
BRANCH  79  82
ATOM     82  C   UNL A   1      43.580  25.700  27.232  1.00  0.00     0.031 A 
ATOM     83  C   UNL A   1      44.520  26.794  26.858  1.00  0.00     0.074 A 
ATOM     84  C   UNL A   1      42.489  25.963  27.980  1.00  0.00     0.049 A 
ATOM     85  N   UNL A   1      45.364  27.409  27.620  1.00  0.00    -0.248 NA
ATOM     86  C   UNL A   1      44.604  27.186  25.442  1.00  0.00    -0.034 C 
ATOM     87  C   UNL A   1      41.303  25.128  28.201  1.00  0.00    -0.036 A 
ATOM     88  N   UNL A   1      42.175  27.110  28.644  1.00  0.00    -0.354 N 
ATOM     89  C   UNL A   1      45.979  28.377  26.829  1.00  0.00     0.074 A 
ATOM     90  C   UNL A   1      45.575  28.101  25.474  1.00  0.00    -0.034 C 
ATOM     91  H   UNL A   1      44.057  26.843  24.637  1.00  0.00     0.065 H 
ATOM     92  C   UNL A   1      40.320  25.874  28.751  1.00  0.00    -0.036 A 
ATOM     93  H   UNL A   1      41.231  24.124  27.970  1.00  0.00     0.065 H 
ATOM     94  C   UNL A   1      40.861  27.179  29.084  1.00  0.00     0.049 A 
ATOM     95  H   UNL A   1      42.828  27.831  28.798  1.00  0.00     0.167 HD
ATOM     96  C   UNL A   1      46.611  29.446  27.391  1.00  0.00     0.037 A 
ATOM     97  H   UNL A   1      45.982  28.552  24.639  1.00  0.00     0.065 H 
ATOM     98  H   UNL A   1      39.348  25.568  28.908  1.00  0.00     0.065 H 
ATOM     99  C   UNL A   1      40.256  28.242  29.666  1.00  0.00     0.037 A 
ATOM    100  C   UNL A   1      46.899  29.198  28.782  1.00  0.00     0.049 A 
ATOM    101  C   UNL A   1      41.324  29.122  30.198  1.00  0.00     0.074 A 
ATOM    102  C   UNL A   1      47.652  28.266  29.468  1.00  0.00    -0.036 A 
ATOM    103  N   UNL A   1      46.077  29.769  29.722  1.00  0.00    -0.354 N 
ATOM    104  N   UNL A   1      42.096  28.807  31.200  1.00  0.00    -0.248 NA
ATOM    105  C   UNL A   1      41.820  30.182  29.335  1.00  0.00    -0.034 C 
ATOM    106  C   UNL A   1      46.897  27.977  30.645  1.00  0.00    -0.036 A 
ATOM    107  H   UNL A   1      48.562  27.864  29.191  1.00  0.00     0.065 H 
ATOM    108  C   UNL A   1      45.767  28.796  30.635  1.00  0.00     0.049 A 
ATOM    109  H   UNL A   1      45.768  30.703  29.738  1.00  0.00     0.167 HD
ATOM    110  C   UNL A   1      43.343  29.298  30.847  1.00  0.00     0.074 A 
ATOM    111  C   UNL A   1      43.089  30.224  29.746  1.00  0.00    -0.034 C 
ATOM    112  H   UNL A   1      41.332  30.740  28.616  1.00  0.00     0.065 H 
ATOM    113  H   UNL A   1      47.142  27.288  31.372  1.00  0.00     0.065 H 
ATOM    114  C   UNL A   1      44.485  28.696  31.291  1.00  0.00     0.037 A 
ATOM    115  H   UNL A   1      43.808  30.840  29.334  1.00  0.00     0.065 H 
BRANCH  96 116
ATOM    116  C   UNL A   1      46.647  30.844  26.809  1.00  0.00     0.064 A 
ATOM    117  C   UNL A   1      47.864  31.560  26.828  1.00  0.00     0.173 A 
ATOM    118  C   UNL A   1      45.500  31.617  26.532  1.00  0.00     0.173 A 
ATOM    119  F   UNL A   1      49.025  30.933  27.073  1.00  0.00    -0.203 F 
ATOM    120  C   UNL A   1      47.910  32.951  26.702  1.00  0.00     0.198 A 
ATOM    121  C   UNL A   1      45.556  33.000  26.355  1.00  0.00     0.198 A 
ATOM    122  F   UNL A   1      44.268  31.097  26.530  1.00  0.00    -0.203 F 
ATOM    123  F   UNL A   1      49.072  33.596  26.875  1.00  0.00    -0.200 F 
ATOM    124  C   UNL A   1      46.754  33.672  26.480  1.00  0.00     0.200 A 
ATOM    125  F   UNL A   1      44.421  33.682  26.148  1.00  0.00    -0.200 F 
ATOM    126  F   UNL A   1      46.782  35.010  26.431  1.00  0.00    -0.200 F 
ENDBRANCH  96 116
BRANCH  99 127
ATOM    127  C   UNL A   1      38.847  28.682  29.568  1.00  0.00     0.064 A 
ATOM    128  C   UNL A   1      38.060  28.847  30.719  1.00  0.00     0.173 A 
ATOM    129  C   UNL A   1      38.341  29.231  28.375  1.00  0.00     0.173 A 
ATOM    130  F   UNL A   1      38.491  28.389  31.903  1.00  0.00    -0.203 F 
ATOM    131  C   UNL A   1      36.853  29.553  30.687  1.00  0.00     0.198 A 
ATOM    132  C   UNL A   1      37.135  29.934  28.345  1.00  0.00     0.198 A 
ATOM    133  F   UNL A   1      39.053  29.184  27.241  1.00  0.00    -0.203 F 
ATOM    134  F   UNL A   1      36.164  29.752  31.819  1.00  0.00    -0.200 F 
ATOM    135  C   UNL A   1      36.399  30.108  29.502  1.00  0.00     0.200 A 
ATOM    136  F   UNL A   1      36.724  30.505  27.205  1.00  0.00    -0.200 F 
ATOM    137  F   UNL A   1      35.281  30.844  29.482  1.00  0.00    -0.200 F 
ENDBRANCH  99 127
BRANCH 114 138
ATOM    138  C   UNL A   1      44.361  27.676  32.389  1.00  0.00     0.064 A 
ATOM    139  C   UNL A   1      44.168  26.301  32.174  1.00  0.00     0.173 A 
ATOM    140  C   UNL A   1      44.586  28.096  33.707  1.00  0.00     0.173 A 
ATOM    141  F   UNL A   1      44.046  25.804  30.937  1.00  0.00    -0.203 F 
ATOM    142  C   UNL A   1      44.156  25.397  33.236  1.00  0.00     0.198 A 
ATOM    143  C   UNL A   1      44.613  27.188  34.761  1.00  0.00     0.198 A 
ATOM    144  F   UNL A   1      44.830  29.390  33.968  1.00  0.00    -0.203 F 
ATOM    145  F   UNL A   1      43.954  24.091  33.006  1.00  0.00    -0.200 F 
ATOM    146  C   UNL A   1      44.387  25.841  34.528  1.00  0.00     0.200 A 
ATOM    147  F   UNL A   1      44.885  27.615  36.001  1.00  0.00    -0.200 F 
ATOM    148  F   UNL A   1      44.416  24.968  35.544  1.00  0.00    -0.200 F 
ENDBRANCH 114 138
ENDBRANCH  79  82
ENDBRANCH  69  72
ENDBRANCH  65  68
ENDBRANCH  62  65
ENDBRANCH  59  62
ENDBRANCH   1  59
TORSDOF 18
ENDMDL
MODEL 2
REMARK VINA RESULT:     -11.7      4.962     10.174
REMARK SMILES CC1(C)Cc2c(-c3ccccc3)c(-c3ccc(Cl)cc3)c(CC(=O)NCCCCCCNC(=O)c3ccc(-c4c5nc(c(-c6c(F)c(F)c(F)c(F)c6F)c6ccc([nH]6)c(-c6c(F)c(F)c(F)c(F)c6F)c6nc(c(-c7c(F)c(F)c(F)c(F)c7F)c7ccc4[nH]7)C=C6)C=C5)cc3)n2C1
REMARK SMILES IDX 28 1 27 4 26 7 25 10 23 11 24 12 22 14 21 17 2 18 4 19 99 20
REMARK SMILES IDX 5 21 98 24 6 27 13 28 1 29 3 33 7 37 8 38 12 39 9 40 11 42
REMARK SMILES IDX 10 44 14 48 15 49 20 50 16 51 19 53 17 55 18 58 29 59 30 62
REMARK SMILES IDX 31 65 32 68 33 69 34 71 35 72 36 73 97 74 37 75 96 77 38 79
REMARK SMILES IDX 39 82 40 83 90 84 41 85 95 86 89 87 91 88 42 89 94 90 88 92
REMARK SMILES IDX 87 94 43 96 75 99 55 100 74 101 56 102 59 103 73 104 92 105
REMARK SMILES IDX 57 106 58 108 72 110 93 111 60 114 44 116 45 117 53 118
REMARK SMILES IDX 46 119 47 120 51 121 54 122 48 123 49 124 52 125 50 126
REMARK SMILES IDX 76 127 77 128 85 129 78 130 79 131 83 132 86 133 80 134
REMARK SMILES IDX 81 135 84 136 82 137 61 138 62 139 70 140 63 141 64 142
REMARK SMILES IDX 68 143 71 144 65 145 66 146 69 147 67 148
REMARK H PARENT 28 2 28 3 27 5 27 6 26 8 26 9 25 13 22 15 22 16 4 22 4 23
REMARK H PARENT 99 25 99 26 1 30 1 31 1 32 3 34 3 35 3 36 8 41 12 43 9 45
REMARK H PARENT 11 46 10 47 15 52 20 54 16 56 19 57 29 60 29 61 30 63 30 64
REMARK H PARENT 31 66 31 67 32 70 36 76 97 78 37 80 96 81 95 91 89 93 91 95
REMARK H PARENT 94 97 88 98 56 107 59 109 92 112 57 113 93 115
REMARK Flexibility Score: inf
ROOT
ATOM      1  C   UNL A   1      44.259  25.061  25.547  1.00  0.00    -0.052 C 
ATOM      2  H   UNL A   1      44.970  25.228  24.765  1.00  0.00     0.027 H 
ATOM      3  H   UNL A   1      43.270  24.858  25.195  1.00  0.00     0.027 H 
ENDROOT
BRANCH   1   4
ATOM      4  C   UNL A   1      44.155  26.347  26.371  1.00  0.00    -0.036 C 
ATOM      5  H   UNL A   1      43.662  27.087  25.774  1.00  0.00     0.028 H 
ATOM      6  H   UNL A   1      43.612  26.096  27.258  1.00  0.00     0.028 H 
BRANCH   4   7
ATOM      7  C   UNL A   1      45.494  26.918  26.829  1.00  0.00     0.017 C 
ATOM      8  H   UNL A   1      45.446  27.103  27.882  1.00  0.00     0.049 H 
ATOM      9  H   UNL A   1      46.251  26.201  26.588  1.00  0.00     0.049 H 
BRANCH   7  10
ATOM     10  N   UNL A   1      45.833  28.151  26.159  1.00  0.00    -0.356 N 
ATOM     11  C   UNL A   1      46.503  28.335  24.982  1.00  0.00     0.225 C 
ATOM     12  O   UNL A   1      46.606  29.491  24.563  1.00  0.00    -0.275 OA
ATOM     13  H   UNL A   1      45.541  28.974  26.613  1.00  0.00     0.163 HD
BRANCH  11  14
ATOM     14  C   UNL A   1      47.022  27.152  24.178  1.00  0.00     0.068 C 
ATOM     15  H   UNL A   1      46.604  26.257  24.590  1.00  0.00     0.043 H 
ATOM     16  H   UNL A   1      46.730  27.319  23.163  1.00  0.00     0.043 H 
BRANCH  14  17
ATOM     17  C   UNL A   1      48.518  27.015  24.177  1.00  0.00     0.036 A 
ATOM     18  C   UNL A   1      50.332  27.281  20.961  1.00  0.00    -0.012 C 
ATOM     19  C   UNL A   1      51.411  27.358  22.089  1.00  0.00    -0.005 C 
ATOM     20  C   UNL A   1      49.000  27.640  21.684  1.00  0.00     0.028 C 
ATOM     21  C   UNL A   1      50.604  27.115  23.308  1.00  0.00     0.027 A 
ATOM     22  H   UNL A   1      51.876  28.321  22.117  1.00  0.00     0.034 H 
ATOM     23  H   UNL A   1      52.217  26.665  21.961  1.00  0.00     0.034 H 
ATOM     24  N   UNL A   1      49.272  27.270  23.069  1.00  0.00    -0.346 N 
ATOM     25  H   UNL A   1      48.181  27.076  21.288  1.00  0.00     0.050 H 
ATOM     26  H   UNL A   1      48.720  28.667  21.568  1.00  0.00     0.050 H 
ATOM     27  C   UNL A   1      50.763  26.759  24.619  1.00  0.00     0.011 A 
ATOM     28  C   UNL A   1      49.438  26.711  25.188  1.00  0.00     0.011 A 
BRANCH  18  29
ATOM     29  C   UNL A   1      50.628  28.259  19.824  1.00  0.00    -0.058 C 
ATOM     30  H   UNL A   1      49.730  28.448  19.273  1.00  0.00     0.024 H 
ATOM     31  H   UNL A   1      51.364  27.836  19.172  1.00  0.00     0.024 H 
ATOM     32  H   UNL A   1      50.996  29.177  20.231  1.00  0.00     0.024 H 
ENDBRANCH  18  29
BRANCH  18  33
ATOM     33  C   UNL A   1      50.283  25.852  20.387  1.00  0.00    -0.058 C 
ATOM     34  H   UNL A   1      50.642  25.161  21.120  1.00  0.00     0.024 H 
ATOM     35  H   UNL A   1      50.898  25.797  19.514  1.00  0.00     0.024 H 
ATOM     36  H   UNL A   1      49.274  25.606  20.129  1.00  0.00     0.024 H 
ENDBRANCH  18  33
BRANCH  27  37
ATOM     37  C   UNL A   1      52.039  26.476  25.246  1.00  0.00    -0.016 A 
ATOM     38  C   UNL A   1      52.442  25.159  25.484  1.00  0.00    -0.054 A 
ATOM     39  C   UNL A   1      52.905  27.532  25.552  1.00  0.00    -0.054 A 
ATOM     40  C   UNL A   1      53.708  24.905  26.015  1.00  0.00    -0.062 A 
ATOM     41  H   UNL A   1      51.805  24.377  25.269  1.00  0.00     0.063 H 
ATOM     42  C   UNL A   1      54.169  27.276  26.081  1.00  0.00    -0.062 A 
ATOM     43  H   UNL A   1      52.607  28.506  25.385  1.00  0.00     0.063 H 
ATOM     44  C   UNL A   1      54.570  25.962  26.307  1.00  0.00    -0.062 A 
ATOM     45  H   UNL A   1      54.006  23.932  26.192  1.00  0.00     0.062 H 
ATOM     46  H   UNL A   1      54.805  28.058  26.304  1.00  0.00     0.062 H 
ATOM     47  H   UNL A   1      55.509  25.769  26.693  1.00  0.00     0.062 H 
ENDBRANCH  27  37
BRANCH  28  48
ATOM     48  C   UNL A   1      49.123  26.425  26.583  1.00  0.00    -0.016 A 
ATOM     49  C   UNL A   1      48.628  25.160  26.930  1.00  0.00    -0.053 A 
ATOM     50  C   UNL A   1      49.142  27.435  27.550  1.00  0.00    -0.053 A 
ATOM     51  C   UNL A   1      48.154  24.911  28.222  1.00  0.00    -0.043 A 
ATOM     52  H   UNL A   1      48.613  24.405  26.226  1.00  0.00     0.063 H 
ATOM     53  C   UNL A   1      48.690  27.183  28.848  1.00  0.00    -0.043 A 
ATOM     54  H   UNL A   1      49.492  28.374  27.303  1.00  0.00     0.063 H 
ATOM     55  C   UNL A   1      48.188  25.925  29.176  1.00  0.00     0.041 A 
ATOM     56  H   UNL A   1      47.782  23.981  28.468  1.00  0.00     0.064 H 
ATOM     57  H   UNL A   1      48.728  27.927  29.563  1.00  0.00     0.064 H 
ATOM     58  Cl  UNL A   1      47.573  25.636  30.756  1.00  0.00    -0.084 Cl
ENDBRANCH  28  48
ENDBRANCH  14  17
ENDBRANCH  11  14
ENDBRANCH   7  10
ENDBRANCH   4   7
ENDBRANCH   1   4
BRANCH   1  59
ATOM     59  C   UNL A   1      44.696  23.809  26.324  1.00  0.00    -0.052 C 
ATOM     60  H   UNL A   1      44.611  24.028  27.367  1.00  0.00     0.027 H 
ATOM     61  H   UNL A   1      45.692  23.604  25.992  1.00  0.00     0.027 H 
BRANCH  59  62
ATOM     62  C   UNL A   1      43.901  22.523  26.050  1.00  0.00    -0.036 C 
ATOM     63  H   UNL A   1      43.607  22.101  26.988  1.00  0.00     0.028 H 
ATOM     64  H   UNL A   1      44.542  21.874  25.490  1.00  0.00     0.028 H 
BRANCH  62  65
ATOM     65  C   UNL A   1      42.652  22.739  25.211  1.00  0.00     0.018 C 
ATOM     66  H   UNL A   1      42.794  22.277  24.256  1.00  0.00     0.049 H 
ATOM     67  H   UNL A   1      42.499  23.794  25.115  1.00  0.00     0.049 H 
BRANCH  65  68
ATOM     68  N   UNL A   1      41.463  22.171  25.833  1.00  0.00    -0.352 N 
ATOM     69  C   UNL A   1      40.731  22.666  26.893  1.00  0.00     0.251 C 
ATOM     70  H   UNL A   1      41.140  21.324  25.449  1.00  0.00     0.163 HD
ATOM     71  O   UNL A   1      39.984  21.944  27.532  1.00  0.00    -0.269 OA
BRANCH  69  72
ATOM     72  C   UNL A   1      40.880  24.088  27.254  1.00  0.00     0.039 A 
ATOM     73  C   UNL A   1      40.207  25.073  26.529  1.00  0.00    -0.049 A 
ATOM     74  C   UNL A   1      41.693  24.430  28.334  1.00  0.00    -0.049 A 
ATOM     75  C   UNL A   1      40.295  26.396  26.950  1.00  0.00    -0.053 A 
ATOM     76  H   UNL A   1      39.652  24.823  25.695  1.00  0.00     0.063 H 
ATOM     77  C   UNL A   1      41.681  25.716  28.823  1.00  0.00    -0.053 A 
ATOM     78  H   UNL A   1      42.305  23.719  28.766  1.00  0.00     0.063 H 
ATOM     79  C   UNL A   1      41.014  26.711  28.115  1.00  0.00    -0.014 A 
ATOM     80  H   UNL A   1      39.833  27.144  26.409  1.00  0.00     0.063 H 
ATOM     81  H   UNL A   1      42.161  25.941  29.708  1.00  0.00     0.063 H 
BRANCH  79  82
ATOM     82  C   UNL A   1      40.979  28.071  28.646  1.00  0.00     0.031 A 
ATOM     83  C   UNL A   1      42.021  28.988  28.104  1.00  0.00     0.074 A 
ATOM     84  C   UNL A   1      39.986  28.549  29.423  1.00  0.00     0.049 A 
ATOM     85  N   UNL A   1      42.988  29.556  28.747  1.00  0.00    -0.248 NA
ATOM     86  C   UNL A   1      42.054  29.225  26.652  1.00  0.00    -0.034 C 
ATOM     87  C   UNL A   1      38.722  27.906  29.799  1.00  0.00    -0.036 A 
ATOM     88  N   UNL A   1      39.869  29.787  29.979  1.00  0.00    -0.354 N 
ATOM     89  C   UNL A   1      43.664  30.352  27.824  1.00  0.00     0.074 A 
ATOM     90  C   UNL A   1      43.133  30.002  26.531  1.00  0.00    -0.034 C 
ATOM     91  H   UNL A   1      41.411  28.882  25.921  1.00  0.00     0.065 H 
ATOM     92  C   UNL A   1      37.884  28.827  30.323  1.00  0.00    -0.036 A 
ATOM     93  H   UNL A   1      38.507  26.903  29.681  1.00  0.00     0.065 H 
ATOM     94  C   UNL A   1      38.609  30.073  30.485  1.00  0.00     0.049 A 
ATOM     95  H   UNL A   1      40.617  30.425  30.019  1.00  0.00     0.167 HD
ATOM     96  C   UNL A   1      44.465  31.376  28.232  1.00  0.00     0.037 A 
ATOM     97  H   UNL A   1      43.533  30.310  25.631  1.00  0.00     0.065 H 
ATOM     98  H   UNL A   1      36.894  28.670  30.568  1.00  0.00     0.065 H 
ATOM     99  C   UNL A   1      38.186  31.259  30.986  1.00  0.00     0.037 A 
ATOM    100  C   UNL A   1      44.817  31.228  29.623  1.00  0.00     0.049 A 
ATOM    101  C   UNL A   1      39.393  32.036  31.359  1.00  0.00     0.074 A 
ATOM    102  C   UNL A   1      45.492  30.275  30.359  1.00  0.00    -0.036 A 
ATOM    103  N   UNL A   1      44.143  31.993  30.543  1.00  0.00    -0.354 N 
ATOM    104  N   UNL A   1      40.187  31.720  32.342  1.00  0.00    -0.248 NA
ATOM    105  C   UNL A   1      39.956  32.932  30.362  1.00  0.00    -0.034 C 
ATOM    106  C   UNL A   1      44.793  30.205  31.601  1.00  0.00    -0.036 A 
ATOM    107  H   UNL A   1      46.322  29.730  30.074  1.00  0.00     0.065 H 
ATOM    108  C   UNL A   1      43.778  31.163  31.571  1.00  0.00     0.049 A 
ATOM    109  H   UNL A   1      43.957  32.957  30.478  1.00  0.00     0.167 HD
ATOM    110  C   UNL A   1      41.458  32.003  31.868  1.00  0.00     0.074 A 
ATOM    111  C   UNL A   1      41.247  32.843  30.692  1.00  0.00    -0.034 C 
ATOM    112  H   UNL A   1      39.494  33.477  29.617  1.00  0.00     0.065 H 
ATOM    113  H   UNL A   1      44.999  29.563  32.382  1.00  0.00     0.065 H 
ATOM    114  C   UNL A   1      42.544  31.300  32.306  1.00  0.00     0.037 A 
ATOM    115  H   UNL A   1      42.007  33.314  30.176  1.00  0.00     0.065 H 
BRANCH  96 116
ATOM    116  C   UNL A   1      44.637  32.693  27.505  1.00  0.00     0.064 A 
ATOM    117  C   UNL A   1      45.805  32.902  26.739  1.00  0.00     0.173 A 
ATOM    118  C   UNL A   1      43.881  33.853  27.776  1.00  0.00     0.173 A 
ATOM    119  F   UNL A   1      46.602  31.874  26.410  1.00  0.00    -0.203 F 
ATOM    120  C   UNL A   1      46.241  34.181  26.381  1.00  0.00     0.198 A 
ATOM    121  C   UNL A   1      44.293  35.124  27.372  1.00  0.00     0.198 A 
ATOM    122  F   UNL A   1      42.779  33.831  28.532  1.00  0.00    -0.203 F 
ATOM    123  F   UNL A   1      47.429  34.335  25.783  1.00  0.00    -0.200 F 
ATOM    124  C   UNL A   1      45.491  35.292  26.710  1.00  0.00     0.200 A 
ATOM    125  F   UNL A   1      43.555  36.191  27.709  1.00  0.00    -0.200 F 
ATOM    126  F   UNL A   1      45.939  36.524  26.436  1.00  0.00    -0.200 F 
ENDBRANCH  96 116
BRANCH  99 127
ATOM    127  C   UNL A   1      36.842  31.872  30.923  1.00  0.00     0.064 A 
ATOM    128  C   UNL A   1      36.039  31.973  32.071  1.00  0.00     0.173 A 
ATOM    129  C   UNL A   1      36.443  32.632  29.808  1.00  0.00     0.173 A 
ATOM    130  F   UNL A   1      36.374  31.312  33.188  1.00  0.00    -0.203 F 
ATOM    131  C   UNL A   1      34.924  32.815  32.114  1.00  0.00     0.198 A 
ATOM    132  C   UNL A   1      35.328  33.471  29.852  1.00  0.00     0.198 A 
ATOM    133  F   UNL A   1      37.184  32.654  28.691  1.00  0.00    -0.203 F 
ATOM    134  F   UNL A   1      34.223  32.940  33.250  1.00  0.00    -0.200 F 
ATOM    135  C   UNL A   1      34.577  33.573  31.009  1.00  0.00     0.200 A 
ATOM    136  F   UNL A   1      35.024  34.235  28.795  1.00  0.00    -0.200 F 
ATOM    137  F   UNL A   1      33.552  34.433  31.069  1.00  0.00    -0.200 F 
ENDBRANCH  99 127
BRANCH 114 138
ATOM    138  C   UNL A   1      42.369  30.418  33.511  1.00  0.00     0.064 A 
ATOM    139  C   UNL A   1      42.499  30.858  34.840  1.00  0.00     0.173 A 
ATOM    140  C   UNL A   1      41.915  29.108  33.309  1.00  0.00     0.173 A 
ATOM    141  F   UNL A   1      42.831  32.124  35.121  1.00  0.00    -0.203 F 
ATOM    142  C   UNL A   1      42.231  30.009  35.912  1.00  0.00     0.198 A 
ATOM    143  C   UNL A   1      41.610  28.274  34.381  1.00  0.00     0.198 A 
ATOM    144  F   UNL A   1      41.720  28.648  32.062  1.00  0.00    -0.203 F 
ATOM    145  F   UNL A   1      42.378  30.448  37.172  1.00  0.00    -0.200 F 
ATOM    146  C   UNL A   1      41.778  28.720  35.682  1.00  0.00     0.200 A 
ATOM    147  F   UNL A   1      41.127  27.046  34.152  1.00  0.00    -0.200 F 
ATOM    148  F   UNL A   1      41.481  27.916  36.712  1.00  0.00    -0.200 F 
ENDBRANCH 114 138
ENDBRANCH  79  82
ENDBRANCH  69  72
ENDBRANCH  65  68
ENDBRANCH  62  65
ENDBRANCH  59  62
ENDBRANCH   1  59
TORSDOF 18
ENDMDL
MODEL 3
REMARK VINA RESULT:     -11.5      4.910      9.758
REMARK SMILES CC1(C)Cc2c(-c3ccccc3)c(-c3ccc(Cl)cc3)c(CC(=O)NCCCCCCNC(=O)c3ccc(-c4c5nc(c(-c6c(F)c(F)c(F)c(F)c6F)c6ccc([nH]6)c(-c6c(F)c(F)c(F)c(F)c6F)c6nc(c(-c7c(F)c(F)c(F)c(F)c7F)c7ccc4[nH]7)C=C6)C=C5)cc3)n2C1
REMARK SMILES IDX 28 1 27 4 26 7 25 10 23 11 24 12 22 14 21 17 2 18 4 19 99 20
REMARK SMILES IDX 5 21 98 24 6 27 13 28 1 29 3 33 7 37 8 38 12 39 9 40 11 42
REMARK SMILES IDX 10 44 14 48 15 49 20 50 16 51 19 53 17 55 18 58 29 59 30 62
REMARK SMILES IDX 31 65 32 68 33 69 34 71 35 72 36 73 97 74 37 75 96 77 38 79
REMARK SMILES IDX 39 82 40 83 90 84 41 85 95 86 89 87 91 88 42 89 94 90 88 92
REMARK SMILES IDX 87 94 43 96 75 99 55 100 74 101 56 102 59 103 73 104 92 105
REMARK SMILES IDX 57 106 58 108 72 110 93 111 60 114 44 116 45 117 53 118
REMARK SMILES IDX 46 119 47 120 51 121 54 122 48 123 49 124 52 125 50 126
REMARK SMILES IDX 76 127 77 128 85 129 78 130 79 131 83 132 86 133 80 134
REMARK SMILES IDX 81 135 84 136 82 137 61 138 62 139 70 140 63 141 64 142
REMARK SMILES IDX 68 143 71 144 65 145 66 146 69 147 67 148
REMARK H PARENT 28 2 28 3 27 5 27 6 26 8 26 9 25 13 22 15 22 16 4 22 4 23
REMARK H PARENT 99 25 99 26 1 30 1 31 1 32 3 34 3 35 3 36 8 41 12 43 9 45
REMARK H PARENT 11 46 10 47 15 52 20 54 16 56 19 57 29 60 29 61 30 63 30 64
REMARK H PARENT 31 66 31 67 32 70 36 76 97 78 37 80 96 81 95 91 89 93 91 95
REMARK H PARENT 94 97 88 98 56 107 59 109 92 112 57 113 93 115
REMARK Flexibility Score: inf
ROOT
ATOM      1  C   UNL A   1      43.889  25.515  25.381  1.00  0.00    -0.052 C 
ATOM      2  H   UNL A   1      44.077  26.235  24.612  1.00  0.00     0.027 H 
ATOM      3  H   UNL A   1      42.850  25.337  25.562  1.00  0.00     0.027 H 
ENDROOT
BRANCH   1   4
ATOM      4  C   UNL A   1      44.455  26.069  26.691  1.00  0.00    -0.036 C 
ATOM      5  H   UNL A   1      45.190  26.809  26.450  1.00  0.00     0.028 H 
ATOM      6  H   UNL A   1      43.624  26.466  27.236  1.00  0.00     0.028 H 
BRANCH   4   7
ATOM      7  C   UNL A   1      45.107  25.025  27.593  1.00  0.00     0.017 C 
ATOM      8  H   UNL A   1      44.685  24.067  27.369  1.00  0.00     0.049 H 
ATOM      9  H   UNL A   1      46.160  25.047  27.404  1.00  0.00     0.049 H 
BRANCH   7  10
ATOM     10  N   UNL A   1      44.911  25.300  28.996  1.00  0.00    -0.356 N 
ATOM     11  C   UNL A   1      45.843  25.556  29.962  1.00  0.00     0.225 C 
ATOM     12  O   UNL A   1      45.429  25.844  31.088  1.00  0.00    -0.275 OA
ATOM     13  H   UNL A   1      43.974  25.302  29.300  1.00  0.00     0.163 HD
BRANCH  11  14
ATOM     14  C   UNL A   1      47.330  25.573  29.637  1.00  0.00     0.068 C 
ATOM     15  H   UNL A   1      47.832  24.934  30.334  1.00  0.00     0.043 H 
ATOM     16  H   UNL A   1      47.426  25.241  28.625  1.00  0.00     0.043 H 
BRANCH  14  17
ATOM     17  C   UNL A   1      47.962  26.933  29.706  1.00  0.00     0.036 A 
ATOM     18  C   UNL A   1      49.032  28.235  33.003  1.00  0.00    -0.012 C 
ATOM     19  C   UNL A   1      49.666  29.174  31.925  1.00  0.00    -0.005 C 
ATOM     20  C   UNL A   1      48.690  26.934  32.219  1.00  0.00     0.028 C 
ATOM     21  C   UNL A   1      49.078  28.649  30.671  1.00  0.00     0.027 A 
ATOM     22  H   UNL A   1      50.733  29.092  31.918  1.00  0.00     0.034 H 
ATOM     23  H   UNL A   1      49.469  30.213  32.091  1.00  0.00     0.034 H 
ATOM     24  N   UNL A   1      48.538  27.411  30.848  1.00  0.00    -0.346 N 
ATOM     25  H   UNL A   1      47.783  26.495  32.577  1.00  0.00     0.050 H 
ATOM     26  H   UNL A   1      49.434  26.171  32.321  1.00  0.00     0.050 H 
ATOM     27  C   UNL A   1      48.879  29.018  29.369  1.00  0.00     0.011 A 
ATOM     28  C   UNL A   1      48.185  27.921  28.740  1.00  0.00     0.011 A 
BRANCH  18  29
ATOM     29  C   UNL A   1      50.001  27.953  34.151  1.00  0.00    -0.058 C 
ATOM     30  H   UNL A   1      50.125  28.839  34.739  1.00  0.00     0.024 H 
ATOM     31  H   UNL A   1      50.948  27.653  33.753  1.00  0.00     0.024 H 
ATOM     32  H   UNL A   1      49.607  27.170  34.766  1.00  0.00     0.024 H 
ENDBRANCH  18  29
BRANCH  18  33
ATOM     33  C   UNL A   1      47.760  28.889  33.575  1.00  0.00    -0.058 C 
ATOM     34  H   UNL A   1      46.897  28.450  33.119  1.00  0.00     0.024 H 
ATOM     35  H   UNL A   1      47.776  29.939  33.373  1.00  0.00     0.024 H 
ATOM     36  H   UNL A   1      47.723  28.730  34.633  1.00  0.00     0.024 H 
ENDBRANCH  18  33
BRANCH  27  37
ATOM     37  C   UNL A   1      49.290  30.287  28.802  1.00  0.00    -0.016 A 
ATOM     38  C   UNL A   1      50.232  30.338  27.771  1.00  0.00    -0.054 A 
ATOM     39  C   UNL A   1      48.684  31.468  29.246  1.00  0.00    -0.054 A 
ATOM     40  C   UNL A   1      50.554  31.563  27.183  1.00  0.00    -0.062 A 
ATOM     41  H   UNL A   1      50.688  29.472  27.445  1.00  0.00     0.063 H 
ATOM     42  C   UNL A   1      49.006  32.690  28.658  1.00  0.00    -0.062 A 
ATOM     43  H   UNL A   1      47.994  31.435  30.013  1.00  0.00     0.063 H 
ATOM     44  C   UNL A   1      49.938  32.734  27.624  1.00  0.00    -0.062 A 
ATOM     45  H   UNL A   1      51.250  31.601  26.422  1.00  0.00     0.062 H 
ATOM     46  H   UNL A   1      48.556  33.558  28.987  1.00  0.00     0.062 H 
ATOM     47  H   UNL A   1      50.174  33.637  27.181  1.00  0.00     0.062 H 
ENDBRANCH  27  37
BRANCH  28  48
ATOM     48  C   UNL A   1      47.810  27.849  27.332  1.00  0.00    -0.016 A 
ATOM     49  C   UNL A   1      48.569  27.058  26.458  1.00  0.00    -0.053 A 
ATOM     50  C   UNL A   1      46.818  28.682  26.805  1.00  0.00    -0.053 A 
ATOM     51  C   UNL A   1      48.343  27.105  25.079  1.00  0.00    -0.043 A 
ATOM     52  H   UNL A   1      49.300  26.436  26.835  1.00  0.00     0.063 H 
ATOM     53  C   UNL A   1      46.575  28.714  25.429  1.00  0.00    -0.043 A 
ATOM     54  H   UNL A   1      46.261  29.279  27.437  1.00  0.00     0.063 H 
ATOM     55  C   UNL A   1      47.346  27.933  24.571  1.00  0.00     0.041 A 
ATOM     56  H   UNL A   1      48.911  26.527  24.440  1.00  0.00     0.064 H 
ATOM     57  H   UNL A   1      45.825  29.314  25.050  1.00  0.00     0.064 H 
ATOM     58  Cl  UNL A   1      47.087  28.022  22.872  1.00  0.00    -0.084 Cl
ENDBRANCH  28  48
ENDBRANCH  14  17
ENDBRANCH  11  14
ENDBRANCH   7  10
ENDBRANCH   4   7
ENDBRANCH   1   4
BRANCH   1  59
ATOM     59  C   UNL A   1      44.473  24.170  24.922  1.00  0.00    -0.052 C 
ATOM     60  H   UNL A   1      45.188  23.859  25.654  1.00  0.00     0.027 H 
ATOM     61  H   UNL A   1      44.883  24.356  23.951  1.00  0.00     0.027 H 
BRANCH  59  62
ATOM     62  C   UNL A   1      43.472  23.020  24.729  1.00  0.00    -0.036 C 
ATOM     63  H   UNL A   1      43.924  22.279  24.104  1.00  0.00     0.028 H 
ATOM     64  H   UNL A   1      42.592  23.444  24.293  1.00  0.00     0.028 H 
BRANCH  62  65
ATOM     65  C   UNL A   1      43.043  22.355  26.027  1.00  0.00     0.018 C 
ATOM     66  H   UNL A   1      43.238  23.026  26.838  1.00  0.00     0.049 H 
ATOM     67  H   UNL A   1      43.599  21.447  26.130  1.00  0.00     0.049 H 
BRANCH  65  68
ATOM     68  N   UNL A   1      41.626  22.014  26.031  1.00  0.00    -0.352 N 
ATOM     69  C   UNL A   1      40.587  22.680  26.647  1.00  0.00     0.251 C 
ATOM     70  H   UNL A   1      41.378  21.203  25.531  1.00  0.00     0.163 HD
ATOM     71  O   UNL A   1      39.525  22.122  26.866  1.00  0.00    -0.269 OA
BRANCH  69  72
ATOM     72  C   UNL A   1      40.787  24.083  27.055  1.00  0.00     0.039 A 
ATOM     73  C   UNL A   1      40.313  25.124  26.254  1.00  0.00    -0.049 A 
ATOM     74  C   UNL A   1      41.446  24.351  28.254  1.00  0.00    -0.049 A 
ATOM     75  C   UNL A   1      40.436  26.432  26.710  1.00  0.00    -0.053 A 
ATOM     76  H   UNL A   1      39.877  24.924  25.339  1.00  0.00     0.063 H 
ATOM     77  C   UNL A   1      41.457  25.630  28.761  1.00  0.00    -0.053 A 
ATOM     78  H   UNL A   1      41.926  23.591  28.761  1.00  0.00     0.063 H 
ATOM     79  C   UNL A   1      40.987  26.680  27.978  1.00  0.00    -0.014 A 
ATOM     80  H   UNL A   1      40.123  27.218  26.118  1.00  0.00     0.063 H 
ATOM     81  H   UNL A   1      41.809  25.809  29.714  1.00  0.00     0.063 H 
BRANCH  79  82
ATOM     82  C   UNL A   1      40.974  28.035  28.524  1.00  0.00     0.031 A 
ATOM     83  C   UNL A   1      42.039  28.937  28.002  1.00  0.00     0.074 A 
ATOM     84  C   UNL A   1      39.984  28.524  29.298  1.00  0.00     0.049 A 
ATOM     85  N   UNL A   1      43.012  29.478  28.659  1.00  0.00    -0.248 NA
ATOM     86  C   UNL A   1      42.089  29.189  26.553  1.00  0.00    -0.034 C 
ATOM     87  C   UNL A   1      38.705  27.902  29.656  1.00  0.00    -0.036 A 
ATOM     88  N   UNL A   1      39.887  29.758  29.867  1.00  0.00    -0.354 N 
ATOM     89  C   UNL A   1      43.712  30.270  27.750  1.00  0.00     0.074 A 
ATOM     90  C   UNL A   1      43.185  29.945  26.450  1.00  0.00    -0.034 C 
ATOM     91  H   UNL A   1      41.446  28.867  25.813  1.00  0.00     0.065 H 
ATOM     92  C   UNL A   1      37.881  28.834  30.183  1.00  0.00    -0.036 A 
ATOM     93  H   UNL A   1      38.470  26.905  29.525  1.00  0.00     0.065 H 
ATOM     94  C   UNL A   1      38.629  30.064  30.366  1.00  0.00     0.049 A 
ATOM     95  H   UNL A   1      40.647  30.381  29.920  1.00  0.00     0.167 HD
ATOM     96  C   UNL A   1      44.530  31.273  28.177  1.00  0.00     0.037 A 
ATOM     97  H   UNL A   1      43.599  30.255  25.557  1.00  0.00     0.065 H 
ATOM     98  H   UNL A   1      36.885  28.695  30.418  1.00  0.00     0.065 H 
ATOM     99  C   UNL A   1      38.226  31.252  30.876  1.00  0.00     0.037 A 
ATOM    100  C   UNL A   1      44.867  31.103  29.569  1.00  0.00     0.049 A 
ATOM    101  C   UNL A   1      39.445  32.001  31.268  1.00  0.00     0.074 A 
ATOM    102  C   UNL A   1      45.516  30.128  30.300  1.00  0.00    -0.036 A 
ATOM    103  N   UNL A   1      44.200  31.870  30.492  1.00  0.00    -0.354 N 
ATOM    104  N   UNL A   1      40.224  31.657  32.254  1.00  0.00    -0.248 NA
ATOM    105  C   UNL A   1      40.035  32.896  30.285  1.00  0.00    -0.034 C 
ATOM    106  C   UNL A   1      44.804  30.058  31.536  1.00  0.00    -0.036 A 
ATOM    107  H   UNL A   1      46.337  29.570  30.016  1.00  0.00     0.065 H 
ATOM    108  C   UNL A   1      43.809  31.037  31.507  1.00  0.00     0.049 A 
ATOM    109  H   UNL A   1      44.034  32.839  30.436  1.00  0.00     0.167 HD
ATOM    110  C   UNL A   1      41.505  31.921  31.794  1.00  0.00     0.074 A 
ATOM    111  C   UNL A   1      41.320  32.777  30.625  1.00  0.00    -0.034 C 
ATOM    112  H   UNL A   1      39.589  33.458  29.543  1.00  0.00     0.065 H 
ATOM    113  H   UNL A   1      44.991  29.404  32.311  1.00  0.00     0.065 H 
ATOM    114  C   UNL A   1      42.572  31.190  32.233  1.00  0.00     0.037 A 
ATOM    115  H   UNL A   1      42.094  33.238  30.121  1.00  0.00     0.065 H 
BRANCH  96 116
ATOM    116  C   UNL A   1      44.734  32.594  27.466  1.00  0.00     0.064 A 
ATOM    117  C   UNL A   1      45.923  32.797  26.732  1.00  0.00     0.173 A 
ATOM    118  C   UNL A   1      43.985  33.761  27.729  1.00  0.00     0.173 A 
ATOM    119  F   UNL A   1      46.718  31.763  26.414  1.00  0.00    -0.203 F 
ATOM    120  C   UNL A   1      46.382  34.074  26.397  1.00  0.00     0.198 A 
ATOM    121  C   UNL A   1      44.420  35.030  27.346  1.00  0.00     0.198 A 
ATOM    122  F   UNL A   1      42.863  33.744  28.456  1.00  0.00    -0.203 F 
ATOM    123  F   UNL A   1      47.587  34.220  25.830  1.00  0.00    -0.200 F 
ATOM    124  C   UNL A   1      45.636  35.191  26.717  1.00  0.00     0.200 A 
ATOM    125  F   UNL A   1      43.685  36.102  27.674  1.00  0.00    -0.200 F 
ATOM    126  F   UNL A   1      46.104  36.419  26.464  1.00  0.00    -0.200 F 
ENDBRANCH  96 116
BRANCH  99 127
ATOM    127  C   UNL A   1      36.894  31.893  30.809  1.00  0.00     0.064 A 
ATOM    128  C   UNL A   1      36.066  31.959  31.940  1.00  0.00     0.173 A 
ATOM    129  C   UNL A   1      36.537  32.709  29.719  1.00  0.00     0.173 A 
ATOM    130  F   UNL A   1      36.362  31.243  33.035  1.00  0.00    -0.203 F 
ATOM    131  C   UNL A   1      34.965  32.819  31.995  1.00  0.00     0.198 A 
ATOM    132  C   UNL A   1      35.436  33.566  29.775  1.00  0.00     0.198 A 
ATOM    133  F   UNL A   1      37.305  32.766  28.622  1.00  0.00    -0.203 F 
ATOM    134  F   UNL A   1      34.239  32.907  33.117  1.00  0.00    -0.200 F 
ATOM    135  C   UNL A   1      34.660  33.632  30.916  1.00  0.00     0.200 A 
ATOM    136  F   UNL A   1      35.173  34.381  28.745  1.00  0.00    -0.200 F 
ATOM    137  F   UNL A   1      33.649  34.507  30.990  1.00  0.00    -0.200 F 
ENDBRANCH  99 127
BRANCH 114 138
ATOM    138  C   UNL A   1      42.369  30.299  33.427  1.00  0.00     0.064 A 
ATOM    139  C   UNL A   1      42.480  30.725  34.762  1.00  0.00     0.173 A 
ATOM    140  C   UNL A   1      41.907  28.995  33.205  1.00  0.00     0.173 A 
ATOM    141  F   UNL A   1      42.818  31.985  35.060  1.00  0.00    -0.203 F 
ATOM    142  C   UNL A   1      42.186  29.869  35.822  1.00  0.00     0.198 A 
ATOM    143  C   UNL A   1      41.576  28.154  34.264  1.00  0.00     0.198 A 
ATOM    144  F   UNL A   1      41.729  28.549  31.951  1.00  0.00    -0.203 F 
ATOM    145  F   UNL A   1      42.315  30.295  37.087  1.00  0.00    -0.200 F 
ATOM    146  C   UNL A   1      41.726  28.586  35.571  1.00  0.00     0.200 A 
ATOM    147  F   UNL A   1      41.086  26.932  34.015  1.00  0.00    -0.200 F 
ATOM    148  F   UNL A   1      41.404  27.775  36.589  1.00  0.00    -0.200 F 
ENDBRANCH 114 138
ENDBRANCH  79  82
ENDBRANCH  69  72
ENDBRANCH  65  68
ENDBRANCH  62  65
ENDBRANCH  59  62
ENDBRANCH   1  59
TORSDOF 18
ENDMDL
MODEL 4
REMARK VINA RESULT:     -11.4      8.973     15.625
REMARK SMILES CC1(C)Cc2c(-c3ccccc3)c(-c3ccc(Cl)cc3)c(CC(=O)NCCCCCCNC(=O)c3ccc(-c4c5nc(c(-c6c(F)c(F)c(F)c(F)c6F)c6ccc([nH]6)c(-c6c(F)c(F)c(F)c(F)c6F)c6nc(c(-c7c(F)c(F)c(F)c(F)c7F)c7ccc4[nH]7)C=C6)C=C5)cc3)n2C1
REMARK SMILES IDX 28 1 27 4 26 7 25 10 23 11 24 12 22 14 21 17 2 18 4 19 99 20
REMARK SMILES IDX 5 21 98 24 6 27 13 28 1 29 3 33 7 37 8 38 12 39 9 40 11 42
REMARK SMILES IDX 10 44 14 48 15 49 20 50 16 51 19 53 17 55 18 58 29 59 30 62
REMARK SMILES IDX 31 65 32 68 33 69 34 71 35 72 36 73 97 74 37 75 96 77 38 79
REMARK SMILES IDX 39 82 40 83 90 84 41 85 95 86 89 87 91 88 42 89 94 90 88 92
REMARK SMILES IDX 87 94 43 96 75 99 55 100 74 101 56 102 59 103 73 104 92 105
REMARK SMILES IDX 57 106 58 108 72 110 93 111 60 114 44 116 45 117 53 118
REMARK SMILES IDX 46 119 47 120 51 121 54 122 48 123 49 124 52 125 50 126
REMARK SMILES IDX 76 127 77 128 85 129 78 130 79 131 83 132 86 133 80 134
REMARK SMILES IDX 81 135 84 136 82 137 61 138 62 139 70 140 63 141 64 142
REMARK SMILES IDX 68 143 71 144 65 145 66 146 69 147 67 148
REMARK H PARENT 28 2 28 3 27 5 27 6 26 8 26 9 25 13 22 15 22 16 4 22 4 23
REMARK H PARENT 99 25 99 26 1 30 1 31 1 32 3 34 3 35 3 36 8 41 12 43 9 45
REMARK H PARENT 11 46 10 47 15 52 20 54 16 56 19 57 29 60 29 61 30 63 30 64
REMARK H PARENT 31 66 31 67 32 70 36 76 97 78 37 80 96 81 95 91 89 93 91 95
REMARK H PARENT 94 97 88 98 56 107 59 109 92 112 57 113 93 115
REMARK Flexibility Score: inf
ROOT
ATOM      1  C   UNL A   1      44.842  41.358  25.477  1.00  0.00    -0.052 C 
ATOM      2  H   UNL A   1      44.485  41.004  24.532  1.00  0.00     0.027 H 
ATOM      3  H   UNL A   1      44.311  42.208  25.848  1.00  0.00     0.027 H 
ENDROOT
BRANCH   1   4
ATOM      4  C   UNL A   1      46.291  41.815  25.291  1.00  0.00    -0.036 C 
ATOM      5  H   UNL A   1      46.568  42.402  26.142  1.00  0.00     0.028 H 
ATOM      6  H   UNL A   1      46.878  40.926  25.186  1.00  0.00     0.028 H 
BRANCH   4   7
ATOM      7  C   UNL A   1      46.538  42.649  24.037  1.00  0.00     0.017 C 
ATOM      8  H   UNL A   1      45.663  43.232  23.835  1.00  0.00     0.049 H 
ATOM      9  H   UNL A   1      47.392  43.267  24.222  1.00  0.00     0.049 H 
BRANCH   7  10
ATOM     10  N   UNL A   1      46.830  41.839  22.878  1.00  0.00    -0.356 N 
ATOM     11  C   UNL A   1      47.340  42.220  21.668  1.00  0.00     0.225 C 
ATOM     12  O   UNL A   1      47.581  41.329  20.849  1.00  0.00    -0.275 OA
ATOM     13  H   UNL A   1      46.633  40.879  22.972  1.00  0.00     0.163 HD
BRANCH  11  14
ATOM     14  C   UNL A   1      47.680  43.675  21.379  1.00  0.00     0.068 C 
ATOM     15  H   UNL A   1      47.470  44.249  22.258  1.00  0.00     0.043 H 
ATOM     16  H   UNL A   1      48.713  43.700  21.103  1.00  0.00     0.043 H 
BRANCH  14  17
ATOM     17  C   UNL A   1      46.914  44.272  20.234  1.00  0.00     0.036 A 
ATOM     18  C   UNL A   1      48.782  46.038  17.569  1.00  0.00    -0.012 C 
ATOM     19  C   UNL A   1      47.329  45.828  17.031  1.00  0.00    -0.005 C 
ATOM     20  C   UNL A   1      48.918  44.991  18.714  1.00  0.00     0.028 C 
ATOM     21  C   UNL A   1      46.645  45.239  18.206  1.00  0.00     0.027 A 
ATOM     22  H   UNL A   1      47.317  45.156  16.198  1.00  0.00     0.034 H 
ATOM     23  H   UNL A   1      46.871  46.725  16.670  1.00  0.00     0.034 H 
ATOM     24  N   UNL A   1      47.536  44.784  19.132  1.00  0.00    -0.346 N 
ATOM     25  H   UNL A   1      49.510  45.374  19.518  1.00  0.00     0.050 H 
ATOM     26  H   UNL A   1      49.406  44.089  18.406  1.00  0.00     0.050 H 
ATOM     27  C   UNL A   1      45.383  45.018  18.684  1.00  0.00     0.011 A 
ATOM     28  C   UNL A   1      45.544  44.382  19.969  1.00  0.00     0.011 A 
BRANCH  18  29
ATOM     29  C   UNL A   1      49.830  45.808  16.479  1.00  0.00    -0.058 C 
ATOM     30  H   UNL A   1      50.607  45.178  16.859  1.00  0.00     0.024 H 
ATOM     31  H   UNL A   1      50.246  46.748  16.181  1.00  0.00     0.024 H 
ATOM     32  H   UNL A   1      49.369  45.338  15.636  1.00  0.00     0.024 H 
ENDBRANCH  18  29
BRANCH  18  33
ATOM     33  C   UNL A   1      48.933  47.473  18.108  1.00  0.00    -0.058 C 
ATOM     34  H   UNL A   1      48.983  47.449  19.176  1.00  0.00     0.024 H 
ATOM     35  H   UNL A   1      48.092  48.059  17.803  1.00  0.00     0.024 H 
ATOM     36  H   UNL A   1      49.830  47.907  17.719  1.00  0.00     0.024 H 
ENDBRANCH  18  33
BRANCH  27  37
ATOM     37  C   UNL A   1      44.164  45.392  17.995  1.00  0.00    -0.016 A 
ATOM     38  C   UNL A   1      43.670  46.697  18.074  1.00  0.00    -0.054 A 
ATOM     39  C   UNL A   1      43.514  44.453  17.185  1.00  0.00    -0.054 A 
ATOM     40  C   UNL A   1      42.540  47.059  17.339  1.00  0.00    -0.062 A 
ATOM     41  H   UNL A   1      44.139  47.392  18.676  1.00  0.00     0.063 H 
ATOM     42  C   UNL A   1      42.387  44.816  16.450  1.00  0.00    -0.062 A 
ATOM     43  H   UNL A   1      43.871  43.486  17.131  1.00  0.00     0.063 H 
ATOM     44  C   UNL A   1      41.904  46.121  16.525  1.00  0.00    -0.062 A 
ATOM     45  H   UNL A   1      42.175  48.023  17.397  1.00  0.00     0.062 H 
ATOM     46  H   UNL A   1      41.911  44.122  15.854  1.00  0.00     0.062 H 
ATOM     47  H   UNL A   1      41.073  46.394  15.977  1.00  0.00     0.062 H 
ENDBRANCH  27  37
BRANCH  28  48
ATOM     48  C   UNL A   1      44.461  43.912  20.826  1.00  0.00    -0.016 A 
ATOM     49  C   UNL A   1      44.257  44.520  22.073  1.00  0.00    -0.053 A 
ATOM     50  C   UNL A   1      43.733  42.761  20.505  1.00  0.00    -0.053 A 
ATOM     51  C   UNL A   1      43.345  43.982  22.986  1.00  0.00    -0.043 A 
ATOM     52  H   UNL A   1      44.784  45.372  22.319  1.00  0.00     0.063 H 
ATOM     53  C   UNL A   1      42.805  42.234  21.407  1.00  0.00    -0.043 A 
ATOM     54  H   UNL A   1      43.884  42.297  19.596  1.00  0.00     0.063 H 
ATOM     55  C   UNL A   1      42.623  42.841  22.648  1.00  0.00     0.041 A 
ATOM     56  H   UNL A   1      43.207  44.429  23.906  1.00  0.00     0.064 H 
ATOM     57  H   UNL A   1      42.255  41.398  21.154  1.00  0.00     0.064 H 
ATOM     58  Cl  UNL A   1      41.526  42.153  23.781  1.00  0.00    -0.084 Cl
ENDBRANCH  28  48
ENDBRANCH  14  17
ENDBRANCH  11  14
ENDBRANCH   7  10
ENDBRANCH   4   7
ENDBRANCH   1   4
BRANCH   1  59
ATOM     59  C   UNL A   1      44.626  40.242  26.511  1.00  0.00    -0.052 C 
ATOM     60  H   UNL A   1      44.769  40.667  27.483  1.00  0.00     0.027 H 
ATOM     61  H   UNL A   1      45.328  39.477  26.254  1.00  0.00     0.027 H 
BRANCH  59  62
ATOM     62  C   UNL A   1      43.251  39.556  26.499  1.00  0.00    -0.036 C 
ATOM     63  H   UNL A   1      42.843  39.635  25.514  1.00  0.00     0.028 H 
ATOM     64  H   UNL A   1      42.650  40.049  27.234  1.00  0.00     0.028 H 
BRANCH  62  65
ATOM     65  C   UNL A   1      43.296  38.085  26.882  1.00  0.00     0.018 C 
ATOM     66  H   UNL A   1      42.804  37.516  26.121  1.00  0.00     0.049 H 
ATOM     67  H   UNL A   1      42.807  37.977  27.827  1.00  0.00     0.049 H 
BRANCH  65  68
ATOM     68  N   UNL A   1      44.660  37.592  27.025  1.00  0.00    -0.352 N 
ATOM     69  C   UNL A   1      45.204  36.867  28.065  1.00  0.00     0.251 C 
ATOM     70  H   UNL A   1      45.274  37.805  26.285  1.00  0.00     0.163 HD
ATOM     71  O   UNL A   1      46.412  36.815  28.231  1.00  0.00    -0.269 OA
BRANCH  69  72
ATOM     72  C   UNL A   1      44.296  36.165  28.991  1.00  0.00     0.039 A 
ATOM     73  C   UNL A   1      43.755  36.836  30.090  1.00  0.00    -0.049 A 
ATOM     74  C   UNL A   1      43.981  34.829  28.747  1.00  0.00    -0.049 A 
ATOM     75  C   UNL A   1      42.831  36.174  30.892  1.00  0.00    -0.053 A 
ATOM     76  H   UNL A   1      44.035  37.807  30.301  1.00  0.00     0.063 H 
ATOM     77  C   UNL A   1      42.979  34.218  29.463  1.00  0.00    -0.053 A 
ATOM     78  H   UNL A   1      44.500  34.299  28.029  1.00  0.00     0.063 H 
ATOM     79  C   UNL A   1      42.426  34.870  30.560  1.00  0.00    -0.014 A 
ATOM     80  H   UNL A   1      42.445  36.640  31.729  1.00  0.00     0.063 H 
ATOM     81  H   UNL A   1      42.639  33.283  29.189  1.00  0.00     0.063 H 
BRANCH  79  82
ATOM     82  C   UNL A   1      41.345  34.233  31.307  1.00  0.00     0.031 A 
ATOM     83  C   UNL A   1      41.612  34.033  32.760  1.00  0.00     0.074 A 
ATOM     84  C   UNL A   1      40.117  33.999  30.800  1.00  0.00     0.049 A 
ATOM     85  N   UNL A   1      41.714  32.915  33.400  1.00  0.00    -0.248 NA
ATOM     86  C   UNL A   1      41.899  35.218  33.584  1.00  0.00    -0.034 C 
ATOM     87  C   UNL A   1      39.564  34.410  29.505  1.00  0.00    -0.036 A 
ATOM     88  N   UNL A   1      39.053  33.400  31.404  1.00  0.00    -0.354 N 
ATOM     89  C   UNL A   1      41.921  33.243  34.739  1.00  0.00     0.074 A 
ATOM     90  C   UNL A   1      42.163  34.662  34.769  1.00  0.00    -0.034 C 
ATOM     91  H   UNL A   1      41.896  36.214  33.317  1.00  0.00     0.065 H 
ATOM     92  C   UNL A   1      38.223  34.248  29.514  1.00  0.00    -0.036 A 
ATOM     93  H   UNL A   1      40.115  34.769  28.709  1.00  0.00     0.065 H 
ATOM     94  C   UNL A   1      37.848  33.560  30.735  1.00  0.00     0.049 A 
ATOM     95  H   UNL A   1      39.133  32.895  32.245  1.00  0.00     0.167 HD
ATOM     96  C   UNL A   1      41.675  32.339  35.729  1.00  0.00     0.037 A 
ATOM     97  H   UNL A   1      42.496  35.182  35.597  1.00  0.00     0.065 H 
ATOM     98  H   UNL A   1      37.573  34.561  28.776  1.00  0.00     0.065 H 
ATOM     99  C   UNL A   1      36.624  33.169  31.166  1.00  0.00     0.037 A 
ATOM    100  C   UNL A   1      41.611  31.000  35.197  1.00  0.00     0.049 A 
ATOM    101  C   UNL A   1      36.831  32.129  32.202  1.00  0.00     0.074 A 
ATOM    102  C   UNL A   1      42.495  30.176  34.529  1.00  0.00    -0.036 A 
ATOM    103  N   UNL A   1      40.371  30.442  35.004  1.00  0.00    -0.354 N 
ATOM    104  N   UNL A   1      37.304  30.940  31.955  1.00  0.00    -0.248 NA
ATOM    105  C   UNL A   1      36.915  32.561  33.588  1.00  0.00    -0.034 C 
ATOM    106  C   UNL A   1      41.698  29.481  33.571  1.00  0.00    -0.036 A 
ATOM    107  H   UNL A   1      43.511  30.084  34.687  1.00  0.00     0.065 H 
ATOM    108  C   UNL A   1      40.371  29.874  33.757  1.00  0.00     0.049 A 
ATOM    109  H   UNL A   1      39.622  30.447  35.643  1.00  0.00     0.167 HD
ATOM    110  C   UNL A   1      38.129  30.662  33.033  1.00  0.00     0.074 A 
ATOM    111  C   UNL A   1      37.768  31.645  34.052  1.00  0.00    -0.034 C 
ATOM    112  H   UNL A   1      36.451  33.346  34.071  1.00  0.00     0.065 H 
ATOM    113  H   UNL A   1      42.039  28.808  32.868  1.00  0.00     0.065 H 
ATOM    114  C   UNL A   1      39.217  29.848  32.893  1.00  0.00     0.037 A 
ATOM    115  H   UNL A   1      38.130  31.631  35.019  1.00  0.00     0.065 H 
BRANCH  96 116
ATOM    116  C   UNL A   1      41.130  32.676  37.102  1.00  0.00     0.064 A 
ATOM    117  C   UNL A   1      39.940  33.430  37.196  1.00  0.00     0.173 A 
ATOM    118  C   UNL A   1      41.873  32.574  38.297  1.00  0.00     0.173 A 
ATOM    119  F   UNL A   1      39.144  33.593  36.128  1.00  0.00    -0.203 F 
ATOM    120  C   UNL A   1      39.589  34.123  38.359  1.00  0.00     0.198 A 
ATOM    121  C   UNL A   1      41.492  33.224  39.471  1.00  0.00     0.198 A 
ATOM    122  F   UNL A   1      43.048  31.938  38.359  1.00  0.00    -0.203 F 
ATOM    123  F   UNL A   1      38.528  34.941  38.351  1.00  0.00    -0.200 F 
ATOM    124  C   UNL A   1      40.374  34.030  39.491  1.00  0.00     0.200 A 
ATOM    125  F   UNL A   1      42.272  33.129  40.557  1.00  0.00    -0.200 F 
ATOM    126  F   UNL A   1      40.083  34.748  40.583  1.00  0.00    -0.200 F 
ENDBRANCH  96 116
BRANCH  99 127
ATOM    127  C   UNL A   1      35.309  33.807  30.941  1.00  0.00     0.064 A 
ATOM    128  C   UNL A   1      34.868  34.862  31.755  1.00  0.00     0.173 A 
ATOM    129  C   UNL A   1      34.595  33.594  29.746  1.00  0.00     0.173 A 
ATOM    130  F   UNL A   1      35.520  35.156  32.890  1.00  0.00    -0.203 F 
ATOM    131  C   UNL A   1      33.799  35.681  31.380  1.00  0.00     0.198 A 
ATOM    132  C   UNL A   1      33.527  34.412  29.374  1.00  0.00     0.198 A 
ATOM    133  F   UNL A   1      34.984  32.656  28.871  1.00  0.00    -0.203 F 
ATOM    134  F   UNL A   1      33.451  36.723  32.149  1.00  0.00    -0.200 F 
ATOM    135  C   UNL A   1      33.138  35.463  30.183  1.00  0.00     0.200 A 
ATOM    136  F   UNL A   1      32.921  34.223  28.195  1.00  0.00    -0.200 F 
ATOM    137  F   UNL A   1      32.160  36.289  29.787  1.00  0.00    -0.200 F 
ENDBRANCH  99 127
BRANCH 114 138
ATOM    138  C   UNL A   1      39.332  29.041  31.629  1.00  0.00     0.064 A 
ATOM    139  C   UNL A   1      38.845  27.731  31.479  1.00  0.00     0.173 A 
ATOM    140  C   UNL A   1      39.831  29.677  30.485  1.00  0.00     0.173 A 
ATOM    141  F   UNL A   1      38.260  27.089  32.497  1.00  0.00    -0.203 F 
ATOM    142  C   UNL A   1      38.900  27.075  30.250  1.00  0.00     0.198 A 
ATOM    143  C   UNL A   1      39.849  29.034  29.250  1.00  0.00     0.198 A 
ATOM    144  F   UNL A   1      40.261  30.947  30.554  1.00  0.00    -0.203 F 
ATOM    145  F   UNL A   1      38.443  25.819  30.137  1.00  0.00    -0.200 F 
ATOM    146  C   UNL A   1      39.395  27.731  29.135  1.00  0.00     0.200 A 
ATOM    147  F   UNL A   1      40.284  29.689  28.165  1.00  0.00    -0.200 F 
ATOM    148  F   UNL A   1      39.411  27.115  27.944  1.00  0.00    -0.200 F 
ENDBRANCH 114 138
ENDBRANCH  79  82
ENDBRANCH  69  72
ENDBRANCH  65  68
ENDBRANCH  62  65
ENDBRANCH  59  62
ENDBRANCH   1  59
TORSDOF 18
ENDMDL
MODEL 5
REMARK VINA RESULT:     -11.3      8.736     15.484
REMARK SMILES CC1(C)Cc2c(-c3ccccc3)c(-c3ccc(Cl)cc3)c(CC(=O)NCCCCCCNC(=O)c3ccc(-c4c5nc(c(-c6c(F)c(F)c(F)c(F)c6F)c6ccc([nH]6)c(-c6c(F)c(F)c(F)c(F)c6F)c6nc(c(-c7c(F)c(F)c(F)c(F)c7F)c7ccc4[nH]7)C=C6)C=C5)cc3)n2C1
REMARK SMILES IDX 28 1 27 4 26 7 25 10 23 11 24 12 22 14 21 17 2 18 4 19 99 20
REMARK SMILES IDX 5 21 98 24 6 27 13 28 1 29 3 33 7 37 8 38 12 39 9 40 11 42
REMARK SMILES IDX 10 44 14 48 15 49 20 50 16 51 19 53 17 55 18 58 29 59 30 62
REMARK SMILES IDX 31 65 32 68 33 69 34 71 35 72 36 73 97 74 37 75 96 77 38 79
REMARK SMILES IDX 39 82 40 83 90 84 41 85 95 86 89 87 91 88 42 89 94 90 88 92
REMARK SMILES IDX 87 94 43 96 75 99 55 100 74 101 56 102 59 103 73 104 92 105
REMARK SMILES IDX 57 106 58 108 72 110 93 111 60 114 44 116 45 117 53 118
REMARK SMILES IDX 46 119 47 120 51 121 54 122 48 123 49 124 52 125 50 126
REMARK SMILES IDX 76 127 77 128 85 129 78 130 79 131 83 132 86 133 80 134
REMARK SMILES IDX 81 135 84 136 82 137 61 138 62 139 70 140 63 141 64 142
REMARK SMILES IDX 68 143 71 144 65 145 66 146 69 147 67 148
REMARK H PARENT 28 2 28 3 27 5 27 6 26 8 26 9 25 13 22 15 22 16 4 22 4 23
REMARK H PARENT 99 25 99 26 1 30 1 31 1 32 3 34 3 35 3 36 8 41 12 43 9 45
REMARK H PARENT 11 46 10 47 15 52 20 54 16 56 19 57 29 60 29 61 30 63 30 64
REMARK H PARENT 31 66 31 67 32 70 36 76 97 78 37 80 96 81 95 91 89 93 91 95
REMARK H PARENT 94 97 88 98 56 107 59 109 92 112 57 113 93 115
REMARK Flexibility Score: inf
ROOT
ATOM      1  C   UNL A   1      41.558  39.436  26.521  1.00  0.00    -0.052 C 
ATOM      2  H   UNL A   1      42.369  39.063  25.930  1.00  0.00     0.027 H 
ATOM      3  H   UNL A   1      40.625  38.950  26.329  1.00  0.00     0.027 H 
ENDROOT
BRANCH   1   4
ATOM      4  C   UNL A   1      41.348  40.908  26.155  1.00  0.00    -0.036 C 
ATOM      5  H   UNL A   1      40.324  41.038  25.873  1.00  0.00     0.028 H 
ATOM      6  H   UNL A   1      41.621  41.476  27.019  1.00  0.00     0.028 H 
BRANCH   4   7
ATOM      7  C   UNL A   1      42.225  41.409  25.011  1.00  0.00     0.017 C 
ATOM      8  H   UNL A   1      42.980  42.053  25.415  1.00  0.00     0.049 H 
ATOM      9  H   UNL A   1      42.652  40.553  24.531  1.00  0.00     0.049 H 
BRANCH   7  10
ATOM     10  N   UNL A   1      41.479  42.141  24.016  1.00  0.00    -0.356 N 
ATOM     11  C   UNL A   1      41.841  42.473  22.741  1.00  0.00     0.225 C 
ATOM     12  O   UNL A   1      40.997  43.039  22.040  1.00  0.00    -0.275 OA
ATOM     13  H   UNL A   1      40.584  42.443  24.294  1.00  0.00     0.163 HD
BRANCH  11  14
ATOM     14  C   UNL A   1      43.201  42.081  22.180  1.00  0.00     0.068 C 
ATOM     15  H   UNL A   1      43.635  41.352  22.833  1.00  0.00     0.043 H 
ATOM     16  H   UNL A   1      43.029  41.706  21.193  1.00  0.00     0.043 H 
BRANCH  14  17
ATOM     17  C   UNL A   1      44.166  43.224  22.044  1.00  0.00     0.036 A 
ATOM     18  C   UNL A   1      46.367  44.048  24.905  1.00  0.00    -0.012 C 
ATOM     19  C   UNL A   1      46.921  44.836  23.674  1.00  0.00    -0.005 C 
ATOM     20  C   UNL A   1      45.500  42.919  24.274  1.00  0.00     0.028 C 
ATOM     21  C   UNL A   1      45.908  44.542  22.634  1.00  0.00     0.027 A 
ATOM     22  H   UNL A   1      47.888  44.479  23.387  1.00  0.00     0.034 H 
ATOM     23  H   UNL A   1      47.057  45.882  23.859  1.00  0.00     0.034 H 
ATOM     24  N   UNL A   1      45.125  43.481  22.980  1.00  0.00    -0.346 N 
ATOM     25  H   UNL A   1      44.635  42.717  24.870  1.00  0.00     0.050 H 
ATOM     26  H   UNL A   1      46.015  41.984  24.194  1.00  0.00     0.050 H 
ATOM     27  C   UNL A   1      45.480  45.010  21.422  1.00  0.00     0.011 A 
ATOM     28  C   UNL A   1      44.381  44.162  21.028  1.00  0.00     0.011 A 
BRANCH  18  29
ATOM     29  C   UNL A   1      47.492  43.470  25.763  1.00  0.00    -0.058 C 
ATOM     30  H   UNL A   1      47.812  44.203  26.473  1.00  0.00     0.024 H 
ATOM     31  H   UNL A   1      48.315  43.198  25.135  1.00  0.00     0.024 H 
ATOM     32  H   UNL A   1      47.137  42.603  26.280  1.00  0.00     0.024 H 
ENDBRANCH  18  29
BRANCH  18  33
ATOM     33  C   UNL A   1      45.509  44.985  25.777  1.00  0.00    -0.058 C 
ATOM     34  H   UNL A   1      46.145  45.550  26.426  1.00  0.00     0.024 H 
ATOM     35  H   UNL A   1      44.827  44.404  26.361  1.00  0.00     0.024 H 
ATOM     36  H   UNL A   1      44.959  45.653  25.147  1.00  0.00     0.024 H 
ENDBRANCH  18  33
BRANCH  27  37
ATOM     37  C   UNL A   1      46.048  46.152  20.734  1.00  0.00    -0.016 A 
ATOM     38  C   UNL A   1      47.234  46.030  20.004  1.00  0.00    -0.054 A 
ATOM     39  C   UNL A   1      45.363  47.373  20.744  1.00  0.00    -0.054 A 
ATOM     40  C   UNL A   1      47.722  47.120  19.283  1.00  0.00    -0.062 A 
ATOM     41  H   UNL A   1      47.748  45.135  20.000  1.00  0.00     0.063 H 
ATOM     42  C   UNL A   1      45.851  48.461  20.023  1.00  0.00    -0.062 A 
ATOM     43  H   UNL A   1      44.492  47.469  21.289  1.00  0.00     0.063 H 
ATOM     44  C   UNL A   1      47.028  48.330  19.289  1.00  0.00    -0.062 A 
ATOM     45  H   UNL A   1      48.598  47.030  18.744  1.00  0.00     0.062 H 
ATOM     46  H   UNL A   1      45.343  49.358  20.032  1.00  0.00     0.062 H 
ATOM     47  H   UNL A   1      47.389  49.133  18.748  1.00  0.00     0.062 H 
ENDBRANCH  27  37
BRANCH  28  48
ATOM     48  C   UNL A   1      43.645  44.256  19.772  1.00  0.00    -0.016 A 
ATOM     49  C   UNL A   1      44.315  44.021  18.563  1.00  0.00    -0.053 A 
ATOM     50  C   UNL A   1      42.333  44.740  19.738  1.00  0.00    -0.053 A 
ATOM     51  C   UNL A   1      43.685  44.271  17.340  1.00  0.00    -0.043 A 
ATOM     52  H   UNL A   1      45.281  43.659  18.576  1.00  0.00     0.063 H 
ATOM     53  C   UNL A   1      41.693  44.971  18.517  1.00  0.00    -0.043 A 
ATOM     54  H   UNL A   1      41.834  44.930  20.621  1.00  0.00     0.063 H 
ATOM     55  C   UNL A   1      42.376  44.745  17.323  1.00  0.00     0.041 A 
ATOM     56  H   UNL A   1      44.187  44.105  16.454  1.00  0.00     0.064 H 
ATOM     57  H   UNL A   1      40.717  45.306  18.499  1.00  0.00     0.064 H 
ATOM     58  Cl  UNL A   1      41.608  45.090  15.822  1.00  0.00    -0.084 Cl
ENDBRANCH  28  48
ENDBRANCH  14  17
ENDBRANCH  11  14
ENDBRANCH   7  10
ENDBRANCH   4   7
ENDBRANCH   1   4
BRANCH   1  59
ATOM     59  C   UNL A   1      41.882  39.159  27.997  1.00  0.00    -0.052 C 
ATOM     60  H   UNL A   1      42.314  38.182  28.057  1.00  0.00     0.027 H 
ATOM     61  H   UNL A   1      40.953  39.266  28.516  1.00  0.00     0.027 H 
BRANCH  59  62
ATOM     62  C   UNL A   1      42.848  40.139  28.680  1.00  0.00    -0.036 C 
ATOM     63  H   UNL A   1      42.298  40.707  29.402  1.00  0.00     0.028 H 
ATOM     64  H   UNL A   1      43.268  40.751  27.910  1.00  0.00     0.028 H 
BRANCH  62  65
ATOM     65  C   UNL A   1      44.011  39.463  29.389  1.00  0.00     0.018 C 
ATOM     66  H   UNL A   1      43.621  38.785  30.120  1.00  0.00     0.049 H 
ATOM     67  H   UNL A   1      44.607  40.226  29.843  1.00  0.00     0.049 H 
BRANCH  65  68
ATOM     68  N   UNL A   1      44.862  38.720  28.468  1.00  0.00    -0.352 N 
ATOM     69  C   UNL A   1      45.108  37.363  28.435  1.00  0.00     0.251 C 
ATOM     70  H   UNL A   1      45.321  39.255  27.781  1.00  0.00     0.163 HD
ATOM     71  O   UNL A   1      46.083  36.915  27.855  1.00  0.00    -0.269 OA
BRANCH  69  72
ATOM     72  C   UNL A   1      44.176  36.456  29.131  1.00  0.00     0.039 A 
ATOM     73  C   UNL A   1      44.383  36.130  30.474  1.00  0.00    -0.049 A 
ATOM     74  C   UNL A   1      43.085  35.941  28.434  1.00  0.00    -0.049 A 
ATOM     75  C   UNL A   1      43.438  35.346  31.128  1.00  0.00    -0.053 A 
ATOM     76  H   UNL A   1      45.223  36.466  30.971  1.00  0.00     0.063 H 
ATOM     77  C   UNL A   1      42.091  35.272  29.110  1.00  0.00    -0.053 A 
ATOM     78  H   UNL A   1      43.023  36.060  27.410  1.00  0.00     0.063 H 
ATOM     79  C   UNL A   1      42.278  34.939  30.448  1.00  0.00    -0.014 A 
ATOM     80  H   UNL A   1      43.588  35.065  32.110  1.00  0.00     0.063 H 
ATOM     81  H   UNL A   1      41.213  35.020  28.629  1.00  0.00     0.063 H 
BRANCH  79  82
ATOM     82  C   UNL A   1      41.213  34.252  31.174  1.00  0.00     0.031 A 
ATOM     83  C   UNL A   1      41.522  33.935  32.597  1.00  0.00     0.074 A 
ATOM     84  C   UNL A   1      39.969  34.067  30.688  1.00  0.00     0.049 A 
ATOM     85  N   UNL A   1      41.634  32.768  33.142  1.00  0.00    -0.248 NA
ATOM     86  C   UNL A   1      41.845  35.047  33.504  1.00  0.00    -0.034 C 
ATOM     87  C   UNL A   1      39.381  34.584  29.448  1.00  0.00    -0.036 A 
ATOM     88  N   UNL A   1      38.918  33.429  31.274  1.00  0.00    -0.354 N 
ATOM     89  C   UNL A   1      41.884  32.986  34.496  1.00  0.00     0.074 A 
ATOM     90  C   UNL A   1      42.139  34.397  34.632  1.00  0.00    -0.034 C 
ATOM     91  H   UNL A   1      41.843  36.062  33.317  1.00  0.00     0.065 H 
ATOM     92  C   UNL A   1      38.039  34.431  29.485  1.00  0.00    -0.036 A 
ATOM     93  H   UNL A   1      39.911  35.002  28.666  1.00  0.00     0.065 H 
ATOM     94  C   UNL A   1      37.695  33.650  30.658  1.00  0.00     0.049 A 
ATOM     95  H   UNL A   1      39.019  32.858  32.069  1.00  0.00     0.167 HD
ATOM     96  C   UNL A   1      41.659  32.008  35.419  1.00  0.00     0.037 A 
ATOM     97  H   UNL A   1      42.501  34.846  35.488  1.00  0.00     0.065 H 
ATOM     98  H   UNL A   1      37.370  34.807  28.795  1.00  0.00     0.065 H 
ATOM     99  C   UNL A   1      36.481  33.234  31.093  1.00  0.00     0.037 A 
ATOM    100  C   UNL A   1      41.567  30.716  34.784  1.00  0.00     0.049 A 
ATOM    101  C   UNL A   1      36.710  32.113  32.036  1.00  0.00     0.074 A 
ATOM    102  C   UNL A   1      42.423  29.942  34.025  1.00  0.00    -0.036 A 
ATOM    103  N   UNL A   1      40.317  30.183  34.585  1.00  0.00    -0.354 N 
ATOM    104  N   UNL A   1      37.163  30.944  31.681  1.00  0.00    -0.248 NA
ATOM    105  C   UNL A   1      36.839  32.432  33.449  1.00  0.00    -0.034 C 
ATOM    106  C   UNL A   1      41.591  29.331  33.039  1.00  0.00    -0.036 A 
ATOM    107  H   UNL A   1      43.442  29.830  34.144  1.00  0.00     0.065 H 
ATOM    108  C   UNL A   1      40.274  29.717  33.297  1.00  0.00     0.049 A 
ATOM    109  H   UNL A   1      39.588  30.142  35.244  1.00  0.00     0.167 HD
ATOM    110  C   UNL A   1      38.018  30.575  32.708  1.00  0.00     0.074 A 
ATOM    111  C   UNL A   1      37.697  31.476  33.812  1.00  0.00    -0.034 C 
ATOM    112  H   UNL A   1      36.397  33.180  34.007  1.00  0.00     0.065 H 
ATOM    113  H   UNL A   1      41.905  28.715  32.274  1.00  0.00     0.065 H 
ATOM    114  C   UNL A   1      39.094  29.768  32.469  1.00  0.00     0.037 A 
ATOM    115  H   UNL A   1      38.088  31.383  34.764  1.00  0.00     0.065 H 
BRANCH  96 116
ATOM    116  C   UNL A   1      41.159  32.237  36.830  1.00  0.00     0.064 A 
ATOM    117  C   UNL A   1      39.920  32.887  37.016  1.00  0.00     0.173 A 
ATOM    118  C   UNL A   1      41.967  32.141  37.983  1.00  0.00     0.173 A 
ATOM    119  F   UNL A   1      39.060  33.034  35.995  1.00  0.00    -0.203 F 
ATOM    120  C   UNL A   1      39.574  33.496  38.226  1.00  0.00     0.198 A 
ATOM    121  C   UNL A   1      41.595  32.705  39.203  1.00  0.00     0.198 A 
ATOM    122  F   UNL A   1      43.189  31.601  37.959  1.00  0.00    -0.203 F 
ATOM    123  F   UNL A   1      38.453  34.225  38.307  1.00  0.00    -0.200 F 
ATOM    124  C   UNL A   1      40.419  33.417  39.315  1.00  0.00     0.200 A 
ATOM    125  F   UNL A   1      42.434  32.625  40.246  1.00  0.00    -0.200 F 
ATOM    126  F   UNL A   1      40.129  34.059  40.453  1.00  0.00    -0.200 F 
ENDBRANCH  96 116
BRANCH  99 127
ATOM    127  C   UNL A   1      35.165  33.897  30.961  1.00  0.00     0.064 A 
ATOM    128  C   UNL A   1      34.786  34.933  31.830  1.00  0.00     0.173 A 
ATOM    129  C   UNL A   1      34.384  33.731  29.801  1.00  0.00     0.173 A 
ATOM    130  F   UNL A   1      35.504  35.182  32.935  1.00  0.00    -0.203 F 
ATOM    131  C   UNL A   1      33.711  35.778  31.539  1.00  0.00     0.198 A 
ATOM    132  C   UNL A   1      33.310  34.575  29.514  1.00  0.00     0.198 A 
ATOM    133  F   UNL A   1      34.710  32.814  28.879  1.00  0.00    -0.203 F 
ATOM    134  F   UNL A   1      33.423  36.800  32.356  1.00  0.00    -0.200 F 
ATOM    135  C   UNL A   1      32.983  35.606  30.374  1.00  0.00     0.200 A 
ATOM    136  F   UNL A   1      32.637  34.430  28.364  1.00  0.00    -0.200 F 
ATOM    137  F   UNL A   1      31.997  36.457  30.057  1.00  0.00    -0.200 F 
ENDBRANCH  99 127
BRANCH 114 138
ATOM    138  C   UNL A   1      39.163  29.065  31.142  1.00  0.00     0.064 A 
ATOM    139  C   UNL A   1      39.745  29.611  29.985  1.00  0.00     0.173 A 
ATOM    140  C   UNL A   1      38.746  27.728  31.082  1.00  0.00     0.173 A 
ATOM    141  F   UNL A   1      40.260  30.847  29.987  1.00  0.00    -0.203 F 
ATOM    142  C   UNL A   1      39.860  28.867  28.812  1.00  0.00     0.198 A 
ATOM    143  C   UNL A   1      38.898  26.974  29.922  1.00  0.00     0.198 A 
ATOM    144  F   UNL A   1      38.232  27.134  32.171  1.00  0.00    -0.203 F 
ATOM    145  F   UNL A   1      40.405  29.417  27.716  1.00  0.00    -0.200 F 
ATOM    146  C   UNL A   1      39.443  27.546  28.784  1.00  0.00     0.200 A 
ATOM    147  F   UNL A   1      38.538  25.684  29.915  1.00  0.00    -0.200 F 
ATOM    148  F   UNL A   1      39.591  26.817  27.669  1.00  0.00    -0.200 F 
ENDBRANCH 114 138
ENDBRANCH  79  82
ENDBRANCH  69  72
ENDBRANCH  65  68
ENDBRANCH  62  65
ENDBRANCH  59  62
ENDBRANCH   1  59
TORSDOF 18
ENDMDL
MODEL 6
REMARK VINA RESULT:     -11.3      5.056     12.385
REMARK SMILES CC1(C)Cc2c(-c3ccccc3)c(-c3ccc(Cl)cc3)c(CC(=O)NCCCCCCNC(=O)c3ccc(-c4c5nc(c(-c6c(F)c(F)c(F)c(F)c6F)c6ccc([nH]6)c(-c6c(F)c(F)c(F)c(F)c6F)c6nc(c(-c7c(F)c(F)c(F)c(F)c7F)c7ccc4[nH]7)C=C6)C=C5)cc3)n2C1
REMARK SMILES IDX 28 1 27 4 26 7 25 10 23 11 24 12 22 14 21 17 2 18 4 19 99 20
REMARK SMILES IDX 5 21 98 24 6 27 13 28 1 29 3 33 7 37 8 38 12 39 9 40 11 42
REMARK SMILES IDX 10 44 14 48 15 49 20 50 16 51 19 53 17 55 18 58 29 59 30 62
REMARK SMILES IDX 31 65 32 68 33 69 34 71 35 72 36 73 97 74 37 75 96 77 38 79
REMARK SMILES IDX 39 82 40 83 90 84 41 85 95 86 89 87 91 88 42 89 94 90 88 92
REMARK SMILES IDX 87 94 43 96 75 99 55 100 74 101 56 102 59 103 73 104 92 105
REMARK SMILES IDX 57 106 58 108 72 110 93 111 60 114 44 116 45 117 53 118
REMARK SMILES IDX 46 119 47 120 51 121 54 122 48 123 49 124 52 125 50 126
REMARK SMILES IDX 76 127 77 128 85 129 78 130 79 131 83 132 86 133 80 134
REMARK SMILES IDX 81 135 84 136 82 137 61 138 62 139 70 140 63 141 64 142
REMARK SMILES IDX 68 143 71 144 65 145 66 146 69 147 67 148
REMARK H PARENT 28 2 28 3 27 5 27 6 26 8 26 9 25 13 22 15 22 16 4 22 4 23
REMARK H PARENT 99 25 99 26 1 30 1 31 1 32 3 34 3 35 3 36 8 41 12 43 9 45
REMARK H PARENT 11 46 10 47 15 52 20 54 16 56 19 57 29 60 29 61 30 63 30 64
REMARK H PARENT 31 66 31 67 32 70 36 76 97 78 37 80 96 81 95 91 89 93 91 95
REMARK H PARENT 94 97 88 98 56 107 59 109 92 112 57 113 93 115
REMARK Flexibility Score: inf
ROOT
ATOM      1  C   UNL A   1      36.731  32.190  33.217  1.00  0.00    -0.052 C 
ATOM      2  H   UNL A   1      36.390  31.834  34.166  1.00  0.00     0.027 H 
ATOM      3  H   UNL A   1      37.678  31.791  32.921  1.00  0.00     0.027 H 
ENDROOT
BRANCH   1   4
ATOM      4  C   UNL A   1      36.929  33.704  33.325  1.00  0.00    -0.036 C 
ATOM      5  H   UNL A   1      37.725  33.985  32.667  1.00  0.00     0.028 H 
ATOM      6  H   UNL A   1      35.992  34.151  33.064  1.00  0.00     0.028 H 
BRANCH   4   7
ATOM      7  C   UNL A   1      37.271  34.201  34.727  1.00  0.00     0.017 C 
ATOM      8  H   UNL A   1      38.310  34.460  34.755  1.00  0.00     0.049 H 
ATOM      9  H   UNL A   1      36.647  35.047  34.932  1.00  0.00     0.049 H 
BRANCH   7  10
ATOM     10  N   UNL A   1      37.014  33.213  35.747  1.00  0.00    -0.356 N 
ATOM     11  C   UNL A   1      37.569  33.095  36.990  1.00  0.00     0.225 C 
ATOM     12  O   UNL A   1      37.130  32.207  37.726  1.00  0.00    -0.275 OA
ATOM     13  H   UNL A   1      36.346  32.528  35.515  1.00  0.00     0.163 HD
BRANCH  11  14
ATOM     14  C   UNL A   1      38.624  34.078  37.479  1.00  0.00     0.068 C 
ATOM     15  H   UNL A   1      38.628  34.921  36.819  1.00  0.00     0.043 H 
ATOM     16  H   UNL A   1      38.361  34.337  38.483  1.00  0.00     0.043 H 
BRANCH  14  17
ATOM     17  C   UNL A   1      40.016  33.515  37.530  1.00  0.00     0.036 A 
ATOM     18  C   UNL A   1      41.596  32.968  40.834  1.00  0.00    -0.012 C 
ATOM     19  C   UNL A   1      42.487  32.227  39.785  1.00  0.00    -0.005 C 
ATOM     20  C   UNL A   1      40.227  33.146  40.111  1.00  0.00     0.028 C 
ATOM     21  C   UNL A   1      41.847  32.613  38.505  1.00  0.00     0.027 A 
ATOM     22  H   UNL A   1      42.458  31.167  39.929  1.00  0.00     0.034 H 
ATOM     23  H   UNL A   1      43.524  32.486  39.843  1.00  0.00     0.034 H 
ATOM     24  N   UNL A   1      40.599  33.124  38.701  1.00  0.00    -0.346 N 
ATOM     25  H   UNL A   1      39.770  34.077  40.375  1.00  0.00     0.050 H 
ATOM     26  H   UNL A   1      39.511  32.394  40.371  1.00  0.00     0.050 H 
ATOM     27  C   UNL A   1      42.115  32.643  37.164  1.00  0.00     0.011 A 
ATOM     28  C   UNL A   1      40.944  33.199  36.531  1.00  0.00     0.011 A 
BRANCH  18  29
ATOM     29  C   UNL A   1      41.442  32.159  42.121  1.00  0.00    -0.058 C 
ATOM     30  H   UNL A   1      41.861  32.707  42.939  1.00  0.00     0.024 H 
ATOM     31  H   UNL A   1      41.954  31.224  42.018  1.00  0.00     0.024 H 
ATOM     32  H   UNL A   1      40.404  31.978  42.308  1.00  0.00     0.024 H 
ENDBRANCH  18  29
BRANCH  18  33
ATOM     33  C   UNL A   1      42.224  34.332  41.176  1.00  0.00    -0.058 C 
ATOM     34  H   UNL A   1      42.884  34.222  42.011  1.00  0.00     0.024 H 
ATOM     35  H   UNL A   1      41.451  35.030  41.422  1.00  0.00     0.024 H 
ATOM     36  H   UNL A   1      42.774  34.693  40.332  1.00  0.00     0.024 H 
ENDBRANCH  18  33
BRANCH  27  37
ATOM     37  C   UNL A   1      43.360  32.207  36.564  1.00  0.00    -0.016 A 
ATOM     38  C   UNL A   1      44.235  33.130  35.983  1.00  0.00    -0.054 A 
ATOM     39  C   UNL A   1      43.720  30.856  36.629  1.00  0.00    -0.054 A 
ATOM     40  C   UNL A   1      45.465  32.701  35.482  1.00  0.00    -0.062 A 
ATOM     41  H   UNL A   1      43.971  34.126  35.924  1.00  0.00     0.063 H 
ATOM     42  C   UNL A   1      44.950  30.430  36.129  1.00  0.00    -0.062 A 
ATOM     43  H   UNL A   1      43.073  30.171  37.049  1.00  0.00     0.063 H 
ATOM     44  C   UNL A   1      45.823  31.355  35.561  1.00  0.00    -0.062 A 
ATOM     45  H   UNL A   1      46.112  33.382  35.053  1.00  0.00     0.062 H 
ATOM     46  H   UNL A   1      45.212  29.433  36.180  1.00  0.00     0.062 H 
ATOM     47  H   UNL A   1      46.737  31.043  35.195  1.00  0.00     0.062 H 
ENDBRANCH  27  37
BRANCH  28  48
ATOM     48  C   UNL A   1      40.755  33.370  35.095  1.00  0.00    -0.016 A 
ATOM     49  C   UNL A   1      40.389  32.266  34.312  1.00  0.00    -0.053 A 
ATOM     50  C   UNL A   1      41.097  34.569  34.460  1.00  0.00    -0.053 A 
ATOM     51  C   UNL A   1      40.371  32.358  32.917  1.00  0.00    -0.043 A 
ATOM     52  H   UNL A   1      40.131  31.378  34.770  1.00  0.00     0.063 H 
ATOM     53  C   UNL A   1      41.058  34.670  33.066  1.00  0.00    -0.043 A 
ATOM     54  H   UNL A   1      41.381  35.385  35.024  1.00  0.00     0.063 H 
ATOM     55  C   UNL A   1      40.706  33.560  32.301  1.00  0.00     0.041 A 
ATOM     56  H   UNL A   1      40.110  31.538  32.347  1.00  0.00     0.064 H 
ATOM     57  H   UNL A   1      41.289  35.564  32.606  1.00  0.00     0.064 H 
ATOM     58  Cl  UNL A   1      40.720  33.669  30.584  1.00  0.00    -0.084 Cl
ENDBRANCH  28  48
ENDBRANCH  14  17
ENDBRANCH  11  14
ENDBRANCH   7  10
ENDBRANCH   4   7
ENDBRANCH   1   4
BRANCH   1  59
ATOM     59  C   UNL A   1      35.727  31.726  32.150  1.00  0.00    -0.052 C 
ATOM     60  H   UNL A   1      35.197  30.886  32.546  1.00  0.00     0.027 H 
ATOM     61  H   UNL A   1      36.315  31.511  31.282  1.00  0.00     0.027 H 
BRANCH  59  62
ATOM     62  C   UNL A   1      34.688  32.762  31.694  1.00  0.00    -0.036 C 
ATOM     63  H   UNL A   1      34.567  33.486  32.472  1.00  0.00     0.028 H 
ATOM     64  H   UNL A   1      33.785  32.226  31.488  1.00  0.00     0.028 H 
BRANCH  62  65
ATOM     65  C   UNL A   1      35.068  33.492  30.416  1.00  0.00     0.018 C 
ATOM     66  H   UNL A   1      36.133  33.468  30.310  1.00  0.00     0.049 H 
ATOM     67  H   UNL A   1      34.706  34.496  30.491  1.00  0.00     0.049 H 
BRANCH  65  68
ATOM     68  N   UNL A   1      34.467  32.888  29.234  1.00  0.00    -0.352 N 
ATOM     69  C   UNL A   1      35.033  32.000  28.344  1.00  0.00     0.251 C 
ATOM     70  H   UNL A   1      33.536  33.147  29.045  1.00  0.00     0.163 HD
ATOM     71  O   UNL A   1      34.562  31.840  27.230  1.00  0.00    -0.269 OA
BRANCH  69  72
ATOM     72  C   UNL A   1      36.237  31.254  28.755  1.00  0.00     0.039 A 
ATOM     73  C   UNL A   1      36.172  29.876  28.972  1.00  0.00    -0.049 A 
ATOM     74  C   UNL A   1      37.439  31.943  28.915  1.00  0.00    -0.049 A 
ATOM     75  C   UNL A   1      37.342  29.186  29.270  1.00  0.00    -0.053 A 
ATOM     76  H   UNL A   1      35.269  29.378  28.910  1.00  0.00     0.063 H 
ATOM     77  C   UNL A   1      38.612  31.246  29.087  1.00  0.00    -0.053 A 
ATOM     78  H   UNL A   1      37.447  32.975  28.905  1.00  0.00     0.063 H 
ATOM     79  C   UNL A   1      38.568  29.873  29.303  1.00  0.00    -0.014 A 
ATOM     80  H   UNL A   1      37.311  28.173  29.467  1.00  0.00     0.063 H 
ATOM     81  H   UNL A   1      39.519  31.738  29.055  1.00  0.00     0.063 H 
BRANCH  79  82
ATOM     82  C   UNL A   1      39.814  29.128  29.460  1.00  0.00     0.031 A 
ATOM     83  C   UNL A   1      40.233  28.888  30.870  1.00  0.00     0.074 A 
ATOM     84  C   UNL A   1      40.465  28.528  28.442  1.00  0.00     0.049 A 
ATOM     85  N   UNL A   1      41.289  29.332  31.469  1.00  0.00    -0.248 NA
ATOM     86  C   UNL A   1      39.318  28.146  31.752  1.00  0.00    -0.034 C 
ATOM     87  C   UNL A   1      40.047  28.379  27.044  1.00  0.00    -0.036 A 
ATOM     88  N   UNL A   1      41.634  27.830  28.481  1.00  0.00    -0.354 N 
ATOM     89  C   UNL A   1      41.265  28.802  32.758  1.00  0.00     0.074 A 
ATOM     90  C   UNL A   1      39.967  28.198  32.917  1.00  0.00    -0.034 C 
ATOM     91  H   UNL A   1      38.414  27.702  31.527  1.00  0.00     0.065 H 
ATOM     92  C   UNL A   1      40.827  27.460  26.434  1.00  0.00    -0.036 A 
ATOM     93  H   UNL A   1      39.275  28.897  26.596  1.00  0.00     0.065 H 
ATOM     94  C   UNL A   1      41.902  27.093  27.337  1.00  0.00     0.049 A 
ATOM     95  H   UNL A   1      42.239  27.847  29.258  1.00  0.00     0.167 HD
ATOM     96  C   UNL A   1      42.399  28.736  33.511  1.00  0.00     0.037 A 
ATOM     97  H   UNL A   1      39.589  27.852  33.813  1.00  0.00     0.065 H 
ATOM     98  H   UNL A   1      40.682  27.082  25.485  1.00  0.00     0.065 H 
ATOM     99  C   UNL A   1      42.927  26.227  27.152  1.00  0.00     0.037 A 
ATOM    100  C   UNL A   1      43.413  29.619  32.990  1.00  0.00     0.049 A 
ATOM    101  C   UNL A   1      43.971  26.558  28.152  1.00  0.00     0.074 A 
ATOM    102  C   UNL A   1      43.507  30.982  32.790  1.00  0.00    -0.036 A 
ATOM    103  N   UNL A   1      44.424  29.068  32.241  1.00  0.00    -0.354 N 
ATOM    104  N   UNL A   1      44.678  27.652  28.132  1.00  0.00    -0.248 NA
ATOM    105  C   UNL A   1      43.930  25.861  29.428  1.00  0.00    -0.034 C 
ATOM    106  C   UNL A   1      44.221  31.126  31.563  1.00  0.00    -0.036 A 
ATOM    107  H   UNL A   1      43.140  31.733  33.396  1.00  0.00     0.065 H 
ATOM    108  C   UNL A   1      44.574  29.848  31.125  1.00  0.00     0.049 A 
ATOM    109  H   UNL A   1      44.945  28.263  32.464  1.00  0.00     0.167 HD
ATOM    110  C   UNL A   1      44.797  28.014  29.464  1.00  0.00     0.074 A 
ATOM    111  C   UNL A   1      44.412  26.823  30.218  1.00  0.00    -0.034 C 
ATOM    112  H   UNL A   1      43.620  24.903  29.655  1.00  0.00     0.065 H 
ATOM    113  H   UNL A   1      44.438  32.014  31.085  1.00  0.00     0.065 H 
ATOM    114  C   UNL A   1      44.923  29.325  29.827  1.00  0.00     0.037 A 
ATOM    115  H   UNL A   1      44.503  26.736  31.243  1.00  0.00     0.065 H 
BRANCH  96 116
ATOM    116  C   UNL A   1      42.735  27.626  34.485  1.00  0.00     0.064 A 
ATOM    117  C   UNL A   1      43.342  26.449  33.995  1.00  0.00     0.173 A 
ATOM    118  C   UNL A   1      42.211  27.532  35.792  1.00  0.00     0.173 A 
ATOM    119  F   UNL A   1      43.884  26.417  32.767  1.00  0.00    -0.203 F 
ATOM    120  C   UNL A   1      43.317  25.247  34.707  1.00  0.00     0.198 A 
ATOM    121  C   UNL A   1      42.234  26.343  36.522  1.00  0.00     0.198 A 
ATOM    122  F   UNL A   1      41.560  28.542  36.378  1.00  0.00    -0.203 F 
ATOM    123  F   UNL A   1      43.776  24.126  34.136  1.00  0.00    -0.200 F 
ATOM    124  C   UNL A   1      42.750  25.192  35.965  1.00  0.00     0.200 A 
ATOM    125  F   UNL A   1      41.671  26.308  37.738  1.00  0.00    -0.200 F 
ATOM    126  F   UNL A   1      42.656  24.028  36.621  1.00  0.00    -0.200 F 
ENDBRANCH  96 116
BRANCH  99 127
ATOM    127  C   UNL A   1      42.963  24.980  26.357  1.00  0.00     0.064 A 
ATOM    128  C   UNL A   1      43.892  24.811  25.318  1.00  0.00     0.173 A 
ATOM    129  C   UNL A   1      42.290  23.824  26.794  1.00  0.00     0.173 A 
ATOM    130  F   UNL A   1      44.605  25.856  24.874  1.00  0.00    -0.203 F 
ATOM    131  C   UNL A   1      44.161  23.552  24.772  1.00  0.00     0.198 A 
ATOM    132  C   UNL A   1      42.558  22.568  26.246  1.00  0.00     0.198 A 
ATOM    133  F   UNL A   1      41.436  23.874  27.826  1.00  0.00    -0.203 F 
ATOM    134  F   UNL A   1      45.105  23.418  23.831  1.00  0.00    -0.200 F 
ATOM    135  C   UNL A   1      43.503  22.430  25.246  1.00  0.00     0.200 A 
ATOM    136  F   UNL A   1      41.951  21.481  26.739  1.00  0.00    -0.200 F 
ATOM    137  F   UNL A   1      43.809  21.214  24.775  1.00  0.00    -0.200 F 
ENDBRANCH  99 127
BRANCH 114 138
ATOM    138  C   UNL A   1      45.214  30.328  28.745  1.00  0.00     0.064 A 
ATOM    139  C   UNL A   1      44.232  30.943  27.949  1.00  0.00     0.173 A 
ATOM    140  C   UNL A   1      46.532  30.784  28.607  1.00  0.00     0.173 A 
ATOM    141  F   UNL A   1      42.936  30.636  28.089  1.00  0.00    -0.203 F 
ATOM    142  C   UNL A   1      44.564  31.934  27.028  1.00  0.00     0.198 A 
ATOM    143  C   UNL A   1      46.855  31.803  27.715  1.00  0.00     0.198 A 
ATOM    144  F   UNL A   1      47.505  30.274  29.378  1.00  0.00    -0.203 F 
ATOM    145  F   UNL A   1      43.609  32.494  26.269  1.00  0.00    -0.200 F 
ATOM    146  C   UNL A   1      45.874  32.369  26.918  1.00  0.00     0.200 A 
ATOM    147  F   UNL A   1      48.115  32.253  27.648  1.00  0.00    -0.200 F 
ATOM    148  F   UNL A   1      46.188  33.352  26.061  1.00  0.00    -0.200 F 
ENDBRANCH 114 138
ENDBRANCH  79  82
ENDBRANCH  69  72
ENDBRANCH  65  68
ENDBRANCH  62  65
ENDBRANCH  59  62
ENDBRANCH   1  59
TORSDOF 18
ENDMDL
MODEL 7
REMARK VINA RESULT:     -11.2      8.798     15.408
REMARK SMILES CC1(C)Cc2c(-c3ccccc3)c(-c3ccc(Cl)cc3)c(CC(=O)NCCCCCCNC(=O)c3ccc(-c4c5nc(c(-c6c(F)c(F)c(F)c(F)c6F)c6ccc([nH]6)c(-c6c(F)c(F)c(F)c(F)c6F)c6nc(c(-c7c(F)c(F)c(F)c(F)c7F)c7ccc4[nH]7)C=C6)C=C5)cc3)n2C1
REMARK SMILES IDX 28 1 27 4 26 7 25 10 23 11 24 12 22 14 21 17 2 18 4 19 99 20
REMARK SMILES IDX 5 21 98 24 6 27 13 28 1 29 3 33 7 37 8 38 12 39 9 40 11 42
REMARK SMILES IDX 10 44 14 48 15 49 20 50 16 51 19 53 17 55 18 58 29 59 30 62
REMARK SMILES IDX 31 65 32 68 33 69 34 71 35 72 36 73 97 74 37 75 96 77 38 79
REMARK SMILES IDX 39 82 40 83 90 84 41 85 95 86 89 87 91 88 42 89 94 90 88 92
REMARK SMILES IDX 87 94 43 96 75 99 55 100 74 101 56 102 59 103 73 104 92 105
REMARK SMILES IDX 57 106 58 108 72 110 93 111 60 114 44 116 45 117 53 118
REMARK SMILES IDX 46 119 47 120 51 121 54 122 48 123 49 124 52 125 50 126
REMARK SMILES IDX 76 127 77 128 85 129 78 130 79 131 83 132 86 133 80 134
REMARK SMILES IDX 81 135 84 136 82 137 61 138 62 139 70 140 63 141 64 142
REMARK SMILES IDX 68 143 71 144 65 145 66 146 69 147 67 148
REMARK H PARENT 28 2 28 3 27 5 27 6 26 8 26 9 25 13 22 15 22 16 4 22 4 23
REMARK H PARENT 99 25 99 26 1 30 1 31 1 32 3 34 3 35 3 36 8 41 12 43 9 45
REMARK H PARENT 11 46 10 47 15 52 20 54 16 56 19 57 29 60 29 61 30 63 30 64
REMARK H PARENT 31 66 31 67 32 70 36 76 97 78 37 80 96 81 95 91 89 93 91 95
REMARK H PARENT 94 97 88 98 56 107 59 109 92 112 57 113 93 115
REMARK Flexibility Score: inf
ROOT
ATOM      1  C   UNL A   1      41.671  39.427  26.512  1.00  0.00    -0.052 C 
ATOM      2  H   UNL A   1      42.467  39.044  25.909  1.00  0.00     0.027 H 
ATOM      3  H   UNL A   1      40.721  38.980  26.310  1.00  0.00     0.027 H 
ENDROOT
BRANCH   1   4
ATOM      4  C   UNL A   1      41.511  40.915  26.189  1.00  0.00    -0.036 C 
ATOM      5  H   UNL A   1      40.468  41.118  26.059  1.00  0.00     0.028 H 
ATOM      6  H   UNL A   1      41.943  41.451  27.009  1.00  0.00     0.028 H 
BRANCH   4   7
ATOM      7  C   UNL A   1      42.247  41.376  24.934  1.00  0.00     0.017 C 
ATOM      8  H   UNL A   1      43.095  41.958  25.228  1.00  0.00     0.049 H 
ATOM      9  H   UNL A   1      42.537  40.501  24.390  1.00  0.00     0.049 H 
BRANCH   7  10
ATOM     10  N   UNL A   1      41.418  42.175  24.063  1.00  0.00    -0.356 N 
ATOM     11  C   UNL A   1      41.650  42.567  22.775  1.00  0.00     0.225 C 
ATOM     12  O   UNL A   1      40.752  43.186  22.200  1.00  0.00    -0.275 OA
ATOM     13  H   UNL A   1      40.567  42.481  24.452  1.00  0.00     0.163 HD
BRANCH  11  14
ATOM     14  C   UNL A   1      42.931  42.176  22.051  1.00  0.00     0.068 C 
ATOM     15  H   UNL A   1      43.607  41.758  22.769  1.00  0.00     0.043 H 
ATOM     16  H   UNL A   1      42.652  41.480  21.288  1.00  0.00     0.043 H 
BRANCH  14  17
ATOM     17  C   UNL A   1      43.623  43.316  21.361  1.00  0.00     0.036 A 
ATOM     18  C   UNL A   1      42.584  44.214  17.923  1.00  0.00    -0.012 C 
ATOM     19  C   UNL A   1      43.485  45.384  18.437  1.00  0.00    -0.005 C 
ATOM     20  C   UNL A   1      42.126  43.488  19.223  1.00  0.00     0.028 C 
ATOM     21  C   UNL A   1      43.943  44.870  19.749  1.00  0.00     0.027 A 
ATOM     22  H   UNL A   1      42.922  46.287  18.549  1.00  0.00     0.034 H 
ATOM     23  H   UNL A   1      44.283  45.637  17.770  1.00  0.00     0.034 H 
ATOM     24  N   UNL A   1      43.186  43.819  20.170  1.00  0.00    -0.346 N 
ATOM     25  H   UNL A   1      42.061  42.431  19.072  1.00  0.00     0.050 H 
ATOM     26  H   UNL A   1      41.154  43.788  19.555  1.00  0.00     0.050 H 
ATOM     27  C   UNL A   1      44.913  45.100  20.686  1.00  0.00     0.011 A 
ATOM     28  C   UNL A   1      44.704  44.126  21.729  1.00  0.00     0.011 A 
BRANCH  18  29
ATOM     29  C   UNL A   1      41.387  44.728  17.123  1.00  0.00    -0.058 C 
ATOM     30  H   UNL A   1      41.730  45.171  16.213  1.00  0.00     0.024 H 
ATOM     31  H   UNL A   1      40.860  45.459  17.701  1.00  0.00     0.024 H 
ATOM     32  H   UNL A   1      40.732  43.912  16.898  1.00  0.00     0.024 H 
ENDBRANCH  18  29
BRANCH  18  33
ATOM     33  C   UNL A   1      43.414  43.276  17.026  1.00  0.00    -0.058 C 
ATOM     34  H   UNL A   1      44.358  43.732  16.811  1.00  0.00     0.024 H 
ATOM     35  H   UNL A   1      42.888  43.096  16.113  1.00  0.00     0.024 H 
ATOM     36  H   UNL A   1      43.575  42.348  17.534  1.00  0.00     0.024 H 
ENDBRANCH  18  33
BRANCH  27  37
ATOM     37  C   UNL A   1      45.933  46.124  20.580  1.00  0.00    -0.016 A 
ATOM     38  C   UNL A   1      47.277  45.779  20.413  1.00  0.00    -0.054 A 
ATOM     39  C   UNL A   1      45.558  47.472  20.576  1.00  0.00    -0.054 A 
ATOM     40  C   UNL A   1      48.234  46.779  20.232  1.00  0.00    -0.062 A 
ATOM     41  H   UNL A   1      47.561  44.787  20.424  1.00  0.00     0.063 H 
ATOM     42  C   UNL A   1      46.515  48.470  20.395  1.00  0.00    -0.062 A 
ATOM     43  H   UNL A   1      44.567  47.731  20.708  1.00  0.00     0.063 H 
ATOM     44  C   UNL A   1      47.852  48.120  20.218  1.00  0.00    -0.062 A 
ATOM     45  H   UNL A   1      49.228  46.524  20.109  1.00  0.00     0.062 H 
ATOM     46  H   UNL A   1      46.234  49.462  20.391  1.00  0.00     0.062 H 
ATOM     47  H   UNL A   1      48.562  48.857  20.077  1.00  0.00     0.062 H 
ENDBRANCH  27  37
BRANCH  28  48
ATOM     48  C   UNL A   1      45.474  44.027  22.964  1.00  0.00    -0.016 A 
ATOM     49  C   UNL A   1      45.166  44.877  24.036  1.00  0.00    -0.053 A 
ATOM     50  C   UNL A   1      46.616  43.223  23.042  1.00  0.00    -0.053 A 
ATOM     51  C   UNL A   1      45.992  44.927  25.164  1.00  0.00    -0.043 A 
ATOM     52  H   UNL A   1      44.323  45.470  23.993  1.00  0.00     0.063 H 
ATOM     53  C   UNL A   1      47.431  43.256  24.177  1.00  0.00    -0.043 A 
ATOM     54  H   UNL A   1      46.860  42.603  22.254  1.00  0.00     0.063 H 
ATOM     55  C   UNL A   1      47.121  44.115  25.229  1.00  0.00     0.041 A 
ATOM     56  H   UNL A   1      45.765  45.562  25.945  1.00  0.00     0.064 H 
ATOM     57  H   UNL A   1      48.260  42.643  24.236  1.00  0.00     0.064 H 
ATOM     58  Cl  UNL A   1      48.160  44.199  26.597  1.00  0.00    -0.084 Cl
ENDBRANCH  28  48
ENDBRANCH  14  17
ENDBRANCH  11  14
ENDBRANCH   7  10
ENDBRANCH   4   7
ENDBRANCH   1   4
BRANCH   1  59
ATOM     59  C   UNL A   1      41.989  39.097  27.979  1.00  0.00    -0.052 C 
ATOM     60  H   UNL A   1      42.469  38.141  28.000  1.00  0.00     0.027 H 
ATOM     61  H   UNL A   1      41.049  39.134  28.488  1.00  0.00     0.027 H 
BRANCH  59  62
ATOM     62  C   UNL A   1      42.895  40.091  28.722  1.00  0.00    -0.036 C 
ATOM     63  H   UNL A   1      42.295  40.640  29.417  1.00  0.00     0.028 H 
ATOM     64  H   UNL A   1      43.343  40.718  27.980  1.00  0.00     0.028 H 
BRANCH  62  65
ATOM     65  C   UNL A   1      44.032  39.432  29.487  1.00  0.00     0.018 C 
ATOM     66  H   UNL A   1      43.616  38.771  30.219  1.00  0.00     0.049 H 
ATOM     67  H   UNL A   1      44.612  40.206  29.944  1.00  0.00     0.049 H 
BRANCH  65  68
ATOM     68  N   UNL A   1      44.915  38.668  28.615  1.00  0.00    -0.352 N 
ATOM     69  C   UNL A   1      45.161  37.311  28.621  1.00  0.00     0.251 C 
ATOM     70  H   UNL A   1      45.400  39.188  27.933  1.00  0.00     0.163 HD
ATOM     71  O   UNL A   1      46.157  36.850  28.088  1.00  0.00    -0.269 OA
BRANCH  69  72
ATOM     72  C   UNL A   1      44.204  36.420  29.304  1.00  0.00     0.039 A 
ATOM     73  C   UNL A   1      44.370  36.114  30.656  1.00  0.00    -0.049 A 
ATOM     74  C   UNL A   1      43.131  35.900  28.582  1.00  0.00    -0.049 A 
ATOM     75  C   UNL A   1      43.401  35.345  31.294  1.00  0.00    -0.053 A 
ATOM     76  H   UNL A   1      45.197  36.453  31.173  1.00  0.00     0.063 H 
ATOM     77  C   UNL A   1      42.114  35.247  29.239  1.00  0.00    -0.053 A 
ATOM     78  H   UNL A   1      43.100  36.004  27.555  1.00  0.00     0.063 H 
ATOM     79  C   UNL A   1      42.260  34.934  30.586  1.00  0.00    -0.014 A 
ATOM     80  H   UNL A   1      43.521  35.079  32.284  1.00  0.00     0.063 H 
ATOM     81  H   UNL A   1      41.249  34.992  28.737  1.00  0.00     0.063 H 
BRANCH  79  82
ATOM     82  C   UNL A   1      41.170  34.263  31.292  1.00  0.00     0.031 A 
ATOM     83  C   UNL A   1      41.435  33.969  32.728  1.00  0.00     0.074 A 
ATOM     84  C   UNL A   1      39.940  34.076  30.771  1.00  0.00     0.049 A 
ATOM     85  N   UNL A   1      41.524  32.811  33.296  1.00  0.00    -0.248 NA
ATOM     86  C   UNL A   1      41.735  35.095  33.626  1.00  0.00    -0.034 C 
ATOM     87  C   UNL A   1      39.392  34.575  29.505  1.00  0.00    -0.036 A 
ATOM     88  N   UNL A   1      38.869  33.452  31.336  1.00  0.00    -0.354 N 
ATOM     89  C   UNL A   1      41.734  33.051  34.653  1.00  0.00     0.074 A 
ATOM     90  C   UNL A   1      41.992  34.463  34.773  1.00  0.00    -0.034 C 
ATOM     91  H   UNL A   1      41.744  36.107  33.422  1.00  0.00     0.065 H 
ATOM     92  C   UNL A   1      38.049  34.428  29.504  1.00  0.00    -0.036 A 
ATOM     93  H   UNL A   1      39.948  34.977  28.733  1.00  0.00     0.065 H 
ATOM     94  C   UNL A   1      37.666  33.668  30.679  1.00  0.00     0.049 A 
ATOM     95  H   UNL A   1      38.943  32.894  32.143  1.00  0.00     0.167 HD
ATOM     96  C   UNL A   1      41.476  32.089  35.584  1.00  0.00     0.037 A 
ATOM     97  H   UNL A   1      42.330  34.924  35.632  1.00  0.00     0.065 H 
ATOM     98  H   UNL A   1      37.404  34.795  28.788  1.00  0.00     0.065 H 
ATOM     99  C   UNL A   1      36.438  33.265  31.085  1.00  0.00     0.037 A 
ATOM    100  C   UNL A   1      41.398  30.787  34.969  1.00  0.00     0.049 A 
ATOM    101  C   UNL A   1      36.633  32.159  32.053  1.00  0.00     0.074 A 
ATOM    102  C   UNL A   1      42.272  29.997  34.249  1.00  0.00    -0.036 A 
ATOM    103  N   UNL A   1      40.152  30.256  34.741  1.00  0.00    -0.354 N 
ATOM    104  N   UNL A   1      37.091  30.983  31.731  1.00  0.00    -0.248 NA
ATOM    105  C   UNL A   1      36.721  32.501  33.463  1.00  0.00    -0.034 C 
ATOM    106  C   UNL A   1      41.468  29.373  33.249  1.00  0.00    -0.036 A 
ATOM    107  H   UNL A   1      43.287  29.883  34.401  1.00  0.00     0.065 H 
ATOM    108  C   UNL A   1      40.146  29.769  33.461  1.00  0.00     0.049 A 
ATOM    109  H   UNL A   1      39.403  30.230  35.379  1.00  0.00     0.167 HD
ATOM    110  C   UNL A   1      37.913  30.627  32.789  1.00  0.00     0.074 A 
ATOM    111  C   UNL A   1      37.563  31.548  33.868  1.00  0.00    -0.034 C 
ATOM    112  H   UNL A   1      36.266  33.260  33.995  1.00  0.00     0.065 H 
ATOM    113  H   UNL A   1      41.801  28.743  32.505  1.00  0.00     0.065 H 
ATOM    114  C   UNL A   1      38.991  29.812  32.596  1.00  0.00     0.037 A 
ATOM    115  H   UNL A   1      37.924  31.469  34.832  1.00  0.00     0.065 H 
BRANCH  96 116
ATOM    116  C   UNL A   1      40.935  32.344  36.976  1.00  0.00     0.064 A 
ATOM    117  C   UNL A   1      39.674  32.964  37.113  1.00  0.00     0.173 A 
ATOM    118  C   UNL A   1      41.716  32.305  38.150  1.00  0.00     0.173 A 
ATOM    119  F   UNL A   1      38.837  33.057  36.068  1.00  0.00    -0.203 F 
ATOM    120  C   UNL A   1      39.282  33.597  38.296  1.00  0.00     0.198 A 
ATOM    121  C   UNL A   1      41.299  32.893  39.344  1.00  0.00     0.198 A 
ATOM    122  F   UNL A   1      42.954  31.799  38.172  1.00  0.00    -0.203 F 
ATOM    123  F   UNL A   1      38.139  34.296  38.329  1.00  0.00    -0.200 F 
ATOM    124  C   UNL A   1      40.101  33.573  39.407  1.00  0.00     0.200 A 
ATOM    125  F   UNL A   1      42.113  32.866  40.409  1.00  0.00    -0.200 F 
ATOM    126  F   UNL A   1      39.764  34.239  40.518  1.00  0.00    -0.200 F 
ENDBRANCH  96 116
BRANCH  99 127
ATOM    127  C   UNL A   1      35.130  33.931  30.901  1.00  0.00     0.064 A 
ATOM    128  C   UNL A   1      34.743  35.003  31.721  1.00  0.00     0.173 A 
ATOM    129  C   UNL A   1      34.369  33.725  29.734  1.00  0.00     0.173 A 
ATOM    130  F   UNL A   1      35.441  35.291  32.829  1.00  0.00    -0.203 F 
ATOM    131  C   UNL A   1      33.680  35.843  31.377  1.00  0.00     0.198 A 
ATOM    132  C   UNL A   1      33.307  34.564  29.393  1.00  0.00     0.198 A 
ATOM    133  F   UNL A   1      34.705  32.771  28.855  1.00  0.00    -0.203 F 
ATOM    134  F   UNL A   1      33.384  36.899  32.148  1.00  0.00    -0.200 F 
ATOM    135  C   UNL A   1      32.972  35.631  30.206  1.00  0.00     0.200 A 
ATOM    136  F   UNL A   1      32.655  34.380  28.238  1.00  0.00    -0.200 F 
ATOM    137  F   UNL A   1      31.999  36.475  29.838  1.00  0.00    -0.200 F 
ENDBRANCH  99 127
BRANCH 114 138
ATOM    138  C   UNL A   1      39.097  29.085  31.284  1.00  0.00     0.064 A 
ATOM    139  C   UNL A   1      39.701  29.617  30.131  1.00  0.00     0.173 A 
ATOM    140  C   UNL A   1      38.692  27.745  31.238  1.00  0.00     0.173 A 
ATOM    141  F   UNL A   1      40.206  30.856  30.123  1.00  0.00    -0.203 F 
ATOM    142  C   UNL A   1      39.849  28.853  28.975  1.00  0.00     0.198 A 
ATOM    143  C   UNL A   1      38.877  26.972  30.095  1.00  0.00     0.198 A 
ATOM    144  F   UNL A   1      38.158  27.166  32.325  1.00  0.00    -0.203 F 
ATOM    145  F   UNL A   1      40.416  29.388  27.882  1.00  0.00    -0.200 F 
ATOM    146  C   UNL A   1      39.445  27.528  28.961  1.00  0.00     0.200 A 
ATOM    147  F   UNL A   1      38.528  25.679  30.103  1.00  0.00    -0.200 F 
ATOM    148  F   UNL A   1      39.624  26.781  27.862  1.00  0.00    -0.200 F 
ENDBRANCH 114 138
ENDBRANCH  79  82
ENDBRANCH  69  72
ENDBRANCH  65  68
ENDBRANCH  62  65
ENDBRANCH  59  62
ENDBRANCH   1  59
TORSDOF 18
ENDMDL
MODEL 8
REMARK VINA RESULT:     -11.2      5.626     12.469
REMARK SMILES CC1(C)Cc2c(-c3ccccc3)c(-c3ccc(Cl)cc3)c(CC(=O)NCCCCCCNC(=O)c3ccc(-c4c5nc(c(-c6c(F)c(F)c(F)c(F)c6F)c6ccc([nH]6)c(-c6c(F)c(F)c(F)c(F)c6F)c6nc(c(-c7c(F)c(F)c(F)c(F)c7F)c7ccc4[nH]7)C=C6)C=C5)cc3)n2C1
REMARK SMILES IDX 28 1 27 4 26 7 25 10 23 11 24 12 22 14 21 17 2 18 4 19 99 20
REMARK SMILES IDX 5 21 98 24 6 27 13 28 1 29 3 33 7 37 8 38 12 39 9 40 11 42
REMARK SMILES IDX 10 44 14 48 15 49 20 50 16 51 19 53 17 55 18 58 29 59 30 62
REMARK SMILES IDX 31 65 32 68 33 69 34 71 35 72 36 73 97 74 37 75 96 77 38 79
REMARK SMILES IDX 39 82 40 83 90 84 41 85 95 86 89 87 91 88 42 89 94 90 88 92
REMARK SMILES IDX 87 94 43 96 75 99 55 100 74 101 56 102 59 103 73 104 92 105
REMARK SMILES IDX 57 106 58 108 72 110 93 111 60 114 44 116 45 117 53 118
REMARK SMILES IDX 46 119 47 120 51 121 54 122 48 123 49 124 52 125 50 126
REMARK SMILES IDX 76 127 77 128 85 129 78 130 79 131 83 132 86 133 80 134
REMARK SMILES IDX 81 135 84 136 82 137 61 138 62 139 70 140 63 141 64 142
REMARK SMILES IDX 68 143 71 144 65 145 66 146 69 147 67 148
REMARK H PARENT 28 2 28 3 27 5 27 6 26 8 26 9 25 13 22 15 22 16 4 22 4 23
REMARK H PARENT 99 25 99 26 1 30 1 31 1 32 3 34 3 35 3 36 8 41 12 43 9 45
REMARK H PARENT 11 46 10 47 15 52 20 54 16 56 19 57 29 60 29 61 30 63 30 64
REMARK H PARENT 31 66 31 67 32 70 36 76 97 78 37 80 96 81 95 91 89 93 91 95
REMARK H PARENT 94 97 88 98 56 107 59 109 92 112 57 113 93 115
REMARK Flexibility Score: inf
ROOT
ATOM      1  C   UNL A   1      36.573  33.921  34.784  1.00  0.00    -0.052 C 
ATOM      2  H   UNL A   1      36.688  34.925  35.136  1.00  0.00     0.027 H 
ATOM      3  H   UNL A   1      36.562  33.188  35.562  1.00  0.00     0.027 H 
ENDROOT
BRANCH   1   4
ATOM      4  C   UNL A   1      37.785  33.588  33.910  1.00  0.00    -0.036 C 
ATOM      5  H   UNL A   1      37.552  33.856  32.900  1.00  0.00     0.028 H 
ATOM      6  H   UNL A   1      38.609  34.142  34.310  1.00  0.00     0.028 H 
BRANCH   4   7
ATOM      7  C   UNL A   1      38.200  32.120  33.931  1.00  0.00     0.017 C 
ATOM      8  H   UNL A   1      37.794  31.637  33.065  1.00  0.00     0.049 H 
ATOM      9  H   UNL A   1      39.269  32.085  33.938  1.00  0.00     0.049 H 
BRANCH   7  10
ATOM     10  N   UNL A   1      37.733  31.425  35.107  1.00  0.00    -0.356 N 
ATOM     11  C   UNL A   1      38.422  31.090  36.238  1.00  0.00     0.225 C 
ATOM     12  O   UNL A   1      37.786  30.563  37.155  1.00  0.00    -0.275 OA
ATOM     13  H   UNL A   1      36.786  31.156  35.092  1.00  0.00     0.163 HD
BRANCH  11  14
ATOM     14  C   UNL A   1      39.897  31.434  36.394  1.00  0.00     0.068 C 
ATOM     15  H   UNL A   1      40.296  30.844  37.193  1.00  0.00     0.043 H 
ATOM     16  H   UNL A   1      40.361  31.228  35.452  1.00  0.00     0.043 H 
BRANCH  14  17
ATOM     17  C   UNL A   1      40.165  32.880  36.698  1.00  0.00     0.036 A 
ATOM     18  C   UNL A   1      42.321  34.816  34.393  1.00  0.00    -0.012 C 
ATOM     19  C   UNL A   1      41.631  35.854  35.336  1.00  0.00    -0.005 C 
ATOM     20  C   UNL A   1      41.424  33.547  34.504  1.00  0.00     0.028 C 
ATOM     21  C   UNL A   1      40.905  34.978  36.285  1.00  0.00     0.027 A 
ATOM     22  H   UNL A   1      40.955  36.483  34.794  1.00  0.00     0.034 H 
ATOM     23  H   UNL A   1      42.316  36.527  35.809  1.00  0.00     0.034 H 
ATOM     24  N   UNL A   1      40.802  33.703  35.815  1.00  0.00    -0.346 N 
ATOM     25  H   UNL A   1      42.012  32.654  34.461  1.00  0.00     0.050 H 
ATOM     26  H   UNL A   1      40.715  33.459  33.707  1.00  0.00     0.050 H 
ATOM     27  C   UNL A   1      40.309  35.028  37.515  1.00  0.00     0.011 A 
ATOM     28  C   UNL A   1      39.816  33.698  37.779  1.00  0.00     0.011 A 
BRANCH  18  29
ATOM     29  C   UNL A   1      42.394  35.319  32.951  1.00  0.00    -0.058 C 
ATOM     30  H   UNL A   1      43.078  36.139  32.894  1.00  0.00     0.024 H 
ATOM     31  H   UNL A   1      41.423  35.642  32.637  1.00  0.00     0.024 H 
ATOM     32  H   UNL A   1      42.730  34.528  32.314  1.00  0.00     0.024 H 
ENDBRANCH  18  29
BRANCH  18  33
ATOM     33  C   UNL A   1      43.750  34.532  34.893  1.00  0.00    -0.058 C 
ATOM     34  H   UNL A   1      44.408  35.301  34.548  1.00  0.00     0.024 H 
ATOM     35  H   UNL A   1      44.078  33.586  34.517  1.00  0.00     0.024 H 
ATOM     36  H   UNL A   1      43.755  34.511  35.963  1.00  0.00     0.024 H 
ENDBRANCH  18  33
BRANCH  27  37
ATOM     37  C   UNL A   1      40.241  36.211  38.349  1.00  0.00    -0.016 A 
ATOM     38  C   UNL A   1      39.010  36.706  38.789  1.00  0.00    -0.054 A 
ATOM     39  C   UNL A   1      41.425  36.824  38.774  1.00  0.00    -0.054 A 
ATOM     40  C   UNL A   1      38.969  37.799  39.656  1.00  0.00    -0.062 A 
ATOM     41  H   UNL A   1      38.132  36.264  38.473  1.00  0.00     0.063 H 
ATOM     42  C   UNL A   1      41.383  37.915  39.641  1.00  0.00    -0.062 A 
ATOM     43  H   UNL A   1      42.336  36.467  38.443  1.00  0.00     0.063 H 
ATOM     44  C   UNL A   1      40.154  38.397  40.084  1.00  0.00    -0.062 A 
ATOM     45  H   UNL A   1      38.060  38.165  39.981  1.00  0.00     0.062 H 
ATOM     46  H   UNL A   1      42.259  38.363  39.952  1.00  0.00     0.062 H 
ATOM     47  H   UNL A   1      40.120  39.201  40.732  1.00  0.00     0.062 H 
ENDBRANCH  27  37
BRANCH  28  48
ATOM     48  C   UNL A   1      39.060  33.291  38.958  1.00  0.00    -0.016 A 
ATOM     49  C   UNL A   1      39.746  32.825  40.088  1.00  0.00    -0.053 A 
ATOM     50  C   UNL A   1      37.665  33.196  38.924  1.00  0.00    -0.053 A 
ATOM     51  C   UNL A   1      39.048  32.266  41.164  1.00  0.00    -0.043 A 
ATOM     52  H   UNL A   1      40.775  32.894  40.127  1.00  0.00     0.063 H 
ATOM     53  C   UNL A   1      36.963  32.658  40.007  1.00  0.00    -0.043 A 
ATOM     54  H   UNL A   1      37.149  33.524  38.092  1.00  0.00     0.063 H 
ATOM     55  C   UNL A   1      37.659  32.186  41.118  1.00  0.00     0.041 A 
ATOM     56  H   UNL A   1      39.561  31.916  41.988  1.00  0.00     0.064 H 
ATOM     57  H   UNL A   1      35.932  32.612  39.985  1.00  0.00     0.064 H 
ATOM     58  Cl  UNL A   1      36.798  31.467  42.422  1.00  0.00    -0.084 Cl
ENDBRANCH  28  48
ENDBRANCH  14  17
ENDBRANCH  11  14
ENDBRANCH   7  10
ENDBRANCH   4   7
ENDBRANCH   1   4
BRANCH   1  59
ATOM     59  C   UNL A   1      35.206  33.818  34.089  1.00  0.00    -0.052 C 
ATOM     60  H   UNL A   1      34.621  34.659  34.396  1.00  0.00     0.027 H 
ATOM     61  H   UNL A   1      34.809  32.869  34.385  1.00  0.00     0.027 H 
BRANCH  59  62
ATOM     62  C   UNL A   1      35.220  33.795  32.553  1.00  0.00    -0.036 C 
ATOM     63  H   UNL A   1      36.178  34.132  32.218  1.00  0.00     0.028 H 
ATOM     64  H   UNL A   1      34.424  34.429  32.225  1.00  0.00     0.028 H 
BRANCH  62  65
ATOM     65  C   UNL A   1      34.962  32.420  31.957  1.00  0.00     0.018 C 
ATOM     66  H   UNL A   1      34.309  31.879  32.610  1.00  0.00     0.049 H 
ATOM     67  H   UNL A   1      35.905  31.926  31.850  1.00  0.00     0.049 H 
BRANCH  65  68
ATOM     68  N   UNL A   1      34.346  32.496  30.638  1.00  0.00    -0.352 N 
ATOM     69  C   UNL A   1      34.938  32.323  29.405  1.00  0.00     0.251 C 
ATOM     70  H   UNL A   1      33.382  32.699  30.625  1.00  0.00     0.163 HD
ATOM     71  O   UNL A   1      34.410  32.746  28.389  1.00  0.00    -0.269 OA
BRANCH  69  72
ATOM     72  C   UNL A   1      36.238  31.630  29.334  1.00  0.00     0.039 A 
ATOM     73  C   UNL A   1      37.426  32.342  29.512  1.00  0.00    -0.049 A 
ATOM     74  C   UNL A   1      36.261  30.257  29.096  1.00  0.00    -0.049 A 
ATOM     75  C   UNL A   1      38.630  31.646  29.531  1.00  0.00    -0.053 A 
ATOM     76  H   UNL A   1      37.410  33.368  29.630  1.00  0.00     0.063 H 
ATOM     77  C   UNL A   1      37.435  29.554  29.237  1.00  0.00    -0.053 A 
ATOM     78  H   UNL A   1      35.397  29.767  28.813  1.00  0.00     0.063 H 
ATOM     79  C   UNL A   1      38.628  30.246  29.417  1.00  0.00    -0.014 A 
ATOM     80  H   UNL A   1      39.522  32.157  29.627  1.00  0.00     0.063 H 
ATOM     81  H   UNL A   1      37.430  28.523  29.210  1.00  0.00     0.063 H 
BRANCH  79  82
ATOM     82  C   UNL A   1      39.872  29.501  29.593  1.00  0.00     0.031 A 
ATOM     83  C   UNL A   1      40.336  29.369  31.003  1.00  0.00     0.074 A 
ATOM     84  C   UNL A   1      40.483  28.815  28.606  1.00  0.00     0.049 A 
ATOM     85  N   UNL A   1      41.415  29.847  31.530  1.00  0.00    -0.248 NA
ATOM     86  C   UNL A   1      39.444  28.710  31.970  1.00  0.00    -0.034 C 
ATOM     87  C   UNL A   1      40.018  28.560  27.238  1.00  0.00    -0.036 A 
ATOM     88  N   UNL A   1      41.647  28.108  28.662  1.00  0.00    -0.354 N 
ATOM     89  C   UNL A   1      41.429  29.421  32.857  1.00  0.00     0.074 A 
ATOM     90  C   UNL A   1      40.132  28.847  33.106  1.00  0.00    -0.034 C 
ATOM     91  H   UNL A   1      38.529  28.260  31.812  1.00  0.00     0.065 H 
ATOM     92  C   UNL A   1      40.768  27.586  26.678  1.00  0.00    -0.036 A 
ATOM     93  H   UNL A   1      39.236  29.050  26.775  1.00  0.00     0.065 H 
ATOM     94  C   UNL A   1      41.870  27.279  27.572  1.00  0.00     0.049 A 
ATOM     95  H   UNL A   1      42.277  28.180  29.415  1.00  0.00     0.167 HD
ATOM     96  C   UNL A   1      42.587  29.401  33.576  1.00  0.00     0.037 A 
ATOM     97  H   UNL A   1      39.780  28.577  34.039  1.00  0.00     0.065 H 
ATOM     98  H   UNL A   1      40.589  27.136  25.768  1.00  0.00     0.065 H 
ATOM     99  C   UNL A   1      42.880  26.389  27.423  1.00  0.00     0.037 A 
ATOM    100  C   UNL A   1      43.591  30.228  32.954  1.00  0.00     0.049 A 
ATOM    101  C   UNL A   1      43.960  26.786  28.359  1.00  0.00     0.074 A 
ATOM    102  C   UNL A   1      43.691  31.570  32.643  1.00  0.00    -0.036 A 
ATOM    103  N   UNL A   1      44.572  29.607  32.219  1.00  0.00    -0.354 N 
ATOM    104  N   UNL A   1      44.675  27.867  28.229  1.00  0.00    -0.248 NA
ATOM    105  C   UNL A   1      43.955  26.194  29.687  1.00  0.00    -0.034 C 
ATOM    106  C   UNL A   1      44.365  31.608  31.385  1.00  0.00    -0.036 A 
ATOM    107  H   UNL A   1      43.351  32.371  33.198  1.00  0.00     0.065 H 
ATOM    108  C   UNL A   1      44.692  30.295  31.040  1.00  0.00     0.049 A 
ATOM    109  H   UNL A   1      45.092  28.817  32.488  1.00  0.00     0.167 HD
ATOM    110  C   UNL A   1      44.843  28.332  29.524  1.00  0.00     0.074 A 
ATOM    111  C   UNL A   1      44.472  27.210  30.382  1.00  0.00    -0.034 C 
ATOM    112  H   UNL A   1      43.644  25.260  30.001  1.00  0.00     0.065 H 
ATOM    113  H   UNL A   1      44.574  32.452  30.831  1.00  0.00     0.065 H 
ATOM    114  C   UNL A   1      44.992  29.666  29.776  1.00  0.00     0.037 A 
ATOM    115  H   UNL A   1      44.596  27.203  31.407  1.00  0.00     0.065 H 
BRANCH  96 116
ATOM    116  C   UNL A   1      42.946  28.368  34.625  1.00  0.00     0.064 A 
ATOM    117  C   UNL A   1      43.325  28.807  35.912  1.00  0.00     0.173 A 
ATOM    118  C   UNL A   1      43.239  27.018  34.340  1.00  0.00     0.173 A 
ATOM    119  F   UNL A   1      43.092  30.070  36.303  1.00  0.00    -0.203 F 
ATOM    120  C   UNL A   1      44.046  27.995  36.792  1.00  0.00     0.198 A 
ATOM    121  C   UNL A   1      43.913  26.194  35.241  1.00  0.00     0.198 A 
ATOM    122  F   UNL A   1      42.990  26.466  33.148  1.00  0.00    -0.203 F 
ATOM    123  F   UNL A   1      44.508  28.506  37.941  1.00  0.00    -0.200 F 
ATOM    124  C   UNL A   1      44.351  26.693  36.450  1.00  0.00     0.200 A 
ATOM    125  F   UNL A   1      44.207  24.935  34.887  1.00  0.00    -0.200 F 
ATOM    126  F   UNL A   1      45.104  25.934  37.256  1.00  0.00    -0.200 F 
ENDBRANCH  96 116
BRANCH  99 127
ATOM    127  C   UNL A   1      42.878  25.083  26.730  1.00  0.00     0.064 A 
ATOM    128  C   UNL A   1      43.607  24.891  25.545  1.00  0.00     0.173 A 
ATOM    129  C   UNL A   1      42.405  23.923  27.372  1.00  0.00     0.173 A 
ATOM    130  F   UNL A   1      44.126  25.943  24.896  1.00  0.00    -0.203 F 
ATOM    131  C   UNL A   1      43.880  23.613  25.050  1.00  0.00     0.198 A 
ATOM    132  C   UNL A   1      42.678  22.647  26.876  1.00  0.00     0.198 A 
ATOM    133  F   UNL A   1      41.760  24.001  28.544  1.00  0.00    -0.203 F 
ATOM    134  F   UNL A   1      44.639  23.466  23.955  1.00  0.00    -0.200 F 
ATOM    135  C   UNL A   1      43.427  22.491  25.724  1.00  0.00     0.200 A 
ATOM    136  F   UNL A   1      42.274  21.566  27.556  1.00  0.00    -0.200 F 
ATOM    137  F   UNL A   1      43.746  21.264  25.292  1.00  0.00    -0.200 F 
ENDBRANCH  99 127
BRANCH 114 138
ATOM    138  C   UNL A   1      45.256  30.576  28.609  1.00  0.00     0.064 A 
ATOM    139  C   UNL A   1      44.253  31.159  27.816  1.00  0.00     0.173 A 
ATOM    140  C   UNL A   1      46.577  30.982  28.376  1.00  0.00     0.173 A 
ATOM    141  F   UNL A   1      42.958  30.902  28.038  1.00  0.00    -0.203 F 
ATOM    142  C   UNL A   1      44.565  32.069  26.807  1.00  0.00     0.198 A 
ATOM    143  C   UNL A   1      46.883  31.921  27.395  1.00  0.00     0.198 A 
ATOM    144  F   UNL A   1      47.573  30.502  29.138  1.00  0.00    -0.203 F 
ATOM    145  F   UNL A   1      43.590  32.598  26.053  1.00  0.00    -0.200 F 
ATOM    146  C   UNL A   1      45.879  32.455  26.603  1.00  0.00     0.200 A 
ATOM    147  F   UNL A   1      48.149  32.328  27.235  1.00  0.00    -0.200 F 
ATOM    148  F   UNL A   1      46.176  33.362  25.661  1.00  0.00    -0.200 F 
ENDBRANCH 114 138
ENDBRANCH  79  82
ENDBRANCH  69  72
ENDBRANCH  65  68
ENDBRANCH  62  65
ENDBRANCH  59  62
ENDBRANCH   1  59
TORSDOF 18
ENDMDL
MODEL 9
REMARK VINA RESULT:     -11.1      5.540     12.325
REMARK SMILES CC1(C)Cc2c(-c3ccccc3)c(-c3ccc(Cl)cc3)c(CC(=O)NCCCCCCNC(=O)c3ccc(-c4c5nc(c(-c6c(F)c(F)c(F)c(F)c6F)c6ccc([nH]6)c(-c6c(F)c(F)c(F)c(F)c6F)c6nc(c(-c7c(F)c(F)c(F)c(F)c7F)c7ccc4[nH]7)C=C6)C=C5)cc3)n2C1
REMARK SMILES IDX 28 1 27 4 26 7 25 10 23 11 24 12 22 14 21 17 2 18 4 19 99 20
REMARK SMILES IDX 5 21 98 24 6 27 13 28 1 29 3 33 7 37 8 38 12 39 9 40 11 42
REMARK SMILES IDX 10 44 14 48 15 49 20 50 16 51 19 53 17 55 18 58 29 59 30 62
REMARK SMILES IDX 31 65 32 68 33 69 34 71 35 72 36 73 97 74 37 75 96 77 38 79
REMARK SMILES IDX 39 82 40 83 90 84 41 85 95 86 89 87 91 88 42 89 94 90 88 92
REMARK SMILES IDX 87 94 43 96 75 99 55 100 74 101 56 102 59 103 73 104 92 105
REMARK SMILES IDX 57 106 58 108 72 110 93 111 60 114 44 116 45 117 53 118
REMARK SMILES IDX 46 119 47 120 51 121 54 122 48 123 49 124 52 125 50 126
REMARK SMILES IDX 76 127 77 128 85 129 78 130 79 131 83 132 86 133 80 134
REMARK SMILES IDX 81 135 84 136 82 137 61 138 62 139 70 140 63 141 64 142
REMARK SMILES IDX 68 143 71 144 65 145 66 146 69 147 67 148
REMARK H PARENT 28 2 28 3 27 5 27 6 26 8 26 9 25 13 22 15 22 16 4 22 4 23
REMARK H PARENT 99 25 99 26 1 30 1 31 1 32 3 34 3 35 3 36 8 41 12 43 9 45
REMARK H PARENT 11 46 10 47 15 52 20 54 16 56 19 57 29 60 29 61 30 63 30 64
REMARK H PARENT 31 66 31 67 32 70 36 76 97 78 37 80 96 81 95 91 89 93 91 95
REMARK H PARENT 94 97 88 98 56 107 59 109 92 112 57 113 93 115
REMARK Flexibility Score: inf
ROOT
ATOM      1  C   UNL A   1      38.030  33.442  31.901  1.00  0.00    -0.052 C 
ATOM      2  H   UNL A   1      38.024  33.437  30.831  1.00  0.00     0.027 H 
ATOM      3  H   UNL A   1      38.724  34.134  32.327  1.00  0.00     0.027 H 
ENDROOT
BRANCH   1   4
ATOM      4  C   UNL A   1      38.474  32.056  32.375  1.00  0.00    -0.036 C 
ATOM      5  H   UNL A   1      38.175  31.339  31.639  1.00  0.00     0.028 H 
ATOM      6  H   UNL A   1      39.536  32.106  32.503  1.00  0.00     0.028 H 
BRANCH   4   7
ATOM      7  C   UNL A   1      37.895  31.628  33.720  1.00  0.00     0.017 C 
ATOM      8  H   UNL A   1      37.592  32.504  34.257  1.00  0.00     0.049 H 
ATOM      9  H   UNL A   1      37.067  30.979  33.524  1.00  0.00     0.049 H 
BRANCH   7  10
ATOM     10  N   UNL A   1      38.841  30.896  34.528  1.00  0.00    -0.356 N 
ATOM     11  C   UNL A   1      38.818  30.652  35.872  1.00  0.00     0.225 C 
ATOM     12  O   UNL A   1      39.704  29.926  36.332  1.00  0.00    -0.275 OA
ATOM     13  H   UNL A   1      39.610  30.520  34.042  1.00  0.00     0.163 HD
BRANCH  11  14
ATOM     14  C   UNL A   1      37.694  31.183  36.750  1.00  0.00     0.068 C 
ATOM     15  H   UNL A   1      36.941  31.602  36.114  1.00  0.00     0.043 H 
ATOM     16  H   UNL A   1      37.337  30.354  37.325  1.00  0.00     0.043 H 
BRANCH  14  17
ATOM     17  C   UNL A   1      38.121  32.236  37.731  1.00  0.00     0.036 A 
ATOM     18  C   UNL A   1      36.577  32.269  41.096  1.00  0.00    -0.012 C 
ATOM     19  C   UNL A   1      37.807  33.233  41.160  1.00  0.00    -0.005 C 
ATOM     20  C   UNL A   1      36.861  31.372  39.855  1.00  0.00     0.028 C 
ATOM     21  C   UNL A   1      38.266  33.245  39.751  1.00  0.00     0.027 A 
ATOM     22  H   UNL A   1      38.565  32.852  41.812  1.00  0.00     0.034 H 
ATOM     23  H   UNL A   1      37.572  34.204  41.545  1.00  0.00     0.034 H 
ATOM     24  N   UNL A   1      37.732  32.213  39.039  1.00  0.00    -0.346 N 
ATOM     25  H   UNL A   1      35.957  31.135  39.335  1.00  0.00     0.050 H 
ATOM     26  H   UNL A   1      37.300  30.429  40.107  1.00  0.00     0.050 H 
ATOM     27  C   UNL A   1      39.052  33.982  38.909  1.00  0.00     0.011 A 
ATOM     28  C   UNL A   1      38.982  33.335  37.622  1.00  0.00     0.011 A 
BRANCH  18  29
ATOM     29  C   UNL A   1      36.446  31.431  42.368  1.00  0.00    -0.058 C 
ATOM     30  H   UNL A   1      35.456  31.531  42.761  1.00  0.00     0.024 H 
ATOM     31  H   UNL A   1      37.154  31.772  43.094  1.00  0.00     0.024 H 
ATOM     32  H   UNL A   1      36.637  30.403  42.139  1.00  0.00     0.024 H 
ENDBRANCH  18  29
BRANCH  18  33
ATOM     33  C   UNL A   1      35.287  33.088  40.906  1.00  0.00    -0.058 C 
ATOM     34  H   UNL A   1      34.437  32.461  41.079  1.00  0.00     0.024 H 
ATOM     35  H   UNL A   1      35.250  33.470  39.908  1.00  0.00     0.024 H 
ATOM     36  H   UNL A   1      35.276  33.902  41.600  1.00  0.00     0.024 H 
ENDBRANCH  18  33
BRANCH  27  37
ATOM     37  C   UNL A   1      39.769  35.181  39.293  1.00  0.00    -0.016 A 
ATOM     38  C   UNL A   1      41.061  35.104  39.821  1.00  0.00    -0.054 A 
ATOM     39  C   UNL A   1      39.188  36.434  39.066  1.00  0.00    -0.054 A 
ATOM     40  C   UNL A   1      41.766  36.273  40.110  1.00  0.00    -0.062 A 
ATOM     41  H   UNL A   1      41.492  34.183  39.999  1.00  0.00     0.063 H 
ATOM     42  C   UNL A   1      39.893  37.602  39.353  1.00  0.00    -0.062 A 
ATOM     43  H   UNL A   1      38.231  36.495  38.684  1.00  0.00     0.063 H 
ATOM     44  C   UNL A   1      41.184  37.518  39.870  1.00  0.00    -0.062 A 
ATOM     45  H   UNL A   1      42.720  36.216  40.501  1.00  0.00     0.062 H 
ATOM     46  H   UNL A   1      39.462  38.523  39.184  1.00  0.00     0.062 H 
ATOM     47  H   UNL A   1      41.712  38.382  40.078  1.00  0.00     0.062 H 
ENDBRANCH  27  37
BRANCH  28  48
ATOM     48  C   UNL A   1      39.709  33.743  36.425  1.00  0.00    -0.016 A 
ATOM     49  C   UNL A   1      41.055  33.379  36.280  1.00  0.00    -0.053 A 
ATOM     50  C   UNL A   1      39.143  34.631  35.504  1.00  0.00    -0.053 A 
ATOM     51  C   UNL A   1      41.824  33.899  35.235  1.00  0.00    -0.043 A 
ATOM     52  H   UNL A   1      41.482  32.721  36.951  1.00  0.00     0.063 H 
ATOM     53  C   UNL A   1      39.904  35.136  34.446  1.00  0.00    -0.043 A 
ATOM     54  H   UNL A   1      38.157  34.918  35.608  1.00  0.00     0.063 H 
ATOM     55  C   UNL A   1      41.244  34.776  34.322  1.00  0.00     0.041 A 
ATOM     56  H   UNL A   1      42.817  33.634  35.140  1.00  0.00     0.064 H 
ATOM     57  H   UNL A   1      39.474  35.773  33.757  1.00  0.00     0.064 H 
ATOM     58  Cl  UNL A   1      42.195  35.447  33.055  1.00  0.00    -0.084 Cl
ENDBRANCH  28  48
ENDBRANCH  14  17
ENDBRANCH  11  14
ENDBRANCH   7  10
ENDBRANCH   4   7
ENDBRANCH   1   4
BRANCH   1  59
ATOM     59  C   UNL A   1      36.640  33.892  32.378  1.00  0.00    -0.052 C 
ATOM     60  H   UNL A   1      36.727  34.898  32.731  1.00  0.00     0.027 H 
ATOM     61  H   UNL A   1      36.353  33.182  33.125  1.00  0.00     0.027 H 
BRANCH  59  62
ATOM     62  C   UNL A   1      35.515  33.860  31.332  1.00  0.00    -0.036 C 
ATOM     63  H   UNL A   1      35.927  34.134  30.383  1.00  0.00     0.028 H 
ATOM     64  H   UNL A   1      34.761  34.543  31.664  1.00  0.00     0.028 H 
BRANCH  62  65
ATOM     65  C   UNL A   1      34.847  32.502  31.189  1.00  0.00     0.018 C 
ATOM     66  H   UNL A   1      33.955  32.494  31.780  1.00  0.00     0.049 H 
ATOM     67  H   UNL A   1      35.541  31.758  31.518  1.00  0.00     0.049 H 
BRANCH  65  68
ATOM     68  N   UNL A   1      34.495  32.203  29.806  1.00  0.00    -0.352 N 
ATOM     69  C   UNL A   1      35.282  31.637  28.825  1.00  0.00     0.251 C 
ATOM     70  H   UNL A   1      33.576  32.434  29.537  1.00  0.00     0.163 HD
ATOM     71  O   UNL A   1      34.997  31.755  27.645  1.00  0.00    -0.269 OA
BRANCH  69  72
ATOM     72  C   UNL A   1      36.494  30.898  29.227  1.00  0.00     0.039 A 
ATOM     73  C   UNL A   1      36.384  29.658  29.861  1.00  0.00    -0.049 A 
ATOM     74  C   UNL A   1      37.745  31.449  28.955  1.00  0.00    -0.049 A 
ATOM     75  C   UNL A   1      37.543  28.944  30.146  1.00  0.00    -0.053 A 
ATOM     76  H   UNL A   1      35.457  29.279  30.113  1.00  0.00     0.063 H 
ATOM     77  C   UNL A   1      38.881  30.692  29.123  1.00  0.00    -0.053 A 
ATOM     78  H   UNL A   1      37.819  32.427  28.630  1.00  0.00     0.063 H 
ATOM     79  C   UNL A   1      38.791  29.454  29.751  1.00  0.00    -0.014 A 
ATOM     80  H   UNL A   1      37.486  28.042  30.644  1.00  0.00     0.063 H 
ATOM     81  H   UNL A   1      39.792  31.039  28.785  1.00  0.00     0.063 H 
BRANCH  79  82
ATOM     82  C   UNL A   1      39.992  28.638  29.907  1.00  0.00     0.031 A 
ATOM     83  C   UNL A   1      40.448  28.447  31.313  1.00  0.00     0.074 A 
ATOM     84  C   UNL A   1      40.564  27.942  28.903  1.00  0.00     0.049 A 
ATOM     85  N   UNL A   1      41.553  28.851  31.850  1.00  0.00    -0.248 NA
ATOM     86  C   UNL A   1      39.521  27.816  32.266  1.00  0.00    -0.034 C 
ATOM     87  C   UNL A   1      40.084  27.746  27.531  1.00  0.00    -0.036 A 
ATOM     88  N   UNL A   1      41.686  27.171  28.941  1.00  0.00    -0.354 N 
ATOM     89  C   UNL A   1      41.544  28.394  33.167  1.00  0.00     0.074 A 
ATOM     90  C   UNL A   1      40.216  27.887  33.404  1.00  0.00    -0.034 C 
ATOM     91  H   UNL A   1      38.583  27.422  32.099  1.00  0.00     0.065 H 
ATOM     92  C   UNL A   1      40.779  26.746  26.947  1.00  0.00    -0.036 A 
ATOM     93  H   UNL A   1      39.330  28.290  27.081  1.00  0.00     0.065 H 
ATOM     94  C   UNL A   1      41.862  26.357  27.831  1.00  0.00     0.049 A 
ATOM     95  H   UNL A   1      42.319  27.189  29.694  1.00  0.00     0.167 HD
ATOM     96  C   UNL A   1      42.699  28.293  33.883  1.00  0.00     0.037 A 
ATOM     97  H   UNL A   1      39.851  27.616  34.330  1.00  0.00     0.065 H 
ATOM     98  H   UNL A   1      40.574  26.327  26.026  1.00  0.00     0.065 H 
ATOM     99  C   UNL A   1      42.821  25.416  27.660  1.00  0.00     0.037 A 
ATOM    100  C   UNL A   1      43.747  29.077  33.278  1.00  0.00     0.049 A 
ATOM    101  C   UNL A   1      43.922  25.730  28.603  1.00  0.00     0.074 A 
ATOM    102  C   UNL A   1      43.921  30.418  32.999  1.00  0.00    -0.036 A 
ATOM    103  N   UNL A   1      44.691  28.421  32.527  1.00  0.00    -0.354 N 
ATOM    104  N   UNL A   1      44.696  26.772  28.497  1.00  0.00    -0.248 NA
ATOM    105  C   UNL A   1      43.885  25.107  29.917  1.00  0.00    -0.034 C 
ATOM    106  C   UNL A   1      44.596  30.448  31.741  1.00  0.00    -0.036 A 
ATOM    107  H   UNL A   1      43.627  31.224  33.573  1.00  0.00     0.065 H 
ATOM    108  C   UNL A   1      44.849  29.128  31.364  1.00  0.00     0.049 A 
ATOM    109  H   UNL A   1      45.167  27.596  32.777  1.00  0.00     0.167 HD
ATOM    110  C   UNL A   1      44.890  27.196  29.802  1.00  0.00     0.074 A 
ATOM    111  C   UNL A   1      44.457  26.076  30.634  1.00  0.00    -0.034 C 
ATOM    112  H   UNL A   1      43.522  24.186  30.208  1.00  0.00     0.065 H 
ATOM    113  H   UNL A   1      44.851  31.293  31.207  1.00  0.00     0.065 H 
ATOM    114  C   UNL A   1      45.113  28.513  30.086  1.00  0.00     0.037 A 
ATOM    115  H   UNL A   1      44.581  26.038  31.659  1.00  0.00     0.065 H 
BRANCH  96 116
ATOM    116  C   UNL A   1      43.000  27.217  34.906  1.00  0.00     0.064 A 
ATOM    117  C   UNL A   1      43.285  27.601  36.234  1.00  0.00     0.173 A 
ATOM    118  C   UNL A   1      43.330  25.885  34.581  1.00  0.00     0.173 A 
ATOM    119  F   UNL A   1      43.009  28.842  36.665  1.00  0.00    -0.203 F 
ATOM    120  C   UNL A   1      43.956  26.757  37.124  1.00  0.00     0.198 A 
ATOM    121  C   UNL A   1      43.953  25.027  35.489  1.00  0.00     0.198 A 
ATOM    122  F   UNL A   1      43.170  25.385  33.351  1.00  0.00    -0.203 F 
ATOM    123  F   UNL A   1      44.333  27.220  38.324  1.00  0.00    -0.200 F 
ATOM    124  C   UNL A   1      44.302  25.475  36.745  1.00  0.00     0.200 A 
ATOM    125  F   UNL A   1      44.288  23.789  35.099  1.00  0.00    -0.200 F 
ATOM    126  F   UNL A   1      45.008  24.688  37.567  1.00  0.00    -0.200 F 
ENDBRANCH  96 116
BRANCH  99 127
ATOM    127  C   UNL A   1      42.746  24.128  26.936  1.00  0.00     0.064 A 
ATOM    128  C   UNL A   1      43.326  23.977  25.666  1.00  0.00     0.173 A 
ATOM    129  C   UNL A   1      42.366  22.946  27.599  1.00  0.00     0.173 A 
ATOM    130  F   UNL A   1      43.752  25.053  24.987  1.00  0.00    -0.203 F 
ATOM    131  C   UNL A   1      43.548  22.716  25.106  1.00  0.00     0.198 A 
ATOM    132  C   UNL A   1      42.588  21.687  27.037  1.00  0.00     0.198 A 
ATOM    133  F   UNL A   1      41.869  22.984  28.843  1.00  0.00    -0.203 F 
ATOM    134  F   UNL A   1      44.168  22.608  23.923  1.00  0.00    -0.200 F 
ATOM    135  C   UNL A   1      43.191  21.571  25.799  1.00  0.00     0.200 A 
ATOM    136  F   UNL A   1      42.280  20.583  27.731  1.00  0.00    -0.200 F 
ATOM    137  F   UNL A   1      43.467  20.360  25.297  1.00  0.00    -0.200 F 
ENDBRANCH  99 127
BRANCH 114 138
ATOM    138  C   UNL A   1      45.427  29.435  28.940  1.00  0.00     0.064 A 
ATOM    139  C   UNL A   1      46.713  29.622  28.404  1.00  0.00     0.173 A 
ATOM    140  C   UNL A   1      44.357  30.045  28.272  1.00  0.00     0.173 A 
ATOM    141  F   UNL A   1      47.776  28.995  28.921  1.00  0.00    -0.203 F 
ATOM    142  C   UNL A   1      46.919  30.420  27.279  1.00  0.00     0.198 A 
ATOM    143  C   UNL A   1      44.560  30.809  27.126  1.00  0.00     0.198 A 
ATOM    144  F   UNL A   1      43.100  29.859  28.705  1.00  0.00    -0.203 F 
ATOM    145  F   UNL A   1      48.159  30.595  26.796  1.00  0.00    -0.200 F 
ATOM    146  C   UNL A   1      45.841  31.006  26.637  1.00  0.00     0.200 A 
ATOM    147  F   UNL A   1      43.510  31.333  26.481  1.00  0.00    -0.200 F 
ATOM    148  F   UNL A   1      46.033  31.740  25.532  1.00  0.00    -0.200 F 
ENDBRANCH 114 138
ENDBRANCH  79  82
ENDBRANCH  69  72
ENDBRANCH  65  68
ENDBRANCH  62  65
ENDBRANCH  59  62
ENDBRANCH   1  59
TORSDOF 18
ENDMDL
MODEL 10
REMARK VINA RESULT:     -11.1      4.915      9.718
REMARK SMILES CC1(C)Cc2c(-c3ccccc3)c(-c3ccc(Cl)cc3)c(CC(=O)NCCCCCCNC(=O)c3ccc(-c4c5nc(c(-c6c(F)c(F)c(F)c(F)c6F)c6ccc([nH]6)c(-c6c(F)c(F)c(F)c(F)c6F)c6nc(c(-c7c(F)c(F)c(F)c(F)c7F)c7ccc4[nH]7)C=C6)C=C5)cc3)n2C1
REMARK SMILES IDX 28 1 27 4 26 7 25 10 23 11 24 12 22 14 21 17 2 18 4 19 99 20
REMARK SMILES IDX 5 21 98 24 6 27 13 28 1 29 3 33 7 37 8 38 12 39 9 40 11 42
REMARK SMILES IDX 10 44 14 48 15 49 20 50 16 51 19 53 17 55 18 58 29 59 30 62
REMARK SMILES IDX 31 65 32 68 33 69 34 71 35 72 36 73 97 74 37 75 96 77 38 79
REMARK SMILES IDX 39 82 40 83 90 84 41 85 95 86 89 87 91 88 42 89 94 90 88 92
REMARK SMILES IDX 87 94 43 96 75 99 55 100 74 101 56 102 59 103 73 104 92 105
REMARK SMILES IDX 57 106 58 108 72 110 93 111 60 114 44 116 45 117 53 118
REMARK SMILES IDX 46 119 47 120 51 121 54 122 48 123 49 124 52 125 50 126
REMARK SMILES IDX 76 127 77 128 85 129 78 130 79 131 83 132 86 133 80 134
REMARK SMILES IDX 81 135 84 136 82 137 61 138 62 139 70 140 63 141 64 142
REMARK SMILES IDX 68 143 71 144 65 145 66 146 69 147 67 148
REMARK H PARENT 28 2 28 3 27 5 27 6 26 8 26 9 25 13 22 15 22 16 4 22 4 23
REMARK H PARENT 99 25 99 26 1 30 1 31 1 32 3 34 3 35 3 36 8 41 12 43 9 45
REMARK H PARENT 11 46 10 47 15 52 20 54 16 56 19 57 29 60 29 61 30 63 30 64
REMARK H PARENT 31 66 31 67 32 70 36 76 97 78 37 80 96 81 95 91 89 93 91 95
REMARK H PARENT 94 97 88 98 56 107 59 109 92 112 57 113 93 115
REMARK Flexibility Score: inf
ROOT
ATOM      1  C   UNL A   1      44.829  25.914  26.529  1.00  0.00    -0.052 C 
ATOM      2  H   UNL A   1      45.302  26.178  25.606  1.00  0.00     0.027 H 
ATOM      3  H   UNL A   1      43.762  25.985  26.503  1.00  0.00     0.027 H 
ENDROOT
BRANCH   1   4
ATOM      4  C   UNL A   1      45.291  26.909  27.597  1.00  0.00    -0.036 C 
ATOM      5  H   UNL A   1      46.354  27.003  27.527  1.00  0.00     0.028 H 
ATOM      6  H   UNL A   1      44.775  27.825  27.399  1.00  0.00     0.028 H 
BRANCH   4   7
ATOM      7  C   UNL A   1      44.939  26.513  29.028  1.00  0.00     0.017 C 
ATOM      8  H   UNL A   1      44.383  27.310  29.477  1.00  0.00     0.049 H 
ATOM      9  H   UNL A   1      44.369  25.609  28.983  1.00  0.00     0.049 H 
BRANCH   7  10
ATOM     10  N   UNL A   1      46.106  26.252  29.837  1.00  0.00    -0.356 N 
ATOM     11  C   UNL A   1      46.265  26.386  31.187  1.00  0.00     0.225 C 
ATOM     12  O   UNL A   1      47.341  26.024  31.671  1.00  0.00    -0.275 OA
ATOM     13  H   UNL A   1      46.898  25.934  29.347  1.00  0.00     0.163 HD
BRANCH  11  14
ATOM     14  C   UNL A   1      45.127  26.880  32.069  1.00  0.00     0.068 C 
ATOM     15  H   UNL A   1      45.049  27.942  31.952  1.00  0.00     0.043 H 
ATOM     16  H   UNL A   1      44.247  26.360  31.754  1.00  0.00     0.043 H 
BRANCH  14  17
ATOM     17  C   UNL A   1      45.303  26.581  33.530  1.00  0.00     0.036 A 
ATOM     18  C   UNL A   1      43.986  23.389  34.867  1.00  0.00    -0.012 C 
ATOM     19  C   UNL A   1      44.909  23.990  35.976  1.00  0.00    -0.005 C 
ATOM     20  C   UNL A   1      44.437  24.113  33.564  1.00  0.00     0.028 C 
ATOM     21  C   UNL A   1      45.274  25.305  35.399  1.00  0.00     0.027 A 
ATOM     22  H   UNL A   1      45.775  23.381  36.132  1.00  0.00     0.034 H 
ATOM     23  H   UNL A   1      44.441  24.056  36.936  1.00  0.00     0.034 H 
ATOM     24  N   UNL A   1      45.003  25.361  34.064  1.00  0.00    -0.346 N 
ATOM     25  H   UNL A   1      43.605  24.299  32.918  1.00  0.00     0.050 H 
ATOM     26  H   UNL A   1      45.128  23.540  32.980  1.00  0.00     0.050 H 
ATOM     27  C   UNL A   1      45.786  26.515  35.781  1.00  0.00     0.011 A 
ATOM     28  C   UNL A   1      45.827  27.329  34.591  1.00  0.00     0.011 A 
BRANCH  18  29
ATOM     29  C   UNL A   1      44.153  21.875  34.748  1.00  0.00    -0.058 C 
ATOM     30  H   UNL A   1      43.724  21.540  33.827  1.00  0.00     0.024 H 
ATOM     31  H   UNL A   1      43.659  21.396  35.567  1.00  0.00     0.024 H 
ATOM     32  H   UNL A   1      45.194  21.628  34.767  1.00  0.00     0.024 H 
ENDBRANCH  18  29
BRANCH  18  33
ATOM     33  C   UNL A   1      42.513  23.702  35.194  1.00  0.00    -0.058 C 
ATOM     34  H   UNL A   1      41.877  23.056  34.626  1.00  0.00     0.024 H 
ATOM     35  H   UNL A   1      42.301  24.720  34.945  1.00  0.00     0.024 H 
ATOM     36  H   UNL A   1      42.339  23.546  36.238  1.00  0.00     0.024 H 
ENDBRANCH  18  33
BRANCH  27  37
ATOM     37  C   UNL A   1      46.170  26.854  37.136  1.00  0.00    -0.016 A 
ATOM     38  C   UNL A   1      47.516  26.872  37.515  1.00  0.00    -0.054 A 
ATOM     39  C   UNL A   1      45.187  27.235  38.057  1.00  0.00    -0.054 A 
ATOM     40  C   UNL A   1      47.871  27.279  38.801  1.00  0.00    -0.062 A 
ATOM     41  H   UNL A   1      48.245  26.584  36.844  1.00  0.00     0.063 H 
ATOM     42  C   UNL A   1      45.543  27.642  39.341  1.00  0.00    -0.062 A 
ATOM     43  H   UNL A   1      44.192  27.214  37.783  1.00  0.00     0.063 H 
ATOM     44  C   UNL A   1      46.886  27.668  39.710  1.00  0.00    -0.062 A 
ATOM     45  H   UNL A   1      48.865  27.292  39.081  1.00  0.00     0.062 H 
ATOM     46  H   UNL A   1      44.815  27.923  40.016  1.00  0.00     0.062 H 
ATOM     47  H   UNL A   1      47.154  27.975  40.659  1.00  0.00     0.062 H 
ENDBRANCH  27  37
BRANCH  28  48
ATOM     48  C   UNL A   1      46.353  28.687  34.510  1.00  0.00    -0.016 A 
ATOM     49  C   UNL A   1      45.613  29.745  35.058  1.00  0.00    -0.053 A 
ATOM     50  C   UNL A   1      47.491  28.977  33.751  1.00  0.00    -0.053 A 
ATOM     51  C   UNL A   1      46.003  31.071  34.844  1.00  0.00    -0.043 A 
ATOM     52  H   UNL A   1      44.774  29.544  35.624  1.00  0.00     0.063 H 
ATOM     53  C   UNL A   1      47.895  30.301  33.554  1.00  0.00    -0.043 A 
ATOM     54  H   UNL A   1      48.037  28.208  33.331  1.00  0.00     0.063 H 
ATOM     55  C   UNL A   1      47.143  31.343  34.093  1.00  0.00     0.041 A 
ATOM     56  H   UNL A   1      45.448  31.845  35.242  1.00  0.00     0.064 H 
ATOM     57  H   UNL A   1      48.749  30.506  33.012  1.00  0.00     0.064 H 
ATOM     58  Cl  UNL A   1      47.607  32.973  33.796  1.00  0.00    -0.084 Cl
ENDBRANCH  28  48
ENDBRANCH  14  17
ENDBRANCH  11  14
ENDBRANCH   7  10
ENDBRANCH   4   7
ENDBRANCH   1   4
BRANCH   1  59
ATOM     59  C   UNL A   1      45.145  24.437  26.816  1.00  0.00    -0.052 C 
ATOM     60  H   UNL A   1      44.559  24.137  27.658  1.00  0.00     0.027 H 
ATOM     61  H   UNL A   1      46.203  24.400  26.975  1.00  0.00     0.027 H 
BRANCH  59  62
ATOM     62  C   UNL A   1      44.868  23.445  25.676  1.00  0.00    -0.036 C 
ATOM     63  H   UNL A   1      44.762  22.467  26.098  1.00  0.00     0.028 H 
ATOM     64  H   UNL A   1      45.693  23.512  24.998  1.00  0.00     0.028 H 
BRANCH  62  65
ATOM     65  C   UNL A   1      43.614  23.761  24.877  1.00  0.00     0.018 C 
ATOM     66  H   UNL A   1      43.854  23.733  23.835  1.00  0.00     0.049 H 
ATOM     67  H   UNL A   1      43.271  24.730  25.173  1.00  0.00     0.049 H 
BRANCH  65  68
ATOM     68  N   UNL A   1      42.541  22.809  25.136  1.00  0.00    -0.352 N 
ATOM     69  C   UNL A   1      41.580  22.850  26.125  1.00  0.00     0.251 C 
ATOM     70  H   UNL A   1      42.495  22.037  24.527  1.00  0.00     0.163 HD
ATOM     71  O   UNL A   1      40.967  21.845  26.448  1.00  0.00    -0.269 OA
BRANCH  69  72
ATOM     72  C   UNL A   1      41.315  24.132  26.804  1.00  0.00     0.039 A 
ATOM     73  C   UNL A   1      41.795  24.356  28.097  1.00  0.00    -0.049 A 
ATOM     74  C   UNL A   1      40.591  25.116  26.134  1.00  0.00    -0.049 A 
ATOM     75  C   UNL A   1      41.608  25.607  28.675  1.00  0.00    -0.053 A 
ATOM     76  H   UNL A   1      42.280  23.605  28.613  1.00  0.00     0.063 H 
ATOM     77  C   UNL A   1      40.514  26.387  26.654  1.00  0.00    -0.053 A 
ATOM     78  H   UNL A   1      40.111  24.891  25.248  1.00  0.00     0.063 H 
ATOM     79  C   UNL A   1      40.987  26.630  27.939  1.00  0.00    -0.014 A 
ATOM     80  H   UNL A   1      41.924  25.783  29.642  1.00  0.00     0.063 H 
ATOM     81  H   UNL A   1      40.110  27.155  26.095  1.00  0.00     0.063 H 
BRANCH  79  82
ATOM     82  C   UNL A   1      40.930  27.985  28.483  1.00  0.00     0.031 A 
ATOM     83  C   UNL A   1      41.984  28.912  27.982  1.00  0.00     0.074 A 
ATOM     84  C   UNL A   1      39.913  28.450  29.236  1.00  0.00     0.049 A 
ATOM     85  N   UNL A   1      42.930  29.476  28.659  1.00  0.00    -0.248 NA
ATOM     86  C   UNL A   1      42.058  29.165  26.534  1.00  0.00    -0.034 C 
ATOM     87  C   UNL A   1      38.642  27.798  29.568  1.00  0.00    -0.036 A 
ATOM     88  N   UNL A   1      39.775  29.682  29.802  1.00  0.00    -0.354 N 
ATOM     89  C   UNL A   1      43.629  30.284  27.764  1.00  0.00     0.074 A 
ATOM     90  C   UNL A   1      43.137  29.946  26.453  1.00  0.00    -0.034 C 
ATOM     91  H   UNL A   1      41.439  28.827  25.781  1.00  0.00     0.065 H 
ATOM     92  C   UNL A   1      37.785  28.710  30.077  1.00  0.00    -0.036 A 
ATOM     93  H   UNL A   1      38.434  26.796  29.433  1.00  0.00     0.065 H 
ATOM     94  C   UNL A   1      38.500  29.958  30.274  1.00  0.00     0.049 A 
ATOM     95  H   UNL A   1      40.519  30.323  29.870  1.00  0.00     0.167 HD
ATOM     96  C   UNL A   1      44.414  31.307  28.206  1.00  0.00     0.037 A 
ATOM     97  H   UNL A   1      43.562  30.266  25.568  1.00  0.00     0.065 H 
ATOM     98  H   UNL A   1      36.789  28.548  30.291  1.00  0.00     0.065 H 
ATOM     99  C   UNL A   1      38.058  31.137  30.774  1.00  0.00     0.037 A 
ATOM    100  C   UNL A   1      44.726  31.146  29.605  1.00  0.00     0.049 A 
ATOM    101  C   UNL A   1      39.250  31.914  31.191  1.00  0.00     0.074 A 
ATOM    102  C   UNL A   1      45.383  30.187  30.350  1.00  0.00    -0.036 A 
ATOM    103  N   UNL A   1      44.022  31.898  30.513  1.00  0.00    -0.354 N 
ATOM    104  N   UNL A   1      40.017  31.590  32.193  1.00  0.00    -0.248 NA
ATOM    105  C   UNL A   1      39.839  32.823  30.220  1.00  0.00    -0.034 C 
ATOM    106  C   UNL A   1      44.648  30.101  31.571  1.00  0.00    -0.036 A 
ATOM    107  H   UNL A   1      46.223  29.649  30.084  1.00  0.00     0.065 H 
ATOM    108  C   UNL A   1      43.630  31.056  31.521  1.00  0.00     0.049 A 
ATOM    109  H   UNL A   1      43.834  32.862  30.453  1.00  0.00     0.167 HD
ATOM    110  C   UNL A   1      41.300  31.884  31.759  1.00  0.00     0.074 A 
ATOM    111  C   UNL A   1      41.119  32.735  30.586  1.00  0.00    -0.034 C 
ATOM    112  H   UNL A   1      39.395  33.374  29.468  1.00  0.00     0.065 H 
ATOM    113  H   UNL A   1      44.834  29.452  32.350  1.00  0.00     0.065 H 
ATOM    114  C   UNL A   1      42.375  31.180  32.221  1.00  0.00     0.037 A 
ATOM    115  H   UNL A   1      41.893  33.215  30.097  1.00  0.00     0.065 H 
BRANCH  96 116
ATOM    116  C   UNL A   1      44.601  32.633  27.498  1.00  0.00     0.064 A 
ATOM    117  C   UNL A   1      45.760  32.829  26.715  1.00  0.00     0.173 A 
ATOM    118  C   UNL A   1      43.876  33.804  27.803  1.00  0.00     0.173 A 
ATOM    119  F   UNL A   1      46.529  31.790  26.354  1.00  0.00    -0.203 F 
ATOM    120  C   UNL A   1      46.217  34.105  26.371  1.00  0.00     0.198 A 
ATOM    121  C   UNL A   1      44.308  35.072  27.413  1.00  0.00     0.198 A 
ATOM    122  F   UNL A   1      42.786  33.792  28.577  1.00  0.00    -0.203 F 
ATOM    123  F   UNL A   1      47.398  34.244  25.754  1.00  0.00    -0.200 F 
ATOM    124  C   UNL A   1      45.497  35.226  26.732  1.00  0.00     0.200 A 
ATOM    125  F   UNL A   1      43.599  36.149  27.781  1.00  0.00    -0.200 F 
ATOM    126  F   UNL A   1      45.967  36.452  26.470  1.00  0.00    -0.200 F 
ENDBRANCH  96 116
BRANCH  99 127
ATOM    127  C   UNL A   1      36.713  31.745  30.679  1.00  0.00     0.064 A 
ATOM    128  C   UNL A   1      35.926  31.943  31.825  1.00  0.00     0.173 A 
ATOM    129  C   UNL A   1      36.301  32.412  29.510  1.00  0.00     0.173 A 
ATOM    130  F   UNL A   1      36.276  31.375  32.989  1.00  0.00    -0.203 F 
ATOM    131  C   UNL A   1      34.812  32.787  31.813  1.00  0.00     0.198 A 
ATOM    132  C   UNL A   1      35.187  33.253  29.500  1.00  0.00     0.198 A 
ATOM    133  F   UNL A   1      37.026  32.340  28.385  1.00  0.00    -0.203 F 
ATOM    134  F   UNL A   1      34.126  33.007  32.943  1.00  0.00    -0.200 F 
ATOM    135  C   UNL A   1      34.452  33.452  30.653  1.00  0.00     0.200 A 
ATOM    136  F   UNL A   1      34.870  33.928  28.386  1.00  0.00    -0.200 F 
ATOM    137  F   UNL A   1      33.428  34.317  30.656  1.00  0.00    -0.200 F 
ENDBRANCH  99 127
BRANCH 114 138
ATOM    138  C   UNL A   1      42.169  30.284  33.411  1.00  0.00     0.064 A 
ATOM    139  C   UNL A   1      42.003  28.890  33.334  1.00  0.00     0.173 A 
ATOM    140  C   UNL A   1      42.285  30.848  34.688  1.00  0.00     0.173 A 
ATOM    141  F   UNL A   1      41.984  28.260  32.154  1.00  0.00    -0.203 F 
ATOM    142  C   UNL A   1      41.911  28.108  34.484  1.00  0.00     0.198 A 
ATOM    143  C   UNL A   1      42.232  30.061  35.835  1.00  0.00     0.198 A 
ATOM    144  F   UNL A   1      42.498  32.167  34.825  1.00  0.00    -0.203 F 
ATOM    145  F   UNL A   1      41.737  26.781  34.384  1.00  0.00    -0.200 F 
ATOM    146  C   UNL A   1      42.034  28.693  35.734  1.00  0.00     0.200 A 
ATOM    147  F   UNL A   1      42.400  30.625  37.038  1.00  0.00    -0.200 F 
ATOM    148  F   UNL A   1      41.987  27.937  36.839  1.00  0.00    -0.200 F 
ENDBRANCH 114 138
ENDBRANCH  79  82
ENDBRANCH  69  72
ENDBRANCH  65  68
ENDBRANCH  62  65
ENDBRANCH  59  62
ENDBRANCH   1  59
TORSDOF 18
ENDMDL
