MODEL 1
REMARK VINA RESULT:     -12.6      0.000      0.000
REMARK SMILES COc1ccc2c(c1)c(CC(=O)NCCCCCCNC(=O)c1ccc(-c3c4nc(c(-c5c(F)c(F)c(F)c(F)c5F)c5ccc([nH]5)c(-c5c(F)c(F)c(F)c(F)c5F)c5nc(c(-c6c(F)c(F)c(F)c(F)c6F)c6ccc3[nH]6)C=C5)C=C4)cc1)c(C)n2Cc1ccn(C(F)F)c(=O)c1
REMARK SMILES IDX 15 1 14 4 13 7 11 8 12 9 10 11 9 14 3 15 4 16 8 17 5 18 7 20
REMARK SMILES IDX 6 22 88 24 86 25 2 26 1 27 89 31 90 34 91 35 99 36 92 37
REMARK SMILES IDX 97 39 93 41 98 43 94 44 95 45 96 46 87 48 16 52 17 55 18 58
REMARK SMILES IDX 19 61 20 64 21 65 22 67 23 68 24 69 85 70 25 71 84 73 26 75
REMARK SMILES IDX 27 78 28 79 78 80 29 81 83 82 77 83 79 84 30 85 82 86 76 88
REMARK SMILES IDX 75 90 31 92 63 95 43 96 62 97 44 98 47 99 61 100 80 101
REMARK SMILES IDX 45 102 46 104 60 106 81 107 48 110 32 112 33 113 41 114
REMARK SMILES IDX 34 115 35 116 39 117 42 118 36 119 37 120 40 121 38 122
REMARK SMILES IDX 64 123 65 124 73 125 66 126 67 127 71 128 74 129 68 130
REMARK SMILES IDX 69 131 72 132 70 133 49 134 50 135 58 136 51 137 52 138
REMARK SMILES IDX 56 139 59 140 53 141 54 142 57 143 55 144
REMARK H PARENT 15 2 15 3 14 5 14 6 13 10 10 12 10 13 4 19 8 21 5 23 1 28 1 29
REMARK H PARENT 1 30 89 32 89 33 91 38 99 40 92 42 94 47 87 49 87 50 87 51
REMARK H PARENT 16 53 16 54 17 56 17 57 18 59 18 60 19 62 19 63 20 66 24 72
REMARK H PARENT 85 74 25 76 84 77 83 87 77 89 79 91 82 93 76 94 44 103 47 105
REMARK H PARENT 80 108 45 109 81 111
REMARK Flexibility Score: inf
ROOT
ATOM      1  C   UNL A   1      33.961  31.985  27.664  1.00  0.00    -0.036 C 
ATOM      2  H   UNL A   1      33.205  32.049  28.419  1.00  0.00     0.028 H 
ATOM      3  H   UNL A   1      33.673  32.477  26.760  1.00  0.00     0.028 H 
ENDROOT
BRANCH   1   4
ATOM      4  C   UNL A   1      34.183  30.511  27.326  1.00  0.00     0.017 C 
ATOM      5  H   UNL A   1      34.239  30.402  26.263  1.00  0.00     0.049 H 
ATOM      6  H   UNL A   1      35.095  30.194  27.788  1.00  0.00     0.049 H 
BRANCH   4   7
ATOM      7  N   UNL A   1      33.105  29.684  27.828  1.00  0.00    -0.356 N 
ATOM      8  C   UNL A   1      32.770  28.401  27.503  1.00  0.00     0.224 C 
ATOM      9  O   UNL A   1      31.757  27.919  28.018  1.00  0.00    -0.275 OA
ATOM     10  H   UNL A   1      32.528  30.110  28.505  1.00  0.00     0.163 HD
BRANCH   8  11
ATOM     11  C   UNL A   1      33.673  27.563  26.610  1.00  0.00     0.054 C 
ATOM     12  H   UNL A   1      34.459  28.190  26.244  1.00  0.00     0.042 H 
ATOM     13  H   UNL A   1      34.038  26.754  27.207  1.00  0.00     0.042 H 
BRANCH  11  14
ATOM     14  C   UNL A   1      32.967  26.956  25.435  1.00  0.00    -0.010 A 
ATOM     15  C   UNL A   1      32.014  23.281  25.801  1.00  0.00     0.119 A 
ATOM     16  C   UNL A   1      31.349  23.175  24.585  1.00  0.00    -0.018 A 
ATOM     17  C   UNL A   1      32.551  24.505  26.199  1.00  0.00    -0.010 A 
ATOM     18  C   UNL A   1      31.222  24.285  23.731  1.00  0.00    -0.034 A 
ATOM     19  H   UNL A   1      30.942  22.269  24.305  1.00  0.00     0.066 H 
ATOM     20  C   UNL A   1      32.476  25.622  25.340  1.00  0.00     0.007 A 
ATOM     21  H   UNL A   1      33.003  24.594  27.123  1.00  0.00     0.067 H 
ATOM     22  C   UNL A   1      31.805  25.505  24.120  1.00  0.00     0.049 A 
ATOM     23  H   UNL A   1      30.712  24.205  22.838  1.00  0.00     0.065 H 
ATOM     24  N   UNL A   1      31.855  26.753  23.508  1.00  0.00    -0.340 N 
ATOM     25  C   UNL A   1      32.731  27.565  24.210  1.00  0.00     0.020 A 
BRANCH  15  26
ATOM     26  O   UNL A   1      32.128  22.262  26.708  1.00  0.00    -0.497 OA
BRANCH  26  27
ATOM     27  C   UNL A   1      33.456  21.781  26.892  1.00  0.00     0.078 C 
ATOM     28  H   UNL A   1      34.151  22.504  26.519  1.00  0.00     0.067 H 
ATOM     29  H   UNL A   1      33.579  20.861  26.359  1.00  0.00     0.067 H 
ATOM     30  H   UNL A   1      33.635  21.618  27.933  1.00  0.00     0.067 H 
ENDBRANCH  26  27
ENDBRANCH  15  26
BRANCH  24  31
ATOM     31  C   UNL A   1      31.156  27.106  22.264  1.00  0.00     0.048 C 
ATOM     32  H   UNL A   1      30.659  26.231  21.899  1.00  0.00     0.055 H 
ATOM     33  H   UNL A   1      31.900  27.476  21.590  1.00  0.00     0.055 H 
BRANCH  31  34
ATOM     34  C   UNL A   1      30.122  28.211  22.414  1.00  0.00    -0.021 A 
ATOM     35  C   UNL A   1      30.420  29.538  21.909  1.00  0.00    -0.040 A 
ATOM     36  C   UNL A   1      28.889  27.990  22.908  1.00  0.00     0.009 A 
ATOM     37  C   UNL A   1      29.545  30.542  22.033  1.00  0.00     0.013 A 
ATOM     38  H   UNL A   1      31.324  29.710  21.444  1.00  0.00     0.064 H 
ATOM     39  C   UNL A   1      27.866  29.082  22.986  1.00  0.00     0.255 A 
ATOM     40  H   UNL A   1      28.644  27.045  23.244  1.00  0.00     0.068 H 
ATOM     41  N   UNL A   1      28.300  30.342  22.594  1.00  0.00    -0.258 N 
ATOM     42  H   UNL A   1      29.806  31.485  21.704  1.00  0.00     0.082 H 
ATOM     43  O   UNL A   1      26.745  28.804  23.380  1.00  0.00    -0.269 OA
BRANCH  41  44
ATOM     44  C   UNL A   1      27.344  31.423  22.592  1.00  0.00     0.321 C 
ATOM     45  F   UNL A   1      27.100  31.847  23.855  1.00  0.00    -0.185 F 
ATOM     46  F   UNL A   1      27.760  32.489  21.871  1.00  0.00    -0.185 F 
ATOM     47  H   UNL A   1      26.457  31.028  22.144  1.00  0.00     0.131 H 
ENDBRANCH  41  44
ENDBRANCH  31  34
ENDBRANCH  24  31
BRANCH  25  48
ATOM     48  C   UNL A   1      33.260  28.876  23.738  1.00  0.00    -0.024 C 
ATOM     49  H   UNL A   1      32.447  29.494  23.419  1.00  0.00     0.030 H 
ATOM     50  H   UNL A   1      33.929  28.716  22.919  1.00  0.00     0.030 H 
ATOM     51  H   UNL A   1      33.783  29.359  24.537  1.00  0.00     0.030 H 
ENDBRANCH  25  48
ENDBRANCH  11  14
ENDBRANCH   8  11
ENDBRANCH   4   7
ENDBRANCH   1   4
BRANCH   1  52
ATOM     52  C   UNL A   1      35.222  32.692  28.180  1.00  0.00    -0.052 C 
ATOM     53  H   UNL A   1      35.989  32.584  27.441  1.00  0.00     0.027 H 
ATOM     54  H   UNL A   1      35.465  32.229  29.113  1.00  0.00     0.027 H 
BRANCH  52  55
ATOM     55  C   UNL A   1      35.049  34.188  28.473  1.00  0.00    -0.052 C 
ATOM     56  H   UNL A   1      35.499  34.738  27.674  1.00  0.00     0.027 H 
ATOM     57  H   UNL A   1      35.513  34.365  29.421  1.00  0.00     0.027 H 
BRANCH  55  58
ATOM     58  C   UNL A   1      33.594  34.651  28.612  1.00  0.00    -0.036 C 
ATOM     59  H   UNL A   1      32.998  33.813  28.904  1.00  0.00     0.028 H 
ATOM     60  H   UNL A   1      33.297  35.047  27.662  1.00  0.00     0.028 H 
BRANCH  58  61
ATOM     61  C   UNL A   1      33.408  35.762  29.641  1.00  0.00     0.018 C 
ATOM     62  H   UNL A   1      32.778  36.516  29.213  1.00  0.00     0.049 H 
ATOM     63  H   UNL A   1      34.383  36.132  29.880  1.00  0.00     0.049 H 
BRANCH  61  64
ATOM     64  N   UNL A   1      32.810  35.319  30.879  1.00  0.00    -0.352 N 
ATOM     65  C   UNL A   1      33.288  34.745  32.021  1.00  0.00     0.251 C 
ATOM     66  H   UNL A   1      31.836  35.462  30.903  1.00  0.00     0.163 HD
ATOM     67  O   UNL A   1      32.498  34.666  32.966  1.00  0.00    -0.269 OA
BRANCH  65  68
ATOM     68  C   UNL A   1      34.630  34.119  32.165  1.00  0.00     0.039 A 
ATOM     69  C   UNL A   1      35.841  34.794  32.321  1.00  0.00    -0.049 A 
ATOM     70  C   UNL A   1      34.655  32.718  32.035  1.00  0.00    -0.049 A 
ATOM     71  C   UNL A   1      37.045  34.117  32.177  1.00  0.00    -0.053 A 
ATOM     72  H   UNL A   1      35.842  35.802  32.545  1.00  0.00     0.063 H 
ATOM     73  C   UNL A   1      35.852  32.031  31.924  1.00  0.00    -0.053 A 
ATOM     74  H   UNL A   1      33.766  32.194  32.021  1.00  0.00     0.063 H 
ATOM     75  C   UNL A   1      37.043  32.748  31.913  1.00  0.00    -0.014 A 
ATOM     76  H   UNL A   1      37.939  34.626  32.266  1.00  0.00     0.063 H 
ATOM     77  H   UNL A   1      35.861  31.001  31.852  1.00  0.00     0.063 H 
BRANCH  75  78
ATOM     78  C   UNL A   1      38.323  32.084  31.700  1.00  0.00     0.031 A 
ATOM     79  C   UNL A   1      39.165  31.948  32.924  1.00  0.00     0.074 A 
ATOM     80  C   UNL A   1      38.656  31.548  30.508  1.00  0.00     0.049 A 
ATOM     81  N   UNL A   1      40.371  32.376  33.118  1.00  0.00    -0.248 NA
ATOM     82  C   UNL A   1      38.539  31.370  34.127  1.00  0.00    -0.034 C 
ATOM     83  C   UNL A   1      37.827  31.416  29.306  1.00  0.00    -0.036 A 
ATOM     84  N   UNL A   1      39.804  30.912  30.144  1.00  0.00    -0.354 N 
ATOM     85  C   UNL A   1      40.719  31.981  34.409  1.00  0.00     0.074 A 
ATOM     86  C   UNL A   1      39.519  31.480  35.024  1.00  0.00    -0.034 C 
ATOM     87  H   UNL A   1      37.591  30.981  34.243  1.00  0.00     0.065 H 
ATOM     88  C   UNL A   1      38.402  30.533  28.457  1.00  0.00    -0.036 A 
ATOM     89  H   UNL A   1      36.942  31.917  29.135  1.00  0.00     0.065 H 
ATOM     90  C   UNL A   1      39.696  30.148  28.988  1.00  0.00     0.049 A 
ATOM     91  H   UNL A   1      40.640  30.986  30.659  1.00  0.00     0.167 HD
ATOM     92  C   UNL A   1      42.017  31.919  34.815  1.00  0.00     0.037 A 
ATOM     93  H   UNL A   1      39.428  31.240  36.024  1.00  0.00     0.065 H 
ATOM     94  H   UNL A   1      37.988  30.190  27.576  1.00  0.00     0.065 H 
ATOM     95  C   UNL A   1      40.583  29.217  28.552  1.00  0.00     0.037 A 
ATOM     96  C   UNL A   1      42.874  32.702  33.969  1.00  0.00     0.049 A 
ATOM     97  C   UNL A   1      41.873  29.480  29.239  1.00  0.00     0.074 A 
ATOM     98  C   UNL A   1      42.978  34.050  33.689  1.00  0.00    -0.036 A 
ATOM     99  N   UNL A   1      43.575  32.058  32.982  1.00  0.00    -0.354 N 
ATOM    100  N   UNL A   1      42.610  30.532  29.006  1.00  0.00    -0.248 NA
ATOM    101  C   UNL A   1      42.092  28.831  30.524  1.00  0.00    -0.034 C 
ATOM    102  C   UNL A   1      43.295  34.111  32.302  1.00  0.00    -0.036 A 
ATOM    103  H   UNL A   1      42.854  34.840  34.341  1.00  0.00     0.065 H 
ATOM    104  C   UNL A   1      43.432  32.802  31.839  1.00  0.00     0.049 A 
ATOM    105  H   UNL A   1      44.086  31.221  33.076  1.00  0.00     0.167 HD
ATOM    106  C   UNL A   1      43.063  30.925  30.257  1.00  0.00     0.074 A 
ATOM    107  C   UNL A   1      42.763  29.803  31.146  1.00  0.00    -0.034 C 
ATOM    108  H   UNL A   1      41.811  27.894  30.855  1.00  0.00     0.065 H 
ATOM    109  H   UNL A   1      43.403  34.969  31.740  1.00  0.00     0.065 H 
ATOM    110  C   UNL A   1      43.371  32.228  30.518  1.00  0.00     0.037 A 
ATOM    111  H   UNL A   1      43.037  29.769  32.140  1.00  0.00     0.065 H 
BRANCH  92 112
ATOM    112  C   UNL A   1      42.559  30.891  35.772  1.00  0.00     0.064 A 
ATOM    113  C   UNL A   1      43.335  31.305  36.874  1.00  0.00     0.173 A 
ATOM    114  C   UNL A   1      42.603  29.512  35.476  1.00  0.00     0.173 A 
ATOM    115  F   UNL A   1      43.386  32.597  37.228  1.00  0.00    -0.203 F 
ATOM    116  C   UNL A   1      44.149  30.411  37.577  1.00  0.00     0.198 A 
ATOM    117  C   UNL A   1      43.375  28.616  36.213  1.00  0.00     0.198 A 
ATOM    118  F   UNL A   1      41.995  29.000  34.398  1.00  0.00    -0.203 F 
ATOM    119  F   UNL A   1      44.962  30.868  38.540  1.00  0.00    -0.200 F 
ATOM    120  C   UNL A   1      44.171  29.070  37.242  1.00  0.00     0.200 A 
ATOM    121  F   UNL A   1      43.403  27.324  35.858  1.00  0.00    -0.200 F 
ATOM    122  F   UNL A   1      44.996  28.224  37.875  1.00  0.00    -0.200 F 
ENDBRANCH  92 112
BRANCH  95 123
ATOM    123  C   UNL A   1      40.297  27.934  27.863  1.00  0.00     0.064 A 
ATOM    124  C   UNL A   1      40.958  27.577  26.676  1.00  0.00     0.173 A 
ATOM    125  C   UNL A   1      39.568  26.910  28.502  1.00  0.00     0.173 A 
ATOM    126  F   UNL A   1      41.718  28.475  26.032  1.00  0.00    -0.203 F 
ATOM    127  C   UNL A   1      40.905  26.272  26.168  1.00  0.00     0.198 A 
ATOM    128  C   UNL A   1      39.512  25.612  27.991  1.00  0.00     0.198 A 
ATOM    129  F   UNL A   1      38.975  27.124  29.685  1.00  0.00    -0.203 F 
ATOM    130  F   UNL A   1      41.596  25.956  25.063  1.00  0.00    -0.200 F 
ATOM    131  C   UNL A   1      40.190  25.289  26.832  1.00  0.00     0.200 A 
ATOM    132  F   UNL A   1      38.849  24.661  28.666  1.00  0.00    -0.200 F 
ATOM    133  F   UNL A   1      40.187  24.028  26.378  1.00  0.00    -0.200 F 
ENDBRANCH  95 123
BRANCH 110 134
ATOM    134  C   UNL A   1      43.404  33.193  29.368  1.00  0.00     0.064 A 
ATOM    135  C   UNL A   1      42.341  34.053  29.040  1.00  0.00     0.173 A 
ATOM    136  C   UNL A   1      44.622  33.391  28.704  1.00  0.00     0.173 A 
ATOM    137  F   UNL A   1      41.179  33.997  29.701  1.00  0.00    -0.203 F 
ATOM    138  C   UNL A   1      42.486  35.046  28.072  1.00  0.00     0.198 A 
ATOM    139  C   UNL A   1      44.775  34.407  27.764  1.00  0.00     0.198 A 
ATOM    140  F   UNL A   1      45.689  32.640  29.019  1.00  0.00    -0.203 F 
ATOM    141  F   UNL A   1      41.460  35.860  27.784  1.00  0.00    -0.200 F 
ATOM    142  C   UNL A   1      43.706  35.229  27.444  1.00  0.00     0.200 A 
ATOM    143  F   UNL A   1      45.972  34.616  27.201  1.00  0.00    -0.200 F 
ATOM    144  F   UNL A   1      43.865  36.222  26.557  1.00  0.00    -0.200 F 
ENDBRANCH 110 134
ENDBRANCH  75  78
ENDBRANCH  65  68
ENDBRANCH  61  64
ENDBRANCH  58  61
ENDBRANCH  55  58
ENDBRANCH  52  55
ENDBRANCH   1  52
TORSDOF 20
ENDMDL
MODEL 2
REMARK VINA RESULT:     -12.6      3.803      6.378
REMARK SMILES COc1ccc2c(c1)c(CC(=O)NCCCCCCNC(=O)c1ccc(-c3c4nc(c(-c5c(F)c(F)c(F)c(F)c5F)c5ccc([nH]5)c(-c5c(F)c(F)c(F)c(F)c5F)c5nc(c(-c6c(F)c(F)c(F)c(F)c6F)c6ccc3[nH]6)C=C5)C=C4)cc1)c(C)n2Cc1ccn(C(F)F)c(=O)c1
REMARK SMILES IDX 15 1 14 4 13 7 11 8 12 9 10 11 9 14 3 15 4 16 8 17 5 18 7 20
REMARK SMILES IDX 6 22 88 24 86 25 2 26 1 27 89 31 90 34 91 35 99 36 92 37
REMARK SMILES IDX 97 39 93 41 98 43 94 44 95 45 96 46 87 48 16 52 17 55 18 58
REMARK SMILES IDX 19 61 20 64 21 65 22 67 23 68 24 69 85 70 25 71 84 73 26 75
REMARK SMILES IDX 27 78 28 79 78 80 29 81 83 82 77 83 79 84 30 85 82 86 76 88
REMARK SMILES IDX 75 90 31 92 63 95 43 96 62 97 44 98 47 99 61 100 80 101
REMARK SMILES IDX 45 102 46 104 60 106 81 107 48 110 32 112 33 113 41 114
REMARK SMILES IDX 34 115 35 116 39 117 42 118 36 119 37 120 40 121 38 122
REMARK SMILES IDX 64 123 65 124 73 125 66 126 67 127 71 128 74 129 68 130
REMARK SMILES IDX 69 131 72 132 70 133 49 134 50 135 58 136 51 137 52 138
REMARK SMILES IDX 56 139 59 140 53 141 54 142 57 143 55 144
REMARK H PARENT 15 2 15 3 14 5 14 6 13 10 10 12 10 13 4 19 8 21 5 23 1 28 1 29
REMARK H PARENT 1 30 89 32 89 33 91 38 99 40 92 42 94 47 87 49 87 50 87 51
REMARK H PARENT 16 53 16 54 17 56 17 57 18 59 18 60 19 62 19 63 20 66 24 72
REMARK H PARENT 85 74 25 76 84 77 83 87 77 89 79 91 82 93 76 94 44 103 47 105
REMARK H PARENT 80 108 45 109 81 111
REMARK Flexibility Score: inf
ROOT
ATOM      1  C   UNL A   1      31.283  26.856  26.070  1.00  0.00    -0.036 C 
ATOM      2  H   UNL A   1      32.187  26.287  26.137  1.00  0.00     0.028 H 
ATOM      3  H   UNL A   1      31.134  27.482  26.925  1.00  0.00     0.028 H 
ENDROOT
BRANCH   1   4
ATOM      4  C   UNL A   1      30.104  25.885  26.012  1.00  0.00     0.017 C 
ATOM      5  H   UNL A   1      30.106  25.280  26.894  1.00  0.00     0.049 H 
ATOM      6  H   UNL A   1      29.201  26.456  25.946  1.00  0.00     0.049 H 
BRANCH   4   7
ATOM      7  N   UNL A   1      30.184  25.023  24.850  1.00  0.00    -0.356 N 
ATOM      8  C   UNL A   1      30.916  23.886  24.660  1.00  0.00     0.224 C 
ATOM      9  O   UNL A   1      30.876  23.350  23.549  1.00  0.00    -0.275 OA
ATOM     10  H   UNL A   1      29.630  25.298  24.083  1.00  0.00     0.163 HD
BRANCH   8  11
ATOM     11  C   UNL A   1      31.676  23.249  25.814  1.00  0.00     0.054 C 
ATOM     12  H   UNL A   1      31.863  24.002  26.550  1.00  0.00     0.042 H 
ATOM     13  H   UNL A   1      31.066  22.452  26.187  1.00  0.00     0.042 H 
BRANCH  11  14
ATOM     14  C   UNL A   1      32.987  22.643  25.414  1.00  0.00    -0.010 A 
ATOM     15  C   UNL A   1      33.035  18.839  25.139  1.00  0.00     0.119 A 
ATOM     16  C   UNL A   1      34.346  18.736  24.687  1.00  0.00    -0.018 A 
ATOM     17  C   UNL A   1      32.472  20.094  25.368  1.00  0.00    -0.010 A 
ATOM     18  C   UNL A   1      35.130  19.884  24.475  1.00  0.00    -0.034 A 
ATOM     19  H   UNL A   1      34.750  17.804  24.506  1.00  0.00     0.066 H 
ATOM     20  C   UNL A   1      33.252  21.259  25.206  1.00  0.00     0.007 A 
ATOM     21  H   UNL A   1      31.484  20.171  25.658  1.00  0.00     0.067 H 
ATOM     22  C   UNL A   1      34.569  21.144  24.751  1.00  0.00     0.049 A 
ATOM     23  H   UNL A   1      36.096  19.803  24.122  1.00  0.00     0.065 H 
ATOM     24  N   UNL A   1      35.077  22.435  24.649  1.00  0.00    -0.340 N 
ATOM     25  C   UNL A   1      34.189  23.317  25.243  1.00  0.00     0.020 A 
BRANCH  15  26
ATOM     26  O   UNL A   1      32.195  17.773  25.314  1.00  0.00    -0.497 OA
BRANCH  26  27
ATOM     27  C   UNL A   1      32.843  16.573  25.727  1.00  0.00     0.078 C 
ATOM     28  H   UNL A   1      32.430  16.248  26.658  1.00  0.00     0.067 H 
ATOM     29  H   UNL A   1      33.890  16.757  25.845  1.00  0.00     0.067 H 
ATOM     30  H   UNL A   1      32.694  15.815  24.987  1.00  0.00     0.067 H 
ENDBRANCH  26  27
ENDBRANCH  15  26
BRANCH  24  31
ATOM     31  C   UNL A   1      36.389  22.778  24.081  1.00  0.00     0.048 C 
ATOM     32  H   UNL A   1      36.351  23.792  23.741  1.00  0.00     0.055 H 
ATOM     33  H   UNL A   1      36.572  22.079  23.292  1.00  0.00     0.055 H 
BRANCH  31  34
ATOM     34  C   UNL A   1      37.550  22.646  25.054  1.00  0.00    -0.021 A 
ATOM     35  C   UNL A   1      37.861  23.748  25.943  1.00  0.00    -0.040 A 
ATOM     36  C   UNL A   1      38.247  21.504  25.202  1.00  0.00     0.009 A 
ATOM     37  C   UNL A   1      38.883  23.680  26.805  1.00  0.00     0.013 A 
ATOM     38  H   UNL A   1      37.284  24.602  25.911  1.00  0.00     0.064 H 
ATOM     39  C   UNL A   1      39.344  21.378  26.215  1.00  0.00     0.255 A 
ATOM     40  H   UNL A   1      38.020  20.695  24.602  1.00  0.00     0.068 H 
ATOM     41  N   UNL A   1      39.644  22.535  26.923  1.00  0.00    -0.258 N 
ATOM     42  H   UNL A   1      39.106  24.499  27.392  1.00  0.00     0.082 H 
ATOM     43  O   UNL A   1      39.893  20.297  26.349  1.00  0.00    -0.269 OA
BRANCH  41  44
ATOM     44  C   UNL A   1      40.653  22.463  27.953  1.00  0.00     0.321 C 
ATOM     45  F   UNL A   1      41.765  21.843  27.489  1.00  0.00    -0.185 F 
ATOM     46  F   UNL A   1      41.020  23.680  28.413  1.00  0.00    -0.185 F 
ATOM     47  H   UNL A   1      40.213  21.909  28.754  1.00  0.00     0.131 H 
ENDBRANCH  41  44
ENDBRANCH  31  34
ENDBRANCH  24  31
BRANCH  25  48
ATOM     48  C   UNL A   1      34.479  24.742  25.574  1.00  0.00    -0.024 C 
ATOM     49  H   UNL A   1      34.158  24.947  26.575  1.00  0.00     0.030 H 
ATOM     50  H   UNL A   1      33.955  25.379  24.894  1.00  0.00     0.030 H 
ATOM     51  H   UNL A   1      35.530  24.920  25.494  1.00  0.00     0.030 H 
ENDBRANCH  25  48
ENDBRANCH  11  14
ENDBRANCH   8  11
ENDBRANCH   4   7
ENDBRANCH   1   4
BRANCH   1  52
ATOM     52  C   UNL A   1      31.378  27.777  24.847  1.00  0.00    -0.052 C 
ATOM     53  H   UNL A   1      30.450  27.725  24.318  1.00  0.00     0.027 H 
ATOM     54  H   UNL A   1      32.212  27.430  24.274  1.00  0.00     0.027 H 
BRANCH  52  55
ATOM     55  C   UNL A   1      31.662  29.250  25.170  1.00  0.00    -0.052 C 
ATOM     56  H   UNL A   1      30.790  29.819  24.925  1.00  0.00     0.027 H 
ATOM     57  H   UNL A   1      32.521  29.525  24.593  1.00  0.00     0.027 H 
BRANCH  55  58
ATOM     58  C   UNL A   1      32.018  29.530  26.635  1.00  0.00    -0.036 C 
ATOM     59  H   UNL A   1      31.825  28.647  27.205  1.00  0.00     0.028 H 
ATOM     60  H   UNL A   1      31.417  30.357  26.953  1.00  0.00     0.028 H 
BRANCH  58  61
ATOM     61  C   UNL A   1      33.477  29.930  26.838  1.00  0.00     0.018 C 
ATOM     62  H   UNL A   1      33.828  30.393  25.939  1.00  0.00     0.049 H 
ATOM     63  H   UNL A   1      34.015  29.035  27.074  1.00  0.00     0.049 H 
BRANCH  61  64
ATOM     64  N   UNL A   1      33.684  30.848  27.934  1.00  0.00    -0.352 N 
ATOM     65  C   UNL A   1      34.784  31.345  28.572  1.00  0.00     0.251 C 
ATOM     66  H   UNL A   1      32.840  31.193  28.305  1.00  0.00     0.163 HD
ATOM     67  O   UNL A   1      34.586  32.269  29.365  1.00  0.00    -0.269 OA
BRANCH  65  68
ATOM     68  C   UNL A   1      36.159  30.786  28.464  1.00  0.00     0.039 A 
ATOM     69  C   UNL A   1      36.489  29.472  28.131  1.00  0.00    -0.049 A 
ATOM     70  C   UNL A   1      37.194  31.668  28.827  1.00  0.00    -0.049 A 
ATOM     71  C   UNL A   1      37.784  29.005  28.322  1.00  0.00    -0.053 A 
ATOM     72  H   UNL A   1      35.770  28.844  27.740  1.00  0.00     0.063 H 
ATOM     73  C   UNL A   1      38.494  31.217  28.987  1.00  0.00    -0.053 A 
ATOM     74  H   UNL A   1      36.981  32.666  28.977  1.00  0.00     0.063 H 
ATOM     75  C   UNL A   1      38.765  29.865  28.813  1.00  0.00    -0.014 A 
ATOM     76  H   UNL A   1      38.018  28.024  28.100  1.00  0.00     0.063 H 
ATOM     77  H   UNL A   1      39.250  31.875  29.232  1.00  0.00     0.063 H 
BRANCH  75  78
ATOM     78  C   UNL A   1      40.094  29.323  29.065  1.00  0.00     0.031 A 
ATOM     79  C   UNL A   1      40.386  29.032  30.499  1.00  0.00     0.074 A 
ATOM     80  C   UNL A   1      40.940  29.016  28.059  1.00  0.00     0.049 A 
ATOM     81  N   UNL A   1      41.351  29.492  31.229  1.00  0.00    -0.248 NA
ATOM     82  C   UNL A   1      39.407  28.224  31.248  1.00  0.00    -0.034 C 
ATOM     83  C   UNL A   1      40.684  29.039  26.616  1.00  0.00    -0.036 A 
ATOM     84  N   UNL A   1      42.206  28.518  28.125  1.00  0.00    -0.354 N 
ATOM     85  C   UNL A   1      41.200  28.906  32.485  1.00  0.00     0.074 A 
ATOM     86  C   UNL A   1      39.925  28.239  32.477  1.00  0.00    -0.034 C 
ATOM     87  H   UNL A   1      38.548  27.766  30.910  1.00  0.00     0.065 H 
ATOM     88  C   UNL A   1      41.653  28.347  25.975  1.00  0.00    -0.036 A 
ATOM     89  H   UNL A   1      39.887  29.509  26.160  1.00  0.00     0.065 H 
ATOM     90  C   UNL A   1      42.664  27.955  26.940  1.00  0.00     0.049 A 
ATOM     91  H   UNL A   1      42.750  28.553  28.945  1.00  0.00     0.167 HD
ATOM     92  C   UNL A   1      42.224  28.853  33.380  1.00  0.00     0.037 A 
ATOM     93  H   UNL A   1      39.472  27.829  33.309  1.00  0.00     0.065 H 
ATOM     94  H   UNL A   1      41.672  28.133  24.965  1.00  0.00     0.065 H 
ATOM     95  C   UNL A   1      43.758  27.164  26.794  1.00  0.00     0.037 A 
ATOM     96  C   UNL A   1      43.245  29.816  33.074  1.00  0.00     0.049 A 
ATOM     97  C   UNL A   1      44.623  27.383  27.981  1.00  0.00     0.074 A 
ATOM     98  C   UNL A   1      43.286  31.195  33.040  1.00  0.00    -0.036 A 
ATOM     99  N   UNL A   1      44.356  29.390  32.392  1.00  0.00    -0.354 N 
ATOM    100  N   UNL A   1      45.256  28.501  28.213  1.00  0.00    -0.248 NA
ATOM    101  C   UNL A   1      44.387  26.541  29.146  1.00  0.00    -0.034 C 
ATOM    102  C   UNL A   1      44.121  31.508  31.929  1.00  0.00    -0.036 A 
ATOM    103  H   UNL A   1      42.816  31.856  33.678  1.00  0.00     0.065 H 
ATOM    104  C   UNL A   1      44.591  30.306  31.400  1.00  0.00     0.049 A 
ATOM    105  H   UNL A   1      44.884  28.580  32.580  1.00  0.00     0.167 HD
ATOM    106  C   UNL A   1      45.119  28.703  29.578  1.00  0.00     0.074 A 
ATOM    107  C   UNL A   1      44.628  27.432  30.110  1.00  0.00    -0.034 C 
ATOM    108  H   UNL A   1      44.114  25.547  29.207  1.00  0.00     0.065 H 
ATOM    109  H   UNL A   1      44.339  32.453  31.579  1.00  0.00     0.065 H 
ATOM    110  C   UNL A   1      45.135  29.959  30.110  1.00  0.00     0.037 A 
ATOM    111  H   UNL A   1      44.484  27.247  31.115  1.00  0.00     0.065 H 
BRANCH  92 112
ATOM    112  C   UNL A   1      42.459  27.712  34.334  1.00  0.00     0.064 A 
ATOM    113  C   UNL A   1      42.999  26.501  33.853  1.00  0.00     0.173 A 
ATOM    114  C   UNL A   1      41.891  27.658  35.624  1.00  0.00     0.173 A 
ATOM    115  F   UNL A   1      43.541  26.434  32.628  1.00  0.00    -0.203 F 
ATOM    116  C   UNL A   1      42.910  25.314  34.585  1.00  0.00     0.198 A 
ATOM    117  C   UNL A   1      41.850  26.483  36.372  1.00  0.00     0.198 A 
ATOM    118  F   UNL A   1      41.254  28.706  36.161  1.00  0.00    -0.203 F 
ATOM    119  F   UNL A   1      43.327  24.163  34.040  1.00  0.00    -0.200 F 
ATOM    120  C   UNL A   1      42.331  25.305  35.841  1.00  0.00     0.200 A 
ATOM    121  F   UNL A   1      41.264  26.489  37.577  1.00  0.00    -0.200 F 
ATOM    122  F   UNL A   1      42.189  24.157  36.517  1.00  0.00    -0.200 F 
ENDBRANCH  92 112
BRANCH  95 123
ATOM    123  C   UNL A   1      43.931  26.001  25.889  1.00  0.00     0.064 A 
ATOM    124  C   UNL A   1      45.186  25.671  25.353  1.00  0.00     0.173 A 
ATOM    125  C   UNL A   1      42.919  25.029  25.749  1.00  0.00     0.173 A 
ATOM    126  F   UNL A   1      46.220  26.514  25.488  1.00  0.00    -0.203 F 
ATOM    127  C   UNL A   1      45.419  24.438  24.729  1.00  0.00     0.198 A 
ATOM    128  C   UNL A   1      43.151  23.803  25.122  1.00  0.00     0.198 A 
ATOM    129  F   UNL A   1      41.711  25.210  26.303  1.00  0.00    -0.203 F 
ATOM    130  F   UNL A   1      46.647  24.135  24.281  1.00  0.00    -0.200 F 
ATOM    131  C   UNL A   1      44.404  23.502  24.623  1.00  0.00     0.200 A 
ATOM    132  F   UNL A   1      42.169  22.891  25.063  1.00  0.00    -0.200 F 
ATOM    133  F   UNL A   1      44.641  22.301  24.079  1.00  0.00    -0.200 F 
ENDBRANCH  95 123
BRANCH 110 134
ATOM    134  C   UNL A   1      45.507  31.105  29.212  1.00  0.00     0.064 A 
ATOM    135  C   UNL A   1      44.581  31.810  28.423  1.00  0.00     0.173 A 
ATOM    136  C   UNL A   1      46.803  31.627  29.307  1.00  0.00     0.173 A 
ATOM    137  F   UNL A   1      43.298  31.436  28.364  1.00  0.00    -0.203 F 
ATOM    138  C   UNL A   1      44.948  32.970  27.741  1.00  0.00     0.198 A 
ATOM    139  C   UNL A   1      47.157  32.805  28.654  1.00  0.00     0.198 A 
ATOM    140  F   UNL A   1      47.712  31.029  30.093  1.00  0.00    -0.203 F 
ATOM    141  F   UNL A   1      44.043  33.631  27.003  1.00  0.00    -0.200 F 
ATOM    142  C   UNL A   1      46.232  33.472  27.866  1.00  0.00     0.200 A 
ATOM    143  F   UNL A   1      48.383  33.316  28.824  1.00  0.00    -0.200 F 
ATOM    144  F   UNL A   1      46.569  34.619  27.260  1.00  0.00    -0.200 F 
ENDBRANCH 110 134
ENDBRANCH  75  78
ENDBRANCH  65  68
ENDBRANCH  61  64
ENDBRANCH  58  61
ENDBRANCH  55  58
ENDBRANCH  52  55
ENDBRANCH   1  52
TORSDOF 20
ENDMDL
MODEL 3
REMARK VINA RESULT:     -12.6      4.390     10.137
REMARK SMILES COc1ccc2c(c1)c(CC(=O)NCCCCCCNC(=O)c1ccc(-c3c4nc(c(-c5c(F)c(F)c(F)c(F)c5F)c5ccc([nH]5)c(-c5c(F)c(F)c(F)c(F)c5F)c5nc(c(-c6c(F)c(F)c(F)c(F)c6F)c6ccc3[nH]6)C=C5)C=C4)cc1)c(C)n2Cc1ccn(C(F)F)c(=O)c1
REMARK SMILES IDX 15 1 14 4 13 7 11 8 12 9 10 11 9 14 3 15 4 16 8 17 5 18 7 20
REMARK SMILES IDX 6 22 88 24 86 25 2 26 1 27 89 31 90 34 91 35 99 36 92 37
REMARK SMILES IDX 97 39 93 41 98 43 94 44 95 45 96 46 87 48 16 52 17 55 18 58
REMARK SMILES IDX 19 61 20 64 21 65 22 67 23 68 24 69 85 70 25 71 84 73 26 75
REMARK SMILES IDX 27 78 28 79 78 80 29 81 83 82 77 83 79 84 30 85 82 86 76 88
REMARK SMILES IDX 75 90 31 92 63 95 43 96 62 97 44 98 47 99 61 100 80 101
REMARK SMILES IDX 45 102 46 104 60 106 81 107 48 110 32 112 33 113 41 114
REMARK SMILES IDX 34 115 35 116 39 117 42 118 36 119 37 120 40 121 38 122
REMARK SMILES IDX 64 123 65 124 73 125 66 126 67 127 71 128 74 129 68 130
REMARK SMILES IDX 69 131 72 132 70 133 49 134 50 135 58 136 51 137 52 138
REMARK SMILES IDX 56 139 59 140 53 141 54 142 57 143 55 144
REMARK H PARENT 15 2 15 3 14 5 14 6 13 10 10 12 10 13 4 19 8 21 5 23 1 28 1 29
REMARK H PARENT 1 30 89 32 89 33 91 38 99 40 92 42 94 47 87 49 87 50 87 51
REMARK H PARENT 16 53 16 54 17 56 17 57 18 59 18 60 19 62 19 63 20 66 24 72
REMARK H PARENT 85 74 25 76 84 77 83 87 77 89 79 91 82 93 76 94 44 103 47 105
REMARK H PARENT 80 108 45 109 81 111
REMARK Flexibility Score: inf
ROOT
ATOM      1  C   UNL A   1      40.176  22.351  27.094  1.00  0.00    -0.036 C 
ATOM      2  H   UNL A   1      40.064  22.151  28.140  1.00  0.00     0.028 H 
ATOM      3  H   UNL A   1      41.051  22.929  26.884  1.00  0.00     0.028 H 
ENDROOT
BRANCH   1   4
ATOM      4  C   UNL A   1      38.972  23.168  26.627  1.00  0.00     0.017 C 
ATOM      5  H   UNL A   1      38.193  23.088  27.356  1.00  0.00     0.049 H 
ATOM      6  H   UNL A   1      39.281  24.186  26.513  1.00  0.00     0.049 H 
BRANCH   4   7
ATOM      7  N   UNL A   1      38.474  22.696  25.351  1.00  0.00    -0.356 N 
ATOM      8  C   UNL A   1      37.268  22.922  24.752  1.00  0.00     0.224 C 
ATOM      9  O   UNL A   1      37.039  22.354  23.680  1.00  0.00    -0.275 OA
ATOM     10  H   UNL A   1      39.096  22.128  24.841  1.00  0.00     0.163 HD
BRANCH   8  11
ATOM     11  C   UNL A   1      36.282  23.920  25.340  1.00  0.00     0.054 C 
ATOM     12  H   UNL A   1      36.399  23.922  26.403  1.00  0.00     0.042 H 
ATOM     13  H   UNL A   1      36.501  24.871  24.900  1.00  0.00     0.042 H 
BRANCH  11  14
ATOM     14  C   UNL A   1      34.849  23.614  25.022  1.00  0.00    -0.010 A 
ATOM     15  C   UNL A   1      33.251  25.789  22.328  1.00  0.00     0.119 A 
ATOM     16  C   UNL A   1      32.027  25.131  22.308  1.00  0.00    -0.018 A 
ATOM     17  C   UNL A   1      34.273  25.338  23.163  1.00  0.00    -0.010 A 
ATOM     18  C   UNL A   1      31.789  24.019  23.135  1.00  0.00    -0.034 A 
ATOM     19  H   UNL A   1      31.281  25.463  21.677  1.00  0.00     0.066 H 
ATOM     20  C   UNL A   1      34.045  24.253  24.035  1.00  0.00     0.007 A 
ATOM     21  H   UNL A   1      35.197  25.798  23.143  1.00  0.00     0.067 H 
ATOM     22  C   UNL A   1      32.811  23.597  24.007  1.00  0.00     0.049 A 
ATOM     23  H   UNL A   1      30.885  23.523  23.103  1.00  0.00     0.065 H 
ATOM     24  N   UNL A   1      32.881  22.559  24.930  1.00  0.00    -0.340 N 
ATOM     25  C   UNL A   1      34.036  22.702  25.682  1.00  0.00     0.020 A 
BRANCH  15  26
ATOM     26  O   UNL A   1      33.574  26.840  21.512  1.00  0.00    -0.497 OA
BRANCH  26  27
ATOM     27  C   UNL A   1      33.750  28.081  22.190  1.00  0.00     0.078 C 
ATOM     28  H   UNL A   1      34.481  28.667  21.674  1.00  0.00     0.067 H 
ATOM     29  H   UNL A   1      34.082  27.896  23.190  1.00  0.00     0.067 H 
ATOM     30  H   UNL A   1      32.821  28.609  22.214  1.00  0.00     0.067 H 
ENDBRANCH  26  27
ENDBRANCH  15  26
BRANCH  24  31
ATOM     31  C   UNL A   1      31.842  21.537  25.124  1.00  0.00     0.048 C 
ATOM     32  H   UNL A   1      30.991  21.808  24.534  1.00  0.00     0.055 H 
ATOM     33  H   UNL A   1      31.633  21.510  26.172  1.00  0.00     0.055 H 
BRANCH  31  34
ATOM     34  C   UNL A   1      32.263  20.130  24.731  1.00  0.00    -0.021 A 
ATOM     35  C   UNL A   1      32.643  19.186  25.764  1.00  0.00    -0.040 A 
ATOM     36  C   UNL A   1      32.201  19.680  23.463  1.00  0.00     0.009 A 
ATOM     37  C   UNL A   1      33.034  17.942  25.462  1.00  0.00     0.013 A 
ATOM     38  H   UNL A   1      32.613  19.480  26.752  1.00  0.00     0.064 H 
ATOM     39  C   UNL A   1      32.558  18.268  23.111  1.00  0.00     0.255 A 
ATOM     40  H   UNL A   1      31.900  20.325  22.715  1.00  0.00     0.068 H 
ATOM     41  N   UNL A   1      33.033  17.489  24.158  1.00  0.00    -0.258 N 
ATOM     42  H   UNL A   1      33.342  17.311  26.217  1.00  0.00     0.082 H 
ATOM     43  O   UNL A   1      32.416  17.901  21.956  1.00  0.00    -0.269 OA
BRANCH  41  44
ATOM     44  C   UNL A   1      33.340  16.104  23.894  1.00  0.00     0.321 C 
ATOM     45  F   UNL A   1      34.679  15.919  23.811  1.00  0.00    -0.185 F 
ATOM     46  F   UNL A   1      32.866  15.271  24.848  1.00  0.00    -0.185 F 
ATOM     47  H   UNL A   1      32.863  15.871  22.965  1.00  0.00     0.131 H 
ENDBRANCH  41  44
ENDBRANCH  31  34
ENDBRANCH  24  31
BRANCH  25  48
ATOM     48  C   UNL A   1      34.347  21.957  26.935  1.00  0.00    -0.024 C 
ATOM     49  H   UNL A   1      33.533  21.305  27.174  1.00  0.00     0.030 H 
ATOM     50  H   UNL A   1      34.495  22.651  27.735  1.00  0.00     0.030 H 
ATOM     51  H   UNL A   1      35.237  21.379  26.795  1.00  0.00     0.030 H 
ENDBRANCH  25  48
ENDBRANCH  11  14
ENDBRANCH   8  11
ENDBRANCH   4   7
ENDBRANCH   1   4
BRANCH   1  52
ATOM     52  C   UNL A   1      40.332  21.013  26.358  1.00  0.00    -0.052 C 
ATOM     53  H   UNL A   1      40.551  21.223  25.331  1.00  0.00     0.027 H 
ATOM     54  H   UNL A   1      39.411  20.486  26.495  1.00  0.00     0.027 H 
BRANCH  52  55
ATOM     55  C   UNL A   1      41.437  20.101  26.906  1.00  0.00    -0.052 C 
ATOM     56  H   UNL A   1      41.026  19.526  27.709  1.00  0.00     0.027 H 
ATOM     57  H   UNL A   1      42.234  20.745  27.214  1.00  0.00     0.027 H 
BRANCH  55  58
ATOM     58  C   UNL A   1      42.036  19.130  25.882  1.00  0.00    -0.036 C 
ATOM     59  H   UNL A   1      41.671  19.393  24.912  1.00  0.00     0.028 H 
ATOM     60  H   UNL A   1      41.740  18.143  26.172  1.00  0.00     0.028 H 
BRANCH  58  61
ATOM     61  C   UNL A   1      43.561  19.150  25.848  1.00  0.00     0.018 C 
ATOM     62  H   UNL A   1      43.911  18.139  25.798  1.00  0.00     0.049 H 
ATOM     63  H   UNL A   1      43.886  19.651  26.737  1.00  0.00     0.049 H 
BRANCH  61  64
ATOM     64  N   UNL A   1      44.112  19.879  24.729  1.00  0.00    -0.352 N 
ATOM     65  C   UNL A   1      44.404  21.191  24.491  1.00  0.00     0.251 C 
ATOM     66  H   UNL A   1      44.323  19.297  23.963  1.00  0.00     0.163 HD
ATOM     67  O   UNL A   1      45.048  21.431  23.466  1.00  0.00    -0.269 OA
BRANCH  65  68
ATOM     68  C   UNL A   1      43.914  22.336  25.305  1.00  0.00     0.039 A 
ATOM     69  C   UNL A   1      42.978  23.289  24.905  1.00  0.00    -0.049 A 
ATOM     70  C   UNL A   1      44.543  22.495  26.554  1.00  0.00    -0.049 A 
ATOM     71  C   UNL A   1      42.802  24.452  25.644  1.00  0.00    -0.053 A 
ATOM     72  H   UNL A   1      42.413  23.130  24.056  1.00  0.00     0.063 H 
ATOM     73  C   UNL A   1      44.347  23.636  27.313  1.00  0.00    -0.053 A 
ATOM     74  H   UNL A   1      45.160  21.748  26.910  1.00  0.00     0.063 H 
ATOM     75  C   UNL A   1      43.538  24.649  26.812  1.00  0.00    -0.014 A 
ATOM     76  H   UNL A   1      42.127  25.168  25.329  1.00  0.00     0.063 H 
ATOM     77  H   UNL A   1      44.794  23.734  28.238  1.00  0.00     0.063 H 
BRANCH  75  78
ATOM     78  C   UNL A   1      43.377  25.911  27.524  1.00  0.00     0.031 A 
ATOM     79  C   UNL A   1      44.414  26.937  27.213  1.00  0.00     0.074 A 
ATOM     80  C   UNL A   1      42.311  26.150  28.316  1.00  0.00     0.049 A 
ATOM     81  N   UNL A   1      45.213  27.541  28.033  1.00  0.00    -0.248 NA
ATOM     82  C   UNL A   1      44.679  27.238  25.795  1.00  0.00    -0.034 C 
ATOM     83  C   UNL A   1      41.122  25.316  28.516  1.00  0.00    -0.036 A 
ATOM     84  N   UNL A   1      42.021  27.258  29.052  1.00  0.00    -0.354 N 
ATOM     85  C   UNL A   1      45.972  28.419  27.259  1.00  0.00     0.074 A 
ATOM     86  C   UNL A   1      45.691  28.101  25.883  1.00  0.00    -0.034 C 
ATOM     87  H   UNL A   1      44.204  26.875  24.955  1.00  0.00     0.065 H 
ATOM     88  C   UNL A   1      40.151  26.051  29.105  1.00  0.00    -0.036 A 
ATOM     89  H   UNL A   1      41.038  24.324  28.249  1.00  0.00     0.065 H 
ATOM     90  C   UNL A   1      40.692  27.354  29.446  1.00  0.00     0.049 A 
ATOM     91  H   UNL A   1      42.697  27.935  29.284  1.00  0.00     0.167 HD
ATOM     92  C   UNL A   1      46.634  29.473  27.809  1.00  0.00     0.037 A 
ATOM     93  H   UNL A   1      46.203  28.489  25.075  1.00  0.00     0.065 H 
ATOM     94  H   UNL A   1      39.183  25.737  29.282  1.00  0.00     0.065 H 
ATOM     95  C   UNL A   1      40.078  28.457  29.947  1.00  0.00     0.037 A 
ATOM     96  C   UNL A   1      46.823  29.300  29.222  1.00  0.00     0.049 A 
ATOM     97  C   UNL A   1      41.141  29.372  30.434  1.00  0.00     0.074 A 
ATOM     98  C   UNL A   1      47.526  28.396  29.994  1.00  0.00    -0.036 A 
ATOM     99  N   UNL A   1      45.950  29.924  30.076  1.00  0.00    -0.354 N 
ATOM    100  N   UNL A   1      41.892  29.115  31.470  1.00  0.00    -0.248 NA
ATOM    101  C   UNL A   1      41.690  30.326  29.481  1.00  0.00    -0.034 C 
ATOM    102  C   UNL A   1      46.702  28.172  31.134  1.00  0.00    -0.036 A 
ATOM    103  H   UNL A   1      48.446  27.976  29.791  1.00  0.00     0.065 H 
ATOM    104  C   UNL A   1      45.585  29.000  31.020  1.00  0.00     0.049 A 
ATOM    105  H   UNL A   1      45.644  30.858  30.021  1.00  0.00     0.167 HD
ATOM    106  C   UNL A   1      43.160  29.531  31.094  1.00  0.00     0.074 A 
ATOM    107  C   UNL A   1      42.964  30.325  29.883  1.00  0.00    -0.034 C 
ATOM    108  H   UNL A   1      41.230  30.850  28.719  1.00  0.00     0.065 H 
ATOM    109  H   UNL A   1      46.896  27.514  31.904  1.00  0.00     0.065 H 
ATOM    110  C   UNL A   1      44.277  28.955  31.626  1.00  0.00     0.037 A 
ATOM    111  H   UNL A   1      43.722  30.826  29.395  1.00  0.00     0.065 H 
BRANCH  92 112
ATOM    112  C   UNL A   1      46.816  30.807  27.134  1.00  0.00     0.064 A 
ATOM    113  C   UNL A   1      48.096  31.396  27.088  1.00  0.00     0.173 A 
ATOM    114  C   UNL A   1      45.739  31.659  26.810  1.00  0.00     0.173 A 
ATOM    115  F   UNL A   1      49.188  30.683  27.402  1.00  0.00    -0.203 F 
ATOM    116  C   UNL A   1      48.271  32.754  26.808  1.00  0.00     0.198 A 
ATOM    117  C   UNL A   1      45.923  33.000  26.481  1.00  0.00     0.198 A 
ATOM    118  F   UNL A   1      44.465  31.258  26.912  1.00  0.00    -0.203 F 
ATOM    119  F   UNL A   1      49.492  33.299  26.893  1.00  0.00    -0.200 F 
ATOM    120  C   UNL A   1      47.184  33.555  26.510  1.00  0.00     0.200 A 
ATOM    121  F   UNL A   1      44.854  33.766  26.218  1.00  0.00    -0.200 F 
ATOM    122  F   UNL A   1      47.343  34.869  26.302  1.00  0.00    -0.200 F 
ENDBRANCH  92 112
BRANCH  95 123
ATOM    123  C   UNL A   1      38.683  28.910  29.718  1.00  0.00     0.064 A 
ATOM    124  C   UNL A   1      37.850  29.282  30.785  1.00  0.00     0.173 A 
ATOM    125  C   UNL A   1      38.229  29.248  28.426  1.00  0.00     0.173 A 
ATOM    126  F   UNL A   1      38.229  29.048  32.050  1.00  0.00    -0.203 F 
ATOM    127  C   UNL A   1      36.643  29.963  30.574  1.00  0.00     0.198 A 
ATOM    128  C   UNL A   1      37.024  29.921  28.218  1.00  0.00     0.198 A 
ATOM    129  F   UNL A   1      38.991  29.016  27.348  1.00  0.00    -0.203 F 
ATOM    130  F   UNL A   1      35.902  30.352  31.622  1.00  0.00    -0.200 F 
ATOM    131  C   UNL A   1      36.237  30.290  29.291  1.00  0.00     0.200 A 
ATOM    132  F   UNL A   1      36.663  30.266  26.973  1.00  0.00    -0.200 F 
ATOM    133  F   UNL A   1      35.113  30.992  29.093  1.00  0.00    -0.200 F 
ENDBRANCH  95 123
BRANCH 110 134
ATOM    134  C   UNL A   1      44.106  28.003  32.775  1.00  0.00     0.064 A 
ATOM    135  C   UNL A   1      43.938  26.615  32.622  1.00  0.00     0.173 A 
ATOM    136  C   UNL A   1      44.316  28.487  34.073  1.00  0.00     0.173 A 
ATOM    137  F   UNL A   1      43.836  26.064  31.408  1.00  0.00    -0.203 F 
ATOM    138  C   UNL A   1      43.954  25.759  33.722  1.00  0.00     0.198 A 
ATOM    139  C   UNL A   1      44.368  27.626  35.166  1.00  0.00     0.198 A 
ATOM    140  F   UNL A   1      44.542  29.795  34.274  1.00  0.00    -0.203 F 
ATOM    141  F   UNL A   1      43.802  24.438  33.548  1.00  0.00    -0.200 F 
ATOM    142  C   UNL A   1      44.181  26.264  34.991  1.00  0.00     0.200 A 
ATOM    143  F   UNL A   1      44.644  28.113  36.383  1.00  0.00    -0.200 F 
ATOM    144  F   UNL A   1      44.257  25.435  36.042  1.00  0.00    -0.200 F 
ENDBRANCH 110 134
ENDBRANCH  75  78
ENDBRANCH  65  68
ENDBRANCH  61  64
ENDBRANCH  58  61
ENDBRANCH  55  58
ENDBRANCH  52  55
ENDBRANCH   1  52
TORSDOF 20
ENDMDL
MODEL 4
REMARK VINA RESULT:     -12.2      3.890      9.121
REMARK SMILES COc1ccc2c(c1)c(CC(=O)NCCCCCCNC(=O)c1ccc(-c3c4nc(c(-c5c(F)c(F)c(F)c(F)c5F)c5ccc([nH]5)c(-c5c(F)c(F)c(F)c(F)c5F)c5nc(c(-c6c(F)c(F)c(F)c(F)c6F)c6ccc3[nH]6)C=C5)C=C4)cc1)c(C)n2Cc1ccn(C(F)F)c(=O)c1
REMARK SMILES IDX 15 1 14 4 13 7 11 8 12 9 10 11 9 14 3 15 4 16 8 17 5 18 7 20
REMARK SMILES IDX 6 22 88 24 86 25 2 26 1 27 89 31 90 34 91 35 99 36 92 37
REMARK SMILES IDX 97 39 93 41 98 43 94 44 95 45 96 46 87 48 16 52 17 55 18 58
REMARK SMILES IDX 19 61 20 64 21 65 22 67 23 68 24 69 85 70 25 71 84 73 26 75
REMARK SMILES IDX 27 78 28 79 78 80 29 81 83 82 77 83 79 84 30 85 82 86 76 88
REMARK SMILES IDX 75 90 31 92 63 95 43 96 62 97 44 98 47 99 61 100 80 101
REMARK SMILES IDX 45 102 46 104 60 106 81 107 48 110 32 112 33 113 41 114
REMARK SMILES IDX 34 115 35 116 39 117 42 118 36 119 37 120 40 121 38 122
REMARK SMILES IDX 64 123 65 124 73 125 66 126 67 127 71 128 74 129 68 130
REMARK SMILES IDX 69 131 72 132 70 133 49 134 50 135 58 136 51 137 52 138
REMARK SMILES IDX 56 139 59 140 53 141 54 142 57 143 55 144
REMARK H PARENT 15 2 15 3 14 5 14 6 13 10 10 12 10 13 4 19 8 21 5 23 1 28 1 29
REMARK H PARENT 1 30 89 32 89 33 91 38 99 40 92 42 94 47 87 49 87 50 87 51
REMARK H PARENT 16 53 16 54 17 56 17 57 18 59 18 60 19 62 19 63 20 66 24 72
REMARK H PARENT 85 74 25 76 84 77 83 87 77 89 79 91 82 93 76 94 44 103 47 105
REMARK H PARENT 80 108 45 109 81 111
REMARK Flexibility Score: inf
ROOT
ATOM      1  C   UNL A   1      40.346  24.672  26.898  1.00  0.00    -0.036 C 
ATOM      2  H   UNL A   1      40.519  25.718  26.749  1.00  0.00     0.028 H 
ATOM      3  H   UNL A   1      40.726  24.080  26.093  1.00  0.00     0.028 H 
ENDROOT
BRANCH   1   4
ATOM      4  C   UNL A   1      38.837  24.435  26.959  1.00  0.00     0.017 C 
ATOM      5  H   UNL A   1      38.603  23.912  27.862  1.00  0.00     0.049 H 
ATOM      6  H   UNL A   1      38.347  25.387  26.934  1.00  0.00     0.049 H 
BRANCH   4   7
ATOM      7  N   UNL A   1      38.377  23.655  25.829  1.00  0.00    -0.356 N 
ATOM      8  C   UNL A   1      37.115  23.510  25.329  1.00  0.00     0.224 C 
ATOM      9  O   UNL A   1      36.951  22.730  24.387  1.00  0.00    -0.275 OA
ATOM     10  H   UNL A   1      39.078  23.155  25.350  1.00  0.00     0.163 HD
BRANCH   8  11
ATOM     11  C   UNL A   1      35.967  24.359  25.856  1.00  0.00     0.054 C 
ATOM     12  H   UNL A   1      35.977  24.312  26.924  1.00  0.00     0.042 H 
ATOM     13  H   UNL A   1      36.119  25.351  25.486  1.00  0.00     0.042 H 
BRANCH  11  14
ATOM     14  C   UNL A   1      34.618  23.916  25.376  1.00  0.00    -0.010 A 
ATOM     15  C   UNL A   1      33.230  25.810  22.371  1.00  0.00     0.119 A 
ATOM     16  C   UNL A   1      32.074  25.051  22.233  1.00  0.00    -0.018 A 
ATOM     17  C   UNL A   1      34.163  25.490  23.355  1.00  0.00    -0.010 A 
ATOM     18  C   UNL A   1      31.815  23.966  23.089  1.00  0.00    -0.034 A 
ATOM     19  H   UNL A   1      31.396  25.286  21.492  1.00  0.00     0.066 H 
ATOM     20  C   UNL A   1      33.905  24.435  24.256  1.00  0.00     0.007 A 
ATOM     21  H   UNL A   1      35.043  26.025  23.427  1.00  0.00     0.067 H 
ATOM     22  C   UNL A   1      32.740  23.677  24.109  1.00  0.00     0.049 A 
ATOM     23  H   UNL A   1      30.964  23.395  22.971  1.00  0.00     0.065 H 
ATOM     24  N   UNL A   1      32.766  22.696  25.095  1.00  0.00    -0.340 N 
ATOM     25  C   UNL A   1      33.796  22.973  25.980  1.00  0.00     0.020 A 
BRANCH  15  26
ATOM     26  O   UNL A   1      33.577  26.842  21.540  1.00  0.00    -0.497 OA
BRANCH  26  27
ATOM     27  C   UNL A   1      33.877  28.063  22.211  1.00  0.00     0.078 C 
ATOM     28  H   UNL A   1      34.040  28.835  21.488  1.00  0.00     0.067 H 
ATOM     29  H   UNL A   1      34.759  27.937  22.802  1.00  0.00     0.067 H 
ATOM     30  H   UNL A   1      33.058  28.333  22.842  1.00  0.00     0.067 H 
ENDBRANCH  26  27
ENDBRANCH  15  26
BRANCH  24  31
ATOM     31  C   UNL A   1      31.793  21.601  25.215  1.00  0.00     0.048 C 
ATOM     32  H   UNL A   1      30.920  21.866  24.657  1.00  0.00     0.055 H 
ATOM     33  H   UNL A   1      31.601  21.478  26.260  1.00  0.00     0.055 H 
BRANCH  31  34
ATOM     34  C   UNL A   1      32.291  20.257  24.707  1.00  0.00    -0.021 A 
ATOM     35  C   UNL A   1      32.828  19.294  25.650  1.00  0.00    -0.040 A 
ATOM     36  C   UNL A   1      32.164  19.873  23.423  1.00  0.00     0.009 A 
ATOM     37  C   UNL A   1      33.290  18.106  25.244  1.00  0.00     0.013 A 
ATOM     38  H   UNL A   1      32.853  19.530  26.653  1.00  0.00     0.064 H 
ATOM     39  C   UNL A   1      32.603  18.518  22.960  1.00  0.00     0.255 A 
ATOM     40  H   UNL A   1      31.754  20.530  22.740  1.00  0.00     0.068 H 
ATOM     41  N   UNL A   1      33.220  17.726  23.919  1.00  0.00    -0.258 N 
ATOM     42  H   UNL A   1      33.707  17.462  25.934  1.00  0.00     0.082 H 
ATOM     43  O   UNL A   1      32.398  18.203  21.799  1.00  0.00    -0.269 OA
BRANCH  41  44
ATOM     44  C   UNL A   1      33.614  16.387  23.549  1.00  0.00     0.321 C 
ATOM     45  F   UNL A   1      34.628  16.419  22.651  1.00  0.00    -0.185 F 
ATOM     46  F   UNL A   1      34.021  15.649  24.606  1.00  0.00    -0.185 F 
ATOM     47  H   UNL A   1      32.743  15.933  23.126  1.00  0.00     0.131 H 
ENDBRANCH  41  44
ENDBRANCH  31  34
ENDBRANCH  24  31
BRANCH  25  48
ATOM     48  C   UNL A   1      33.995  22.322  27.306  1.00  0.00    -0.024 C 
ATOM     49  H   UNL A   1      33.069  21.897  27.635  1.00  0.00     0.030 H 
ATOM     50  H   UNL A   1      34.326  23.050  28.015  1.00  0.00     0.030 H 
ATOM     51  H   UNL A   1      34.730  21.549  27.217  1.00  0.00     0.030 H 
ENDBRANCH  25  48
ENDBRANCH  11  14
ENDBRANCH   8  11
ENDBRANCH   4   7
ENDBRANCH   1   4
BRANCH   1  52
ATOM     52  C   UNL A   1      41.087  24.234  28.169  1.00  0.00    -0.052 C 
ATOM     53  H   UNL A   1      40.387  24.236  28.978  1.00  0.00     0.027 H 
ATOM     54  H   UNL A   1      41.890  24.927  28.302  1.00  0.00     0.027 H 
BRANCH  52  55
ATOM     55  C   UNL A   1      41.727  22.842  28.094  1.00  0.00    -0.052 C 
ATOM     56  H   UNL A   1      41.843  22.583  27.062  1.00  0.00     0.027 H 
ATOM     57  H   UNL A   1      41.072  22.180  28.623  1.00  0.00     0.027 H 
BRANCH  55  58
ATOM     58  C   UNL A   1      43.097  22.726  28.771  1.00  0.00    -0.036 C 
ATOM     59  H   UNL A   1      43.325  21.690  28.901  1.00  0.00     0.028 H 
ATOM     60  H   UNL A   1      43.033  23.246  29.705  1.00  0.00     0.028 H 
BRANCH  58  61
ATOM     61  C   UNL A   1      44.224  23.375  27.972  1.00  0.00     0.018 C 
ATOM     62  H   UNL A   1      43.791  24.065  27.277  1.00  0.00     0.049 H 
ATOM     63  H   UNL A   1      44.757  22.584  27.486  1.00  0.00     0.049 H 
BRANCH  61  64
ATOM     64  N   UNL A   1      45.181  24.089  28.786  1.00  0.00    -0.352 N 
ATOM     65  C   UNL A   1      45.129  25.210  29.564  1.00  0.00     0.251 C 
ATOM     66  H   UNL A   1      46.074  23.673  28.776  1.00  0.00     0.163 HD
ATOM     67  O   UNL A   1      46.114  25.429  30.274  1.00  0.00    -0.269 OA
BRANCH  65  68
ATOM     68  C   UNL A   1      44.040  26.222  29.531  1.00  0.00     0.039 A 
ATOM     69  C   UNL A   1      43.430  26.738  28.387  1.00  0.00    -0.049 A 
ATOM     70  C   UNL A   1      43.679  26.755  30.783  1.00  0.00    -0.049 A 
ATOM     71  C   UNL A   1      42.619  27.863  28.472  1.00  0.00    -0.053 A 
ATOM     72  H   UNL A   1      43.581  26.282  27.474  1.00  0.00     0.063 H 
ATOM     73  C   UNL A   1      42.844  27.856  30.878  1.00  0.00    -0.053 A 
ATOM     74  H   UNL A   1      44.042  26.318  31.644  1.00  0.00     0.063 H 
ATOM     75  C   UNL A   1      42.384  28.456  29.712  1.00  0.00    -0.014 A 
ATOM     76  H   UNL A   1      42.191  28.258  27.619  1.00  0.00     0.063 H 
ATOM     77  H   UNL A   1      42.566  28.225  31.801  1.00  0.00     0.063 H 
BRANCH  75  78
ATOM     78  C   UNL A   1      41.585  29.674  29.754  1.00  0.00     0.031 A 
ATOM     79  C   UNL A   1      42.361  30.935  29.572  1.00  0.00     0.074 A 
ATOM     80  C   UNL A   1      40.239  29.639  29.844  1.00  0.00     0.049 A 
ATOM     81  N   UNL A   1      42.432  31.954  30.367  1.00  0.00    -0.248 NA
ATOM     82  C   UNL A   1      43.271  31.019  28.416  1.00  0.00    -0.034 C 
ATOM     83  C   UNL A   1      39.354  28.471  29.798  1.00  0.00    -0.036 A 
ATOM     84  N   UNL A   1      39.356  30.674  29.906  1.00  0.00    -0.354 N 
ATOM     85  C   UNL A   1      43.266  32.878  29.739  1.00  0.00     0.074 A 
ATOM     86  C   UNL A   1      43.850  32.205  28.610  1.00  0.00    -0.034 C 
ATOM     87  H   UNL A   1      43.420  30.339  27.655  1.00  0.00     0.065 H 
ATOM     88  C   UNL A   1      38.082  28.877  29.579  1.00  0.00    -0.036 A 
ATOM     89  H   UNL A   1      39.654  27.491  29.912  1.00  0.00     0.065 H 
ATOM     90  C   UNL A   1      38.043  30.328  29.609  1.00  0.00     0.049 A 
ATOM     91  H   UNL A   1      39.626  31.591  30.140  1.00  0.00     0.167 HD
ATOM     92  C   UNL A   1      43.268  34.194  30.086  1.00  0.00     0.037 A 
ATOM     93  H   UNL A   1      44.613  32.586  28.029  1.00  0.00     0.065 H 
ATOM     94  H   UNL A   1      37.273  28.258  29.417  1.00  0.00     0.065 H 
ATOM     95  C   UNL A   1      37.026  31.186  29.339  1.00  0.00     0.037 A 
ATOM     96  C   UNL A   1      42.701  34.398  31.389  1.00  0.00     0.049 A 
ATOM     97  C   UNL A   1      37.420  32.518  29.862  1.00  0.00     0.074 A 
ATOM     98  C   UNL A   1      43.060  34.014  32.665  1.00  0.00    -0.036 A 
ATOM     99  N   UNL A   1      41.391  34.797  31.472  1.00  0.00    -0.354 N 
ATOM    100  N   UNL A   1      37.529  32.787  31.134  1.00  0.00    -0.248 NA
ATOM    101  C   UNL A   1      38.163  33.395  28.968  1.00  0.00    -0.034 C 
ATOM    102  C   UNL A   1      41.828  33.726  33.320  1.00  0.00    -0.036 A 
ATOM    103  H   UNL A   1      44.011  33.949  33.060  1.00  0.00     0.065 H 
ATOM    104  C   UNL A   1      40.795  34.017  32.429  1.00  0.00     0.049 A 
ATOM    105  H   UNL A   1      40.960  35.509  30.945  1.00  0.00     0.167 HD
ATOM    106  C   UNL A   1      38.667  33.574  31.229  1.00  0.00     0.074 A 
ATOM    107  C   UNL A   1      38.980  33.967  29.856  1.00  0.00    -0.034 C 
ATOM    108  H   UNL A   1      38.080  33.534  27.948  1.00  0.00     0.065 H 
ATOM    109  H   UNL A   1      41.719  33.365  34.281  1.00  0.00     0.065 H 
ATOM    110  C   UNL A   1      39.418  33.595  32.367  1.00  0.00     0.037 A 
ATOM    111  H   UNL A   1      39.745  34.611  29.602  1.00  0.00     0.065 H 
BRANCH  92 112
ATOM    112  C   UNL A   1      43.478  35.327  29.117  1.00  0.00     0.064 A 
ATOM    113  C   UNL A   1      44.644  36.115  29.206  1.00  0.00     0.173 A 
ATOM    114  C   UNL A   1      42.444  35.855  28.315  1.00  0.00     0.173 A 
ATOM    115  F   UNL A   1      45.679  35.720  29.963  1.00  0.00    -0.203 F 
ATOM    116  C   UNL A   1      44.734  37.369  28.595  1.00  0.00     0.198 A 
ATOM    117  C   UNL A   1      42.558  37.081  27.664  1.00  0.00     0.198 A 
ATOM    118  F   UNL A   1      41.247  35.262  28.223  1.00  0.00    -0.203 F 
ATOM    119  F   UNL A   1      45.812  38.136  28.805  1.00  0.00    -0.200 F 
ATOM    120  C   UNL A   1      43.689  37.852  27.829  1.00  0.00     0.200 A 
ATOM    121  F   UNL A   1      41.525  37.544  26.946  1.00  0.00    -0.200 F 
ATOM    122  F   UNL A   1      43.749  39.078  27.293  1.00  0.00    -0.200 F 
ENDBRANCH  92 112
BRANCH  95 123
ATOM    123  C   UNL A   1      35.914  31.009  28.371  1.00  0.00     0.064 A 
ATOM    124  C   UNL A   1      35.755  29.815  27.649  1.00  0.00     0.173 A 
ATOM    125  C   UNL A   1      34.828  31.907  28.336  1.00  0.00     0.173 A 
ATOM    126  F   UNL A   1      36.717  28.881  27.671  1.00  0.00    -0.203 F 
ATOM    127  C   UNL A   1      34.576  29.530  26.948  1.00  0.00     0.198 A 
ATOM    128  C   UNL A   1      33.655  31.624  27.633  1.00  0.00     0.198 A 
ATOM    129  F   UNL A   1      34.844  33.034  29.063  1.00  0.00    -0.203 F 
ATOM    130  F   UNL A   1      34.439  28.354  26.318  1.00  0.00    -0.200 F 
ATOM    131  C   UNL A   1      33.524  30.431  26.949  1.00  0.00     0.200 A 
ATOM    132  F   UNL A   1      32.631  32.488  27.676  1.00  0.00    -0.200 F 
ATOM    133  F   UNL A   1      32.374  30.134  26.328  1.00  0.00    -0.200 F 
ENDBRANCH  95 123
BRANCH 110 134
ATOM    134  C   UNL A   1      38.875  32.907  33.587  1.00  0.00     0.064 A 
ATOM    135  C   UNL A   1      39.206  31.589  33.952  1.00  0.00     0.173 A 
ATOM    136  C   UNL A   1      38.157  33.672  34.516  1.00  0.00     0.173 A 
ATOM    137  F   UNL A   1      39.977  30.829  33.167  1.00  0.00    -0.203 F 
ATOM    138  C   UNL A   1      38.811  31.059  35.180  1.00  0.00     0.198 A 
ATOM    139  C   UNL A   1      37.795  33.151  35.755  1.00  0.00     0.198 A 
ATOM    140  F   UNL A   1      37.865  34.954  34.247  1.00  0.00    -0.203 F 
ATOM    141  F   UNL A   1      39.147  29.802  35.508  1.00  0.00    -0.200 F 
ATOM    142  C   UNL A   1      38.116  31.843  36.084  1.00  0.00     0.200 A 
ATOM    143  F   UNL A   1      37.174  33.932  36.649  1.00  0.00    -0.200 F 
ATOM    144  F   UNL A   1      37.789  31.354  37.288  1.00  0.00    -0.200 F 
ENDBRANCH 110 134
ENDBRANCH  75  78
ENDBRANCH  65  68
ENDBRANCH  61  64
ENDBRANCH  58  61
ENDBRANCH  55  58
ENDBRANCH  52  55
ENDBRANCH   1  52
TORSDOF 20
ENDMDL
MODEL 5
REMARK VINA RESULT:     -12.1      3.873      5.736
REMARK SMILES COc1ccc2c(c1)c(CC(=O)NCCCCCCNC(=O)c1ccc(-c3c4nc(c(-c5c(F)c(F)c(F)c(F)c5F)c5ccc([nH]5)c(-c5c(F)c(F)c(F)c(F)c5F)c5nc(c(-c6c(F)c(F)c(F)c(F)c6F)c6ccc3[nH]6)C=C5)C=C4)cc1)c(C)n2Cc1ccn(C(F)F)c(=O)c1
REMARK SMILES IDX 15 1 14 4 13 7 11 8 12 9 10 11 9 14 3 15 4 16 8 17 5 18 7 20
REMARK SMILES IDX 6 22 88 24 86 25 2 26 1 27 89 31 90 34 91 35 99 36 92 37
REMARK SMILES IDX 97 39 93 41 98 43 94 44 95 45 96 46 87 48 16 52 17 55 18 58
REMARK SMILES IDX 19 61 20 64 21 65 22 67 23 68 24 69 85 70 25 71 84 73 26 75
REMARK SMILES IDX 27 78 28 79 78 80 29 81 83 82 77 83 79 84 30 85 82 86 76 88
REMARK SMILES IDX 75 90 31 92 63 95 43 96 62 97 44 98 47 99 61 100 80 101
REMARK SMILES IDX 45 102 46 104 60 106 81 107 48 110 32 112 33 113 41 114
REMARK SMILES IDX 34 115 35 116 39 117 42 118 36 119 37 120 40 121 38 122
REMARK SMILES IDX 64 123 65 124 73 125 66 126 67 127 71 128 74 129 68 130
REMARK SMILES IDX 69 131 72 132 70 133 49 134 50 135 58 136 51 137 52 138
REMARK SMILES IDX 56 139 59 140 53 141 54 142 57 143 55 144
REMARK H PARENT 15 2 15 3 14 5 14 6 13 10 10 12 10 13 4 19 8 21 5 23 1 28 1 29
REMARK H PARENT 1 30 89 32 89 33 91 38 99 40 92 42 94 47 87 49 87 50 87 51
REMARK H PARENT 16 53 16 54 17 56 17 57 18 59 18 60 19 62 19 63 20 66 24 72
REMARK H PARENT 85 74 25 76 84 77 83 87 77 89 79 91 82 93 76 94 44 103 47 105
REMARK H PARENT 80 108 45 109 81 111
REMARK Flexibility Score: inf
ROOT
ATOM      1  C   UNL A   1      35.370  29.279  27.590  1.00  0.00    -0.036 C 
ATOM      2  H   UNL A   1      36.078  28.944  26.860  1.00  0.00     0.028 H 
ATOM      3  H   UNL A   1      35.623  28.957  28.578  1.00  0.00     0.028 H 
ENDROOT
BRANCH   1   4
ATOM      4  C   UNL A   1      34.007  28.673  27.253  1.00  0.00     0.017 C 
ATOM      5  H   UNL A   1      33.887  27.761  27.797  1.00  0.00     0.049 H 
ATOM      6  H   UNL A   1      33.250  29.379  27.524  1.00  0.00     0.049 H 
BRANCH   4   7
ATOM      7  N   UNL A   1      33.886  28.397  25.836  1.00  0.00    -0.356 N 
ATOM      8  C   UNL A   1      33.653  27.211  25.199  1.00  0.00     0.224 C 
ATOM      9  O   UNL A   1      33.658  27.207  23.965  1.00  0.00    -0.275 OA
ATOM     10  H   UNL A   1      33.987  29.178  25.244  1.00  0.00     0.163 HD
BRANCH   8  11
ATOM     11  C   UNL A   1      33.301  25.959  25.989  1.00  0.00     0.054 C 
ATOM     12  H   UNL A   1      33.942  25.910  26.844  1.00  0.00     0.042 H 
ATOM     13  H   UNL A   1      32.268  26.039  26.254  1.00  0.00     0.042 H 
BRANCH  11  14
ATOM     14  C   UNL A   1      33.455  24.689  25.209  1.00  0.00    -0.010 A 
ATOM     15  C   UNL A   1      36.941  23.142  25.240  1.00  0.00     0.119 A 
ATOM     16  C   UNL A   1      36.611  22.009  24.506  1.00  0.00    -0.018 A 
ATOM     17  C   UNL A   1      35.957  24.074  25.566  1.00  0.00    -0.010 A 
ATOM     18  C   UNL A   1      35.294  21.791  24.064  1.00  0.00    -0.034 A 
ATOM     19  H   UNL A   1      37.343  21.317  24.282  1.00  0.00     0.066 H 
ATOM     20  C   UNL A   1      34.637  23.902  25.096  1.00  0.00     0.007 A 
ATOM     21  H   UNL A   1      36.194  24.891  26.151  1.00  0.00     0.067 H 
ATOM     22  C   UNL A   1      34.316  22.759  24.359  1.00  0.00     0.049 A 
ATOM     23  H   UNL A   1      35.051  20.940  23.535  1.00  0.00     0.065 H 
ATOM     24  N   UNL A   1      32.959  22.833  24.066  1.00  0.00    -0.340 N 
ATOM     25  C   UNL A   1      32.493  24.094  24.403  1.00  0.00     0.020 A 
BRANCH  15  26
ATOM     26  O   UNL A   1      38.186  23.393  25.752  1.00  0.00    -0.497 OA
BRANCH  26  27
ATOM     27  C   UNL A   1      38.231  24.453  26.702  1.00  0.00     0.078 C 
ATOM     28  H   UNL A   1      39.016  25.132  26.441  1.00  0.00     0.067 H 
ATOM     29  H   UNL A   1      38.417  24.051  27.675  1.00  0.00     0.067 H 
ATOM     30  H   UNL A   1      37.297  24.972  26.702  1.00  0.00     0.067 H 
ENDBRANCH  26  27
ENDBRANCH  15  26
BRANCH  24  31
ATOM     31  C   UNL A   1      32.180  21.769  23.417  1.00  0.00     0.048 C 
ATOM     32  H   UNL A   1      32.364  21.815  22.363  1.00  0.00     0.055 H 
ATOM     33  H   UNL A   1      31.156  21.942  23.671  1.00  0.00     0.055 H 
BRANCH  31  34
ATOM     34  C   UNL A   1      32.513  20.364  23.895  1.00  0.00    -0.021 A 
ATOM     35  C   UNL A   1      32.595  20.099  25.319  1.00  0.00    -0.040 A 
ATOM     36  C   UNL A   1      32.638  19.320  23.054  1.00  0.00     0.009 A 
ATOM     37  C   UNL A   1      32.899  18.881  25.783  1.00  0.00     0.013 A 
ATOM     38  H   UNL A   1      32.414  20.864  25.986  1.00  0.00     0.064 H 
ATOM     39  C   UNL A   1      32.901  17.933  23.556  1.00  0.00     0.255 A 
ATOM     40  H   UNL A   1      32.551  19.480  22.038  1.00  0.00     0.068 H 
ATOM     41  N   UNL A   1      33.089  17.816  24.927  1.00  0.00    -0.258 N 
ATOM     42  H   UNL A   1      32.994  18.736  26.800  1.00  0.00     0.082 H 
ATOM     43  O   UNL A   1      32.936  17.018  22.750  1.00  0.00    -0.269 OA
BRANCH  41  44
ATOM     44  C   UNL A   1      33.290  16.496  25.478  1.00  0.00     0.321 C 
ATOM     45  F   UNL A   1      32.184  15.734  25.304  1.00  0.00    -0.185 F 
ATOM     46  F   UNL A   1      34.333  15.847  24.914  1.00  0.00    -0.185 F 
ATOM     47  H   UNL A   1      33.495  16.642  26.517  1.00  0.00     0.131 H 
ENDBRANCH  41  44
ENDBRANCH  31  34
ENDBRANCH  24  31
BRANCH  25  48
ATOM     48  C   UNL A   1      31.172  24.661  24.009  1.00  0.00    -0.024 C 
ATOM     49  H   UNL A   1      31.090  24.664  22.942  1.00  0.00     0.030 H 
ATOM     50  H   UNL A   1      31.089  25.662  24.376  1.00  0.00     0.030 H 
ATOM     51  H   UNL A   1      30.388  24.063  24.424  1.00  0.00     0.030 H 
ENDBRANCH  25  48
ENDBRANCH  11  14
ENDBRANCH   8  11
ENDBRANCH   4   7
ENDBRANCH   1   4
BRANCH   1  52
ATOM     52  C   UNL A   1      35.372  30.814  27.600  1.00  0.00    -0.052 C 
ATOM     53  H   UNL A   1      35.722  31.152  26.647  1.00  0.00     0.027 H 
ATOM     54  H   UNL A   1      36.004  31.108  28.412  1.00  0.00     0.027 H 
BRANCH  52  55
ATOM     55  C   UNL A   1      34.005  31.458  27.863  1.00  0.00    -0.052 C 
ATOM     56  H   UNL A   1      33.589  31.011  28.742  1.00  0.00     0.027 H 
ATOM     57  H   UNL A   1      33.417  31.286  26.985  1.00  0.00     0.027 H 
BRANCH  55  58
ATOM     58  C   UNL A   1      34.038  32.976  28.071  1.00  0.00    -0.036 C 
ATOM     59  H   UNL A   1      33.066  33.298  28.377  1.00  0.00     0.028 H 
ATOM     60  H   UNL A   1      34.336  33.416  27.141  1.00  0.00     0.028 H 
BRANCH  58  61
ATOM     61  C   UNL A   1      35.050  33.422  29.122  1.00  0.00     0.018 C 
ATOM     62  H   UNL A   1      35.026  34.491  29.183  1.00  0.00     0.049 H 
ATOM     63  H   UNL A   1      36.005  33.052  28.812  1.00  0.00     0.049 H 
BRANCH  61  64
ATOM     64  N   UNL A   1      34.799  32.885  30.440  1.00  0.00    -0.352 N 
ATOM     65  C   UNL A   1      35.475  32.045  31.277  1.00  0.00     0.251 C 
ATOM     66  H   UNL A   1      33.945  33.196  30.820  1.00  0.00     0.163 HD
ATOM     67  O   UNL A   1      35.036  31.948  32.426  1.00  0.00    -0.269 OA
BRANCH  65  68
ATOM     68  C   UNL A   1      36.611  31.172  30.875  1.00  0.00     0.039 A 
ATOM     69  C   UNL A   1      36.659  29.782  30.984  1.00  0.00    -0.049 A 
ATOM     70  C   UNL A   1      37.762  31.852  30.435  1.00  0.00    -0.049 A 
ATOM     71  C   UNL A   1      37.864  29.108  30.827  1.00  0.00    -0.053 A 
ATOM     72  H   UNL A   1      35.796  29.252  31.181  1.00  0.00     0.063 H 
ATOM     73  C   UNL A   1      38.959  31.181  30.244  1.00  0.00    -0.053 A 
ATOM     74  H   UNL A   1      37.713  32.866  30.252  1.00  0.00     0.063 H 
ATOM     75  C   UNL A   1      39.022  29.821  30.523  1.00  0.00    -0.014 A 
ATOM     76  H   UNL A   1      37.900  28.082  30.935  1.00  0.00     0.063 H 
ATOM     77  H   UNL A   1      39.791  31.684  29.899  1.00  0.00     0.063 H 
BRANCH  75  78
ATOM     78  C   UNL A   1      40.280  29.090  30.433  1.00  0.00     0.031 A 
ATOM     79  C   UNL A   1      41.004  28.937  31.728  1.00  0.00     0.074 A 
ATOM     80  C   UNL A   1      40.687  28.513  29.283  1.00  0.00     0.049 A 
ATOM     81  N   UNL A   1      42.209  29.309  32.020  1.00  0.00    -0.248 NA
ATOM     82  C   UNL A   1      40.247  28.417  32.881  1.00  0.00    -0.034 C 
ATOM     83  C   UNL A   1      39.959  28.397  28.016  1.00  0.00    -0.036 A 
ATOM     84  N   UNL A   1      41.827  27.813  29.032  1.00  0.00    -0.354 N 
ATOM     85  C   UNL A   1      42.424  28.923  33.343  1.00  0.00     0.074 A 
ATOM     86  C   UNL A   1      41.151  28.496  33.859  1.00  0.00    -0.034 C 
ATOM     87  H   UNL A   1      39.274  28.078  32.919  1.00  0.00     0.065 H 
ATOM     88  C   UNL A   1      40.558  27.470  27.235  1.00  0.00    -0.036 A 
ATOM     89  H   UNL A   1      39.119  28.939  27.760  1.00  0.00     0.065 H 
ATOM     90  C   UNL A   1      41.781  27.031  27.884  1.00  0.00     0.049 A 
ATOM     91  H   UNL A   1      42.618  27.855  29.617  1.00  0.00     0.167 HD
ATOM     92  C   UNL A   1      43.677  28.805  33.862  1.00  0.00     0.037 A 
ATOM     93  H   UNL A   1      40.961  28.281  34.850  1.00  0.00     0.065 H 
ATOM     94  H   UNL A   1      40.205  27.129  26.327  1.00  0.00     0.065 H 
ATOM     95  C   UNL A   1      42.653  26.048  27.543  1.00  0.00     0.037 A 
ATOM     96  C   UNL A   1      44.643  29.526  33.081  1.00  0.00     0.049 A 
ATOM     97  C   UNL A   1      43.890  26.261  28.335  1.00  0.00     0.074 A 
ATOM     98  C   UNL A   1      44.840  30.860  32.790  1.00  0.00    -0.036 A 
ATOM     99  N   UNL A   1      45.393  28.827  32.170  1.00  0.00    -0.354 N 
ATOM    100  N   UNL A   1      44.698  27.269  28.151  1.00  0.00    -0.248 NA
ATOM    101  C   UNL A   1      43.963  25.628  29.645  1.00  0.00    -0.034 C 
ATOM    102  C   UNL A   1      45.279  30.877  31.435  1.00  0.00    -0.036 A 
ATOM    103  H   UNL A   1      44.702  31.669  33.415  1.00  0.00     0.065 H 
ATOM    104  C   UNL A   1      45.388  29.554  31.007  1.00  0.00     0.049 A 
ATOM    105  H   UNL A   1      45.850  27.968  32.322  1.00  0.00     0.167 HD
ATOM    106  C   UNL A   1      45.061  27.664  29.429  1.00  0.00     0.074 A 
ATOM    107  C   UNL A   1      44.627  26.578  30.307  1.00  0.00    -0.034 C 
ATOM    108  H   UNL A   1      43.607  24.714  29.966  1.00  0.00     0.065 H 
ATOM    109  H   UNL A   1      45.480  31.717  30.870  1.00  0.00     0.065 H 
ATOM    110  C   UNL A   1      45.412  28.955  29.695  1.00  0.00     0.037 A 
ATOM    111  H   UNL A   1      44.812  26.551  31.322  1.00  0.00     0.065 H 
BRANCH  92 112
ATOM    112  C   UNL A   1      44.080  27.771  34.879  1.00  0.00     0.064 A 
ATOM    113  C   UNL A   1      43.930  26.401  34.579  1.00  0.00     0.173 A 
ATOM    114  C   UNL A   1      44.311  28.077  36.237  1.00  0.00     0.173 A 
ATOM    115  F   UNL A   1      43.681  26.001  33.323  1.00  0.00    -0.203 F 
ATOM    116  C   UNL A   1      43.941  25.423  35.577  1.00  0.00     0.198 A 
ATOM    117  C   UNL A   1      44.374  27.094  37.222  1.00  0.00     0.198 A 
ATOM    118  F   UNL A   1      44.371  29.340  36.677  1.00  0.00    -0.203 F 
ATOM    119  F   UNL A   1      43.675  24.148  35.263  1.00  0.00    -0.200 F 
ATOM    120  C   UNL A   1      44.158  25.771  36.898  1.00  0.00     0.200 A 
ATOM    121  F   UNL A   1      44.560  27.453  38.500  1.00  0.00    -0.200 F 
ATOM    122  F   UNL A   1      44.108  24.844  37.863  1.00  0.00    -0.200 F 
ENDBRANCH  92 112
BRANCH  95 123
ATOM    123  C   UNL A   1      42.361  24.767  26.852  1.00  0.00     0.064 A 
ATOM    124  C   UNL A   1      43.038  24.398  25.678  1.00  0.00     0.173 A 
ATOM    125  C   UNL A   1      41.607  23.755  27.481  1.00  0.00     0.173 A 
ATOM    126  F   UNL A   1      43.821  25.283  25.045  1.00  0.00    -0.203 F 
ATOM    127  C   UNL A   1      42.976  23.092  25.173  1.00  0.00     0.198 A 
ATOM    128  C   UNL A   1      41.543  22.456  26.973  1.00  0.00     0.198 A 
ATOM    129  F   UNL A   1      40.997  23.981  28.653  1.00  0.00    -0.203 F 
ATOM    130  F   UNL A   1      43.682  22.763  24.081  1.00  0.00    -0.200 F 
ATOM    131  C   UNL A   1      42.236  22.121  25.826  1.00  0.00     0.200 A 
ATOM    132  F   UNL A   1      40.854  21.517  27.639  1.00  0.00    -0.200 F 
ATOM    133  F   UNL A   1      42.224  20.859  25.376  1.00  0.00    -0.200 F 
ENDBRANCH  95 123
BRANCH 110 134
ATOM    134  C   UNL A   1      45.594  29.894  28.537  1.00  0.00     0.064 A 
ATOM    135  C   UNL A   1      44.545  30.626  27.952  1.00  0.00     0.173 A 
ATOM    136  C   UNL A   1      46.900  30.209  28.138  1.00  0.00     0.173 A 
ATOM    137  F   UNL A   1      43.280  30.458  28.353  1.00  0.00    -0.203 F 
ATOM    138  C   UNL A   1      44.795  31.608  26.994  1.00  0.00     0.198 A 
ATOM    139  C   UNL A   1      47.148  31.215  27.208  1.00  0.00     0.198 A 
ATOM    140  F   UNL A   1      47.944  29.585  28.706  1.00  0.00    -0.203 F 
ATOM    141  F   UNL A   1      43.777  32.299  26.459  1.00  0.00    -0.200 F 
ATOM    142  C   UNL A   1      46.096  31.909  26.632  1.00  0.00     0.200 A 
ATOM    143  F   UNL A   1      48.412  31.541  26.905  1.00  0.00    -0.200 F 
ATOM    144  F   UNL A   1      46.342  32.894  25.757  1.00  0.00    -0.200 F 
ENDBRANCH 110 134
ENDBRANCH  75  78
ENDBRANCH  65  68
ENDBRANCH  61  64
ENDBRANCH  58  61
ENDBRANCH  55  58
ENDBRANCH  52  55
ENDBRANCH   1  52
TORSDOF 20
ENDMDL
MODEL 6
REMARK VINA RESULT:     -12.1      2.908      4.417
REMARK SMILES COc1ccc2c(c1)c(CC(=O)NCCCCCCNC(=O)c1ccc(-c3c4nc(c(-c5c(F)c(F)c(F)c(F)c5F)c5ccc([nH]5)c(-c5c(F)c(F)c(F)c(F)c5F)c5nc(c(-c6c(F)c(F)c(F)c(F)c6F)c6ccc3[nH]6)C=C5)C=C4)cc1)c(C)n2Cc1ccn(C(F)F)c(=O)c1
REMARK SMILES IDX 15 1 14 4 13 7 11 8 12 9 10 11 9 14 3 15 4 16 8 17 5 18 7 20
REMARK SMILES IDX 6 22 88 24 86 25 2 26 1 27 89 31 90 34 91 35 99 36 92 37
REMARK SMILES IDX 97 39 93 41 98 43 94 44 95 45 96 46 87 48 16 52 17 55 18 58
REMARK SMILES IDX 19 61 20 64 21 65 22 67 23 68 24 69 85 70 25 71 84 73 26 75
REMARK SMILES IDX 27 78 28 79 78 80 29 81 83 82 77 83 79 84 30 85 82 86 76 88
REMARK SMILES IDX 75 90 31 92 63 95 43 96 62 97 44 98 47 99 61 100 80 101
REMARK SMILES IDX 45 102 46 104 60 106 81 107 48 110 32 112 33 113 41 114
REMARK SMILES IDX 34 115 35 116 39 117 42 118 36 119 37 120 40 121 38 122
REMARK SMILES IDX 64 123 65 124 73 125 66 126 67 127 71 128 74 129 68 130
REMARK SMILES IDX 69 131 72 132 70 133 49 134 50 135 58 136 51 137 52 138
REMARK SMILES IDX 56 139 59 140 53 141 54 142 57 143 55 144
REMARK H PARENT 15 2 15 3 14 5 14 6 13 10 10 12 10 13 4 19 8 21 5 23 1 28 1 29
REMARK H PARENT 1 30 89 32 89 33 91 38 99 40 92 42 94 47 87 49 87 50 87 51
REMARK H PARENT 16 53 16 54 17 56 17 57 18 59 18 60 19 62 19 63 20 66 24 72
REMARK H PARENT 85 74 25 76 84 77 83 87 77 89 79 91 82 93 76 94 44 103 47 105
REMARK H PARENT 80 108 45 109 81 111
REMARK Flexibility Score: inf
ROOT
ATOM      1  C   UNL A   1      31.975  26.200  26.885  1.00  0.00    -0.036 C 
ATOM      2  H   UNL A   1      32.958  26.328  26.481  1.00  0.00     0.028 H 
ATOM      3  H   UNL A   1      31.971  26.224  27.954  1.00  0.00     0.028 H 
ENDROOT
BRANCH   1   4
ATOM      4  C   UNL A   1      31.455  24.826  26.463  1.00  0.00     0.017 C 
ATOM      5  H   UNL A   1      30.393  24.875  26.351  1.00  0.00     0.049 H 
ATOM      6  H   UNL A   1      31.922  24.560  25.537  1.00  0.00     0.049 H 
BRANCH   4   7
ATOM      7  N   UNL A   1      31.780  23.812  27.445  1.00  0.00    -0.356 N 
ATOM      8  C   UNL A   1      32.846  22.961  27.496  1.00  0.00     0.224 C 
ATOM      9  O   UNL A   1      32.878  22.126  28.404  1.00  0.00    -0.275 OA
ATOM     10  H   UNL A   1      31.136  23.723  28.186  1.00  0.00     0.163 HD
BRANCH   8  11
ATOM     11  C   UNL A   1      34.005  23.106  26.520  1.00  0.00     0.054 C 
ATOM     12  H   UNL A   1      34.517  24.018  26.740  1.00  0.00     0.042 H 
ATOM     13  H   UNL A   1      34.627  22.245  26.645  1.00  0.00     0.042 H 
BRANCH  11  14
ATOM     14  C   UNL A   1      33.583  23.136  25.082  1.00  0.00    -0.010 A 
ATOM     15  C   UNL A   1      32.425  19.805  23.631  1.00  0.00     0.119 A 
ATOM     16  C   UNL A   1      32.073  20.299  22.379  1.00  0.00    -0.018 A 
ATOM     17  C   UNL A   1      32.896  20.671  24.616  1.00  0.00    -0.010 A 
ATOM     18  C   UNL A   1      32.203  21.666  22.079  1.00  0.00    -0.034 A 
ATOM     19  H   UNL A   1      31.712  19.652  21.661  1.00  0.00     0.066 H 
ATOM     20  C   UNL A   1      33.078  22.040  24.325  1.00  0.00     0.007 A 
ATOM     21  H   UNL A   1      33.112  20.311  25.559  1.00  0.00     0.067 H 
ATOM     22  C   UNL A   1      32.721  22.527  23.064  1.00  0.00     0.049 A 
ATOM     23  H   UNL A   1      31.923  22.030  21.155  1.00  0.00     0.065 H 
ATOM     24  N   UNL A   1      32.969  23.895  23.072  1.00  0.00    -0.340 N 
ATOM     25  C   UNL A   1      33.678  24.219  24.217  1.00  0.00     0.020 A 
BRANCH  15  26
ATOM     26  O   UNL A   1      32.272  18.499  24.014  1.00  0.00    -0.497 OA
BRANCH  26  27
ATOM     27  C   UNL A   1      32.988  17.563  23.214  1.00  0.00     0.078 C 
ATOM     28  H   UNL A   1      33.887  17.278  23.718  1.00  0.00     0.067 H 
ATOM     29  H   UNL A   1      33.233  18.011  22.274  1.00  0.00     0.067 H 
ATOM     30  H   UNL A   1      32.382  16.698  23.050  1.00  0.00     0.067 H 
ENDBRANCH  26  27
ENDBRANCH  15  26
BRANCH  24  31
ATOM     31  C   UNL A   1      32.609  24.819  21.986  1.00  0.00     0.048 C 
ATOM     32  H   UNL A   1      32.178  24.249  21.190  1.00  0.00     0.055 H 
ATOM     33  H   UNL A   1      33.511  25.319  21.702  1.00  0.00     0.055 H 
BRANCH  31  34
ATOM     34  C   UNL A   1      31.620  25.903  22.384  1.00  0.00    -0.021 A 
ATOM     35  C   UNL A   1      31.858  27.271  21.966  1.00  0.00    -0.040 A 
ATOM     36  C   UNL A   1      30.468  25.635  23.026  1.00  0.00     0.009 A 
ATOM     37  C   UNL A   1      31.021  28.258  22.306  1.00  0.00     0.013 A 
ATOM     38  H   UNL A   1      32.689  27.488  21.395  1.00  0.00     0.064 H 
ATOM     39  C   UNL A   1      29.478  26.713  23.349  1.00  0.00     0.255 A 
ATOM     40  H   UNL A   1      30.262  24.662  23.304  1.00  0.00     0.068 H 
ATOM     41  N   UNL A   1      29.867  28.004  23.018  1.00  0.00    -0.258 N 
ATOM     42  H   UNL A   1      31.243  29.228  22.031  1.00  0.00     0.082 H 
ATOM     43  O   UNL A   1      28.421  26.397  23.871  1.00  0.00    -0.269 OA
BRANCH  41  44
ATOM     44  C   UNL A   1      28.932  29.079  23.252  1.00  0.00     0.321 C 
ATOM     45  F   UNL A   1      29.523  30.280  23.039  1.00  0.00    -0.185 F 
ATOM     46  F   UNL A   1      27.842  29.008  22.455  1.00  0.00    -0.185 F 
ATOM     47  H   UNL A   1      28.622  28.980  24.270  1.00  0.00     0.131 H 
ENDBRANCH  41  44
ENDBRANCH  31  34
ENDBRANCH  24  31
BRANCH  25  48
ATOM     48  C   UNL A   1      34.359  25.520  24.473  1.00  0.00    -0.024 C 
ATOM     49  H   UNL A   1      35.248  25.350  25.043  1.00  0.00     0.030 H 
ATOM     50  H   UNL A   1      33.702  26.164  25.019  1.00  0.00     0.030 H 
ATOM     51  H   UNL A   1      34.614  25.978  23.541  1.00  0.00     0.030 H 
ENDBRANCH  25  48
ENDBRANCH  11  14
ENDBRANCH   8  11
ENDBRANCH   4   7
ENDBRANCH   1   4
BRANCH   1  52
ATOM     52  C   UNL A   1      31.097  27.362  26.403  1.00  0.00    -0.052 C 
ATOM     53  H   UNL A   1      30.487  27.680  27.223  1.00  0.00     0.027 H 
ATOM     54  H   UNL A   1      30.531  26.988  25.575  1.00  0.00     0.027 H 
BRANCH  52  55
ATOM     55  C   UNL A   1      31.870  28.580  25.881  1.00  0.00    -0.052 C 
ATOM     56  H   UNL A   1      31.332  28.984  25.048  1.00  0.00     0.027 H 
ATOM     57  H   UNL A   1      32.847  28.229  25.621  1.00  0.00     0.027 H 
BRANCH  55  58
ATOM     58  C   UNL A   1      32.072  29.702  26.906  1.00  0.00    -0.036 C 
ATOM     59  H   UNL A   1      31.840  29.318  27.877  1.00  0.00     0.028 H 
ATOM     60  H   UNL A   1      31.426  30.508  26.625  1.00  0.00     0.028 H 
BRANCH  58  61
ATOM     61  C   UNL A   1      33.495  30.252  26.928  1.00  0.00     0.018 C 
ATOM     62  H   UNL A   1      33.659  30.800  26.023  1.00  0.00     0.049 H 
ATOM     63  H   UNL A   1      34.152  29.413  27.023  1.00  0.00     0.049 H 
BRANCH  61  64
ATOM     64  N   UNL A   1      33.766  31.128  28.045  1.00  0.00    -0.352 N 
ATOM     65  C   UNL A   1      34.897  31.531  28.694  1.00  0.00     0.251 C 
ATOM     66  H   UNL A   1      32.948  31.523  28.425  1.00  0.00     0.163 HD
ATOM     67  O   UNL A   1      34.764  32.448  29.509  1.00  0.00    -0.269 OA
BRANCH  65  68
ATOM     68  C   UNL A   1      36.229  30.879  28.572  1.00  0.00     0.039 A 
ATOM     69  C   UNL A   1      36.468  29.561  28.184  1.00  0.00    -0.049 A 
ATOM     70  C   UNL A   1      37.321  31.668  28.981  1.00  0.00    -0.049 A 
ATOM     71  C   UNL A   1      37.723  28.994  28.364  1.00  0.00    -0.053 A 
ATOM     72  H   UNL A   1      35.709  29.004  27.762  1.00  0.00     0.063 H 
ATOM     73  C   UNL A   1      38.584  31.118  29.131  1.00  0.00    -0.053 A 
ATOM     74  H   UNL A   1      37.179  32.672  29.173  1.00  0.00     0.063 H 
ATOM     75  C   UNL A   1      38.759  29.758  28.900  1.00  0.00    -0.014 A 
ATOM     76  H   UNL A   1      37.889  28.009  28.102  1.00  0.00     0.063 H 
ATOM     77  H   UNL A   1      39.383  31.708  29.409  1.00  0.00     0.063 H 
BRANCH  75  78
ATOM     78  C   UNL A   1      40.043  29.111  29.138  1.00  0.00     0.031 A 
ATOM     79  C   UNL A   1      40.363  28.875  30.576  1.00  0.00     0.074 A 
ATOM     80  C   UNL A   1      40.817  28.672  28.124  1.00  0.00     0.049 A 
ATOM     81  N   UNL A   1      41.394  29.284  31.244  1.00  0.00    -0.248 NA
ATOM     82  C   UNL A   1      39.346  28.204  31.404  1.00  0.00    -0.034 C 
ATOM     83  C   UNL A   1      40.508  28.638  26.691  1.00  0.00    -0.036 A 
ATOM     84  N   UNL A   1      42.035  28.065  28.176  1.00  0.00    -0.354 N 
ATOM     85  C   UNL A   1      41.241  28.785  32.537  1.00  0.00     0.074 A 
ATOM     86  C   UNL A   1      39.911  28.239  32.612  1.00  0.00    -0.034 C 
ATOM     87  H   UNL A   1      38.436  27.809  31.123  1.00  0.00     0.065 H 
ATOM     88  C   UNL A   1      41.385  27.826  26.060  1.00  0.00    -0.036 A 
ATOM     89  H   UNL A   1      39.739  29.153  26.236  1.00  0.00     0.065 H 
ATOM     90  C   UNL A   1      42.393  27.397  27.011  1.00  0.00     0.049 A 
ATOM     91  H   UNL A   1      42.612  28.095  28.973  1.00  0.00     0.167 HD
ATOM     92  C   UNL A   1      42.290  28.689  33.398  1.00  0.00     0.037 A 
ATOM     93  H   UNL A   1      39.456  27.919  33.481  1.00  0.00     0.065 H 
ATOM     94  H   UNL A   1      41.344  27.555  25.064  1.00  0.00     0.065 H 
ATOM     95  C   UNL A   1      43.405  26.502  26.875  1.00  0.00     0.037 A 
ATOM     96  C   UNL A   1      43.380  29.535  33.001  1.00  0.00     0.049 A 
ATOM     97  C   UNL A   1      44.333  26.706  28.016  1.00  0.00     0.074 A 
ATOM     98  C   UNL A   1      43.543  30.900  32.884  1.00  0.00    -0.036 A 
ATOM     99  N   UNL A   1      44.421  28.971  32.308  1.00  0.00    -0.354 N 
ATOM    100  N   UNL A   1      45.072  27.772  28.160  1.00  0.00    -0.248 NA
ATOM    101  C   UNL A   1      44.068  25.955  29.236  1.00  0.00    -0.034 C 
ATOM    102  C   UNL A   1      44.359  31.073  31.729  1.00  0.00    -0.036 A 
ATOM    103  H   UNL A   1      43.160  31.636  33.497  1.00  0.00     0.065 H 
ATOM    104  C   UNL A   1      44.698  29.805  31.256  1.00  0.00     0.049 A 
ATOM    105  H   UNL A   1      44.881  28.128  32.525  1.00  0.00     0.167 HD
ATOM    106  C   UNL A   1      45.008  28.061  29.515  1.00  0.00     0.074 A 
ATOM    107  C   UNL A   1      44.426  26.873  30.137  1.00  0.00    -0.034 C 
ATOM    108  H   UNL A   1      43.710  24.995  29.365  1.00  0.00     0.065 H 
ATOM    109  H   UNL A   1      44.647  31.973  31.316  1.00  0.00     0.065 H 
ATOM    110  C   UNL A   1      45.157  29.339  29.971  1.00  0.00     0.037 A 
ATOM    111  H   UNL A   1      44.306  26.758  31.156  1.00  0.00     0.065 H 
BRANCH  92 112
ATOM    112  C   UNL A   1      42.459  27.585  34.409  1.00  0.00     0.064 A 
ATOM    113  C   UNL A   1      43.012  26.352  34.009  1.00  0.00     0.173 A 
ATOM    114  C   UNL A   1      41.819  27.589  35.666  1.00  0.00     0.173 A 
ATOM    115  F   UNL A   1      43.621  26.230  32.820  1.00  0.00    -0.203 F 
ATOM    116  C   UNL A   1      42.869  25.196  34.782  1.00  0.00     0.198 A 
ATOM    117  C   UNL A   1      41.724  26.446  36.457  1.00  0.00     0.198 A 
ATOM    118  F   UNL A   1      41.164  28.664  36.124  1.00  0.00    -0.203 F 
ATOM    119  F   UNL A   1      43.304  24.020  34.308  1.00  0.00    -0.200 F 
ATOM    120  C   UNL A   1      42.220  25.244  36.002  1.00  0.00     0.200 A 
ATOM    121  F   UNL A   1      41.071  26.507  37.626  1.00  0.00    -0.200 F 
ATOM    122  F   UNL A   1      42.029  24.126  36.715  1.00  0.00    -0.200 F 
ENDBRANCH  92 112
BRANCH  95 123
ATOM    123  C   UNL A   1      43.438  25.279  26.034  1.00  0.00     0.064 A 
ATOM    124  C   UNL A   1      44.522  25.002  25.186  1.00  0.00     0.173 A 
ATOM    125  C   UNL A   1      42.531  24.221  26.251  1.00  0.00     0.173 A 
ATOM    126  F   UNL A   1      45.461  25.934  24.967  1.00  0.00    -0.203 F 
ATOM    127  C   UNL A   1      44.696  23.740  24.602  1.00  0.00     0.198 A 
ATOM    128  C   UNL A   1      42.703  22.966  25.664  1.00  0.00     0.198 A 
ATOM    129  F   UNL A   1      41.512  24.355  27.113  1.00  0.00    -0.203 F 
ATOM    130  F   UNL A   1      45.775  23.497  23.843  1.00  0.00    -0.200 F 
ATOM    131  C   UNL A   1      43.791  22.721  24.849  1.00  0.00     0.200 A 
ATOM    132  F   UNL A   1      41.841  21.978  25.945  1.00  0.00    -0.200 F 
ATOM    133  F   UNL A   1      43.989  21.499  24.338  1.00  0.00    -0.200 F 
ENDBRANCH  95 123
BRANCH 110 134
ATOM    134  C   UNL A   1      45.595  30.393  28.995  1.00  0.00     0.064 A 
ATOM    135  C   UNL A   1      44.708  31.113  28.174  1.00  0.00     0.173 A 
ATOM    136  C   UNL A   1      46.927  30.824  29.038  1.00  0.00     0.173 A 
ATOM    137  F   UNL A   1      43.401  30.830  28.156  1.00  0.00    -0.203 F 
ATOM    138  C   UNL A   1      45.146  32.196  27.412  1.00  0.00     0.198 A 
ATOM    139  C   UNL A   1      47.353  31.928  28.304  1.00  0.00     0.198 A 
ATOM    140  F   UNL A   1      47.805  30.213  29.850  1.00  0.00    -0.203 F 
ATOM    141  F   UNL A   1      44.279  32.872  26.643  1.00  0.00    -0.200 F 
ATOM    142  C   UNL A   1      46.465  32.609  27.487  1.00  0.00     0.200 A 
ATOM    143  F   UNL A   1      48.616  32.358  28.425  1.00  0.00    -0.200 F 
ATOM    144  F   UNL A   1      46.873  33.687  26.803  1.00  0.00    -0.200 F 
ENDBRANCH 110 134
ENDBRANCH  75  78
ENDBRANCH  65  68
ENDBRANCH  61  64
ENDBRANCH  58  61
ENDBRANCH  55  58
ENDBRANCH  52  55
ENDBRANCH   1  52
TORSDOF 20
ENDMDL
MODEL 7
REMARK VINA RESULT:     -11.9      4.653     10.189
REMARK SMILES COc1ccc2c(c1)c(CC(=O)NCCCCCCNC(=O)c1ccc(-c3c4nc(c(-c5c(F)c(F)c(F)c(F)c5F)c5ccc([nH]5)c(-c5c(F)c(F)c(F)c(F)c5F)c5nc(c(-c6c(F)c(F)c(F)c(F)c6F)c6ccc3[nH]6)C=C5)C=C4)cc1)c(C)n2Cc1ccn(C(F)F)c(=O)c1
REMARK SMILES IDX 15 1 14 4 13 7 11 8 12 9 10 11 9 14 3 15 4 16 8 17 5 18 7 20
REMARK SMILES IDX 6 22 88 24 86 25 2 26 1 27 89 31 90 34 91 35 99 36 92 37
REMARK SMILES IDX 97 39 93 41 98 43 94 44 95 45 96 46 87 48 16 52 17 55 18 58
REMARK SMILES IDX 19 61 20 64 21 65 22 67 23 68 24 69 85 70 25 71 84 73 26 75
REMARK SMILES IDX 27 78 28 79 78 80 29 81 83 82 77 83 79 84 30 85 82 86 76 88
REMARK SMILES IDX 75 90 31 92 63 95 43 96 62 97 44 98 47 99 61 100 80 101
REMARK SMILES IDX 45 102 46 104 60 106 81 107 48 110 32 112 33 113 41 114
REMARK SMILES IDX 34 115 35 116 39 117 42 118 36 119 37 120 40 121 38 122
REMARK SMILES IDX 64 123 65 124 73 125 66 126 67 127 71 128 74 129 68 130
REMARK SMILES IDX 69 131 72 132 70 133 49 134 50 135 58 136 51 137 52 138
REMARK SMILES IDX 56 139 59 140 53 141 54 142 57 143 55 144
REMARK H PARENT 15 2 15 3 14 5 14 6 13 10 10 12 10 13 4 19 8 21 5 23 1 28 1 29
REMARK H PARENT 1 30 89 32 89 33 91 38 99 40 92 42 94 47 87 49 87 50 87 51
REMARK H PARENT 16 53 16 54 17 56 17 57 18 59 18 60 19 62 19 63 20 66 24 72
REMARK H PARENT 85 74 25 76 84 77 83 87 77 89 79 91 82 93 76 94 44 103 47 105
REMARK H PARENT 80 108 45 109 81 111
REMARK Flexibility Score: inf
ROOT
ATOM      1  C   UNL A   1      40.177  23.119  26.769  1.00  0.00    -0.036 C 
ATOM      2  H   UNL A   1      40.388  22.989  27.810  1.00  0.00     0.028 H 
ATOM      3  H   UNL A   1      40.706  23.947  26.348  1.00  0.00     0.028 H 
ENDROOT
BRANCH   1   4
ATOM      4  C   UNL A   1      38.684  23.411  26.612  1.00  0.00     0.017 C 
ATOM      5  H   UNL A   1      38.136  22.798  27.295  1.00  0.00     0.049 H 
ATOM      6  H   UNL A   1      38.521  24.448  26.817  1.00  0.00     0.049 H 
BRANCH   4   7
ATOM      7  N   UNL A   1      38.230  23.136  25.264  1.00  0.00    -0.356 N 
ATOM      8  C   UNL A   1      37.028  23.414  24.678  1.00  0.00     0.224 C 
ATOM      9  O   UNL A   1      36.842  23.020  23.523  1.00  0.00    -0.275 OA
ATOM     10  H   UNL A   1      38.884  22.682  24.684  1.00  0.00     0.163 HD
BRANCH   8  11
ATOM     11  C   UNL A   1      35.991  24.266  25.396  1.00  0.00     0.054 C 
ATOM     12  H   UNL A   1      36.175  24.205  26.447  1.00  0.00     0.042 H 
ATOM     13  H   UNL A   1      36.092  25.262  25.018  1.00  0.00     0.042 H 
BRANCH  11  14
ATOM     14  C   UNL A   1      34.577  23.843  25.138  1.00  0.00    -0.010 A 
ATOM     15  C   UNL A   1      32.664  25.937  22.588  1.00  0.00     0.119 A 
ATOM     16  C   UNL A   1      31.502  25.175  22.607  1.00  0.00    -0.018 A 
ATOM     17  C   UNL A   1      33.761  25.557  23.360  1.00  0.00    -0.010 A 
ATOM     18  C   UNL A   1      31.403  24.026  23.411  1.00  0.00    -0.034 A 
ATOM     19  H   UNL A   1      30.700  25.456  22.022  1.00  0.00     0.066 H 
ATOM     20  C   UNL A   1      33.672  24.434  24.210  1.00  0.00     0.007 A 
ATOM     21  H   UNL A   1      34.640  26.097  23.309  1.00  0.00     0.067 H 
ATOM     22  C   UNL A   1      32.499  23.673  24.221  1.00  0.00     0.049 A 
ATOM     23  H   UNL A   1      30.545  23.453  23.408  1.00  0.00     0.065 H 
ATOM     24  N   UNL A   1      32.705  22.622  25.107  1.00  0.00    -0.340 N 
ATOM     25  C   UNL A   1      33.879  22.847  25.808  1.00  0.00     0.020 A 
BRANCH  15  26
ATOM     26  O   UNL A   1      32.853  27.033  21.790  1.00  0.00    -0.497 OA
BRANCH  26  27
ATOM     27  C   UNL A   1      33.819  27.959  22.278  1.00  0.00     0.078 C 
ATOM     28  H   UNL A   1      33.322  28.836  22.637  1.00  0.00     0.067 H 
ATOM     29  H   UNL A   1      34.487  28.227  21.487  1.00  0.00     0.067 H 
ATOM     30  H   UNL A   1      34.371  27.511  23.076  1.00  0.00     0.067 H 
ENDBRANCH  26  27
ENDBRANCH  15  26
BRANCH  24  31
ATOM     31  C   UNL A   1      31.769  21.508  25.320  1.00  0.00     0.048 C 
ATOM     32  H   UNL A   1      30.851  21.743  24.823  1.00  0.00     0.055 H 
ATOM     33  H   UNL A   1      31.658  21.402  26.379  1.00  0.00     0.055 H 
BRANCH  31  34
ATOM     34  C   UNL A   1      32.261  20.166  24.801  1.00  0.00    -0.021 A 
ATOM     35  C   UNL A   1      32.765  19.182  25.739  1.00  0.00    -0.040 A 
ATOM     36  C   UNL A   1      32.154  19.804  23.509  1.00  0.00     0.009 A 
ATOM     37  C   UNL A   1      33.220  17.994  25.324  1.00  0.00     0.013 A 
ATOM     38  H   UNL A   1      32.773  19.402  26.747  1.00  0.00     0.064 H 
ATOM     39  C   UNL A   1      32.585  18.450  23.034  1.00  0.00     0.255 A 
ATOM     40  H   UNL A   1      31.767  20.476  22.828  1.00  0.00     0.068 H 
ATOM     41  N   UNL A   1      33.173  17.635  23.993  1.00  0.00    -0.258 N 
ATOM     42  H   UNL A   1      33.615  17.334  26.013  1.00  0.00     0.082 H 
ATOM     43  O   UNL A   1      32.400  18.156  21.864  1.00  0.00    -0.269 OA
BRANCH  41  44
ATOM     44  C   UNL A   1      33.557  16.297  23.609  1.00  0.00     0.321 C 
ATOM     45  F   UNL A   1      34.587  16.330  22.731  1.00  0.00    -0.185 F 
ATOM     46  F   UNL A   1      33.935  15.539  24.663  1.00  0.00    -0.185 F 
ATOM     47  H   UNL A   1      32.689  15.861  23.164  1.00  0.00     0.131 H 
ENDBRANCH  41  44
ENDBRANCH  31  34
ENDBRANCH  24  31
BRANCH  25  48
ATOM     48  C   UNL A   1      34.316  22.100  27.022  1.00  0.00    -0.024 C 
ATOM     49  H   UNL A   1      34.334  21.052  26.808  1.00  0.00     0.030 H 
ATOM     50  H   UNL A   1      33.632  22.289  27.823  1.00  0.00     0.030 H 
ATOM     51  H   UNL A   1      35.296  22.423  27.306  1.00  0.00     0.030 H 
ENDBRANCH  25  48
ENDBRANCH  11  14
ENDBRANCH   8  11
ENDBRANCH   4   7
ENDBRANCH   1   4
BRANCH   1  52
ATOM     52  C   UNL A   1      40.637  21.861  26.019  1.00  0.00    -0.052 C 
ATOM     53  H   UNL A   1      41.545  22.095  25.504  1.00  0.00     0.027 H 
ATOM     54  H   UNL A   1      39.836  21.592  25.364  1.00  0.00     0.027 H 
BRANCH  52  55
ATOM     55  C   UNL A   1      40.894  20.638  26.910  1.00  0.00    -0.052 C 
ATOM     56  H   UNL A   1      39.953  20.306  27.298  1.00  0.00     0.027 H 
ATOM     57  H   UNL A   1      41.574  20.958  27.672  1.00  0.00     0.027 H 
BRANCH  55  58
ATOM     58  C   UNL A   1      41.563  19.455  26.201  1.00  0.00    -0.036 C 
ATOM     59  H   UNL A   1      41.200  19.413  25.196  1.00  0.00     0.028 H 
ATOM     60  H   UNL A   1      41.317  18.574  26.757  1.00  0.00     0.028 H 
BRANCH  58  61
ATOM     61  C   UNL A   1      43.085  19.554  26.164  1.00  0.00     0.018 C 
ATOM     62  H   UNL A   1      43.491  18.595  26.414  1.00  0.00     0.049 H 
ATOM     63  H   UNL A   1      43.365  20.312  26.865  1.00  0.00     0.049 H 
BRANCH  61  64
ATOM     64  N   UNL A   1      43.614  19.951  24.879  1.00  0.00    -0.352 N 
ATOM     65  C   UNL A   1      44.355  21.009  24.434  1.00  0.00     0.251 C 
ATOM     66  H   UNL A   1      43.388  19.316  24.162  1.00  0.00     0.163 HD
ATOM     67  O   UNL A   1      44.787  20.927  23.282  1.00  0.00    -0.269 OA
BRANCH  65  68
ATOM     68  C   UNL A   1      44.576  22.273  25.187  1.00  0.00     0.039 A 
ATOM     69  C   UNL A   1      45.382  22.429  26.314  1.00  0.00    -0.049 A 
ATOM     70  C   UNL A   1      43.814  23.372  24.748  1.00  0.00    -0.049 A 
ATOM     71  C   UNL A   1      45.300  23.585  27.080  1.00  0.00    -0.053 A 
ATOM     72  H   UNL A   1      46.044  21.683  26.581  1.00  0.00     0.063 H 
ATOM     73  C   UNL A   1      43.752  24.540  25.489  1.00  0.00    -0.053 A 
ATOM     74  H   UNL A   1      43.292  23.306  23.861  1.00  0.00     0.063 H 
ATOM     75  C   UNL A   1      44.433  24.609  26.699  1.00  0.00    -0.014 A 
ATOM     76  H   UNL A   1      45.878  23.686  27.930  1.00  0.00     0.063 H 
ATOM     77  H   UNL A   1      43.209  25.349  25.149  1.00  0.00     0.063 H 
BRANCH  75  78
ATOM     78  C   UNL A   1      44.322  25.777  27.564  1.00  0.00     0.031 A 
ATOM     79  C   UNL A   1      45.466  26.730  27.473  1.00  0.00     0.074 A 
ATOM     80  C   UNL A   1      43.217  26.013  28.301  1.00  0.00     0.049 A 
ATOM     81  N   UNL A   1      46.241  27.143  28.423  1.00  0.00    -0.248 NA
ATOM     82  C   UNL A   1      45.875  27.185  26.132  1.00  0.00    -0.034 C 
ATOM     83  C   UNL A   1      41.947  25.280  28.299  1.00  0.00    -0.036 A 
ATOM     84  N   UNL A   1      42.962  27.039  29.159  1.00  0.00    -0.354 N 
ATOM     85  C   UNL A   1      47.135  28.036  27.834  1.00  0.00     0.074 A 
ATOM     86  C   UNL A   1      46.946  27.928  26.411  1.00  0.00    -0.034 C 
ATOM     87  H   UNL A   1      45.444  26.982  25.218  1.00  0.00     0.065 H 
ATOM     88  C   UNL A   1      40.997  26.022  28.910  1.00  0.00    -0.036 A 
ATOM     89  H   UNL A   1      41.801  24.343  27.892  1.00  0.00     0.065 H 
ATOM     90  C   UNL A   1      41.617  27.211  29.464  1.00  0.00     0.049 A 
ATOM     91  H   UNL A   1      43.670  27.612  29.530  1.00  0.00     0.167 HD
ATOM     92  C   UNL A   1      47.836  28.941  28.570  1.00  0.00     0.037 A 
ATOM     93  H   UNL A   1      47.557  28.366  25.703  1.00  0.00     0.065 H 
ATOM     94  H   UNL A   1      39.994  25.783  28.971  1.00  0.00     0.065 H 
ATOM     95  C   UNL A   1      41.060  28.294  30.065  1.00  0.00     0.037 A 
ATOM     96  C   UNL A   1      47.889  28.569  29.956  1.00  0.00     0.049 A 
ATOM     97  C   UNL A   1      42.152  29.031  30.749  1.00  0.00     0.074 A 
ATOM     98  C   UNL A   1      48.443  27.509  30.646  1.00  0.00    -0.036 A 
ATOM     99  N   UNL A   1      47.003  29.158  30.821  1.00  0.00    -0.354 N 
ATOM    100  N   UNL A   1      42.787  28.571  31.792  1.00  0.00    -0.248 NA
ATOM    101  C   UNL A   1      42.860  30.044  29.978  1.00  0.00    -0.034 C 
ATOM    102  C   UNL A   1      47.509  27.219  31.681  1.00  0.00    -0.036 A 
ATOM    103  H   UNL A   1      49.338  27.032  30.455  1.00  0.00     0.065 H 
ATOM    104  C   UNL A   1      46.481  28.159  31.601  1.00  0.00     0.049 A 
ATOM    105  H   UNL A   1      46.784  30.117  30.873  1.00  0.00     0.167 HD
ATOM    106  C   UNL A   1      44.114  28.907  31.571  1.00  0.00     0.074 A 
ATOM    107  C   UNL A   1      44.090  29.867  30.468  1.00  0.00    -0.034 C 
ATOM    108  H   UNL A   1      42.513  30.704  29.264  1.00  0.00     0.065 H 
ATOM    109  H   UNL A   1      47.580  26.452  32.367  1.00  0.00     0.065 H 
ATOM    110  C   UNL A   1      45.128  28.162  32.098  1.00  0.00     0.037 A 
ATOM    111  H   UNL A   1      44.927  30.352  30.110  1.00  0.00     0.065 H 
BRANCH  92 112
ATOM    112  C   UNL A   1      48.189  30.327  28.099  1.00  0.00     0.064 A 
ATOM    113  C   UNL A   1      47.164  31.213  27.708  1.00  0.00     0.173 A 
ATOM    114  C   UNL A   1      49.497  30.704  27.728  1.00  0.00     0.173 A 
ATOM    115  F   UNL A   1      45.881  30.938  27.986  1.00  0.00    -0.203 F 
ATOM    116  C   UNL A   1      47.428  32.351  26.940  1.00  0.00     0.198 A 
ATOM    117  C   UNL A   1      49.761  31.867  27.008  1.00  0.00     0.198 A 
ATOM    118  F   UNL A   1      50.551  29.908  27.947  1.00  0.00    -0.203 F 
ATOM    119  F   UNL A   1      46.412  33.099  26.488  1.00  0.00    -0.200 F 
ATOM    120  C   UNL A   1      48.726  32.674  26.587  1.00  0.00     0.200 A 
ATOM    121  F   UNL A   1      51.023  32.150  26.655  1.00  0.00    -0.200 F 
ATOM    122  F   UNL A   1      48.974  33.730  25.801  1.00  0.00    -0.200 F 
ENDBRANCH  92 112
BRANCH  95 123
ATOM    123  C   UNL A   1      39.733  28.905  29.800  1.00  0.00     0.064 A 
ATOM    124  C   UNL A   1      39.343  29.270  28.501  1.00  0.00     0.173 A 
ATOM    125  C   UNL A   1      38.716  28.894  30.776  1.00  0.00     0.173 A 
ATOM    126  F   UNL A   1      40.234  29.256  27.500  1.00  0.00    -0.203 F 
ATOM    127  C   UNL A   1      38.013  29.588  28.195  1.00  0.00     0.198 A 
ATOM    128  C   UNL A   1      37.393  29.217  30.471  1.00  0.00     0.198 A 
ATOM    129  F   UNL A   1      38.967  28.476  32.025  1.00  0.00    -0.203 F 
ATOM    130  F   UNL A   1      37.667  29.876  26.931  1.00  0.00    -0.200 F 
ATOM    131  C   UNL A   1      37.038  29.553  29.178  1.00  0.00     0.200 A 
ATOM    132  F   UNL A   1      36.453  29.138  31.425  1.00  0.00    -0.200 F 
ATOM    133  F   UNL A   1      35.757  29.800  28.874  1.00  0.00    -0.200 F 
ENDBRANCH  95 123
BRANCH 110 134
ATOM    134  C   UNL A   1      44.778  27.091  33.091  1.00  0.00     0.064 A 
ATOM    135  C   UNL A   1      44.528  27.341  34.452  1.00  0.00     0.173 A 
ATOM    136  C   UNL A   1      44.497  25.806  32.609  1.00  0.00     0.173 A 
ATOM    137  F   UNL A   1      44.672  28.567  34.967  1.00  0.00    -0.203 F 
ATOM    138  C   UNL A   1      44.043  26.340  35.294  1.00  0.00     0.198 A 
ATOM    139  C   UNL A   1      43.979  24.819  33.444  1.00  0.00     0.198 A 
ATOM    140  F   UNL A   1      44.660  25.527  31.306  1.00  0.00    -0.203 F 
ATOM    141  F   UNL A   1      43.802  26.606  36.586  1.00  0.00    -0.200 F 
ATOM    142  C   UNL A   1      43.758  25.084  34.786  1.00  0.00     0.200 A 
ATOM    143  F   UNL A   1      43.652  23.624  32.934  1.00  0.00    -0.200 F 
ATOM    144  F   UNL A   1      43.235  24.139  35.579  1.00  0.00    -0.200 F 
ENDBRANCH 110 134
ENDBRANCH  75  78
ENDBRANCH  65  68
ENDBRANCH  61  64
ENDBRANCH  58  61
ENDBRANCH  55  58
ENDBRANCH  52  55
ENDBRANCH   1  52
TORSDOF 20
ENDMDL
MODEL 8
REMARK VINA RESULT:     -11.9      2.923      4.670
REMARK SMILES COc1ccc2c(c1)c(CC(=O)NCCCCCCNC(=O)c1ccc(-c3c4nc(c(-c5c(F)c(F)c(F)c(F)c5F)c5ccc([nH]5)c(-c5c(F)c(F)c(F)c(F)c5F)c5nc(c(-c6c(F)c(F)c(F)c(F)c6F)c6ccc3[nH]6)C=C5)C=C4)cc1)c(C)n2Cc1ccn(C(F)F)c(=O)c1
REMARK SMILES IDX 15 1 14 4 13 7 11 8 12 9 10 11 9 14 3 15 4 16 8 17 5 18 7 20
REMARK SMILES IDX 6 22 88 24 86 25 2 26 1 27 89 31 90 34 91 35 99 36 92 37
REMARK SMILES IDX 97 39 93 41 98 43 94 44 95 45 96 46 87 48 16 52 17 55 18 58
REMARK SMILES IDX 19 61 20 64 21 65 22 67 23 68 24 69 85 70 25 71 84 73 26 75
REMARK SMILES IDX 27 78 28 79 78 80 29 81 83 82 77 83 79 84 30 85 82 86 76 88
REMARK SMILES IDX 75 90 31 92 63 95 43 96 62 97 44 98 47 99 61 100 80 101
REMARK SMILES IDX 45 102 46 104 60 106 81 107 48 110 32 112 33 113 41 114
REMARK SMILES IDX 34 115 35 116 39 117 42 118 36 119 37 120 40 121 38 122
REMARK SMILES IDX 64 123 65 124 73 125 66 126 67 127 71 128 74 129 68 130
REMARK SMILES IDX 69 131 72 132 70 133 49 134 50 135 58 136 51 137 52 138
REMARK SMILES IDX 56 139 59 140 53 141 54 142 57 143 55 144
REMARK H PARENT 15 2 15 3 14 5 14 6 13 10 10 12 10 13 4 19 8 21 5 23 1 28 1 29
REMARK H PARENT 1 30 89 32 89 33 91 38 99 40 92 42 94 47 87 49 87 50 87 51
REMARK H PARENT 16 53 16 54 17 56 17 57 18 59 18 60 19 62 19 63 20 66 24 72
REMARK H PARENT 85 74 25 76 84 77 83 87 77 89 79 91 82 93 76 94 44 103 47 105
REMARK H PARENT 80 108 45 109 81 111
REMARK Flexibility Score: inf
ROOT
ATOM      1  C   UNL A   1      35.653  29.859  27.733  1.00  0.00    -0.036 C 
ATOM      2  H   UNL A   1      36.585  29.654  27.248  1.00  0.00     0.028 H 
ATOM      3  H   UNL A   1      35.673  29.604  28.772  1.00  0.00     0.028 H 
ENDROOT
BRANCH   1   4
ATOM      4  C   UNL A   1      34.570  29.001  27.079  1.00  0.00     0.017 C 
ATOM      5  H   UNL A   1      34.730  27.977  27.342  1.00  0.00     0.049 H 
ATOM      6  H   UNL A   1      33.617  29.338  27.430  1.00  0.00     0.049 H 
BRANCH   4   7
ATOM      7  N   UNL A   1      34.595  29.127  25.636  1.00  0.00    -0.356 N 
ATOM      8  C   UNL A   1      33.573  29.392  24.769  1.00  0.00     0.224 C 
ATOM      9  O   UNL A   1      33.823  29.385  23.561  1.00  0.00    -0.275 OA
ATOM     10  H   UNL A   1      35.478  29.002  25.218  1.00  0.00     0.163 HD
BRANCH   8  11
ATOM     11  C   UNL A   1      32.196  29.781  25.286  1.00  0.00     0.054 C 
ATOM     12  H   UNL A   1      32.198  29.688  26.351  1.00  0.00     0.042 H 
ATOM     13  H   UNL A   1      32.014  30.784  24.961  1.00  0.00     0.042 H 
BRANCH  11  14
ATOM     14  C   UNL A   1      31.085  28.936  24.739  1.00  0.00    -0.010 A 
ATOM     15  C   UNL A   1      28.547  30.758  22.552  1.00  0.00     0.119 A 
ATOM     16  C   UNL A   1      27.798  29.635  22.221  1.00  0.00    -0.018 A 
ATOM     17  C   UNL A   1      29.684  30.629  23.347  1.00  0.00    -0.010 A 
ATOM     18  C   UNL A   1      28.157  28.361  22.693  1.00  0.00    -0.034 A 
ATOM     19  H   UNL A   1      26.966  29.738  21.619  1.00  0.00     0.066 H 
ATOM     20  C   UNL A   1      30.041  29.368  23.871  1.00  0.00     0.007 A 
ATOM     21  H   UNL A   1      30.266  31.457  23.554  1.00  0.00     0.067 H 
ATOM     22  C   UNL A   1      29.281  28.245  23.532  1.00  0.00     0.049 A 
ATOM     23  H   UNL A   1      27.609  27.528  22.429  1.00  0.00     0.065 H 
ATOM     24  N   UNL A   1      29.877  27.151  24.149  1.00  0.00    -0.340 N 
ATOM     25  C   UNL A   1      30.839  27.603  25.038  1.00  0.00     0.020 A 
BRANCH  15  26
ATOM     26  O   UNL A   1      28.292  32.019  22.084  1.00  0.00    -0.497 OA
BRANCH  26  27
ATOM     27  C   UNL A   1      28.010  32.085  20.689  1.00  0.00     0.078 C 
ATOM     28  H   UNL A   1      27.179  31.450  20.463  1.00  0.00     0.067 H 
ATOM     29  H   UNL A   1      28.867  31.761  20.137  1.00  0.00     0.067 H 
ATOM     30  H   UNL A   1      27.771  33.092  20.421  1.00  0.00     0.067 H 
ENDBRANCH  26  27
ENDBRANCH  15  26
BRANCH  24  31
ATOM     31  C   UNL A   1      29.473  25.751  23.948  1.00  0.00     0.048 C 
ATOM     32  H   UNL A   1      28.865  25.701  23.069  1.00  0.00     0.055 H 
ATOM     33  H   UNL A   1      28.954  25.454  24.835  1.00  0.00     0.055 H 
BRANCH  31  34
ATOM     34  C   UNL A   1      30.631  24.781  23.780  1.00  0.00    -0.021 A 
ATOM     35  C   UNL A   1      30.726  23.627  24.654  1.00  0.00    -0.040 A 
ATOM     36  C   UNL A   1      31.528  24.885  22.781  1.00  0.00     0.009 A 
ATOM     37  C   UNL A   1      31.736  22.756  24.550  1.00  0.00     0.013 A 
ATOM     38  H   UNL A   1      30.000  23.476  25.370  1.00  0.00     0.064 H 
ATOM     39  C   UNL A   1      32.622  23.878  22.597  1.00  0.00     0.255 A 
ATOM     40  H   UNL A   1      31.461  25.681  22.126  1.00  0.00     0.068 H 
ATOM     41  N   UNL A   1      32.696  22.887  23.567  1.00  0.00    -0.258 N 
ATOM     42  H   UNL A   1      31.798  21.971  25.217  1.00  0.00     0.082 H 
ATOM     43  O   UNL A   1      33.362  23.990  21.633  1.00  0.00    -0.269 OA
BRANCH  41  44
ATOM     44  C   UNL A   1      33.693  21.855  23.414  1.00  0.00     0.321 C 
ATOM     45  F   UNL A   1      34.902  22.292  23.842  1.00  0.00    -0.185 F 
ATOM     46  F   UNL A   1      33.393  20.730  24.102  1.00  0.00    -0.185 F 
ATOM     47  H   UNL A   1      33.717  21.625  22.370  1.00  0.00     0.131 H 
ENDBRANCH  41  44
ENDBRANCH  31  34
ENDBRANCH  24  31
BRANCH  25  48
ATOM     48  C   UNL A   1      31.513  26.773  26.078  1.00  0.00    -0.024 C 
ATOM     49  H   UNL A   1      31.007  25.834  26.166  1.00  0.00     0.030 H 
ATOM     50  H   UNL A   1      31.483  27.284  27.017  1.00  0.00     0.030 H 
ATOM     51  H   UNL A   1      32.531  26.604  25.795  1.00  0.00     0.030 H 
ENDBRANCH  25  48
ENDBRANCH  11  14
ENDBRANCH   8  11
ENDBRANCH   4   7
ENDBRANCH   1   4
BRANCH   1  52
ATOM     52  C   UNL A   1      35.379  31.366  27.643  1.00  0.00    -0.052 C 
ATOM     53  H   UNL A   1      35.533  31.672  26.629  1.00  0.00     0.027 H 
ATOM     54  H   UNL A   1      36.048  31.835  28.333  1.00  0.00     0.027 H 
BRANCH  52  55
ATOM     55  C   UNL A   1      33.964  31.789  28.060  1.00  0.00    -0.052 C 
ATOM     56  H   UNL A   1      33.742  31.328  29.000  1.00  0.00     0.027 H 
ATOM     57  H   UNL A   1      33.311  31.475  27.272  1.00  0.00     0.027 H 
BRANCH  55  58
ATOM     58  C   UNL A   1      33.763  33.301  28.211  1.00  0.00    -0.036 C 
ATOM     59  H   UNL A   1      32.742  33.483  28.471  1.00  0.00     0.028 H 
ATOM     60  H   UNL A   1      34.028  33.750  27.276  1.00  0.00     0.028 H 
BRANCH  58  61
ATOM     61  C   UNL A   1      34.655  33.927  29.279  1.00  0.00     0.018 C 
ATOM     62  H   UNL A   1      34.471  34.982  29.296  1.00  0.00     0.049 H 
ATOM     63  H   UNL A   1      35.666  33.693  29.017  1.00  0.00     0.049 H 
BRANCH  61  64
ATOM     64  N   UNL A   1      34.431  33.404  30.607  1.00  0.00    -0.352 N 
ATOM     65  C   UNL A   1      35.132  32.582  31.443  1.00  0.00     0.251 C 
ATOM     66  H   UNL A   1      33.581  33.710  30.998  1.00  0.00     0.163 HD
ATOM     67  O   UNL A   1      34.713  32.495  32.601  1.00  0.00    -0.269 OA
BRANCH  65  68
ATOM     68  C   UNL A   1      36.271  31.718  31.033  1.00  0.00     0.039 A 
ATOM     69  C   UNL A   1      36.322  30.327  31.123  1.00  0.00    -0.049 A 
ATOM     70  C   UNL A   1      37.421  32.406  30.605  1.00  0.00    -0.049 A 
ATOM     71  C   UNL A   1      37.529  29.658  30.961  1.00  0.00    -0.053 A 
ATOM     72  H   UNL A   1      35.460  29.792  31.311  1.00  0.00     0.063 H 
ATOM     73  C   UNL A   1      38.621  31.742  30.409  1.00  0.00    -0.053 A 
ATOM     74  H   UNL A   1      37.371  33.423  30.436  1.00  0.00     0.063 H 
ATOM     75  C   UNL A   1      38.687  30.378  30.670  1.00  0.00    -0.014 A 
ATOM     76  H   UNL A   1      37.568  28.630  31.056  1.00  0.00     0.063 H 
ATOM     77  H   UNL A   1      39.453  32.251  30.073  1.00  0.00     0.063 H 
BRANCH  75  78
ATOM     78  C   UNL A   1      39.946  29.651  30.574  1.00  0.00     0.031 A 
ATOM     79  C   UNL A   1      40.678  29.502  31.866  1.00  0.00     0.074 A 
ATOM     80  C   UNL A   1      40.350  29.076  29.422  1.00  0.00     0.049 A 
ATOM     81  N   UNL A   1      41.883  29.877  32.152  1.00  0.00    -0.248 NA
ATOM     82  C   UNL A   1      39.928  28.978  33.022  1.00  0.00    -0.034 C 
ATOM     83  C   UNL A   1      39.617  28.957  28.159  1.00  0.00    -0.036 A 
ATOM     84  N   UNL A   1      41.492  28.379  29.166  1.00  0.00    -0.354 N 
ATOM     85  C   UNL A   1      42.106  29.493  33.474  1.00  0.00     0.074 A 
ATOM     86  C   UNL A   1      40.836  29.061  33.996  1.00  0.00    -0.034 C 
ATOM     87  H   UNL A   1      38.957  28.636  33.066  1.00  0.00     0.065 H 
ATOM     88  C   UNL A   1      40.215  28.032  27.375  1.00  0.00    -0.036 A 
ATOM     89  H   UNL A   1      38.773  29.495  27.906  1.00  0.00     0.065 H 
ATOM     90  C   UNL A   1      41.442  27.598  28.018  1.00  0.00     0.049 A 
ATOM     91  H   UNL A   1      42.285  28.425  29.747  1.00  0.00     0.167 HD
ATOM     92  C   UNL A   1      43.361  29.379  33.986  1.00  0.00     0.037 A 
ATOM     93  H   UNL A   1      40.652  28.846  34.988  1.00  0.00     0.065 H 
ATOM     94  H   UNL A   1      39.859  27.690  26.469  1.00  0.00     0.065 H 
ATOM     95  C   UNL A   1      42.316  26.618  27.673  1.00  0.00     0.037 A 
ATOM     96  C   UNL A   1      44.321  30.103  33.201  1.00  0.00     0.049 A 
ATOM     97  C   UNL A   1      43.557  26.834  28.459  1.00  0.00     0.074 A 
ATOM     98  C   UNL A   1      44.512  31.439  32.908  1.00  0.00    -0.036 A 
ATOM     99  N   UNL A   1      45.069  29.407  32.286  1.00  0.00    -0.354 N 
ATOM    100  N   UNL A   1      44.360  27.846  28.271  1.00  0.00    -0.248 NA
ATOM    101  C   UNL A   1      43.638  26.202  29.768  1.00  0.00    -0.034 C 
ATOM    102  C   UNL A   1      44.945  31.456  31.551  1.00  0.00    -0.036 A 
ATOM    103  H   UNL A   1      44.374  32.247  33.534  1.00  0.00     0.065 H 
ATOM    104  C   UNL A   1      45.056  30.133  31.123  1.00  0.00     0.049 A 
ATOM    105  H   UNL A   1      45.530  28.549  32.436  1.00  0.00     0.167 HD
ATOM    106  C   UNL A   1      44.728  28.243  29.547  1.00  0.00     0.074 A 
ATOM    107  C   UNL A   1      44.302  27.155  30.427  1.00  0.00    -0.034 C 
ATOM    108  H   UNL A   1      43.287  25.287  30.091  1.00  0.00     0.065 H 
ATOM    109  H   UNL A   1      45.140  32.297  30.985  1.00  0.00     0.065 H 
ATOM    110  C   UNL A   1      45.075  29.535  29.811  1.00  0.00     0.037 A 
ATOM    111  H   UNL A   1      44.492  27.128  31.441  1.00  0.00     0.065 H 
BRANCH  92 112
ATOM    112  C   UNL A   1      43.773  28.347  35.002  1.00  0.00     0.064 A 
ATOM    113  C   UNL A   1      44.403  28.755  36.195  1.00  0.00     0.173 A 
ATOM    114  C   UNL A   1      43.850  26.968  34.710  1.00  0.00     0.173 A 
ATOM    115  F   UNL A   1      44.412  30.047  36.556  1.00  0.00    -0.203 F 
ATOM    116  C   UNL A   1      45.117  27.858  36.994  1.00  0.00     0.198 A 
ATOM    117  C   UNL A   1      44.519  26.068  35.537  1.00  0.00     0.198 A 
ATOM    118  F   UNL A   1      43.384  26.461  33.562  1.00  0.00    -0.203 F 
ATOM    119  F   UNL A   1      45.802  28.309  38.054  1.00  0.00    -0.200 F 
ATOM    120  C   UNL A   1      45.178  26.517  36.661  1.00  0.00     0.200 A 
ATOM    121  F   UNL A   1      44.588  24.777  35.185  1.00  0.00    -0.200 F 
ATOM    122  F   UNL A   1      45.912  25.667  37.392  1.00  0.00    -0.200 F 
ENDBRANCH  92 112
BRANCH  95 123
ATOM    123  C   UNL A   1      42.026  25.335  26.984  1.00  0.00     0.064 A 
ATOM    124  C   UNL A   1      42.782  24.910  25.880  1.00  0.00     0.173 A 
ATOM    125  C   UNL A   1      41.175  24.372  27.564  1.00  0.00     0.173 A 
ATOM    126  F   UNL A   1      43.657  25.744  25.300  1.00  0.00    -0.203 F 
ATOM    127  C   UNL A   1      42.704  23.597  25.396  1.00  0.00     0.198 A 
ATOM    128  C   UNL A   1      41.094  23.066  27.077  1.00  0.00     0.198 A 
ATOM    129  F   UNL A   1      40.477  24.651  28.674  1.00  0.00    -0.203 F 
ATOM    130  F   UNL A   1      43.485  23.212  24.376  1.00  0.00    -0.200 F 
ATOM    131  C   UNL A   1      41.866  22.675  26.001  1.00  0.00     0.200 A 
ATOM    132  F   UNL A   1      40.309  22.174  27.699  1.00  0.00    -0.200 F 
ATOM    133  F   UNL A   1      41.834  21.404  25.576  1.00  0.00    -0.200 F 
ENDBRANCH  95 123
BRANCH 110 134
ATOM    134  C   UNL A   1      45.249  30.474  28.652  1.00  0.00     0.064 A 
ATOM    135  C   UNL A   1      44.233  31.322  28.176  1.00  0.00     0.173 A 
ATOM    136  C   UNL A   1      46.539  30.661  28.138  1.00  0.00     0.173 A 
ATOM    137  F   UNL A   1      42.999  31.277  28.690  1.00  0.00    -0.203 F 
ATOM    138  C   UNL A   1      44.496  32.293  27.210  1.00  0.00     0.198 A 
ATOM    139  C   UNL A   1      46.805  31.655  27.200  1.00  0.00     0.198 A 
ATOM    140  F   UNL A   1      47.559  29.921  28.599  1.00  0.00    -0.203 F 
ATOM    141  F   UNL A   1      43.512  33.097  26.779  1.00  0.00    -0.200 F 
ATOM    142  C   UNL A   1      45.784  32.466  26.732  1.00  0.00     0.200 A 
ATOM    143  F   UNL A   1      48.063  31.856  26.784  1.00  0.00    -0.200 F 
ATOM    144  F   UNL A   1      46.050  33.439  25.849  1.00  0.00    -0.200 F 
ENDBRANCH 110 134
ENDBRANCH  75  78
ENDBRANCH  65  68
ENDBRANCH  61  64
ENDBRANCH  58  61
ENDBRANCH  55  58
ENDBRANCH  52  55
ENDBRANCH   1  52
TORSDOF 20
ENDMDL
MODEL 9
REMARK VINA RESULT:     -11.6      3.057      8.514
REMARK SMILES COc1ccc2c(c1)c(CC(=O)NCCCCCCNC(=O)c1ccc(-c3c4nc(c(-c5c(F)c(F)c(F)c(F)c5F)c5ccc([nH]5)c(-c5c(F)c(F)c(F)c(F)c5F)c5nc(c(-c6c(F)c(F)c(F)c(F)c6F)c6ccc3[nH]6)C=C5)C=C4)cc1)c(C)n2Cc1ccn(C(F)F)c(=O)c1
REMARK SMILES IDX 15 1 14 4 13 7 11 8 12 9 10 11 9 14 3 15 4 16 8 17 5 18 7 20
REMARK SMILES IDX 6 22 88 24 86 25 2 26 1 27 89 31 90 34 91 35 99 36 92 37
REMARK SMILES IDX 97 39 93 41 98 43 94 44 95 45 96 46 87 48 16 52 17 55 18 58
REMARK SMILES IDX 19 61 20 64 21 65 22 67 23 68 24 69 85 70 25 71 84 73 26 75
REMARK SMILES IDX 27 78 28 79 78 80 29 81 83 82 77 83 79 84 30 85 82 86 76 88
REMARK SMILES IDX 75 90 31 92 63 95 43 96 62 97 44 98 47 99 61 100 80 101
REMARK SMILES IDX 45 102 46 104 60 106 81 107 48 110 32 112 33 113 41 114
REMARK SMILES IDX 34 115 35 116 39 117 42 118 36 119 37 120 40 121 38 122
REMARK SMILES IDX 64 123 65 124 73 125 66 126 67 127 71 128 74 129 68 130
REMARK SMILES IDX 69 131 72 132 70 133 49 134 50 135 58 136 51 137 52 138
REMARK SMILES IDX 56 139 59 140 53 141 54 142 57 143 55 144
REMARK H PARENT 15 2 15 3 14 5 14 6 13 10 10 12 10 13 4 19 8 21 5 23 1 28 1 29
REMARK H PARENT 1 30 89 32 89 33 91 38 99 40 92 42 94 47 87 49 87 50 87 51
REMARK H PARENT 16 53 16 54 17 56 17 57 18 59 18 60 19 62 19 63 20 66 24 72
REMARK H PARENT 85 74 25 76 84 77 83 87 77 89 79 91 82 93 76 94 44 103 47 105
REMARK H PARENT 80 108 45 109 81 111
REMARK Flexibility Score: inf
ROOT
ATOM      1  C   UNL A   1      38.712  22.906  26.245  1.00  0.00    -0.036 C 
ATOM      2  H   UNL A   1      39.262  22.562  25.393  1.00  0.00     0.028 H 
ATOM      3  H   UNL A   1      38.319  22.099  26.825  1.00  0.00     0.028 H 
ENDROOT
BRANCH   1   4
ATOM      4  C   UNL A   1      37.522  23.728  25.751  1.00  0.00     0.017 C 
ATOM      5  H   UNL A   1      37.691  24.759  25.980  1.00  0.00     0.049 H 
ATOM      6  H   UNL A   1      37.430  23.585  24.694  1.00  0.00     0.049 H 
BRANCH   4   7
ATOM      7  N   UNL A   1      36.287  23.302  26.378  1.00  0.00    -0.356 N 
ATOM      8  C   UNL A   1      34.999  23.643  26.079  1.00  0.00     0.224 C 
ATOM      9  O   UNL A   1      34.102  23.202  26.803  1.00  0.00    -0.275 OA
ATOM     10  H   UNL A   1      36.392  22.675  27.130  1.00  0.00     0.163 HD
BRANCH   8  11
ATOM     11  C   UNL A   1      34.678  24.459  24.836  1.00  0.00     0.054 C 
ATOM     12  H   UNL A   1      35.457  25.178  24.695  1.00  0.00     0.042 H 
ATOM     13  H   UNL A   1      34.603  23.769  24.022  1.00  0.00     0.042 H 
BRANCH  11  14
ATOM     14  C   UNL A   1      33.370  25.188  24.912  1.00  0.00    -0.010 A 
ATOM     15  C   UNL A   1      33.402  28.435  26.911  1.00  0.00     0.119 A 
ATOM     16  C   UNL A   1      32.081  28.785  26.653  1.00  0.00    -0.018 A 
ATOM     17  C   UNL A   1      33.942  27.282  26.345  1.00  0.00    -0.010 A 
ATOM     18  C   UNL A   1      31.265  27.980  25.839  1.00  0.00    -0.034 A 
ATOM     19  H   UNL A   1      31.694  29.649  27.064  1.00  0.00     0.066 H 
ATOM     20  C   UNL A   1      33.131  26.433  25.561  1.00  0.00     0.007 A 
ATOM     21  H   UNL A   1      34.935  27.047  26.499  1.00  0.00     0.067 H 
ATOM     22  C   UNL A   1      31.805  26.794  25.307  1.00  0.00     0.049 A 
ATOM     23  H   UNL A   1      30.292  28.254  25.635  1.00  0.00     0.065 H 
ATOM     24  N   UNL A   1      31.265  25.808  24.489  1.00  0.00    -0.340 N 
ATOM     25  C   UNL A   1      32.148  24.742  24.423  1.00  0.00     0.020 A 
BRANCH  15  26
ATOM     26  O   UNL A   1      34.271  29.197  27.645  1.00  0.00    -0.497 OA
BRANCH  26  27
ATOM     27  C   UNL A   1      33.991  30.594  27.627  1.00  0.00     0.078 C 
ATOM     28  H   UNL A   1      34.723  31.095  27.028  1.00  0.00     0.067 H 
ATOM     29  H   UNL A   1      34.025  30.977  28.624  1.00  0.00     0.067 H 
ATOM     30  H   UNL A   1      33.019  30.757  27.213  1.00  0.00     0.067 H 
ENDBRANCH  26  27
ENDBRANCH  15  26
BRANCH  24  31
ATOM     31  C   UNL A   1      29.930  25.864  23.875  1.00  0.00     0.048 C 
ATOM     32  H   UNL A   1      29.209  25.593  24.618  1.00  0.00     0.055 H 
ATOM     33  H   UNL A   1      29.948  25.190  23.045  1.00  0.00     0.055 H 
BRANCH  31  34
ATOM     34  C   UNL A   1      29.550  27.227  23.319  1.00  0.00    -0.021 A 
ATOM     35  C   UNL A   1      30.486  27.933  22.465  1.00  0.00    -0.040 A 
ATOM     36  C   UNL A   1      28.332  27.772  23.499  1.00  0.00     0.009 A 
ATOM     37  C   UNL A   1      30.197  29.140  21.965  1.00  0.00     0.013 A 
ATOM     38  H   UNL A   1      31.391  27.495  22.238  1.00  0.00     0.064 H 
ATOM     39  C   UNL A   1      27.959  29.086  22.885  1.00  0.00     0.255 A 
ATOM     40  H   UNL A   1      27.637  27.270  24.076  1.00  0.00     0.068 H 
ATOM     41  N   UNL A   1      28.974  29.736  22.194  1.00  0.00    -0.258 N 
ATOM     42  H   UNL A   1      30.903  29.636  21.399  1.00  0.00     0.082 H 
ATOM     43  O   UNL A   1      26.818  29.495  23.028  1.00  0.00    -0.269 OA
BRANCH  41  44
ATOM     44  C   UNL A   1      28.661  30.980  21.532  1.00  0.00     0.321 C 
ATOM     45  F   UNL A   1      27.641  30.810  20.656  1.00  0.00    -0.185 F 
ATOM     46  F   UNL A   1      28.306  31.958  22.395  1.00  0.00    -0.185 F 
ATOM     47  H   UNL A   1      29.555  31.274  21.025  1.00  0.00     0.131 H 
ENDBRANCH  41  44
ENDBRANCH  31  34
ENDBRANCH  24  31
BRANCH  25  48
ATOM     48  C   UNL A   1      31.836  23.393  23.871  1.00  0.00    -0.024 C 
ATOM     49  H   UNL A   1      32.103  23.363  22.835  1.00  0.00     0.030 H 
ATOM     50  H   UNL A   1      30.789  23.200  23.976  1.00  0.00     0.030 H 
ATOM     51  H   UNL A   1      32.391  22.652  24.405  1.00  0.00     0.030 H 
ENDBRANCH  25  48
ENDBRANCH  11  14
ENDBRANCH   8  11
ENDBRANCH   4   7
ENDBRANCH   1   4
BRANCH   1  52
ATOM     52  C   UNL A   1      39.666  23.694  27.153  1.00  0.00    -0.052 C 
ATOM     53  H   UNL A   1      39.081  24.184  27.903  1.00  0.00     0.027 H 
ATOM     54  H   UNL A   1      40.194  24.373  26.517  1.00  0.00     0.027 H 
BRANCH  52  55
ATOM     55  C   UNL A   1      40.733  22.845  27.857  1.00  0.00    -0.052 C 
ATOM     56  H   UNL A   1      40.473  22.775  28.893  1.00  0.00     0.027 H 
ATOM     57  H   UNL A   1      41.668  23.338  27.691  1.00  0.00     0.027 H 
BRANCH  55  58
ATOM     58  C   UNL A   1      40.890  21.423  27.307  1.00  0.00    -0.036 C 
ATOM     59  H   UNL A   1      40.228  21.306  26.475  1.00  0.00     0.028 H 
ATOM     60  H   UNL A   1      40.659  20.748  28.105  1.00  0.00     0.028 H 
BRANCH  58  61
ATOM     61  C   UNL A   1      42.309  21.105  26.845  1.00  0.00     0.018 C 
ATOM     62  H   UNL A   1      42.435  20.042  26.851  1.00  0.00     0.049 H 
ATOM     63  H   UNL A   1      42.975  21.600  27.523  1.00  0.00     0.049 H 
BRANCH  61  64
ATOM     64  N   UNL A   1      42.616  21.594  25.521  1.00  0.00    -0.352 N 
ATOM     65  C   UNL A   1      43.185  22.733  25.029  1.00  0.00     0.251 C 
ATOM     66  H   UNL A   1      42.356  20.962  24.813  1.00  0.00     0.163 HD
ATOM     67  O   UNL A   1      43.461  22.731  23.826  1.00  0.00    -0.269 OA
BRANCH  65  68
ATOM     68  C   UNL A   1      43.386  23.989  25.800  1.00  0.00     0.039 A 
ATOM     69  C   UNL A   1      44.213  24.148  26.913  1.00  0.00    -0.049 A 
ATOM     70  C   UNL A   1      42.583  25.073  25.400  1.00  0.00    -0.049 A 
ATOM     71  C   UNL A   1      44.114  25.287  27.703  1.00  0.00    -0.053 A 
ATOM     72  H   UNL A   1      44.902  23.417  27.150  1.00  0.00     0.063 H 
ATOM     73  C   UNL A   1      42.504  26.226  26.165  1.00  0.00    -0.053 A 
ATOM     74  H   UNL A   1      42.044  25.008  24.523  1.00  0.00     0.063 H 
ATOM     75  C   UNL A   1      43.210  26.292  27.360  1.00  0.00    -0.014 A 
ATOM     76  H   UNL A   1      44.709  25.388  28.541  1.00  0.00     0.063 H 
ATOM     77  H   UNL A   1      41.930  27.024  25.851  1.00  0.00     0.063 H 
BRANCH  75  78
ATOM     78  C   UNL A   1      43.085  27.440  28.249  1.00  0.00     0.031 A 
ATOM     79  C   UNL A   1      44.175  28.449  28.121  1.00  0.00     0.074 A 
ATOM     80  C   UNL A   1      42.006  27.610  29.042  1.00  0.00     0.049 A 
ATOM     81  N   UNL A   1      44.975  28.885  29.041  1.00  0.00    -0.248 NA
ATOM     82  C   UNL A   1      44.497  28.944  26.770  1.00  0.00    -0.034 C 
ATOM     83  C   UNL A   1      40.775  26.815  29.087  1.00  0.00    -0.036 A 
ATOM     84  N   UNL A   1      41.743  28.609  29.929  1.00  0.00    -0.354 N 
ATOM     85  C   UNL A   1      45.795  29.830  28.425  1.00  0.00     0.074 A 
ATOM     86  C   UNL A   1      45.543  29.734  27.012  1.00  0.00    -0.034 C 
ATOM     87  H   UNL A   1      44.032  28.734  25.874  1.00  0.00     0.065 H 
ATOM     88  C   UNL A   1      39.820  27.501  29.755  1.00  0.00    -0.036 A 
ATOM     89  H   UNL A   1      40.655  25.879  28.672  1.00  0.00     0.065 H 
ATOM     90  C   UNL A   1      40.408  28.711  30.301  1.00  0.00     0.049 A 
ATOM     91  H   UNL A   1      42.441  29.210  30.276  1.00  0.00     0.167 HD
ATOM     92  C   UNL A   1      46.486  30.757  29.143  1.00  0.00     0.037 A 
ATOM     93  H   UNL A   1      46.097  30.212  26.283  1.00  0.00     0.065 H 
ATOM     94  H   UNL A   1      38.834  27.212  29.860  1.00  0.00     0.065 H 
ATOM     95  C   UNL A   1      39.829  29.755  30.946  1.00  0.00     0.037 A 
ATOM     96  C   UNL A   1      46.624  30.366  30.518  1.00  0.00     0.049 A 
ATOM     97  C   UNL A   1      40.916  30.535  31.590  1.00  0.00     0.074 A 
ATOM     98  C   UNL A   1      47.261  29.325  31.162  1.00  0.00    -0.036 A 
ATOM     99  N   UNL A   1      45.754  30.898  31.434  1.00  0.00    -0.354 N 
ATOM    100  N   UNL A   1      41.622  30.090  32.594  1.00  0.00    -0.248 NA
ATOM    101  C   UNL A   1      41.537  31.592  30.805  1.00  0.00    -0.034 C 
ATOM    102  C   UNL A   1      46.393  28.974  32.236  1.00  0.00    -0.036 A 
ATOM    103  H   UNL A   1      48.168  28.895  30.921  1.00  0.00     0.065 H 
ATOM    104  C   UNL A   1      45.318  29.863  32.221  1.00  0.00     0.049 A 
ATOM    105  H   UNL A   1      45.491  31.845  31.513  1.00  0.00     0.167 HD
ATOM    106  C   UNL A   1      42.919  30.495  32.316  1.00  0.00     0.074 A 
ATOM    107  C   UNL A   1      42.796  31.469  31.233  1.00  0.00    -0.034 C 
ATOM    108  H   UNL A   1      41.124  32.245  30.120  1.00  0.00     0.065 H 
ATOM    109  H   UNL A   1      46.534  28.200  32.904  1.00  0.00     0.065 H 
ATOM    110  C   UNL A   1      43.992  29.792  32.781  1.00  0.00     0.037 A 
ATOM    111  H   UNL A   1      43.591  32.000  30.843  1.00  0.00     0.065 H 
BRANCH  92 112
ATOM    112  C   UNL A   1      46.749  32.165  28.680  1.00  0.00     0.064 A 
ATOM    113  C   UNL A   1      45.664  33.021  28.402  1.00  0.00     0.173 A 
ATOM    114  C   UNL A   1      48.006  32.598  28.207  1.00  0.00     0.173 A 
ATOM    115  F   UNL A   1      44.420  32.694  28.784  1.00  0.00    -0.203 F 
ATOM    116  C   UNL A   1      45.820  34.186  27.646  1.00  0.00     0.198 A 
ATOM    117  C   UNL A   1      48.166  33.787  27.499  1.00  0.00     0.198 A 
ATOM    118  F   UNL A   1      49.102  31.837  28.313  1.00  0.00    -0.203 F 
ATOM    119  F   UNL A   1      44.744  34.907  27.303  1.00  0.00    -0.200 F 
ATOM    120  C   UNL A   1      47.070  34.564  27.190  1.00  0.00     0.200 A 
ATOM    121  F   UNL A   1      49.382  34.124  27.045  1.00  0.00    -0.200 F 
ATOM    122  F   UNL A   1      47.213  35.647  26.414  1.00  0.00    -0.200 F 
ENDBRANCH  92 112
BRANCH  95 123
ATOM    123  C   UNL A   1      38.463  30.305  30.755  1.00  0.00     0.064 A 
ATOM    124  C   UNL A   1      37.595  30.504  31.841  1.00  0.00     0.173 A 
ATOM    125  C   UNL A   1      38.082  30.902  29.536  1.00  0.00     0.173 A 
ATOM    126  F   UNL A   1      37.907  30.017  33.050  1.00  0.00    -0.203 F 
ATOM    127  C   UNL A   1      36.425  31.265  31.718  1.00  0.00     0.198 A 
ATOM    128  C   UNL A   1      36.913  31.656  29.413  1.00  0.00     0.198 A 
ATOM    129  F   UNL A   1      38.885  30.846  28.463  1.00  0.00    -0.203 F 
ATOM    130  F   UNL A   1      35.651  31.480  32.791  1.00  0.00    -0.200 F 
ATOM    131  C   UNL A   1      36.091  31.847  30.506  1.00  0.00     0.200 A 
ATOM    132  F   UNL A   1      36.624  32.246  28.245  1.00  0.00    -0.200 F 
ATOM    133  F   UNL A   1      35.003  32.623  30.403  1.00  0.00    -0.200 F 
ENDBRANCH  95 123
BRANCH 110 134
ATOM    134  C   UNL A   1      43.743  28.690  33.771  1.00  0.00     0.064 A 
ATOM    135  C   UNL A   1      43.513  27.352  33.407  1.00  0.00     0.173 A 
ATOM    136  C   UNL A   1      43.939  28.964  35.131  1.00  0.00     0.173 A 
ATOM    137  F   UNL A   1      43.419  26.993  32.122  1.00  0.00    -0.203 F 
ATOM    138  C   UNL A   1      43.457  26.341  34.366  1.00  0.00     0.198 A 
ATOM    139  C   UNL A   1      43.919  27.947  36.082  1.00  0.00     0.198 A 
ATOM    140  F   UNL A   1      44.222  30.214  35.531  1.00  0.00    -0.203 F 
ATOM    141  F   UNL A   1      43.246  25.070  33.992  1.00  0.00    -0.200 F 
ATOM    142  C   UNL A   1      43.672  26.638  35.701  1.00  0.00     0.200 A 
ATOM    143  F   UNL A   1      44.184  28.232  37.364  1.00  0.00    -0.200 F 
ATOM    144  F   UNL A   1      43.679  25.659  36.616  1.00  0.00    -0.200 F 
ENDBRANCH 110 134
ENDBRANCH  75  78
ENDBRANCH  65  68
ENDBRANCH  61  64
ENDBRANCH  58  61
ENDBRANCH  55  58
ENDBRANCH  52  55
ENDBRANCH   1  52
TORSDOF 20
ENDMDL
MODEL 10
REMARK VINA RESULT:     -11.5      3.977      6.689
REMARK SMILES COc1ccc2c(c1)c(CC(=O)NCCCCCCNC(=O)c1ccc(-c3c4nc(c(-c5c(F)c(F)c(F)c(F)c5F)c5ccc([nH]5)c(-c5c(F)c(F)c(F)c(F)c5F)c5nc(c(-c6c(F)c(F)c(F)c(F)c6F)c6ccc3[nH]6)C=C5)C=C4)cc1)c(C)n2Cc1ccn(C(F)F)c(=O)c1
REMARK SMILES IDX 15 1 14 4 13 7 11 8 12 9 10 11 9 14 3 15 4 16 8 17 5 18 7 20
REMARK SMILES IDX 6 22 88 24 86 25 2 26 1 27 89 31 90 34 91 35 99 36 92 37
REMARK SMILES IDX 97 39 93 41 98 43 94 44 95 45 96 46 87 48 16 52 17 55 18 58
REMARK SMILES IDX 19 61 20 64 21 65 22 67 23 68 24 69 85 70 25 71 84 73 26 75
REMARK SMILES IDX 27 78 28 79 78 80 29 81 83 82 77 83 79 84 30 85 82 86 76 88
REMARK SMILES IDX 75 90 31 92 63 95 43 96 62 97 44 98 47 99 61 100 80 101
REMARK SMILES IDX 45 102 46 104 60 106 81 107 48 110 32 112 33 113 41 114
REMARK SMILES IDX 34 115 35 116 39 117 42 118 36 119 37 120 40 121 38 122
REMARK SMILES IDX 64 123 65 124 73 125 66 126 67 127 71 128 74 129 68 130
REMARK SMILES IDX 69 131 72 132 70 133 49 134 50 135 58 136 51 137 52 138
REMARK SMILES IDX 56 139 59 140 53 141 54 142 57 143 55 144
REMARK H PARENT 15 2 15 3 14 5 14 6 13 10 10 12 10 13 4 19 8 21 5 23 1 28 1 29
REMARK H PARENT 1 30 89 32 89 33 91 38 99 40 92 42 94 47 87 49 87 50 87 51
REMARK H PARENT 16 53 16 54 17 56 17 57 18 59 18 60 19 62 19 63 20 66 24 72
REMARK H PARENT 85 74 25 76 84 77 83 87 77 89 79 91 82 93 76 94 44 103 47 105
REMARK H PARENT 80 108 45 109 81 111
REMARK Flexibility Score: inf
ROOT
ATOM      1  C   UNL A   1      36.134  29.473  28.071  1.00  0.00    -0.036 C 
ATOM      2  H   UNL A   1      35.945  28.635  27.432  1.00  0.00     0.028 H 
ATOM      3  H   UNL A   1      36.160  29.198  29.104  1.00  0.00     0.028 H 
ENDROOT
BRANCH   1   4
ATOM      4  C   UNL A   1      34.993  30.477  27.901  1.00  0.00     0.017 C 
ATOM      5  H   UNL A   1      35.056  31.210  28.677  1.00  0.00     0.049 H 
ATOM      6  H   UNL A   1      35.088  30.934  26.938  1.00  0.00     0.049 H 
BRANCH   4   7
ATOM      7  N   UNL A   1      33.700  29.826  27.972  1.00  0.00    -0.356 N 
ATOM      8  C   UNL A   1      32.825  29.521  26.969  1.00  0.00     0.224 C 
ATOM      9  O   UNL A   1      31.741  29.020  27.280  1.00  0.00    -0.275 OA
ATOM     10  H   UNL A   1      33.410  29.565  28.876  1.00  0.00     0.163 HD
BRANCH   8  11
ATOM     11  C   UNL A   1      33.218  29.704  25.511  1.00  0.00     0.054 C 
ATOM     12  H   UNL A   1      33.079  30.732  25.251  1.00  0.00     0.042 H 
ATOM     13  H   UNL A   1      34.238  29.392  25.422  1.00  0.00     0.042 H 
BRANCH  11  14
ATOM     14  C   UNL A   1      32.421  28.863  24.559  1.00  0.00    -0.010 A 
ATOM     15  C   UNL A   1      29.054  30.309  23.501  1.00  0.00     0.119 A 
ATOM     16  C   UNL A   1      28.727  29.294  22.608  1.00  0.00    -0.018 A 
ATOM     17  C   UNL A   1      30.278  30.284  24.169  1.00  0.00    -0.010 A 
ATOM     18  C   UNL A   1      29.607  28.223  22.378  1.00  0.00    -0.034 A 
ATOM     19  H   UNL A   1      27.826  29.329  22.107  1.00  0.00     0.066 H 
ATOM     20  C   UNL A   1      31.159  29.196  23.989  1.00  0.00     0.007 A 
ATOM     21  H   UNL A   1      30.539  31.061  24.795  1.00  0.00     0.067 H 
ATOM     22  C   UNL A   1      30.821  28.182  23.089  1.00  0.00     0.049 A 
ATOM     23  H   UNL A   1      29.368  27.482  21.700  1.00  0.00     0.065 H 
ATOM     24  N   UNL A   1      31.875  27.274  23.086  1.00  0.00    -0.340 N 
ATOM     25  C   UNL A   1      32.740  27.584  24.123  1.00  0.00     0.020 A 
BRANCH  15  26
ATOM     26  O   UNL A   1      28.275  31.410  23.733  1.00  0.00    -0.497 OA
BRANCH  26  27
ATOM     27  C   UNL A   1      28.403  32.440  22.757  1.00  0.00     0.078 C 
ATOM     28  H   UNL A   1      29.003  33.233  23.153  1.00  0.00     0.067 H 
ATOM     29  H   UNL A   1      27.434  32.817  22.508  1.00  0.00     0.067 H 
ATOM     30  H   UNL A   1      28.870  32.044  21.881  1.00  0.00     0.067 H 
ENDBRANCH  26  27
ENDBRANCH  15  26
BRANCH  24  31
ATOM     31  C   UNL A   1      31.988  26.123  22.179  1.00  0.00     0.048 C 
ATOM     32  H   UNL A   1      32.914  26.205  21.648  1.00  0.00     0.055 H 
ATOM     33  H   UNL A   1      31.134  26.156  21.536  1.00  0.00     0.055 H 
BRANCH  31  34
ATOM     34  C   UNL A   1      31.956  24.770  22.872  1.00  0.00    -0.021 A 
ATOM     35  C   UNL A   1      32.909  23.748  22.483  1.00  0.00    -0.040 A 
ATOM     36  C   UNL A   1      31.143  24.506  23.913  1.00  0.00     0.009 A 
ATOM     37  C   UNL A   1      32.907  22.540  23.057  1.00  0.00     0.013 A 
ATOM     38  H   UNL A   1      33.602  23.958  21.749  1.00  0.00     0.064 H 
ATOM     39  C   UNL A   1      31.177  23.186  24.622  1.00  0.00     0.255 A 
ATOM     40  H   UNL A   1      30.479  25.231  24.229  1.00  0.00     0.068 H 
ATOM     41  N   UNL A   1      32.036  22.237  24.084  1.00  0.00    -0.258 N 
ATOM     42  H   UNL A   1      33.568  21.820  22.725  1.00  0.00     0.082 H 
ATOM     43  O   UNL A   1      30.465  23.032  25.600  1.00  0.00    -0.269 OA
BRANCH  41  44
ATOM     44  C   UNL A   1      32.155  20.965  24.757  1.00  0.00     0.321 C 
ATOM     45  F   UNL A   1      32.691  20.036  23.930  1.00  0.00    -0.185 F 
ATOM     46  F   UNL A   1      32.929  21.029  25.864  1.00  0.00    -0.185 F 
ATOM     47  H   UNL A   1      31.163  20.693  25.045  1.00  0.00     0.131 H 
ENDBRANCH  41  44
ENDBRANCH  31  34
ENDBRANCH  24  31
BRANCH  25  48
ATOM     48  C   UNL A   1      33.840  26.710  24.620  1.00  0.00    -0.024 C 
ATOM     49  H   UNL A   1      34.579  27.311  25.108  1.00  0.00     0.030 H 
ATOM     50  H   UNL A   1      34.286  26.195  23.795  1.00  0.00     0.030 H 
ATOM     51  H   UNL A   1      33.445  25.998  25.314  1.00  0.00     0.030 H 
ENDBRANCH  25  48
ENDBRANCH  11  14
ENDBRANCH   8  11
ENDBRANCH   4   7
ENDBRANCH   1   4
BRANCH   1  52
ATOM     52  C   UNL A   1      37.512  30.050  27.721  1.00  0.00    -0.052 C 
ATOM     53  H   UNL A   1      37.388  30.744  26.917  1.00  0.00     0.027 H 
ATOM     54  H   UNL A   1      38.132  29.215  27.468  1.00  0.00     0.027 H 
BRANCH  52  55
ATOM     55  C   UNL A   1      38.218  30.775  28.874  1.00  0.00    -0.052 C 
ATOM     56  H   UNL A   1      39.272  30.745  28.691  1.00  0.00     0.027 H 
ATOM     57  H   UNL A   1      37.932  30.266  29.771  1.00  0.00     0.027 H 
BRANCH  55  58
ATOM     58  C   UNL A   1      37.808  32.241  29.059  1.00  0.00    -0.036 C 
ATOM     59  H   UNL A   1      37.007  32.456  28.384  1.00  0.00     0.028 H 
ATOM     60  H   UNL A   1      38.674  32.839  28.863  1.00  0.00     0.028 H 
BRANCH  58  61
ATOM     61  C   UNL A   1      37.348  32.567  30.477  1.00  0.00     0.018 C 
ATOM     62  H   UNL A   1      37.204  31.647  31.005  1.00  0.00     0.049 H 
ATOM     63  H   UNL A   1      36.444  33.134  30.388  1.00  0.00     0.049 H 
BRANCH  61  64
ATOM     64  N   UNL A   1      38.283  33.378  31.223  1.00  0.00    -0.352 N 
ATOM     65  C   UNL A   1      39.612  33.281  31.518  1.00  0.00     0.251 C 
ATOM     66  H   UNL A   1      37.865  34.184  31.605  1.00  0.00     0.163 HD
ATOM     67  O   UNL A   1      40.131  34.272  32.037  1.00  0.00    -0.269 OA
BRANCH  65  68
ATOM     68  C   UNL A   1      40.433  32.049  31.364  1.00  0.00     0.039 A 
ATOM     69  C   UNL A   1      41.557  31.906  30.550  1.00  0.00    -0.049 A 
ATOM     70  C   UNL A   1      39.948  30.917  32.045  1.00  0.00    -0.049 A 
ATOM     71  C   UNL A   1      42.075  30.644  30.287  1.00  0.00    -0.053 A 
ATOM     72  H   UNL A   1      42.006  32.741  30.143  1.00  0.00     0.063 H 
ATOM     73  C   UNL A   1      40.481  29.660  31.813  1.00  0.00    -0.053 A 
ATOM     74  H   UNL A   1      39.182  31.026  32.728  1.00  0.00     0.063 H 
ATOM     75  C   UNL A   1      41.491  29.520  30.869  1.00  0.00    -0.014 A 
ATOM     76  H   UNL A   1      42.891  30.540  29.662  1.00  0.00     0.063 H 
ATOM     77  H   UNL A   1      40.134  28.840  32.334  1.00  0.00     0.063 H 
BRANCH  75  78
ATOM     78  C   UNL A   1      42.018  28.208  30.516  1.00  0.00     0.031 A 
ATOM     79  C   UNL A   1      42.904  27.595  31.548  1.00  0.00     0.074 A 
ATOM     80  C   UNL A   1      41.639  27.569  29.389  1.00  0.00     0.049 A 
ATOM     81  N   UNL A   1      44.128  27.193  31.416  1.00  0.00    -0.248 NA
ATOM     82  C   UNL A   1      42.404  27.534  32.933  1.00  0.00    -0.034 C 
ATOM     83  C   UNL A   1      40.610  27.963  28.422  1.00  0.00    -0.036 A 
ATOM     84  N   UNL A   1      42.042  26.358  28.914  1.00  0.00    -0.354 N 
ATOM     85  C   UNL A   1      44.502  26.679  32.657  1.00  0.00     0.074 A 
ATOM     86  C   UNL A   1      43.455  27.027  33.580  1.00  0.00    -0.034 C 
ATOM     87  H   UNL A   1      41.483  27.811  33.304  1.00  0.00     0.065 H 
ATOM     88  C   UNL A   1      40.302  26.906  27.637  1.00  0.00    -0.036 A 
ATOM     89  H   UNL A   1      40.186  28.900  28.352  1.00  0.00     0.065 H 
ATOM     90  C   UNL A   1      41.202  25.811  27.951  1.00  0.00     0.049 A 
ATOM     91  H   UNL A   1      42.859  25.908  29.227  1.00  0.00     0.167 HD
ATOM     92  C   UNL A   1      45.563  25.837  32.794  1.00  0.00     0.037 A 
ATOM     93  H   UNL A   1      43.508  26.903  34.603  1.00  0.00     0.065 H 
ATOM     94  H   UNL A   1      39.550  26.881  26.930  1.00  0.00     0.065 H 
ATOM     95  C   UNL A   1      41.213  24.528  27.508  1.00  0.00     0.037 A 
ATOM     96  C   UNL A   1      46.453  25.919  31.671  1.00  0.00     0.049 A 
ATOM     97  C   UNL A   1      42.533  23.949  27.862  1.00  0.00     0.074 A 
ATOM     98  C   UNL A   1      47.254  26.916  31.151  1.00  0.00    -0.036 A 
ATOM     99  N   UNL A   1      46.346  24.971  30.686  1.00  0.00    -0.354 N 
ATOM    100  N   UNL A   1      43.654  24.324  27.309  1.00  0.00    -0.248 NA
ATOM    101  C   UNL A   1      42.657  23.314  29.167  1.00  0.00    -0.034 C 
ATOM    102  C   UNL A   1      47.164  26.756  29.738  1.00  0.00    -0.036 A 
ATOM    103  H   UNL A   1      47.799  27.622  31.670  1.00  0.00     0.065 H 
ATOM    104  C   UNL A   1      46.373  25.636  29.487  1.00  0.00     0.049 A 
ATOM    105  H   UNL A   1      46.266  23.998  30.815  1.00  0.00     0.167 HD
ATOM    106  C   UNL A   1      44.563  24.366  28.356  1.00  0.00     0.074 A 
ATOM    107  C   UNL A   1      43.908  23.675  29.465  1.00  0.00    -0.034 C 
ATOM    108  H   UNL A   1      41.978  22.751  29.703  1.00  0.00     0.065 H 
ATOM    109  H   UNL A   1      47.605  27.362  29.029  1.00  0.00     0.065 H 
ATOM    110  C   UNL A   1      45.636  25.208  28.323  1.00  0.00     0.037 A 
ATOM    111  H   UNL A   1      44.360  23.488  30.374  1.00  0.00     0.065 H 
BRANCH  92 112
ATOM    112  C   UNL A   1      45.622  24.701  33.782  1.00  0.00     0.064 A 
ATOM    113  C   UNL A   1      46.738  24.576  34.634  1.00  0.00     0.173 A 
ATOM    114  C   UNL A   1      44.780  23.571  33.707  1.00  0.00     0.173 A 
ATOM    115  F   UNL A   1      47.617  25.581  34.760  1.00  0.00    -0.203 F 
ATOM    116  C   UNL A   1      47.024  23.382  35.302  1.00  0.00     0.198 A 
ATOM    117  C   UNL A   1      45.040  22.401  34.415  1.00  0.00     0.198 A 
ATOM    118  F   UNL A   1      43.743  23.517  32.862  1.00  0.00    -0.203 F 
ATOM    119  F   UNL A   1      48.158  23.267  36.005  1.00  0.00    -0.200 F 
ATOM    120  C   UNL A   1      46.177  22.294  35.187  1.00  0.00     0.200 A 
ATOM    121  F   UNL A   1      44.221  21.349  34.273  1.00  0.00    -0.200 F 
ATOM    122  F   UNL A   1      46.481  21.130  35.777  1.00  0.00    -0.200 F 
ENDBRANCH  92 112
BRANCH  95 123
ATOM    123  C   UNL A   1      40.054  23.685  27.120  1.00  0.00     0.064 A 
ATOM    124  C   UNL A   1      38.796  24.249  26.851  1.00  0.00     0.173 A 
ATOM    125  C   UNL A   1      40.226  22.338  26.742  1.00  0.00     0.173 A 
ATOM    126  F   UNL A   1      38.562  25.539  27.129  1.00  0.00    -0.203 F 
ATOM    127  C   UNL A   1      37.779  23.514  26.227  1.00  0.00     0.198 A 
ATOM    128  C   UNL A   1      39.210  21.606  26.125  1.00  0.00     0.198 A 
ATOM    129  F   UNL A   1      41.416  21.733  26.875  1.00  0.00    -0.203 F 
ATOM    130  F   UNL A   1      36.611  24.104  25.934  1.00  0.00    -0.200 F 
ATOM    131  C   UNL A   1      37.990  22.197  25.857  1.00  0.00     0.200 A 
ATOM    132  F   UNL A   1      39.443  20.344  25.736  1.00  0.00    -0.200 F 
ATOM    133  F   UNL A   1      37.039  21.512  25.208  1.00  0.00    -0.200 F 
ENDBRANCH  95 123
BRANCH 110 134
ATOM    134  C   UNL A   1      45.927  25.938  27.044  1.00  0.00     0.064 A 
ATOM    135  C   UNL A   1      45.557  27.274  26.806  1.00  0.00     0.173 A 
ATOM    136  C   UNL A   1      46.777  25.329  26.111  1.00  0.00     0.173 A 
ATOM    137  F   UNL A   1      44.834  27.958  27.699  1.00  0.00    -0.203 F 
ATOM    138  C   UNL A   1      45.998  27.956  25.673  1.00  0.00     0.198 A 
ATOM    139  C   UNL A   1      47.245  26.024  24.999  1.00  0.00     0.198 A 
ATOM    140  F   UNL A   1      47.211  24.076  26.316  1.00  0.00    -0.203 F 
ATOM    141  F   UNL A   1      45.639  29.233  25.474  1.00  0.00    -0.200 F 
ATOM    142  C   UNL A   1      46.851  27.334  24.777  1.00  0.00     0.200 A 
ATOM    143  F   UNL A   1      48.115  25.437  24.166  1.00  0.00    -0.200 F 
ATOM    144  F   UNL A   1      47.325  28.007  23.719  1.00  0.00    -0.200 F 
ENDBRANCH 110 134
ENDBRANCH  75  78
ENDBRANCH  65  68
ENDBRANCH  61  64
ENDBRANCH  58  61
ENDBRANCH  55  58
ENDBRANCH  52  55
ENDBRANCH   1  52
TORSDOF 20
ENDMDL
