MODEL 1
REMARK VINA RESULT:     -13.3      0.000      0.000
REMARK SMILES Nn1c(S[C@@H](C(=O)NCCCCCCNC(=O)c2ccc(-c3c4nc(c(-c5c(F)c(F)c(F)c(F)c5F)c5ccc([nH]5)c(-c5c(F)c(F)c(F)c(F)c5F)c5nc(c(-c6c(F)c(F)c(F)c(F)c6F)c6ccc3[nH]6)C=C5)C=C4)cc2)c2ccccc2)nc2ccc(Br)cc2c1=O
REMARK SMILES IDX 11 1 10 4 9 7 8 10 6 11 7 12 5 14 4 16 3 17 2 18 95 19 87 20
REMARK SMILES IDX 94 21 96 22 88 23 93 24 89 25 91 26 90 28 92 30 1 32 81 35
REMARK SMILES IDX 82 36 86 37 83 38 85 40 84 42 12 46 13 49 14 52 15 55 16 56
REMARK SMILES IDX 17 58 18 59 19 60 80 61 20 62 79 64 21 66 22 69 23 70 73 71
REMARK SMILES IDX 24 72 78 73 72 74 74 75 25 76 77 77 71 79 70 81 26 83 58 86
REMARK SMILES IDX 38 87 57 88 39 89 42 90 56 91 75 92 40 93 41 95 55 97 76 98
REMARK SMILES IDX 43 101 27 103 28 104 36 105 29 106 30 107 34 108 37 109
REMARK SMILES IDX 31 110 32 111 35 112 33 113 59 114 60 115 68 116 61 117
REMARK SMILES IDX 62 118 66 119 69 120 63 121 64 122 67 123 65 124 44 125
REMARK SMILES IDX 45 126 53 127 46 128 47 129 51 130 54 131 48 132 49 133
REMARK SMILES IDX 52 134 50 135
REMARK H PARENT 11 2 11 3 10 5 10 6 9 8 9 9 8 13 5 15 93 27 89 29 90 31 1 33
REMARK H PARENT 1 34 82 39 86 41 83 43 85 44 84 45 12 47 12 48 13 50 13 51
REMARK H PARENT 14 53 14 54 15 57 19 63 80 65 20 67 79 68 78 78 72 80 74 82
REMARK H PARENT 77 84 71 85 39 94 42 96 75 99 40 100 76 102
REMARK Flexibility Score: inf
ROOT
ATOM      1  C   UNL A   1      33.214  30.183  27.457  1.00  0.00    -0.052 C 
ATOM      2  H   UNL A   1      33.842  31.036  27.610  1.00  0.00     0.027 H 
ATOM      3  H   UNL A   1      32.905  29.703  28.362  1.00  0.00     0.027 H 
ENDROOT
BRANCH   1   4
ATOM      4  C   UNL A   1      34.027  29.135  26.687  1.00  0.00    -0.036 C 
ATOM      5  H   UNL A   1      34.732  29.651  26.069  1.00  0.00     0.028 H 
ATOM      6  H   UNL A   1      34.483  28.511  27.428  1.00  0.00     0.028 H 
BRANCH   4   7
ATOM      7  C   UNL A   1      33.208  28.199  25.789  1.00  0.00     0.017 C 
ATOM      8  H   UNL A   1      33.595  27.207  25.885  1.00  0.00     0.049 H 
ATOM      9  H   UNL A   1      32.187  28.256  26.107  1.00  0.00     0.049 H 
BRANCH   7  10
ATOM     10  N   UNL A   1      33.257  28.587  24.390  1.00  0.00    -0.355 N 
ATOM     11  C   UNL A   1      32.264  28.702  23.452  1.00  0.00     0.238 C 
ATOM     12  O   UNL A   1      32.631  29.026  22.316  1.00  0.00    -0.273 OA
ATOM     13  H   UNL A   1      34.159  28.805  24.058  1.00  0.00     0.163 HD
BRANCH  11  14
ATOM     14  C   UNL A   1      30.783  28.490  23.818  1.00  0.00     0.116 C 
ATOM     15  H   UNL A   1      30.810  28.670  24.872  1.00  0.00     0.057 H 
BRANCH  14  16
ATOM     16  S   UNL A   1      30.211  26.795  23.610  1.00  0.00    -0.068 SA
BRANCH  16  17
ATOM     17  C   UNL A   1      31.521  25.675  23.391  1.00  0.00     0.191 A 
ATOM     18  N   UNL A   1      32.039  25.280  22.160  1.00  0.00    -0.202 N 
ATOM     19  C   UNL A   1      33.007  24.271  22.075  1.00  0.00     0.280 A 
ATOM     20  N   UNL A   1      32.054  25.308  24.515  1.00  0.00    -0.222 NA
ATOM     21  C   UNL A   1      33.685  23.925  23.334  1.00  0.00     0.069 A 
ATOM     22  O   UNL A   1      33.364  23.762  21.013  1.00  0.00    -0.267 OA
ATOM     23  C   UNL A   1      33.218  24.537  24.494  1.00  0.00     0.079 A 
ATOM     24  C   UNL A   1      34.852  23.156  23.336  1.00  0.00    -0.033 A 
ATOM     25  C   UNL A   1      33.973  24.428  25.664  1.00  0.00    -0.034 A 
ATOM     26  C   UNL A   1      35.588  23.050  24.513  1.00  0.00     0.018 A 
ATOM     27  H   UNL A   1      35.164  22.672  22.478  1.00  0.00     0.064 H 
ATOM     28  C   UNL A   1      35.164  23.698  25.673  1.00  0.00    -0.046 A 
ATOM     29  H   UNL A   1      33.648  24.890  26.527  1.00  0.00     0.065 H 
ATOM     30  Br  UNL A   1      37.201  22.066  24.528  1.00  0.00    -0.051 Br
ATOM     31  H   UNL A   1      35.728  23.639  26.536  1.00  0.00     0.064 H 
BRANCH  18  32
ATOM     32  N   UNL A   1      31.830  26.014  20.960  1.00  0.00    -0.334 N 
ATOM     33  H   UNL A   1      31.916  25.566  20.088  1.00  0.00     0.178 HD
ATOM     34  H   UNL A   1      31.600  26.970  21.003  1.00  0.00     0.178 HD
ENDBRANCH  18  32
ENDBRANCH  16  17
ENDBRANCH  14  16
BRANCH  14  35
ATOM     35  C   UNL A   1      29.773  29.552  23.379  1.00  0.00    -0.025 A 
ATOM     36  C   UNL A   1      28.911  29.259  22.302  1.00  0.00    -0.057 A 
ATOM     37  C   UNL A   1      29.643  30.813  23.981  1.00  0.00    -0.057 A 
ATOM     38  C   UNL A   1      27.956  30.182  21.862  1.00  0.00    -0.062 A 
ATOM     39  H   UNL A   1      28.985  28.345  21.831  1.00  0.00     0.063 H 
ATOM     40  C   UNL A   1      28.694  31.739  23.536  1.00  0.00    -0.062 A 
ATOM     41  H   UNL A   1      30.259  31.062  24.770  1.00  0.00     0.063 H 
ATOM     42  C   UNL A   1      27.851  31.424  22.477  1.00  0.00    -0.062 A 
ATOM     43  H   UNL A   1      27.331  29.940  21.078  1.00  0.00     0.062 H 
ATOM     44  H   UNL A   1      28.621  32.660  23.995  1.00  0.00     0.062 H 
ATOM     45  H   UNL A   1      27.149  32.107  22.150  1.00  0.00     0.062 H 
ENDBRANCH  14  35
ENDBRANCH  11  14
ENDBRANCH   7  10
ENDBRANCH   4   7
ENDBRANCH   1   4
BRANCH   1  46
ATOM     46  C   UNL A   1      31.929  30.659  26.777  1.00  0.00    -0.052 C 
ATOM     47  H   UNL A   1      31.108  30.132  27.216  1.00  0.00     0.027 H 
ATOM     48  H   UNL A   1      32.058  30.462  25.733  1.00  0.00     0.027 H 
BRANCH  46  49
ATOM     49  C   UNL A   1      31.646  32.157  26.892  1.00  0.00    -0.036 C 
ATOM     50  H   UNL A   1      30.913  32.298  27.660  1.00  0.00     0.028 H 
ATOM     51  H   UNL A   1      31.312  32.474  25.926  1.00  0.00     0.028 H 
BRANCH  49  52
ATOM     52  C   UNL A   1      32.858  33.014  27.230  1.00  0.00     0.018 C 
ATOM     53  H   UNL A   1      33.470  33.101  26.356  1.00  0.00     0.049 H 
ATOM     54  H   UNL A   1      33.379  32.536  28.032  1.00  0.00     0.049 H 
BRANCH  52  55
ATOM     55  N   UNL A   1      32.494  34.350  27.676  1.00  0.00    -0.352 N 
ATOM     56  C   UNL A   1      33.010  35.087  28.720  1.00  0.00     0.251 C 
ATOM     57  H   UNL A   1      31.779  34.789  27.161  1.00  0.00     0.163 HD
ATOM     58  O   UNL A   1      32.495  36.138  29.062  1.00  0.00    -0.269 OA
BRANCH  56  59
ATOM     59  C   UNL A   1      34.182  34.562  29.455  1.00  0.00     0.039 A 
ATOM     60  C   UNL A   1      35.469  34.708  28.931  1.00  0.00    -0.049 A 
ATOM     61  C   UNL A   1      33.980  33.872  30.652  1.00  0.00    -0.049 A 
ATOM     62  C   UNL A   1      36.529  34.023  29.515  1.00  0.00    -0.053 A 
ATOM     63  H   UNL A   1      35.632  35.322  28.118  1.00  0.00     0.063 H 
ATOM     64  C   UNL A   1      35.062  33.247  31.279  1.00  0.00    -0.053 A 
ATOM     65  H   UNL A   1      33.038  33.823  31.071  1.00  0.00     0.063 H 
ATOM     66  C   UNL A   1      36.336  33.278  30.690  1.00  0.00    -0.014 A 
ATOM     67  H   UNL A   1      37.465  34.062  29.081  1.00  0.00     0.063 H 
ATOM     68  H   UNL A   1      34.924  32.763  32.180  1.00  0.00     0.063 H 
BRANCH  66  69
ATOM     69  C   UNL A   1      37.474  32.535  31.288  1.00  0.00     0.031 A 
ATOM     70  C   UNL A   1      37.970  32.872  32.669  1.00  0.00     0.074 A 
ATOM     71  C   UNL A   1      38.041  31.530  30.594  1.00  0.00     0.049 A 
ATOM     72  N   UNL A   1      38.985  32.367  33.327  1.00  0.00    -0.248 NA
ATOM     73  C   UNL A   1      37.235  33.908  33.410  1.00  0.00    -0.034 C 
ATOM     74  C   UNL A   1      37.633  31.098  29.257  1.00  0.00    -0.036 A 
ATOM     75  N   UNL A   1      39.071  30.684  30.919  1.00  0.00    -0.354 N 
ATOM     76  C   UNL A   1      39.024  33.039  34.542  1.00  0.00     0.074 A 
ATOM     77  C   UNL A   1      37.939  33.996  34.531  1.00  0.00    -0.034 C 
ATOM     78  H   UNL A   1      36.390  34.431  33.131  1.00  0.00     0.065 H 
ATOM     79  C   UNL A   1      38.384  30.050  28.887  1.00  0.00    -0.036 A 
ATOM     80  H   UNL A   1      36.888  31.530  28.689  1.00  0.00     0.065 H 
ATOM     81  C   UNL A   1      39.366  29.777  29.932  1.00  0.00     0.049 A 
ATOM     82  H   UNL A   1      39.553  30.725  31.777  1.00  0.00     0.167 HD
ATOM     83  C   UNL A   1      39.885  32.864  35.572  1.00  0.00     0.037 A 
ATOM     84  H   UNL A   1      37.740  34.661  35.296  1.00  0.00     0.065 H 
ATOM     85  H   UNL A   1      38.283  29.521  28.006  1.00  0.00     0.065 H 
ATOM     86  C   UNL A   1      40.335  28.845  29.862  1.00  0.00     0.037 A 
ATOM     87  C   UNL A   1      40.946  31.891  35.591  1.00  0.00     0.049 A 
ATOM     88  C   UNL A   1      41.286  28.690  31.014  1.00  0.00     0.074 A 
ATOM     89  C   UNL A   1      41.869  31.641  36.594  1.00  0.00    -0.036 A 
ATOM     90  N   UNL A   1      41.221  31.000  34.565  1.00  0.00    -0.354 N 
ATOM     91  N   UNL A   1      41.325  29.346  32.147  1.00  0.00    -0.248 NA
ATOM     92  C   UNL A   1      42.333  27.668  30.874  1.00  0.00    -0.034 C 
ATOM     93  C   UNL A   1      42.721  30.620  36.162  1.00  0.00    -0.036 A 
ATOM     94  H   UNL A   1      41.920  32.125  37.503  1.00  0.00     0.065 H 
ATOM     95  C   UNL A   1      42.302  30.205  34.909  1.00  0.00     0.049 A 
ATOM     96  H   UNL A   1      40.723  30.944  33.718  1.00  0.00     0.167 HD
ATOM     97  C   UNL A   1      42.384  28.808  32.862  1.00  0.00     0.074 A 
ATOM     98  C   UNL A   1      42.952  27.757  32.043  1.00  0.00    -0.034 C 
ATOM     99  H   UNL A   1      42.533  27.045  30.076  1.00  0.00     0.065 H 
ATOM    100  H   UNL A   1      43.525  30.242  36.686  1.00  0.00     0.065 H 
ATOM    101  C   UNL A   1      42.847  29.156  34.087  1.00  0.00     0.037 A 
ATOM    102  H   UNL A   1      43.739  27.155  32.332  1.00  0.00     0.065 H 
BRANCH  83 103
ATOM    103  C   UNL A   1      39.734  33.742  36.780  1.00  0.00     0.064 A 
ATOM    104  C   UNL A   1      40.320  35.013  36.839  1.00  0.00     0.173 A 
ATOM    105  C   UNL A   1      38.903  33.350  37.842  1.00  0.00     0.173 A 
ATOM    106  F   UNL A   1      41.130  35.430  35.855  1.00  0.00    -0.203 F 
ATOM    107  C   UNL A   1      40.078  35.862  37.917  1.00  0.00     0.198 A 
ATOM    108  C   UNL A   1      38.647  34.209  38.907  1.00  0.00     0.198 A 
ATOM    109  F   UNL A   1      38.315  32.144  37.829  1.00  0.00    -0.203 F 
ATOM    110  F   UNL A   1      40.658  37.070  37.960  1.00  0.00    -0.200 F 
ATOM    111  C   UNL A   1      39.233  35.465  38.942  1.00  0.00     0.200 A 
ATOM    112  F   UNL A   1      37.821  33.827  39.890  1.00  0.00    -0.200 F 
ATOM    113  F   UNL A   1      38.983  36.293  39.966  1.00  0.00    -0.200 F 
ENDBRANCH  83 103
BRANCH  86 114
ATOM    114  C   UNL A   1      40.450  27.998  28.649  1.00  0.00     0.064 A 
ATOM    115  C   UNL A   1      41.212  28.413  27.549  1.00  0.00     0.173 A 
ATOM    116  C   UNL A   1      39.815  26.749  28.572  1.00  0.00     0.173 A 
ATOM    117  F   UNL A   1      41.820  29.607  27.568  1.00  0.00    -0.203 F 
ATOM    118  C   UNL A   1      41.328  27.614  26.413  1.00  0.00     0.198 A 
ATOM    119  C   UNL A   1      39.955  25.939  27.449  1.00  0.00     0.198 A 
ATOM    120  F   UNL A   1      39.077  26.308  29.601  1.00  0.00    -0.203 F 
ATOM    121  F   UNL A   1      42.033  28.048  25.360  1.00  0.00    -0.200 F 
ATOM    122  C   UNL A   1      40.706  26.374  26.368  1.00  0.00     0.200 A 
ATOM    123  F   UNL A   1      39.367  24.736  27.417  1.00  0.00    -0.200 F 
ATOM    124  F   UNL A   1      40.827  25.602  25.280  1.00  0.00    -0.200 F 
ENDBRANCH  86 114
BRANCH 101 125
ATOM    125  C   UNL A   1      44.004  28.373  34.632  1.00  0.00     0.064 A 
ATOM    126  C   UNL A   1      43.812  27.192  35.362  1.00  0.00     0.173 A 
ATOM    127  C   UNL A   1      45.320  28.789  34.382  1.00  0.00     0.173 A 
ATOM    128  F   UNL A   1      42.570  26.762  35.636  1.00  0.00    -0.203 F 
ATOM    129  C   UNL A   1      44.896  26.467  35.844  1.00  0.00     0.198 A 
ATOM    130  C   UNL A   1      46.403  28.046  34.845  1.00  0.00     0.198 A 
ATOM    131  F   UNL A   1      45.555  29.908  33.681  1.00  0.00    -0.203 F 
ATOM    132  F   UNL A   1      44.690  25.363  36.576  1.00  0.00    -0.200 F 
ATOM    133  C   UNL A   1      46.191  26.890  35.580  1.00  0.00     0.200 A 
ATOM    134  F   UNL A   1      47.653  28.452  34.578  1.00  0.00    -0.200 F 
ATOM    135  F   UNL A   1      47.235  26.187  36.039  1.00  0.00    -0.200 F 
ENDBRANCH 101 125
ENDBRANCH  66  69
ENDBRANCH  56  59
ENDBRANCH  52  55
ENDBRANCH  49  52
ENDBRANCH  46  49
ENDBRANCH   1  46
TORSDOF 17
ENDMDL
MODEL 2
REMARK VINA RESULT:     -13.3      0.515      7.132
REMARK SMILES Nn1c(S[C@@H](C(=O)NCCCCCCNC(=O)c2ccc(-c3c4nc(c(-c5c(F)c(F)c(F)c(F)c5F)c5ccc([nH]5)c(-c5c(F)c(F)c(F)c(F)c5F)c5nc(c(-c6c(F)c(F)c(F)c(F)c6F)c6ccc3[nH]6)C=C5)C=C4)cc2)c2ccccc2)nc2ccc(Br)cc2c1=O
REMARK SMILES IDX 11 1 10 4 9 7 8 10 6 11 7 12 5 14 4 16 3 17 2 18 95 19 87 20
REMARK SMILES IDX 94 21 96 22 88 23 93 24 89 25 91 26 90 28 92 30 1 32 81 35
REMARK SMILES IDX 82 36 86 37 83 38 85 40 84 42 12 46 13 49 14 52 15 55 16 56
REMARK SMILES IDX 17 58 18 59 19 60 80 61 20 62 79 64 21 66 22 69 23 70 73 71
REMARK SMILES IDX 24 72 78 73 72 74 74 75 25 76 77 77 71 79 70 81 26 83 58 86
REMARK SMILES IDX 38 87 57 88 39 89 42 90 56 91 75 92 40 93 41 95 55 97 76 98
REMARK SMILES IDX 43 101 27 103 28 104 36 105 29 106 30 107 34 108 37 109
REMARK SMILES IDX 31 110 32 111 35 112 33 113 59 114 60 115 68 116 61 117
REMARK SMILES IDX 62 118 66 119 69 120 63 121 64 122 67 123 65 124 44 125
REMARK SMILES IDX 45 126 53 127 46 128 47 129 51 130 54 131 48 132 49 133
REMARK SMILES IDX 52 134 50 135
REMARK H PARENT 11 2 11 3 10 5 10 6 9 8 9 9 8 13 5 15 93 27 89 29 90 31 1 33
REMARK H PARENT 1 34 82 39 86 41 83 43 85 44 84 45 12 47 12 48 13 50 13 51
REMARK H PARENT 14 53 14 54 15 57 19 63 80 65 20 67 79 68 78 78 72 80 74 82
REMARK H PARENT 77 84 71 85 39 94 42 96 75 99 40 100 76 102
REMARK Flexibility Score: inf
ROOT
ATOM      1  C   UNL A   1      33.399  30.017  27.425  1.00  0.00    -0.052 C 
ATOM      2  H   UNL A   1      34.006  30.894  27.511  1.00  0.00     0.027 H 
ATOM      3  H   UNL A   1      33.189  29.540  28.359  1.00  0.00     0.027 H 
ENDROOT
BRANCH   1   4
ATOM      4  C   UNL A   1      34.176  28.988  26.595  1.00  0.00    -0.036 C 
ATOM      5  H   UNL A   1      34.847  29.519  25.953  1.00  0.00     0.028 H 
ATOM      6  H   UNL A   1      34.670  28.353  27.300  1.00  0.00     0.028 H 
BRANCH   4   7
ATOM      7  C   UNL A   1      33.317  28.065  25.723  1.00  0.00     0.017 C 
ATOM      8  H   UNL A   1      33.719  27.075  25.770  1.00  0.00     0.049 H 
ATOM      9  H   UNL A   1      32.315  28.101  26.100  1.00  0.00     0.049 H 
BRANCH   7  10
ATOM     10  N   UNL A   1      33.280  28.488  24.333  1.00  0.00    -0.355 N 
ATOM     11  C   UNL A   1      32.235  28.594  23.451  1.00  0.00     0.238 C 
ATOM     12  O   UNL A   1      32.531  28.958  22.306  1.00  0.00    -0.273 OA
ATOM     13  H   UNL A   1      34.155  28.743  23.961  1.00  0.00     0.163 HD
BRANCH  11  14
ATOM     14  C   UNL A   1      30.783  28.326  23.888  1.00  0.00     0.116 C 
ATOM     15  H   UNL A   1      30.871  28.430  24.949  1.00  0.00     0.057 H 
BRANCH  14  16
ATOM     16  S   UNL A   1      30.227  26.640  23.590  1.00  0.00    -0.068 SA
BRANCH  16  17
ATOM     17  C   UNL A   1      31.549  25.532  23.378  1.00  0.00     0.191 A 
ATOM     18  N   UNL A   1      32.094  25.161  22.152  1.00  0.00    -0.202 N 
ATOM     19  C   UNL A   1      33.070  24.161  22.068  1.00  0.00     0.280 A 
ATOM     20  N   UNL A   1      32.063  25.150  24.507  1.00  0.00    -0.222 NA
ATOM     21  C   UNL A   1      33.726  23.799  23.335  1.00  0.00     0.069 A 
ATOM     22  O   UNL A   1      33.452  23.673  21.006  1.00  0.00    -0.267 OA
ATOM     23  C   UNL A   1      33.233  24.388  24.496  1.00  0.00     0.079 A 
ATOM     24  C   UNL A   1      34.899  23.038  23.347  1.00  0.00    -0.033 A 
ATOM     25  C   UNL A   1      33.965  24.265  25.678  1.00  0.00    -0.034 A 
ATOM     26  C   UNL A   1      35.613  22.918  24.537  1.00  0.00     0.018 A 
ATOM     27  H   UNL A   1      35.231  22.571  22.487  1.00  0.00     0.064 H 
ATOM     28  C   UNL A   1      35.162  23.543  25.699  1.00  0.00    -0.046 A 
ATOM     29  H   UNL A   1      33.620  24.710  26.543  1.00  0.00     0.065 H 
ATOM     30  Br  UNL A   1      37.232  21.946  24.568  1.00  0.00    -0.051 Br
ATOM     31  H   UNL A   1      35.709  23.474  26.571  1.00  0.00     0.064 H 
BRANCH  18  32
ATOM     32  N   UNL A   1      31.903  25.914  20.960  1.00  0.00    -0.334 N 
ATOM     33  H   UNL A   1      31.493  25.492  20.172  1.00  0.00     0.178 HD
ATOM     34  H   UNL A   1      32.182  26.858  20.925  1.00  0.00     0.178 HD
ENDBRANCH  18  32
ENDBRANCH  16  17
ENDBRANCH  14  16
BRANCH  14  35
ATOM     35  C   UNL A   1      29.731  29.396  23.590  1.00  0.00    -0.025 A 
ATOM     36  C   UNL A   1      28.585  29.029  22.854  1.00  0.00    -0.057 A 
ATOM     37  C   UNL A   1      29.827  30.733  24.003  1.00  0.00    -0.057 A 
ATOM     38  C   UNL A   1      27.581  29.957  22.560  1.00  0.00    -0.062 A 
ATOM     39  H   UNL A   1      28.486  28.056  22.527  1.00  0.00     0.063 H 
ATOM     40  C   UNL A   1      28.827  31.663  23.702  1.00  0.00    -0.062 A 
ATOM     41  H   UNL A   1      30.653  31.038  24.541  1.00  0.00     0.063 H 
ATOM     42  C   UNL A   1      27.704  31.276  22.981  1.00  0.00    -0.062 A 
ATOM     43  H   UNL A   1      26.748  29.661  22.028  1.00  0.00     0.062 H 
ATOM     44  H   UNL A   1      28.924  32.642  24.016  1.00  0.00     0.062 H 
ATOM     45  H   UNL A   1      26.965  31.962  22.762  1.00  0.00     0.062 H 
ENDBRANCH  14  35
ENDBRANCH  11  14
ENDBRANCH   7  10
ENDBRANCH   4   7
ENDBRANCH   1   4
BRANCH   1  46
ATOM     46  C   UNL A   1      32.041  30.440  26.858  1.00  0.00    -0.052 C 
ATOM     47  H   UNL A   1      31.280  29.927  27.407  1.00  0.00     0.027 H 
ATOM     48  H   UNL A   1      32.065  30.189  25.818  1.00  0.00     0.027 H 
BRANCH  46  49
ATOM     49  C   UNL A   1      31.743  31.937  26.924  1.00  0.00    -0.036 C 
ATOM     50  H   UNL A   1      30.969  32.091  27.647  1.00  0.00     0.028 H 
ATOM     51  H   UNL A   1      31.461  32.231  25.934  1.00  0.00     0.028 H 
BRANCH  49  52
ATOM     52  C   UNL A   1      32.930  32.811  27.308  1.00  0.00     0.018 C 
ATOM     53  H   UNL A   1      33.608  32.850  26.481  1.00  0.00     0.049 H 
ATOM     54  H   UNL A   1      33.386  32.376  28.172  1.00  0.00     0.049 H 
BRANCH  52  55
ATOM     55  N   UNL A   1      32.540  34.169  27.654  1.00  0.00    -0.352 N 
ATOM     56  C   UNL A   1      33.026  34.984  28.652  1.00  0.00     0.251 C 
ATOM     57  H   UNL A   1      31.829  34.560  27.096  1.00  0.00     0.163 HD
ATOM     58  O   UNL A   1      32.491  36.049  28.911  1.00  0.00    -0.269 OA
BRANCH  56  59
ATOM     59  C   UNL A   1      34.191  34.529  29.443  1.00  0.00     0.039 A 
ATOM     60  C   UNL A   1      35.483  34.628  28.920  1.00  0.00    -0.049 A 
ATOM     61  C   UNL A   1      33.978  33.950  30.696  1.00  0.00    -0.049 A 
ATOM     62  C   UNL A   1      36.538  33.999  29.573  1.00  0.00    -0.053 A 
ATOM     63  H   UNL A   1      35.654  35.165  28.056  1.00  0.00     0.063 H 
ATOM     64  C   UNL A   1      35.054  33.386  31.387  1.00  0.00    -0.053 A 
ATOM     65  H   UNL A   1      33.032  33.939  31.108  1.00  0.00     0.063 H 
ATOM     66  C   UNL A   1      36.333  33.364  30.809  1.00  0.00    -0.014 A 
ATOM     67  H   UNL A   1      37.478  33.999  29.147  1.00  0.00     0.063 H 
ATOM     68  H   UNL A   1      34.907  32.985  32.327  1.00  0.00     0.063 H 
BRANCH  66  69
ATOM     69  C   UNL A   1      37.466  32.679  31.483  1.00  0.00     0.031 A 
ATOM     70  C   UNL A   1      38.207  31.563  30.797  1.00  0.00     0.074 A 
ATOM     71  C   UNL A   1      37.847  33.088  32.708  1.00  0.00     0.049 A 
ATOM     72  N   UNL A   1      39.182  30.817  31.254  1.00  0.00    -0.248 NA
ATOM     73  C   UNL A   1      37.804  31.241  29.418  1.00  0.00    -0.034 C 
ATOM     74  C   UNL A   1      37.220  34.173  33.465  1.00  0.00    -0.036 A 
ATOM     75  N   UNL A   1      38.858  32.652  33.526  1.00  0.00    -0.354 N 
ATOM     76  C   UNL A   1      39.491  29.925  30.234  1.00  0.00     0.074 A 
ATOM     77  C   UNL A   1      38.594  30.213  29.135  1.00  0.00    -0.034 C 
ATOM     78  H   UNL A   1      37.093  31.696  28.826  1.00  0.00     0.065 H 
ATOM     79  C   UNL A   1      37.877  34.337  34.622  1.00  0.00    -0.036 A 
ATOM     80  H   UNL A   1      36.403  34.723  33.158  1.00  0.00     0.065 H 
ATOM     81  C   UNL A   1      38.929  33.330  34.717  1.00  0.00     0.049 A 
ATOM     82  H   UNL A   1      39.472  31.921  33.282  1.00  0.00     0.167 HD
ATOM     83  C   UNL A   1      40.441  28.961  30.218  1.00  0.00     0.037 A 
ATOM     84  H   UNL A   1      38.571  29.687  28.247  1.00  0.00     0.065 H 
ATOM     85  H   UNL A   1      37.672  35.059  35.331  1.00  0.00     0.065 H 
ATOM     86  C   UNL A   1      39.734  33.147  35.780  1.00  0.00     0.037 A 
ATOM     87  C   UNL A   1      41.350  28.695  31.303  1.00  0.00     0.049 A 
ATOM     88  C   UNL A   1      40.765  32.055  35.740  1.00  0.00     0.074 A 
ATOM     89  C   UNL A   1      42.348  27.738  31.377  1.00  0.00    -0.036 A 
ATOM     90  N   UNL A   1      41.380  29.396  32.499  1.00  0.00    -0.354 N 
ATOM     91  N   UNL A   1      41.031  31.207  34.778  1.00  0.00    -0.248 NA
ATOM     92  C   UNL A   1      41.604  31.893  36.935  1.00  0.00    -0.034 C 
ATOM     93  C   UNL A   1      42.961  27.838  32.629  1.00  0.00    -0.036 A 
ATOM     94  H   UNL A   1      42.596  27.064  30.636  1.00  0.00     0.065 H 
ATOM     95  C   UNL A   1      42.375  28.887  33.318  1.00  0.00     0.049 A 
ATOM     96  H   UNL A   1      40.782  30.142  32.732  1.00  0.00     0.167 HD
ATOM     97  C   UNL A   1      42.076  30.422  35.242  1.00  0.00     0.074 A 
ATOM     98  C   UNL A   1      42.409  30.907  36.565  1.00  0.00    -0.034 C 
ATOM     99  H   UNL A   1      41.574  32.410  37.828  1.00  0.00     0.065 H 
ATOM    100  H   UNL A   1      43.720  27.234  32.981  1.00  0.00     0.065 H 
ATOM    101  C   UNL A   1      42.701  29.389  34.628  1.00  0.00     0.037 A 
ATOM    102  H   UNL A   1      43.176  30.532  37.146  1.00  0.00     0.065 H 
BRANCH  83 103
ATOM    103  C   UNL A   1      40.560  28.102  28.994  1.00  0.00     0.064 A 
ATOM    104  C   UNL A   1      39.820  26.920  28.853  1.00  0.00     0.173 A 
ATOM    105  C   UNL A   1      41.340  28.524  27.906  1.00  0.00     0.173 A 
ATOM    106  F   UNL A   1      39.068  26.470  29.868  1.00  0.00    -0.203 F 
ATOM    107  C   UNL A   1      39.854  26.192  27.666  1.00  0.00     0.198 A 
ATOM    108  C   UNL A   1      41.355  27.806  26.713  1.00  0.00     0.198 A 
ATOM    109  F   UNL A   1      42.063  29.651  27.989  1.00  0.00    -0.203 F 
ATOM    110  F   UNL A   1      39.147  25.059  27.556  1.00  0.00    -0.200 F 
ATOM    111  C   UNL A   1      40.610  26.641  26.594  1.00  0.00     0.200 A 
ATOM    112  F   UNL A   1      42.077  28.248  25.675  1.00  0.00    -0.200 F 
ATOM    113  F   UNL A   1      40.622  25.953  25.444  1.00  0.00    -0.200 F 
ENDBRANCH  83 103
BRANCH  86 114
ATOM    114  C   UNL A   1      39.583  34.018  36.973  1.00  0.00     0.064 A 
ATOM    115  C   UNL A   1      40.198  35.275  37.031  1.00  0.00     0.173 A 
ATOM    116  C   UNL A   1      38.806  33.617  38.070  1.00  0.00     0.173 A 
ATOM    117  F   UNL A   1      40.967  35.692  36.016  1.00  0.00    -0.203 F 
ATOM    118  C   UNL A   1      40.049  36.096  38.147  1.00  0.00     0.198 A 
ATOM    119  C   UNL A   1      38.634  34.450  39.172  1.00  0.00     0.198 A 
ATOM    120  F   UNL A   1      38.195  32.424  38.060  1.00  0.00    -0.203 F 
ATOM    121  F   UNL A   1      40.677  37.279  38.194  1.00  0.00    -0.200 F 
ATOM    122  C   UNL A   1      39.260  35.687  39.213  1.00  0.00     0.200 A 
ATOM    123  F   UNL A   1      37.858  34.058  40.191  1.00  0.00    -0.200 F 
ATOM    124  F   UNL A   1      39.108  36.481  40.281  1.00  0.00    -0.200 F 
ENDBRANCH  86 114
BRANCH 101 125
ATOM    125  C   UNL A   1      43.831  28.734  35.364  1.00  0.00     0.064 A 
ATOM    126  C   UNL A   1      45.154  29.170  35.214  1.00  0.00     0.173 A 
ATOM    127  C   UNL A   1      43.578  27.686  36.261  1.00  0.00     0.173 A 
ATOM    128  F   UNL A   1      45.446  30.161  34.357  1.00  0.00    -0.203 F 
ATOM    129  C   UNL A   1      46.190  28.564  35.919  1.00  0.00     0.198 A 
ATOM    130  C   UNL A   1      44.613  27.100  36.984  1.00  0.00     0.198 A 
ATOM    131  F   UNL A   1      42.327  27.239  36.445  1.00  0.00    -0.203 F 
ATOM    132  F   UNL A   1      47.453  28.969  35.730  1.00  0.00    -0.200 F 
ATOM    133  C   UNL A   1      45.918  27.535  36.808  1.00  0.00     0.200 A 
ATOM    134  F   UNL A   1      44.347  26.112  37.851  1.00  0.00    -0.200 F 
ATOM    135  F   UNL A   1      46.915  26.956  37.492  1.00  0.00    -0.200 F 
ENDBRANCH 101 125
ENDBRANCH  66  69
ENDBRANCH  56  59
ENDBRANCH  52  55
ENDBRANCH  49  52
ENDBRANCH  46  49
ENDBRANCH   1  46
TORSDOF 17
ENDMDL
MODEL 3
REMARK VINA RESULT:     -13.1      5.727     11.333
REMARK SMILES Nn1c(S[C@@H](C(=O)NCCCCCCNC(=O)c2ccc(-c3c4nc(c(-c5c(F)c(F)c(F)c(F)c5F)c5ccc([nH]5)c(-c5c(F)c(F)c(F)c(F)c5F)c5nc(c(-c6c(F)c(F)c(F)c(F)c6F)c6ccc3[nH]6)C=C5)C=C4)cc2)c2ccccc2)nc2ccc(Br)cc2c1=O
REMARK SMILES IDX 11 1 10 4 9 7 8 10 6 11 7 12 5 14 4 16 3 17 2 18 95 19 87 20
REMARK SMILES IDX 94 21 96 22 88 23 93 24 89 25 91 26 90 28 92 30 1 32 81 35
REMARK SMILES IDX 82 36 86 37 83 38 85 40 84 42 12 46 13 49 14 52 15 55 16 56
REMARK SMILES IDX 17 58 18 59 19 60 80 61 20 62 79 64 21 66 22 69 23 70 73 71
REMARK SMILES IDX 24 72 78 73 72 74 74 75 25 76 77 77 71 79 70 81 26 83 58 86
REMARK SMILES IDX 38 87 57 88 39 89 42 90 56 91 75 92 40 93 41 95 55 97 76 98
REMARK SMILES IDX 43 101 27 103 28 104 36 105 29 106 30 107 34 108 37 109
REMARK SMILES IDX 31 110 32 111 35 112 33 113 59 114 60 115 68 116 61 117
REMARK SMILES IDX 62 118 66 119 69 120 63 121 64 122 67 123 65 124 44 125
REMARK SMILES IDX 45 126 53 127 46 128 47 129 51 130 54 131 48 132 49 133
REMARK SMILES IDX 52 134 50 135
REMARK H PARENT 11 2 11 3 10 5 10 6 9 8 9 9 8 13 5 15 93 27 89 29 90 31 1 33
REMARK H PARENT 1 34 82 39 86 41 83 43 85 44 84 45 12 47 12 48 13 50 13 51
REMARK H PARENT 14 53 14 54 15 57 19 63 80 65 20 67 79 68 78 78 72 80 74 82
REMARK H PARENT 77 84 71 85 39 94 42 96 75 99 40 100 76 102
REMARK Flexibility Score: inf
ROOT
ATOM      1  C   UNL A   1      38.041  22.198  25.669  1.00  0.00    -0.052 C 
ATOM      2  H   UNL A   1      37.962  21.924  26.701  1.00  0.00     0.027 H 
ATOM      3  H   UNL A   1      39.033  22.452  25.362  1.00  0.00     0.027 H 
ENDROOT
BRANCH   1   4
ATOM      4  C   UNL A   1      37.201  23.464  25.456  1.00  0.00    -0.036 C 
ATOM      5  H   UNL A   1      37.255  24.052  26.348  1.00  0.00     0.028 H 
ATOM      6  H   UNL A   1      37.614  23.951  24.597  1.00  0.00     0.028 H 
BRANCH   4   7
ATOM      7  C   UNL A   1      35.721  23.223  25.136  1.00  0.00     0.017 C 
ATOM      8  H   UNL A   1      35.251  24.167  24.957  1.00  0.00     0.049 H 
ATOM      9  H   UNL A   1      35.674  22.590  24.274  1.00  0.00     0.049 H 
BRANCH   7  10
ATOM     10  N   UNL A   1      35.021  22.551  26.217  1.00  0.00    -0.355 N 
ATOM     11  C   UNL A   1      34.108  21.527  26.200  1.00  0.00     0.238 C 
ATOM     12  O   UNL A   1      33.658  21.189  27.301  1.00  0.00    -0.273 OA
ATOM     13  H   UNL A   1      35.240  22.887  27.117  1.00  0.00     0.163 HD
BRANCH  11  14
ATOM     14  C   UNL A   1      33.719  20.818  24.890  1.00  0.00     0.116 C 
ATOM     15  H   UNL A   1      34.603  20.972  24.309  1.00  0.00     0.057 H 
BRANCH  14  16
ATOM     16  S   UNL A   1      32.379  21.618  23.992  1.00  0.00    -0.068 SA
BRANCH  16  17
ATOM     17  C   UNL A   1      31.904  23.126  24.715  1.00  0.00     0.191 A 
ATOM     18  N   UNL A   1      30.941  23.269  25.709  1.00  0.00    -0.202 N 
ATOM     19  C   UNL A   1      30.527  24.537  26.137  1.00  0.00     0.280 A 
ATOM     20  N   UNL A   1      32.624  24.124  24.301  1.00  0.00    -0.222 NA
ATOM     21  C   UNL A   1      31.400  25.658  25.754  1.00  0.00     0.069 A 
ATOM     22  O   UNL A   1      29.561  24.722  26.876  1.00  0.00    -0.267 OA
ATOM     23  C   UNL A   1      32.469  25.370  24.910  1.00  0.00     0.079 A 
ATOM     24  C   UNL A   1      31.263  26.914  26.352  1.00  0.00    -0.033 A 
ATOM     25  C   UNL A   1      33.453  26.341  24.713  1.00  0.00    -0.034 A 
ATOM     26  C   UNL A   1      32.249  27.874  26.138  1.00  0.00     0.018 A 
ATOM     27  H   UNL A   1      30.443  27.128  26.943  1.00  0.00     0.064 H 
ATOM     28  C   UNL A   1      33.353  27.588  25.336  1.00  0.00    -0.046 A 
ATOM     29  H   UNL A   1      34.259  26.136  24.103  1.00  0.00     0.065 H 
ATOM     30  Br  UNL A   1      32.119  29.559  26.982  1.00  0.00    -0.051 Br
ATOM     31  H   UNL A   1      34.095  28.293  25.204  1.00  0.00     0.064 H 
BRANCH  18  32
ATOM     32  N   UNL A   1      30.502  22.188  26.523  1.00  0.00    -0.334 N 
ATOM     33  H   UNL A   1      30.161  22.362  27.429  1.00  0.00     0.178 HD
ATOM     34  H   UNL A   1      30.540  21.267  26.178  1.00  0.00     0.178 HD
ENDBRANCH  18  32
ENDBRANCH  16  17
ENDBRANCH  14  16
BRANCH  14  35
ATOM     35  C   UNL A   1      33.650  19.290  24.890  1.00  0.00    -0.025 A 
ATOM     36  C   UNL A   1      34.773  18.563  24.445  1.00  0.00    -0.057 A 
ATOM     37  C   UNL A   1      32.532  18.551  25.308  1.00  0.00    -0.057 A 
ATOM     38  C   UNL A   1      34.779  17.165  24.433  1.00  0.00    -0.062 A 
ATOM     39  H   UNL A   1      35.609  19.075  24.122  1.00  0.00     0.063 H 
ATOM     40  C   UNL A   1      32.534  17.153  25.289  1.00  0.00    -0.062 A 
ATOM     41  H   UNL A   1      31.691  19.049  25.638  1.00  0.00     0.063 H 
ATOM     42  C   UNL A   1      33.657  16.459  24.852  1.00  0.00    -0.062 A 
ATOM     43  H   UNL A   1      35.617  16.657  24.111  1.00  0.00     0.062 H 
ATOM     44  H   UNL A   1      31.698  16.633  25.600  1.00  0.00     0.062 H 
ATOM     45  H   UNL A   1      33.659  15.427  24.840  1.00  0.00     0.062 H 
ENDBRANCH  14  35
ENDBRANCH  11  14
ENDBRANCH   7  10
ENDBRANCH   4   7
ENDBRANCH   1   4
BRANCH   1  46
ATOM     46  C   UNL A   1      37.640  20.985  24.828  1.00  0.00    -0.052 C 
ATOM     47  H   UNL A   1      37.724  21.255  23.797  1.00  0.00     0.027 H 
ATOM     48  H   UNL A   1      36.644  20.735  25.128  1.00  0.00     0.027 H 
BRANCH  46  49
ATOM     49  C   UNL A   1      38.477  19.726  25.056  1.00  0.00    -0.036 C 
ATOM     50  H   UNL A   1      38.940  19.462  24.128  1.00  0.00     0.028 H 
ATOM     51  H   UNL A   1      37.803  18.979  25.421  1.00  0.00     0.028 H 
BRANCH  49  52
ATOM     52  C   UNL A   1      39.570  19.866  26.107  1.00  0.00     0.018 C 
ATOM     53  H   UNL A   1      39.122  19.809  27.078  1.00  0.00     0.049 H 
ATOM     54  H   UNL A   1      40.053  20.807  25.950  1.00  0.00     0.049 H 
BRANCH  52  55
ATOM     55  N   UNL A   1      40.586  18.829  26.003  1.00  0.00    -0.352 N 
ATOM     56  C   UNL A   1      41.958  18.952  26.028  1.00  0.00     0.251 C 
ATOM     57  H   UNL A   1      40.245  17.911  25.900  1.00  0.00     0.163 HD
ATOM     58  O   UNL A   1      42.679  18.001  25.779  1.00  0.00    -0.269 OA
BRANCH  56  59
ATOM     59  C   UNL A   1      42.552  20.276  26.322  1.00  0.00     0.039 A 
ATOM     60  C   UNL A   1      42.546  20.780  27.625  1.00  0.00    -0.049 A 
ATOM     61  C   UNL A   1      43.070  21.036  25.272  1.00  0.00    -0.049 A 
ATOM     62  C   UNL A   1      42.902  22.105  27.849  1.00  0.00    -0.053 A 
ATOM     63  H   UNL A   1      42.280  20.172  28.416  1.00  0.00     0.063 H 
ATOM     64  C   UNL A   1      43.500  22.344  25.514  1.00  0.00    -0.053 A 
ATOM     65  H   UNL A   1      43.134  20.636  24.323  1.00  0.00     0.063 H 
ATOM     66  C   UNL A   1      43.375  22.904  26.795  1.00  0.00    -0.014 A 
ATOM     67  H   UNL A   1      42.819  22.504  28.798  1.00  0.00     0.063 H 
ATOM     68  H   UNL A   1      43.912  22.899  24.748  1.00  0.00     0.063 H 
BRANCH  66  69
ATOM     69  C   UNL A   1      43.731  24.324  27.048  1.00  0.00     0.031 A 
ATOM     70  C   UNL A   1      45.122  24.828  26.769  1.00  0.00     0.074 A 
ATOM     71  C   UNL A   1      42.786  25.168  27.502  1.00  0.00     0.049 A 
ATOM     72  N   UNL A   1      45.626  26.018  26.981  1.00  0.00    -0.248 NA
ATOM     73  C   UNL A   1      46.072  23.875  26.174  1.00  0.00    -0.034 C 
ATOM     74  C   UNL A   1      41.398  24.801  27.789  1.00  0.00    -0.036 A 
ATOM     75  N   UNL A   1      42.843  26.508  27.789  1.00  0.00    -0.354 N 
ATOM     76  C   UNL A   1      46.951  25.951  26.571  1.00  0.00     0.074 A 
ATOM     77  C   UNL A   1      47.182  24.600  26.107  1.00  0.00    -0.034 C 
ATOM     78  H   UNL A   1      45.917  22.897  25.885  1.00  0.00     0.065 H 
ATOM     79  C   UNL A   1      40.728  25.894  28.183  1.00  0.00    -0.036 A 
ATOM     80  H   UNL A   1      40.999  23.854  27.703  1.00  0.00     0.065 H 
ATOM     81  C   UNL A   1      41.652  27.023  28.237  1.00  0.00     0.049 A 
ATOM     82  H   UNL A   1      43.660  27.048  27.685  1.00  0.00     0.167 HD
ATOM     83  C   UNL A   1      47.885  26.931  26.578  1.00  0.00     0.037 A 
ATOM     84  H   UNL A   1      48.091  24.246  25.768  1.00  0.00     0.065 H 
ATOM     85  H   UNL A   1      39.722  25.931  28.411  1.00  0.00     0.065 H 
ATOM     86  C   UNL A   1      41.341  28.259  28.669  1.00  0.00     0.037 A 
ATOM     87  C   UNL A   1      47.645  28.282  27.015  1.00  0.00     0.049 A 
ATOM     88  C   UNL A   1      42.405  29.319  28.683  1.00  0.00     0.074 A 
ATOM     89  C   UNL A   1      48.531  29.346  27.057  1.00  0.00    -0.036 A 
ATOM     90  N   UNL A   1      46.427  28.760  27.476  1.00  0.00    -0.354 N 
ATOM     91  N   UNL A   1      43.658  29.236  28.313  1.00  0.00    -0.248 NA
ATOM     92  C   UNL A   1      42.011  30.646  29.180  1.00  0.00    -0.034 C 
ATOM     93  C   UNL A   1      47.859  30.458  27.571  1.00  0.00    -0.036 A 
ATOM     94  H   UNL A   1      49.519  29.321  26.760  1.00  0.00     0.065 H 
ATOM     95  C   UNL A   1      46.543  30.100  27.809  1.00  0.00     0.049 A 
ATOM     96  H   UNL A   1      45.604  28.226  27.556  1.00  0.00     0.167 HD
ATOM     97  C   UNL A   1      44.199  30.497  28.515  1.00  0.00     0.074 A 
ATOM     98  C   UNL A   1      43.133  31.334  29.022  1.00  0.00    -0.034 C 
ATOM     99  H   UNL A   1      41.101  30.958  29.553  1.00  0.00     0.065 H 
ATOM    100  H   UNL A   1      48.273  31.387  27.746  1.00  0.00     0.065 H 
ATOM    101  C   UNL A   1      45.468  30.921  28.302  1.00  0.00     0.037 A 
ATOM    102  H   UNL A   1      43.233  32.339  29.235  1.00  0.00     0.065 H 
BRANCH  83 103
ATOM    103  C   UNL A   1      49.268  26.597  26.104  1.00  0.00     0.064 A 
ATOM    104  C   UNL A   1      49.681  26.875  24.794  1.00  0.00     0.173 A 
ATOM    105  C   UNL A   1      50.223  26.094  27.002  1.00  0.00     0.173 A 
ATOM    106  F   UNL A   1      48.804  27.347  23.896  1.00  0.00    -0.203 F 
ATOM    107  C   UNL A   1      51.001  26.664  24.400  1.00  0.00     0.198 A 
ATOM    108  C   UNL A   1      51.546  25.904  26.611  1.00  0.00     0.198 A 
ATOM    109  F   UNL A   1      49.878  25.816  28.269  1.00  0.00    -0.203 F 
ATOM    110  F   UNL A   1      51.372  26.926  23.139  1.00  0.00    -0.200 F 
ATOM    111  C   UNL A   1      51.934  26.191  25.310  1.00  0.00     0.200 A 
ATOM    112  F   UNL A   1      52.448  25.459  27.496  1.00  0.00    -0.200 F 
ATOM    113  F   UNL A   1      53.208  26.013  24.936  1.00  0.00    -0.200 F 
ENDBRANCH  83 103
BRANCH  86 114
ATOM    114  C   UNL A   1      39.960  28.549  29.131  1.00  0.00     0.064 A 
ATOM    115  C   UNL A   1      38.997  29.059  28.252  1.00  0.00     0.173 A 
ATOM    116  C   UNL A   1      39.572  28.304  30.457  1.00  0.00     0.173 A 
ATOM    117  F   UNL A   1      39.327  29.329  26.980  1.00  0.00    -0.203 F 
ATOM    118  C   UNL A   1      37.699  29.324  28.683  1.00  0.00     0.198 A 
ATOM    119  C   UNL A   1      38.267  28.541  30.880  1.00  0.00     0.198 A 
ATOM    120  F   UNL A   1      40.458  27.813  31.335  1.00  0.00    -0.203 F 
ATOM    121  F   UNL A   1      36.805  29.845  27.832  1.00  0.00    -0.200 F 
ATOM    122  C   UNL A   1      37.333  29.056  29.994  1.00  0.00     0.200 A 
ATOM    123  F   UNL A   1      37.915  28.265  32.142  1.00  0.00    -0.200 F 
ATOM    124  F   UNL A   1      36.081  29.299  30.406  1.00  0.00    -0.200 F 
ENDBRANCH  86 114
BRANCH 101 125
ATOM    125  C   UNL A   1      45.766  32.364  28.584  1.00  0.00     0.064 A 
ATOM    126  C   UNL A   1      46.247  32.782  29.832  1.00  0.00     0.173 A 
ATOM    127  C   UNL A   1      45.607  33.329  27.579  1.00  0.00     0.173 A 
ATOM    128  F   UNL A   1      46.403  31.896  30.828  1.00  0.00    -0.203 F 
ATOM    129  C   UNL A   1      46.538  34.122  30.072  1.00  0.00     0.198 A 
ATOM    130  C   UNL A   1      45.923  34.664  27.815  1.00  0.00     0.198 A 
ATOM    131  F   UNL A   1      45.157  32.976  26.366  1.00  0.00    -0.203 F 
ATOM    132  F   UNL A   1      46.958  34.508  31.285  1.00  0.00    -0.200 F 
ATOM    133  C   UNL A   1      46.382  35.060  29.062  1.00  0.00     0.200 A 
ATOM    134  F   UNL A   1      45.782  35.567  26.834  1.00  0.00    -0.200 F 
ATOM    135  F   UNL A   1      46.668  36.349  29.292  1.00  0.00    -0.200 F 
ENDBRANCH 101 125
ENDBRANCH  66  69
ENDBRANCH  56  59
ENDBRANCH  52  55
ENDBRANCH  49  52
ENDBRANCH  46  49
ENDBRANCH   1  46
TORSDOF 17
ENDMDL
MODEL 4
REMARK VINA RESULT:     -13.1      0.287      6.955
REMARK SMILES Nn1c(S[C@@H](C(=O)NCCCCCCNC(=O)c2ccc(-c3c4nc(c(-c5c(F)c(F)c(F)c(F)c5F)c5ccc([nH]5)c(-c5c(F)c(F)c(F)c(F)c5F)c5nc(c(-c6c(F)c(F)c(F)c(F)c6F)c6ccc3[nH]6)C=C5)C=C4)cc2)c2ccccc2)nc2ccc(Br)cc2c1=O
REMARK SMILES IDX 11 1 10 4 9 7 8 10 6 11 7 12 5 14 4 16 3 17 2 18 95 19 87 20
REMARK SMILES IDX 94 21 96 22 88 23 93 24 89 25 91 26 90 28 92 30 1 32 81 35
REMARK SMILES IDX 82 36 86 37 83 38 85 40 84 42 12 46 13 49 14 52 15 55 16 56
REMARK SMILES IDX 17 58 18 59 19 60 80 61 20 62 79 64 21 66 22 69 23 70 73 71
REMARK SMILES IDX 24 72 78 73 72 74 74 75 25 76 77 77 71 79 70 81 26 83 58 86
REMARK SMILES IDX 38 87 57 88 39 89 42 90 56 91 75 92 40 93 41 95 55 97 76 98
REMARK SMILES IDX 43 101 27 103 28 104 36 105 29 106 30 107 34 108 37 109
REMARK SMILES IDX 31 110 32 111 35 112 33 113 59 114 60 115 68 116 61 117
REMARK SMILES IDX 62 118 66 119 69 120 63 121 64 122 67 123 65 124 44 125
REMARK SMILES IDX 45 126 53 127 46 128 47 129 51 130 54 131 48 132 49 133
REMARK SMILES IDX 52 134 50 135
REMARK H PARENT 11 2 11 3 10 5 10 6 9 8 9 9 8 13 5 15 93 27 89 29 90 31 1 33
REMARK H PARENT 1 34 82 39 86 41 83 43 85 44 84 45 12 47 12 48 13 50 13 51
REMARK H PARENT 14 53 14 54 15 57 19 63 80 65 20 67 79 68 78 78 72 80 74 82
REMARK H PARENT 77 84 71 85 39 94 42 96 75 99 40 100 76 102
REMARK Flexibility Score: inf
ROOT
ATOM      1  C   UNL A   1      33.250  30.060  27.492  1.00  0.00    -0.052 C 
ATOM      2  H   UNL A   1      33.868  30.926  27.608  1.00  0.00     0.027 H 
ATOM      3  H   UNL A   1      32.991  29.584  28.414  1.00  0.00     0.027 H 
ENDROOT
BRANCH   1   4
ATOM      4  C   UNL A   1      34.046  29.019  26.695  1.00  0.00    -0.036 C 
ATOM      5  H   UNL A   1      34.734  29.541  26.063  1.00  0.00     0.028 H 
ATOM      6  H   UNL A   1      34.523  28.393  27.420  1.00  0.00     0.028 H 
BRANCH   4   7
ATOM      7  C   UNL A   1      33.208  28.086  25.814  1.00  0.00     0.017 C 
ATOM      8  H   UNL A   1      33.595  27.093  25.900  1.00  0.00     0.049 H 
ATOM      9  H   UNL A   1      32.194  28.143  26.153  1.00  0.00     0.049 H 
BRANCH   7  10
ATOM     10  N   UNL A   1      33.228  28.475  24.414  1.00  0.00    -0.355 N 
ATOM     11  C   UNL A   1      32.214  28.595  23.498  1.00  0.00     0.238 C 
ATOM     12  O   UNL A   1      32.557  28.919  22.354  1.00  0.00    -0.273 OA
ATOM     13  H   UNL A   1      34.122  28.691  24.063  1.00  0.00     0.163 HD
BRANCH  11  14
ATOM     14  C   UNL A   1      30.741  28.388  23.896  1.00  0.00     0.116 C 
ATOM     15  H   UNL A   1      30.798  28.529  24.954  1.00  0.00     0.057 H 
BRANCH  14  16
ATOM     16  S   UNL A   1      30.141  26.709  23.642  1.00  0.00    -0.068 SA
BRANCH  16  17
ATOM     17  C   UNL A   1      31.435  25.569  23.422  1.00  0.00     0.191 A 
ATOM     18  N   UNL A   1      31.965  25.188  22.192  1.00  0.00    -0.202 N 
ATOM     19  C   UNL A   1      32.915  24.163  22.102  1.00  0.00     0.280 A 
ATOM     20  N   UNL A   1      31.942  25.170  24.547  1.00  0.00    -0.222 NA
ATOM     21  C   UNL A   1      33.566  23.781  23.365  1.00  0.00     0.069 A 
ATOM     22  O   UNL A   1      33.281  23.669  21.036  1.00  0.00    -0.267 OA
ATOM     23  C   UNL A   1      33.092  24.379  24.529  1.00  0.00     0.079 A 
ATOM     24  C   UNL A   1      34.719  22.990  23.370  1.00  0.00    -0.033 A 
ATOM     25  C   UNL A   1      33.825  24.233  25.709  1.00  0.00    -0.034 A 
ATOM     26  C   UNL A   1      35.434  22.848  24.557  1.00  0.00     0.018 A 
ATOM     27  H   UNL A   1      35.036  22.518  22.508  1.00  0.00     0.064 H 
ATOM     28  C   UNL A   1      35.003  23.481  25.723  1.00  0.00    -0.046 A 
ATOM     29  H   UNL A   1      33.495  24.684  26.576  1.00  0.00     0.065 H 
ATOM     30  Br  UNL A   1      37.028  21.834  24.579  1.00  0.00    -0.051 Br
ATOM     31  H   UNL A   1      35.551  23.395  26.593  1.00  0.00     0.064 H 
BRANCH  18  32
ATOM     32  N   UNL A   1      31.789  25.950  21.004  1.00  0.00    -0.334 N 
ATOM     33  H   UNL A   1      31.394  26.850  21.051  1.00  0.00     0.178 HD
ATOM     34  H   UNL A   1      32.062  25.575  20.135  1.00  0.00     0.178 HD
ENDBRANCH  18  32
ENDBRANCH  16  17
ENDBRANCH  14  16
BRANCH  14  35
ATOM     35  C   UNL A   1      29.734  29.477  23.524  1.00  0.00    -0.025 A 
ATOM     36  C   UNL A   1      28.616  29.124  22.739  1.00  0.00    -0.057 A 
ATOM     37  C   UNL A   1      29.845  30.821  23.913  1.00  0.00    -0.057 A 
ATOM     38  C   UNL A   1      27.652  30.070  22.376  1.00  0.00    -0.062 A 
ATOM     39  H   UNL A   1      28.508  28.147  22.427  1.00  0.00     0.063 H 
ATOM     40  C   UNL A   1      28.885  31.769  23.544  1.00  0.00    -0.062 A 
ATOM     41  H   UNL A   1      30.651  31.116  24.486  1.00  0.00     0.063 H 
ATOM     42  C   UNL A   1      27.789  31.394  22.776  1.00  0.00    -0.062 A 
ATOM     43  H   UNL A   1      26.839  29.784  21.809  1.00  0.00     0.062 H 
ATOM     44  H   UNL A   1      28.992  32.751  23.842  1.00  0.00     0.062 H 
ATOM     45  H   UNL A   1      27.080  32.094  22.506  1.00  0.00     0.062 H 
ENDBRANCH  14  35
ENDBRANCH  11  14
ENDBRANCH   7  10
ENDBRANCH   4   7
ENDBRANCH   1   4
BRANCH   1  46
ATOM     46  C   UNL A   1      31.927  30.507  26.866  1.00  0.00    -0.052 C 
ATOM     47  H   UNL A   1      31.132  30.033  27.401  1.00  0.00     0.027 H 
ATOM     48  H   UNL A   1      31.979  30.226  25.835  1.00  0.00     0.027 H 
BRANCH  46  49
ATOM     49  C   UNL A   1      31.674  32.014  26.880  1.00  0.00    -0.036 C 
ATOM     50  H   UNL A   1      30.898  32.215  27.590  1.00  0.00     0.028 H 
ATOM     51  H   UNL A   1      31.410  32.284  25.878  1.00  0.00     0.028 H 
BRANCH  49  52
ATOM     52  C   UNL A   1      32.884  32.864  27.248  1.00  0.00     0.018 C 
ATOM     53  H   UNL A   1      33.541  32.908  26.404  1.00  0.00     0.049 H 
ATOM     54  H   UNL A   1      33.355  32.408  28.093  1.00  0.00     0.049 H 
BRANCH  52  55
ATOM     55  N   UNL A   1      32.522  34.221  27.627  1.00  0.00    -0.352 N 
ATOM     56  C   UNL A   1      33.038  35.008  28.633  1.00  0.00     0.251 C 
ATOM     57  H   UNL A   1      31.809  34.635  27.089  1.00  0.00     0.163 HD
ATOM     58  O   UNL A   1      32.526  36.076  28.921  1.00  0.00    -0.269 OA
BRANCH  56  59
ATOM     59  C   UNL A   1      34.209  34.518  29.395  1.00  0.00     0.039 A 
ATOM     60  C   UNL A   1      35.495  34.621  28.860  1.00  0.00    -0.049 A 
ATOM     61  C   UNL A   1      34.005  33.903  30.632  1.00  0.00    -0.049 A 
ATOM     62  C   UNL A   1      36.551  33.962  29.480  1.00  0.00    -0.053 A 
ATOM     63  H   UNL A   1      35.660  35.183  28.010  1.00  0.00     0.063 H 
ATOM     64  C   UNL A   1      35.083  33.307  31.292  1.00  0.00    -0.053 A 
ATOM     65  H   UNL A   1      33.063  33.887  31.055  1.00  0.00     0.063 H 
ATOM     66  C   UNL A   1      36.355  33.291  30.699  1.00  0.00    -0.014 A 
ATOM     67  H   UNL A   1      37.486  33.967  29.043  1.00  0.00     0.063 H 
ATOM     68  H   UNL A   1      34.943  32.879  32.221  1.00  0.00     0.063 H 
BRANCH  66  69
ATOM     69  C   UNL A   1      37.489  32.575  31.338  1.00  0.00     0.031 A 
ATOM     70  C   UNL A   1      38.213  31.476  30.607  1.00  0.00     0.074 A 
ATOM     71  C   UNL A   1      37.887  32.942  32.570  1.00  0.00     0.049 A 
ATOM     72  N   UNL A   1      39.185  30.707  31.029  1.00  0.00    -0.248 NA
ATOM     73  C   UNL A   1      37.792  31.203  29.224  1.00  0.00    -0.034 C 
ATOM     74  C   UNL A   1      37.277  34.006  33.369  1.00  0.00    -0.036 A 
ATOM     75  N   UNL A   1      38.902  32.470  33.363  1.00  0.00    -0.354 N 
ATOM     76  C   UNL A   1      39.475  29.847  29.977  1.00  0.00     0.074 A 
ATOM     77  C   UNL A   1      38.570  30.178  28.899  1.00  0.00    -0.034 C 
ATOM     78  H   UNL A   1      37.078  31.683  28.654  1.00  0.00     0.065 H 
ATOM     79  C   UNL A   1      37.948  34.127  34.524  1.00  0.00    -0.036 A 
ATOM     80  H   UNL A   1      36.462  34.573  33.089  1.00  0.00     0.065 H 
ATOM     81  C   UNL A   1      38.993  33.108  34.575  1.00  0.00     0.049 A 
ATOM     82  H   UNL A   1      39.507  31.743  33.089  1.00  0.00     0.167 HD
ATOM     83  C   UNL A   1      40.417  28.875  29.920  1.00  0.00     0.037 A 
ATOM     84  H   UNL A   1      38.533  29.681  27.994  1.00  0.00     0.065 H 
ATOM     85  H   UNL A   1      37.757  34.827  35.258  1.00  0.00     0.065 H 
ATOM     86  C   UNL A   1      39.807  32.884  35.622  1.00  0.00     0.037 A 
ATOM     87  C   UNL A   1      41.335  28.567  30.986  1.00  0.00     0.049 A 
ATOM     88  C   UNL A   1      40.827  31.786  35.535  1.00  0.00     0.074 A 
ATOM     89  C   UNL A   1      42.325  27.599  31.018  1.00  0.00    -0.036 A 
ATOM     90  N   UNL A   1      41.384  29.228  32.204  1.00  0.00    -0.354 N 
ATOM     91  N   UNL A   1      41.076  30.967  34.543  1.00  0.00    -0.248 NA
ATOM     92  C   UNL A   1      41.678  31.577  36.715  1.00  0.00    -0.034 C 
ATOM     93  C   UNL A   1      42.953  27.653  32.265  1.00  0.00    -0.036 A 
ATOM     94  H   UNL A   1      42.559  26.948  30.252  1.00  0.00     0.065 H 
ATOM     95  C   UNL A   1      42.383  28.684  32.995  1.00  0.00     0.049 A 
ATOM     96  H   UNL A   1      40.795  29.971  32.467  1.00  0.00     0.167 HD
ATOM     97  C   UNL A   1      42.119  30.158  34.970  1.00  0.00     0.074 A 
ATOM     98  C   UNL A   1      42.471  30.597  36.304  1.00  0.00    -0.034 C 
ATOM     99  H   UNL A   1      41.662  32.065  37.625  1.00  0.00     0.065 H 
ATOM    100  H   UNL A   1      43.710  27.031  32.589  1.00  0.00     0.065 H 
ATOM    101  C   UNL A   1      42.728  29.140  34.316  1.00  0.00     0.037 A 
ATOM    102  H   UNL A   1      43.240  30.198  36.864  1.00  0.00     0.065 H 
BRANCH  83 103
ATOM    103  C   UNL A   1      40.515  28.056  28.668  1.00  0.00     0.064 A 
ATOM    104  C   UNL A   1      41.330  28.449  27.597  1.00  0.00     0.173 A 
ATOM    105  C   UNL A   1      39.873  26.810  28.583  1.00  0.00     0.173 A 
ATOM    106  F   UNL A   1      41.955  29.635  27.625  1.00  0.00    -0.203 F 
ATOM    107  C   UNL A   1      41.500  27.623  26.487  1.00  0.00     0.198 A 
ATOM    108  C   UNL A   1      40.063  25.978  27.483  1.00  0.00     0.198 A 
ATOM    109  F   UNL A   1      39.087  26.386  29.585  1.00  0.00    -0.203 F 
ATOM    110  F   UNL A   1      42.274  28.024  25.469  1.00  0.00    -0.200 F 
ATOM    111  C   UNL A   1      40.878  26.385  26.437  1.00  0.00     0.200 A 
ATOM    112  F   UNL A   1      39.470  24.777  27.442  1.00  0.00    -0.200 F 
ATOM    113  F   UNL A   1      41.063  25.582  25.380  1.00  0.00    -0.200 F 
ENDBRANCH  83 103
BRANCH  86 114
ATOM    114  C   UNL A   1      39.676  33.717  36.844  1.00  0.00     0.064 A 
ATOM    115  C   UNL A   1      40.367  34.929  36.969  1.00  0.00     0.173 A 
ATOM    116  C   UNL A   1      38.844  33.326  37.904  1.00  0.00     0.173 A 
ATOM    117  F   UNL A   1      41.191  35.334  35.991  1.00  0.00    -0.203 F 
ATOM    118  C   UNL A   1      40.239  35.715  38.112  1.00  0.00     0.198 A 
ATOM    119  C   UNL A   1      38.693  34.126  39.033  1.00  0.00     0.198 A 
ATOM    120  F   UNL A   1      38.160  32.175  37.829  1.00  0.00    -0.203 F 
ATOM    121  F   UNL A   1      40.937  36.853  38.223  1.00  0.00    -0.200 F 
ATOM    122  C   UNL A   1      39.395  35.317  39.139  1.00  0.00     0.200 A 
ATOM    123  F   UNL A   1      37.865  33.745  40.014  1.00  0.00    -0.200 F 
ATOM    124  F   UNL A   1      39.262  36.078  40.233  1.00  0.00    -0.200 F 
ENDBRANCH  86 114
BRANCH 101 125
ATOM    125  C   UNL A   1      43.860  28.452  35.018  1.00  0.00     0.064 A 
ATOM    126  C   UNL A   1      43.648  27.322  35.819  1.00  0.00     0.173 A 
ATOM    127  C   UNL A   1      45.177  28.906  34.851  1.00  0.00     0.173 A 
ATOM    128  F   UNL A   1      42.403  26.859  36.019  1.00  0.00    -0.203 F 
ATOM    129  C   UNL A   1      44.712  26.683  36.449  1.00  0.00     0.198 A 
ATOM    130  C   UNL A   1      46.241  28.249  35.461  1.00  0.00     0.198 A 
ATOM    131  F   UNL A   1      45.431  29.979  34.087  1.00  0.00    -0.203 F 
ATOM    132  F   UNL A   1      44.482  25.629  37.244  1.00  0.00    -0.200 F 
ATOM    133  C   UNL A   1      46.007  27.143  36.264  1.00  0.00     0.200 A 
ATOM    134  F   UNL A   1      47.494  28.687  35.272  1.00  0.00    -0.200 F 
ATOM    135  F   UNL A   1      47.032  26.523  36.865  1.00  0.00    -0.200 F 
ENDBRANCH 101 125
ENDBRANCH  66  69
ENDBRANCH  56  59
ENDBRANCH  52  55
ENDBRANCH  49  52
ENDBRANCH  46  49
ENDBRANCH   1  46
TORSDOF 17
ENDMDL
MODEL 5
REMARK VINA RESULT:     -13.0      5.693     11.330
REMARK SMILES Nn1c(S[C@@H](C(=O)NCCCCCCNC(=O)c2ccc(-c3c4nc(c(-c5c(F)c(F)c(F)c(F)c5F)c5ccc([nH]5)c(-c5c(F)c(F)c(F)c(F)c5F)c5nc(c(-c6c(F)c(F)c(F)c(F)c6F)c6ccc3[nH]6)C=C5)C=C4)cc2)c2ccccc2)nc2ccc(Br)cc2c1=O
REMARK SMILES IDX 11 1 10 4 9 7 8 10 6 11 7 12 5 14 4 16 3 17 2 18 95 19 87 20
REMARK SMILES IDX 94 21 96 22 88 23 93 24 89 25 91 26 90 28 92 30 1 32 81 35
REMARK SMILES IDX 82 36 86 37 83 38 85 40 84 42 12 46 13 49 14 52 15 55 16 56
REMARK SMILES IDX 17 58 18 59 19 60 80 61 20 62 79 64 21 66 22 69 23 70 73 71
REMARK SMILES IDX 24 72 78 73 72 74 74 75 25 76 77 77 71 79 70 81 26 83 58 86
REMARK SMILES IDX 38 87 57 88 39 89 42 90 56 91 75 92 40 93 41 95 55 97 76 98
REMARK SMILES IDX 43 101 27 103 28 104 36 105 29 106 30 107 34 108 37 109
REMARK SMILES IDX 31 110 32 111 35 112 33 113 59 114 60 115 68 116 61 117
REMARK SMILES IDX 62 118 66 119 69 120 63 121 64 122 67 123 65 124 44 125
REMARK SMILES IDX 45 126 53 127 46 128 47 129 51 130 54 131 48 132 49 133
REMARK SMILES IDX 52 134 50 135
REMARK H PARENT 11 2 11 3 10 5 10 6 9 8 9 9 8 13 5 15 93 27 89 29 90 31 1 33
REMARK H PARENT 1 34 82 39 86 41 83 43 85 44 84 45 12 47 12 48 13 50 13 51
REMARK H PARENT 14 53 14 54 15 57 19 63 80 65 20 67 79 68 78 78 72 80 74 82
REMARK H PARENT 77 84 71 85 39 94 42 96 75 99 40 100 76 102
REMARK Flexibility Score: inf
ROOT
ATOM      1  C   UNL A   1      38.188  22.339  25.726  1.00  0.00    -0.052 C 
ATOM      2  H   UNL A   1      38.304  21.984  26.728  1.00  0.00     0.027 H 
ATOM      3  H   UNL A   1      39.096  22.688  25.281  1.00  0.00     0.027 H 
ENDROOT
BRANCH   1   4
ATOM      4  C   UNL A   1      37.249  23.550  25.762  1.00  0.00    -0.036 C 
ATOM      5  H   UNL A   1      37.211  23.910  26.770  1.00  0.00     0.028 H 
ATOM      6  H   UNL A   1      37.653  24.258  25.070  1.00  0.00     0.028 H 
BRANCH   4   7
ATOM      7  C   UNL A   1      35.811  23.280  25.303  1.00  0.00     0.017 C 
ATOM      8  H   UNL A   1      35.317  24.216  25.154  1.00  0.00     0.049 H 
ATOM      9  H   UNL A   1      35.861  22.712  24.397  1.00  0.00     0.049 H 
BRANCH   7  10
ATOM     10  N   UNL A   1      35.055  22.502  26.270  1.00  0.00    -0.355 N 
ATOM     11  C   UNL A   1      34.149  21.487  26.099  1.00  0.00     0.238 C 
ATOM     12  O   UNL A   1      33.640  21.039  27.134  1.00  0.00    -0.273 OA
ATOM     13  H   UNL A   1      35.222  22.745  27.210  1.00  0.00     0.163 HD
BRANCH  11  14
ATOM     14  C   UNL A   1      33.835  20.914  24.704  1.00  0.00     0.116 C 
ATOM     15  H   UNL A   1      34.735  21.160  24.180  1.00  0.00     0.057 H 
BRANCH  14  16
ATOM     16  S   UNL A   1      32.502  21.766  23.844  1.00  0.00    -0.068 SA
BRANCH  16  17
ATOM     17  C   UNL A   1      32.030  23.235  24.643  1.00  0.00     0.191 A 
ATOM     18  N   UNL A   1      31.061  23.329  25.638  1.00  0.00    -0.202 N 
ATOM     19  C   UNL A   1      30.650  24.574  26.131  1.00  0.00     0.280 A 
ATOM     20  N   UNL A   1      32.756  24.250  24.287  1.00  0.00    -0.222 NA
ATOM     21  C   UNL A   1      31.529  25.711  25.813  1.00  0.00     0.069 A 
ATOM     22  O   UNL A   1      29.680  24.724  26.873  1.00  0.00    -0.267 OA
ATOM     23  C   UNL A   1      32.602  25.463  24.960  1.00  0.00     0.079 A 
ATOM     24  C   UNL A   1      31.393  26.934  26.476  1.00  0.00    -0.033 A 
ATOM     25  C   UNL A   1      33.591  26.439  24.821  1.00  0.00    -0.034 A 
ATOM     26  C   UNL A   1      32.385  27.900  26.319  1.00  0.00     0.018 A 
ATOM     27  H   UNL A   1      30.571  27.119  27.072  1.00  0.00     0.064 H 
ATOM     28  C   UNL A   1      33.493  27.651  25.510  1.00  0.00    -0.046 A 
ATOM     29  H   UNL A   1      34.400  26.264  24.206  1.00  0.00     0.065 H 
ATOM     30  Br  UNL A   1      32.257  29.538  27.251  1.00  0.00    -0.051 Br
ATOM     31  H   UNL A   1      34.238  28.359  25.419  1.00  0.00     0.064 H 
BRANCH  18  32
ATOM     32  N   UNL A   1      30.612  22.208  26.390  1.00  0.00    -0.334 N 
ATOM     33  H   UNL A   1      30.163  21.459  25.936  1.00  0.00     0.178 HD
ATOM     34  H   UNL A   1      30.751  22.183  27.365  1.00  0.00     0.178 HD
ENDBRANCH  18  32
ENDBRANCH  16  17
ENDBRANCH  14  16
BRANCH  14  35
ATOM     35  C   UNL A   1      33.822  19.395  24.535  1.00  0.00    -0.025 A 
ATOM     36  C   UNL A   1      32.593  18.756  24.270  1.00  0.00    -0.057 A 
ATOM     37  C   UNL A   1      34.961  18.580  24.626  1.00  0.00    -0.057 A 
ATOM     38  C   UNL A   1      32.514  17.371  24.092  1.00  0.00    -0.062 A 
ATOM     39  H   UNL A   1      31.733  19.323  24.206  1.00  0.00     0.063 H 
ATOM     40  C   UNL A   1      34.882  17.194  24.456  1.00  0.00    -0.062 A 
ATOM     41  H   UNL A   1      35.877  19.013  24.822  1.00  0.00     0.063 H 
ATOM     42  C   UNL A   1      33.660  16.589  24.189  1.00  0.00    -0.062 A 
ATOM     43  H   UNL A   1      31.604  16.929  23.890  1.00  0.00     0.062 H 
ATOM     44  H   UNL A   1      35.735  16.618  24.530  1.00  0.00     0.062 H 
ATOM     45  H   UNL A   1      33.602  15.567  24.061  1.00  0.00     0.062 H 
ENDBRANCH  14  35
ENDBRANCH  11  14
ENDBRANCH   7  10
ENDBRANCH   4   7
ENDBRANCH   1   4
BRANCH   1  46
ATOM     46  C   UNL A   1      37.725  21.164  24.862  1.00  0.00    -0.052 C 
ATOM     47  H   UNL A   1      37.763  21.471  23.838  1.00  0.00     0.027 H 
ATOM     48  H   UNL A   1      36.740  20.920  25.201  1.00  0.00     0.027 H 
BRANCH  46  49
ATOM     49  C   UNL A   1      38.549  19.884  25.003  1.00  0.00    -0.036 C 
ATOM     50  H   UNL A   1      39.108  19.748  24.100  1.00  0.00     0.028 H 
ATOM     51  H   UNL A   1      37.849  19.095  25.190  1.00  0.00     0.028 H 
BRANCH  49  52
ATOM     52  C   UNL A   1      39.525  19.876  26.171  1.00  0.00     0.018 C 
ATOM     53  H   UNL A   1      38.980  19.684  27.072  1.00  0.00     0.049 H 
ATOM     54  H   UNL A   1      40.008  20.831  26.197  1.00  0.00     0.049 H 
BRANCH  52  55
ATOM     55  N   UNL A   1      40.561  18.865  26.031  1.00  0.00    -0.352 N 
ATOM     56  C   UNL A   1      41.930  19.019  26.030  1.00  0.00     0.251 C 
ATOM     57  H   UNL A   1      40.239  17.941  25.921  1.00  0.00     0.163 HD
ATOM     58  O   UNL A   1      42.667  18.087  25.752  1.00  0.00    -0.269 OA
BRANCH  56  59
ATOM     59  C   UNL A   1      42.501  20.351  26.331  1.00  0.00     0.039 A 
ATOM     60  C   UNL A   1      42.452  20.863  27.630  1.00  0.00    -0.049 A 
ATOM     61  C   UNL A   1      43.039  21.110  25.291  1.00  0.00    -0.049 A 
ATOM     62  C   UNL A   1      42.786  22.194  27.855  1.00  0.00    -0.053 A 
ATOM     63  H   UNL A   1      42.171  20.258  28.417  1.00  0.00     0.063 H 
ATOM     64  C   UNL A   1      43.447  22.425  25.536  1.00  0.00    -0.053 A 
ATOM     65  H   UNL A   1      43.135  20.704  24.347  1.00  0.00     0.063 H 
ATOM     66  C   UNL A   1      43.279  22.992  26.809  1.00  0.00    -0.014 A 
ATOM     67  H   UNL A   1      42.672  22.599  28.798  1.00  0.00     0.063 H 
ATOM     68  H   UNL A   1      43.874  22.980  24.778  1.00  0.00     0.063 H 
BRANCH  66  69
ATOM     69  C   UNL A   1      43.612  24.417  27.062  1.00  0.00     0.031 A 
ATOM     70  C   UNL A   1      44.992  24.946  26.776  1.00  0.00     0.074 A 
ATOM     71  C   UNL A   1      42.654  25.244  27.522  1.00  0.00     0.049 A 
ATOM     72  N   UNL A   1      45.476  26.145  26.988  1.00  0.00    -0.248 NA
ATOM     73  C   UNL A   1      45.956  24.011  26.175  1.00  0.00    -0.034 C 
ATOM     74  C   UNL A   1      41.275  24.852  27.816  1.00  0.00    -0.036 A 
ATOM     75  N   UNL A   1      42.689  26.585  27.811  1.00  0.00    -0.354 N 
ATOM     76  C   UNL A   1      46.800  26.101  26.570  1.00  0.00     0.074 A 
ATOM     77  C   UNL A   1      47.052  24.755  26.103  1.00  0.00    -0.034 C 
ATOM     78  H   UNL A   1      45.816  23.031  25.885  1.00  0.00     0.065 H 
ATOM     79  C   UNL A   1      40.588  25.932  28.215  1.00  0.00    -0.036 A 
ATOM     80  H   UNL A   1      40.893  23.898  27.731  1.00  0.00     0.065 H 
ATOM     81  C   UNL A   1      41.492  27.078  28.266  1.00  0.00     0.049 A 
ATOM     82  H   UNL A   1      43.496  27.139  27.703  1.00  0.00     0.167 HD
ATOM     83  C   UNL A   1      47.716  27.098  26.574  1.00  0.00     0.037 A 
ATOM     84  H   UNL A   1      47.965  24.418  25.759  1.00  0.00     0.065 H 
ATOM     85  H   UNL A   1      39.582  25.951  28.449  1.00  0.00     0.065 H 
ATOM     86  C   UNL A   1      41.161  28.308  28.701  1.00  0.00     0.037 A 
ATOM     87  C   UNL A   1      47.455  28.444  27.014  1.00  0.00     0.049 A 
ATOM     88  C   UNL A   1      42.206  29.386  28.711  1.00  0.00     0.074 A 
ATOM     89  C   UNL A   1      48.323  29.523  27.052  1.00  0.00    -0.036 A 
ATOM     90  N   UNL A   1      46.232  28.900  27.482  1.00  0.00    -0.354 N 
ATOM     91  N   UNL A   1      43.459  29.326  28.334  1.00  0.00    -0.248 NA
ATOM     92  C   UNL A   1      41.792  30.705  29.212  1.00  0.00    -0.034 C 
ATOM     93  C   UNL A   1      47.634  30.623  27.572  1.00  0.00    -0.036 A 
ATOM     94  H   UNL A   1      49.309  29.516  26.750  1.00  0.00     0.065 H 
ATOM     95  C   UNL A   1      46.325  30.241  27.816  1.00  0.00     0.049 A 
ATOM     96  H   UNL A   1      45.419  28.351  27.565  1.00  0.00     0.167 HD
ATOM     97  C   UNL A   1      43.979  30.596  28.535  1.00  0.00     0.074 A 
ATOM     98  C   UNL A   1      42.901  31.413  29.049  1.00  0.00    -0.034 C 
ATOM     99  H   UNL A   1      40.878  31.001  29.590  1.00  0.00     0.065 H 
ATOM    100  H   UNL A   1      48.032  31.559  27.745  1.00  0.00     0.065 H 
ATOM    101  C   UNL A   1      45.239  31.043  28.316  1.00  0.00     0.037 A 
ATOM    102  H   UNL A   1      42.984  32.419  29.263  1.00  0.00     0.065 H 
BRANCH  83 103
ATOM    103  C   UNL A   1      49.103  26.789  26.092  1.00  0.00     0.064 A 
ATOM    104  C   UNL A   1      50.046  26.168  26.923  1.00  0.00     0.173 A 
ATOM    105  C   UNL A   1      49.455  27.016  24.752  1.00  0.00     0.173 A 
ATOM    106  F   UNL A   1      49.762  25.940  28.213  1.00  0.00    -0.203 F 
ATOM    107  C   UNL A   1      51.291  25.785  26.429  1.00  0.00     0.198 A 
ATOM    108  C   UNL A   1      50.692  26.611  24.256  1.00  0.00     0.198 A 
ATOM    109  F   UNL A   1      48.585  27.602  23.915  1.00  0.00    -0.203 F 
ATOM    110  F   UNL A   1      52.183  25.203  27.244  1.00  0.00    -0.200 F 
ATOM    111  C   UNL A   1      51.608  25.994  25.096  1.00  0.00     0.200 A 
ATOM    112  F   UNL A   1      50.991  26.805  22.965  1.00  0.00    -0.200 F 
ATOM    113  F   UNL A   1      52.796  25.602  24.617  1.00  0.00    -0.200 F 
ENDBRANCH  83 103
BRANCH  86 114
ATOM    114  C   UNL A   1      39.778  28.572  29.171  1.00  0.00     0.064 A 
ATOM    115  C   UNL A   1      39.410  28.336  30.502  1.00  0.00     0.173 A 
ATOM    116  C   UNL A   1      38.802  29.082  28.302  1.00  0.00     0.173 A 
ATOM    117  F   UNL A   1      40.303  27.829  31.364  1.00  0.00    -0.203 F 
ATOM    118  C   UNL A   1      38.114  28.592  30.945  1.00  0.00     0.198 A 
ATOM    119  C   UNL A   1      37.515  29.365  28.752  1.00  0.00     0.198 A 
ATOM    120  F   UNL A   1      39.107  29.327  27.020  1.00  0.00    -0.203 F 
ATOM    121  F   UNL A   1      37.777  28.324  32.214  1.00  0.00    -0.200 F 
ATOM    122  C   UNL A   1      37.171  29.114  30.072  1.00  0.00     0.200 A 
ATOM    123  F   UNL A   1      36.613  29.884  27.910  1.00  0.00    -0.200 F 
ATOM    124  F   UNL A   1      35.928  29.370  30.501  1.00  0.00    -0.200 F 
ENDBRANCH  86 114
BRANCH 101 125
ATOM    125  C   UNL A   1      45.513  32.490  28.599  1.00  0.00     0.064 A 
ATOM    126  C   UNL A   1      46.004  32.914  29.841  1.00  0.00     0.173 A 
ATOM    127  C   UNL A   1      45.321  33.455  27.599  1.00  0.00     0.173 A 
ATOM    128  F   UNL A   1      46.192  32.028  30.831  1.00  0.00    -0.203 F 
ATOM    129  C   UNL A   1      46.272  34.258  30.081  1.00  0.00     0.198 A 
ATOM    130  C   UNL A   1      45.614  34.795  27.835  1.00  0.00     0.198 A 
ATOM    131  F   UNL A   1      44.859  33.097  26.392  1.00  0.00    -0.203 F 
ATOM    132  F   UNL A   1      46.702  34.648  31.288  1.00  0.00    -0.200 F 
ATOM    133  C   UNL A   1      46.083  35.196  29.076  1.00  0.00     0.200 A 
ATOM    134  F   UNL A   1      45.441  35.698  26.859  1.00  0.00    -0.200 F 
ATOM    135  F   UNL A   1      46.348  36.490  29.307  1.00  0.00    -0.200 F 
ENDBRANCH 101 125
ENDBRANCH  66  69
ENDBRANCH  56  59
ENDBRANCH  52  55
ENDBRANCH  49  52
ENDBRANCH  46  49
ENDBRANCH   1  46
TORSDOF 17
ENDMDL
MODEL 6
REMARK VINA RESULT:     -13.0      1.888      3.946
REMARK SMILES Nn1c(S[C@@H](C(=O)NCCCCCCNC(=O)c2ccc(-c3c4nc(c(-c5c(F)c(F)c(F)c(F)c5F)c5ccc([nH]5)c(-c5c(F)c(F)c(F)c(F)c5F)c5nc(c(-c6c(F)c(F)c(F)c(F)c6F)c6ccc3[nH]6)C=C5)C=C4)cc2)c2ccccc2)nc2ccc(Br)cc2c1=O
REMARK SMILES IDX 11 1 10 4 9 7 8 10 6 11 7 12 5 14 4 16 3 17 2 18 95 19 87 20
REMARK SMILES IDX 94 21 96 22 88 23 93 24 89 25 91 26 90 28 92 30 1 32 81 35
REMARK SMILES IDX 82 36 86 37 83 38 85 40 84 42 12 46 13 49 14 52 15 55 16 56
REMARK SMILES IDX 17 58 18 59 19 60 80 61 20 62 79 64 21 66 22 69 23 70 73 71
REMARK SMILES IDX 24 72 78 73 72 74 74 75 25 76 77 77 71 79 70 81 26 83 58 86
REMARK SMILES IDX 38 87 57 88 39 89 42 90 56 91 75 92 40 93 41 95 55 97 76 98
REMARK SMILES IDX 43 101 27 103 28 104 36 105 29 106 30 107 34 108 37 109
REMARK SMILES IDX 31 110 32 111 35 112 33 113 59 114 60 115 68 116 61 117
REMARK SMILES IDX 62 118 66 119 69 120 63 121 64 122 67 123 65 124 44 125
REMARK SMILES IDX 45 126 53 127 46 128 47 129 51 130 54 131 48 132 49 133
REMARK SMILES IDX 52 134 50 135
REMARK H PARENT 11 2 11 3 10 5 10 6 9 8 9 9 8 13 5 15 93 27 89 29 90 31 1 33
REMARK H PARENT 1 34 82 39 86 41 83 43 85 44 84 45 12 47 12 48 13 50 13 51
REMARK H PARENT 14 53 14 54 15 57 19 63 80 65 20 67 79 68 78 78 72 80 74 82
REMARK H PARENT 77 84 71 85 39 94 42 96 75 99 40 100 76 102
REMARK Flexibility Score: inf
ROOT
ATOM      1  C   UNL A   1      32.265  29.371  26.698  1.00  0.00    -0.052 C 
ATOM      2  H   UNL A   1      33.291  29.213  26.441  1.00  0.00     0.027 H 
ATOM      3  H   UNL A   1      32.107  29.610  27.729  1.00  0.00     0.027 H 
ENDROOT
BRANCH   1   4
ATOM      4  C   UNL A   1      31.512  28.057  26.455  1.00  0.00    -0.036 C 
ATOM      5  H   UNL A   1      30.771  27.953  27.220  1.00  0.00     0.028 H 
ATOM      6  H   UNL A   1      31.103  28.129  25.469  1.00  0.00     0.028 H 
BRANCH   4   7
ATOM      7  C   UNL A   1      32.381  26.793  26.463  1.00  0.00     0.017 C 
ATOM      8  H   UNL A   1      32.665  26.566  25.457  1.00  0.00     0.049 H 
ATOM      9  H   UNL A   1      33.234  26.989  27.079  1.00  0.00     0.049 H 
BRANCH   7  10
ATOM     10  N   UNL A   1      31.687  25.645  27.022  1.00  0.00    -0.355 N 
ATOM     11  C   UNL A   1      31.433  24.403  26.498  1.00  0.00     0.238 C 
ATOM     12  O   UNL A   1      30.778  23.639  27.217  1.00  0.00    -0.273 OA
ATOM     13  H   UNL A   1      31.341  25.781  27.933  1.00  0.00     0.163 HD
BRANCH  11  14
ATOM     14  C   UNL A   1      31.981  23.983  25.121  1.00  0.00     0.116 C 
ATOM     15  H   UNL A   1      32.809  24.653  25.022  1.00  0.00     0.057 H 
BRANCH  14  16
ATOM     16  S   UNL A   1      30.872  24.344  23.749  1.00  0.00    -0.068 SA
BRANCH  16  17
ATOM     17  C   UNL A   1      30.772  26.045  23.408  1.00  0.00     0.191 A 
ATOM     18  N   UNL A   1      31.800  26.816  22.872  1.00  0.00    -0.202 N 
ATOM     19  C   UNL A   1      31.674  28.206  22.756  1.00  0.00     0.280 A 
ATOM     20  N   UNL A   1      29.582  26.523  23.610  1.00  0.00    -0.222 NA
ATOM     21  C   UNL A   1      30.308  28.739  22.883  1.00  0.00     0.069 A 
ATOM     22  O   UNL A   1      32.609  28.950  22.460  1.00  0.00    -0.267 OA
ATOM     23  C   UNL A   1      29.305  27.837  23.227  1.00  0.00     0.079 A 
ATOM     24  C   UNL A   1      30.008  30.051  22.505  1.00  0.00    -0.033 A 
ATOM     25  C   UNL A   1      27.973  28.240  23.126  1.00  0.00    -0.034 A 
ATOM     26  C   UNL A   1      28.674  30.439  22.417  1.00  0.00     0.018 A 
ATOM     27  H   UNL A   1      30.764  30.722  22.293  1.00  0.00     0.064 H 
ATOM     28  C   UNL A   1      27.653  29.535  22.709  1.00  0.00    -0.046 A 
ATOM     29  H   UNL A   1      27.218  27.577  23.362  1.00  0.00     0.065 H 
ATOM     30  Br  UNL A   1      28.239  32.188  21.850  1.00  0.00    -0.051 Br
ATOM     31  H   UNL A   1      26.666  29.820  22.616  1.00  0.00     0.064 H 
BRANCH  18  32
ATOM     32  N   UNL A   1      32.913  26.255  22.188  1.00  0.00    -0.334 N 
ATOM     33  H   UNL A   1      33.676  26.824  21.940  1.00  0.00     0.178 HD
ATOM     34  H   UNL A   1      32.918  25.296  21.962  1.00  0.00     0.178 HD
ENDBRANCH  18  32
ENDBRANCH  16  17
ENDBRANCH  14  16
BRANCH  14  35
ATOM     35  C   UNL A   1      32.698  22.637  25.011  1.00  0.00    -0.025 A 
ATOM     36  C   UNL A   1      33.950  22.485  25.644  1.00  0.00    -0.057 A 
ATOM     37  C   UNL A   1      32.193  21.527  24.316  1.00  0.00    -0.057 A 
ATOM     38  C   UNL A   1      34.651  21.276  25.592  1.00  0.00    -0.062 A 
ATOM     39  H   UNL A   1      34.356  23.284  26.156  1.00  0.00     0.063 H 
ATOM     40  C   UNL A   1      32.897  20.321  24.258  1.00  0.00    -0.062 A 
ATOM     41  H   UNL A   1      31.281  21.603  23.839  1.00  0.00     0.063 H 
ATOM     42  C   UNL A   1      34.125  20.194  24.895  1.00  0.00    -0.062 A 
ATOM     43  H   UNL A   1      35.560  21.189  26.071  1.00  0.00     0.062 H 
ATOM     44  H   UNL A   1      32.503  19.521  23.738  1.00  0.00     0.062 H 
ATOM     45  H   UNL A   1      34.643  19.303  24.854  1.00  0.00     0.062 H 
ENDBRANCH  14  35
ENDBRANCH  11  14
ENDBRANCH   7  10
ENDBRANCH   4   7
ENDBRANCH   1   4
BRANCH   1  46
ATOM     46  C   UNL A   1      31.763  30.581  25.908  1.00  0.00    -0.052 C 
ATOM     47  H   UNL A   1      30.865  30.296  25.401  1.00  0.00     0.027 H 
ATOM     48  H   UNL A   1      32.561  30.854  25.249  1.00  0.00     0.027 H 
BRANCH  46  49
ATOM     49  C   UNL A   1      31.459  31.826  26.741  1.00  0.00    -0.036 C 
ATOM     50  H   UNL A   1      30.877  31.525  27.588  1.00  0.00     0.028 H 
ATOM     51  H   UNL A   1      30.944  32.504  26.092  1.00  0.00     0.028 H 
BRANCH  49  52
ATOM     52  C   UNL A   1      32.686  32.570  27.251  1.00  0.00     0.018 C 
ATOM     53  H   UNL A   1      33.446  32.536  26.497  1.00  0.00     0.049 H 
ATOM     54  H   UNL A   1      33.003  32.093  28.154  1.00  0.00     0.049 H 
BRANCH  52  55
ATOM     55  N   UNL A   1      32.408  33.963  27.565  1.00  0.00    -0.352 N 
ATOM     56  C   UNL A   1      33.002  34.777  28.505  1.00  0.00     0.251 C 
ATOM     57  H   UNL A   1      31.694  34.383  27.032  1.00  0.00     0.163 HD
ATOM     58  O   UNL A   1      32.555  35.884  28.751  1.00  0.00    -0.269 OA
BRANCH  56  59
ATOM     59  C   UNL A   1      34.177  34.270  29.249  1.00  0.00     0.039 A 
ATOM     60  C   UNL A   1      35.470  34.493  28.767  1.00  0.00    -0.049 A 
ATOM     61  C   UNL A   1      33.975  33.520  30.409  1.00  0.00    -0.049 A 
ATOM     62  C   UNL A   1      36.543  33.828  29.349  1.00  0.00    -0.053 A 
ATOM     63  H   UNL A   1      35.626  35.148  27.985  1.00  0.00     0.063 H 
ATOM     64  C   UNL A   1      35.067  32.914  31.038  1.00  0.00    -0.053 A 
ATOM     65  H   UNL A   1      33.026  33.413  30.799  1.00  0.00     0.063 H 
ATOM     66  C   UNL A   1      36.352  33.025  30.485  1.00  0.00    -0.014 A 
ATOM     67  H   UNL A   1      37.487  33.925  28.943  1.00  0.00     0.063 H 
ATOM     68  H   UNL A   1      34.927  32.385  31.913  1.00  0.00     0.063 H 
BRANCH  66  69
ATOM     69  C   UNL A   1      37.506  32.305  31.082  1.00  0.00     0.031 A 
ATOM     70  C   UNL A   1      37.990  32.642  32.467  1.00  0.00     0.074 A 
ATOM     71  C   UNL A   1      38.100  31.320  30.383  1.00  0.00     0.049 A 
ATOM     72  N   UNL A   1      39.014  32.158  33.125  1.00  0.00    -0.248 NA
ATOM     73  C   UNL A   1      37.226  33.655  33.213  1.00  0.00    -0.034 C 
ATOM     74  C   UNL A   1      37.707  30.888  29.040  1.00  0.00    -0.036 A 
ATOM     75  N   UNL A   1      39.149  30.496  30.704  1.00  0.00    -0.354 N 
ATOM     76  C   UNL A   1      39.032  32.820  34.345  1.00  0.00     0.074 A 
ATOM     77  C   UNL A   1      37.925  33.751  34.338  1.00  0.00    -0.034 C 
ATOM     78  H   UNL A   1      36.371  34.160  32.935  1.00  0.00     0.065 H 
ATOM     79  C   UNL A   1      38.484  29.861  28.665  1.00  0.00    -0.036 A 
ATOM     80  H   UNL A   1      36.954  31.306  28.473  1.00  0.00     0.065 H 
ATOM     81  C   UNL A   1      39.469  29.604  29.712  1.00  0.00     0.049 A 
ATOM     82  H   UNL A   1      39.626  30.542  31.565  1.00  0.00     0.167 HD
ATOM     83  C   UNL A   1      39.893  32.658  35.378  1.00  0.00     0.037 A 
ATOM     84  H   UNL A   1      37.706  34.405  35.107  1.00  0.00     0.065 H 
ATOM     85  H   UNL A   1      38.400  29.337  27.779  1.00  0.00     0.065 H 
ATOM     86  C   UNL A   1      40.460  28.696  29.638  1.00  0.00     0.037 A 
ATOM     87  C   UNL A   1      40.978  31.711  35.393  1.00  0.00     0.049 A 
ATOM     88  C   UNL A   1      41.411  28.556  30.792  1.00  0.00     0.074 A 
ATOM     89  C   UNL A   1      41.903  31.475  36.397  1.00  0.00    -0.036 A 
ATOM     90  N   UNL A   1      41.278  30.835  34.361  1.00  0.00    -0.354 N 
ATOM     91  N   UNL A   1      41.430  29.203  31.930  1.00  0.00    -0.248 NA
ATOM     92  C   UNL A   1      42.483  27.560  30.648  1.00  0.00    -0.034 C 
ATOM     93  C   UNL A   1      42.781  30.479  35.960  1.00  0.00    -0.036 A 
ATOM     94  H   UNL A   1      41.939  31.953  37.310  1.00  0.00     0.065 H 
ATOM     95  C   UNL A   1      42.376  30.063  34.702  1.00  0.00     0.049 A 
ATOM     96  H   UNL A   1      40.784  30.773  33.511  1.00  0.00     0.167 HD
ATOM     97  C   UNL A   1      42.500  28.685  32.645  1.00  0.00     0.074 A 
ATOM     98  C   UNL A   1      43.095  27.655  31.820  1.00  0.00    -0.034 C 
ATOM     99  H   UNL A   1      42.701  26.948  29.846  1.00  0.00     0.065 H 
ATOM    100  H   UNL A   1      43.592  30.116  36.484  1.00  0.00     0.065 H 
ATOM    101  C   UNL A   1      42.950  29.034  33.874  1.00  0.00     0.037 A 
ATOM    102  H   UNL A   1      43.896  27.070  32.107  1.00  0.00     0.065 H 
BRANCH  83 103
ATOM    103  C   UNL A   1      39.717  33.522  36.591  1.00  0.00     0.064 A 
ATOM    104  C   UNL A   1      40.314  34.787  36.683  1.00  0.00     0.173 A 
ATOM    105  C   UNL A   1      38.852  33.126  37.624  1.00  0.00     0.173 A 
ATOM    106  F   UNL A   1      41.157  35.207  35.728  1.00  0.00    -0.203 F 
ATOM    107  C   UNL A   1      40.051  35.625  37.765  1.00  0.00     0.198 A 
ATOM    108  C   UNL A   1      38.574  33.975  38.692  1.00  0.00     0.198 A 
ATOM    109  F   UNL A   1      38.252  31.927  37.579  1.00  0.00    -0.203 F 
ATOM    110  F   UNL A   1      40.642  36.826  37.839  1.00  0.00    -0.200 F 
ATOM    111  C   UNL A   1      39.173  35.224  38.760  1.00  0.00     0.200 A 
ATOM    112  F   UNL A   1      37.716  33.590  39.647  1.00  0.00    -0.200 F 
ATOM    113  F   UNL A   1      38.901  36.042  39.786  1.00  0.00    -0.200 F 
ENDBRANCH  83 103
BRANCH  86 114
ATOM    114  C   UNL A   1      40.601  27.862  28.419  1.00  0.00     0.064 A 
ATOM    115  C   UNL A   1      41.356  28.303  27.325  1.00  0.00     0.173 A 
ATOM    116  C   UNL A   1      39.996  26.599  28.330  1.00  0.00     0.173 A 
ATOM    117  F   UNL A   1      41.935  29.512  27.355  1.00  0.00    -0.203 F 
ATOM    118  C   UNL A   1      41.495  27.517  26.183  1.00  0.00     0.198 A 
ATOM    119  C   UNL A   1      40.159  25.801  27.201  1.00  0.00     0.198 A 
ATOM    120  F   UNL A   1      39.266  26.131  29.352  1.00  0.00    -0.203 F 
ATOM    121  F   UNL A   1      42.194  27.976  25.136  1.00  0.00    -0.200 F 
ATOM    122  C   UNL A   1      40.904  26.263  26.126  1.00  0.00     0.200 A 
ATOM    123  F   UNL A   1      39.600  24.585  27.157  1.00  0.00    -0.200 F 
ATOM    124  F   UNL A   1      41.047  25.502  25.033  1.00  0.00    -0.200 F 
ENDBRANCH  86 114
BRANCH 101 125
ATOM    125  C   UNL A   1      44.123  28.275  34.417  1.00  0.00     0.064 A 
ATOM    126  C   UNL A   1      43.958  27.079  35.127  1.00  0.00     0.173 A 
ATOM    127  C   UNL A   1      45.429  28.732  34.186  1.00  0.00     0.173 A 
ATOM    128  F   UNL A   1      42.726  26.610  35.383  1.00  0.00    -0.203 F 
ATOM    129  C   UNL A   1      45.058  26.376  35.608  1.00  0.00     0.198 A 
ATOM    130  C   UNL A   1      46.528  28.012  34.647  1.00  0.00     0.198 A 
ATOM    131  F   UNL A   1      45.639  29.868  33.505  1.00  0.00    -0.203 F 
ATOM    132  F   UNL A   1      44.876  25.255  36.320  1.00  0.00    -0.200 F 
ATOM    133  C   UNL A   1      46.342  26.839  35.362  1.00  0.00     0.200 A 
ATOM    134  F   UNL A   1      47.769  28.456  34.398  1.00  0.00    -0.200 F 
ATOM    135  F   UNL A   1      47.402  26.158  35.820  1.00  0.00    -0.200 F 
ENDBRANCH 101 125
ENDBRANCH  66  69
ENDBRANCH  56  59
ENDBRANCH  52  55
ENDBRANCH  49  52
ENDBRANCH  46  49
ENDBRANCH   1  46
TORSDOF 17
ENDMDL
MODEL 7
REMARK VINA RESULT:     -12.9      5.654     10.252
REMARK SMILES Nn1c(S[C@@H](C(=O)NCCCCCCNC(=O)c2ccc(-c3c4nc(c(-c5c(F)c(F)c(F)c(F)c5F)c5ccc([nH]5)c(-c5c(F)c(F)c(F)c(F)c5F)c5nc(c(-c6c(F)c(F)c(F)c(F)c6F)c6ccc3[nH]6)C=C5)C=C4)cc2)c2ccccc2)nc2ccc(Br)cc2c1=O
REMARK SMILES IDX 11 1 10 4 9 7 8 10 6 11 7 12 5 14 4 16 3 17 2 18 95 19 87 20
REMARK SMILES IDX 94 21 96 22 88 23 93 24 89 25 91 26 90 28 92 30 1 32 81 35
REMARK SMILES IDX 82 36 86 37 83 38 85 40 84 42 12 46 13 49 14 52 15 55 16 56
REMARK SMILES IDX 17 58 18 59 19 60 80 61 20 62 79 64 21 66 22 69 23 70 73 71
REMARK SMILES IDX 24 72 78 73 72 74 74 75 25 76 77 77 71 79 70 81 26 83 58 86
REMARK SMILES IDX 38 87 57 88 39 89 42 90 56 91 75 92 40 93 41 95 55 97 76 98
REMARK SMILES IDX 43 101 27 103 28 104 36 105 29 106 30 107 34 108 37 109
REMARK SMILES IDX 31 110 32 111 35 112 33 113 59 114 60 115 68 116 61 117
REMARK SMILES IDX 62 118 66 119 69 120 63 121 64 122 67 123 65 124 44 125
REMARK SMILES IDX 45 126 53 127 46 128 47 129 51 130 54 131 48 132 49 133
REMARK SMILES IDX 52 134 50 135
REMARK H PARENT 11 2 11 3 10 5 10 6 9 8 9 9 8 13 5 15 93 27 89 29 90 31 1 33
REMARK H PARENT 1 34 82 39 86 41 83 43 85 44 84 45 12 47 12 48 13 50 13 51
REMARK H PARENT 14 53 14 54 15 57 19 63 80 65 20 67 79 68 78 78 72 80 74 82
REMARK H PARENT 77 84 71 85 39 94 42 96 75 99 40 100 76 102
REMARK Flexibility Score: inf
ROOT
ATOM      1  C   UNL A   1      37.597  22.509  25.694  1.00  0.00    -0.052 C 
ATOM      2  H   UNL A   1      37.272  22.142  26.645  1.00  0.00     0.027 H 
ATOM      3  H   UNL A   1      38.627  22.797  25.668  1.00  0.00     0.027 H 
ENDROOT
BRANCH   1   4
ATOM      4  C   UNL A   1      36.801  23.783  25.386  1.00  0.00    -0.036 C 
ATOM      5  H   UNL A   1      36.938  24.464  26.201  1.00  0.00     0.028 H 
ATOM      6  H   UNL A   1      37.177  24.149  24.454  1.00  0.00     0.028 H 
BRANCH   4   7
ATOM      7  C   UNL A   1      35.294  23.583  25.187  1.00  0.00     0.017 C 
ATOM      8  H   UNL A   1      34.811  24.535  25.240  1.00  0.00     0.049 H 
ATOM      9  H   UNL A   1      35.151  23.122  24.231  1.00  0.00     0.049 H 
BRANCH   7  10
ATOM     10  N   UNL A   1      34.711  22.707  26.189  1.00  0.00    -0.355 N 
ATOM     11  C   UNL A   1      33.813  21.678  26.074  1.00  0.00     0.238 C 
ATOM     12  O   UNL A   1      33.477  21.134  27.133  1.00  0.00    -0.273 OA
ATOM     13  H   UNL A   1      35.014  22.882  27.110  1.00  0.00     0.163 HD
BRANCH  11  14
ATOM     14  C   UNL A   1      33.303  21.205  24.699  1.00  0.00     0.116 C 
ATOM     15  H   UNL A   1      33.992  21.701  24.049  1.00  0.00     0.057 H 
BRANCH  14  16
ATOM     16  S   UNL A   1      31.668  21.824  24.270  1.00  0.00    -0.068 SA
BRANCH  16  17
ATOM     17  C   UNL A   1      31.716  23.444  23.643  1.00  0.00     0.191 A 
ATOM     18  N   UNL A   1      32.508  23.867  22.579  1.00  0.00    -0.202 N 
ATOM     19  C   UNL A   1      32.582  25.221  22.227  1.00  0.00     0.280 A 
ATOM     20  N   UNL A   1      30.845  24.222  24.209  1.00  0.00    -0.222 NA
ATOM     21  C   UNL A   1      31.533  26.087  22.789  1.00  0.00     0.069 A 
ATOM     22  O   UNL A   1      33.395  25.669  21.420  1.00  0.00    -0.267 OA
ATOM     23  C   UNL A   1      30.654  25.508  23.701  1.00  0.00     0.079 A 
ATOM     24  C   UNL A   1      31.323  27.377  22.294  1.00  0.00    -0.033 A 
ATOM     25  C   UNL A   1      29.509  26.214  24.074  1.00  0.00    -0.034 A 
ATOM     26  C   UNL A   1      30.180  28.071  22.683  1.00  0.00     0.018 A 
ATOM     27  H   UNL A   1      32.005  27.810  21.650  1.00  0.00     0.064 H 
ATOM     28  C   UNL A   1      29.262  27.489  23.557  1.00  0.00    -0.046 A 
ATOM     29  H   UNL A   1      28.841  25.792  24.737  1.00  0.00     0.065 H 
ATOM     30  Br  UNL A   1      29.842  29.793  21.983  1.00  0.00    -0.051 Br
ATOM     31  H   UNL A   1      28.403  27.997  23.821  1.00  0.00     0.064 H 
BRANCH  18  32
ATOM     32  N   UNL A   1      33.080  22.970  21.635  1.00  0.00    -0.334 N 
ATOM     33  H   UNL A   1      32.500  22.373  21.109  1.00  0.00     0.178 HD
ATOM     34  H   UNL A   1      34.057  22.945  21.510  1.00  0.00     0.178 HD
ENDBRANCH  18  32
ENDBRANCH  16  17
ENDBRANCH  14  16
BRANCH  14  35
ATOM     35  C   UNL A   1      33.547  19.748  24.303  1.00  0.00    -0.025 A 
ATOM     36  C   UNL A   1      32.600  19.105  23.479  1.00  0.00    -0.057 A 
ATOM     37  C   UNL A   1      34.661  18.996  24.706  1.00  0.00    -0.057 A 
ATOM     38  C   UNL A   1      32.771  17.779  23.070  1.00  0.00    -0.062 A 
ATOM     39  H   UNL A   1      31.764  19.625  23.171  1.00  0.00     0.063 H 
ATOM     40  C   UNL A   1      34.828  17.667  24.304  1.00  0.00    -0.062 A 
ATOM     41  H   UNL A   1      35.373  19.433  25.312  1.00  0.00     0.063 H 
ATOM     42  C   UNL A   1      33.884  17.058  23.486  1.00  0.00    -0.062 A 
ATOM     43  H   UNL A   1      32.068  17.335  22.459  1.00  0.00     0.062 H 
ATOM     44  H   UNL A   1      35.656  17.136  24.617  1.00  0.00     0.062 H 
ATOM     45  H   UNL A   1      34.009  16.078  23.188  1.00  0.00     0.062 H 
ENDBRANCH  14  35
ENDBRANCH  11  14
ENDBRANCH   7  10
ENDBRANCH   4   7
ENDBRANCH   1   4
BRANCH   1  46
ATOM     46  C   UNL A   1      37.454  21.374  24.677  1.00  0.00    -0.052 C 
ATOM     47  H   UNL A   1      37.763  21.744  23.723  1.00  0.00     0.027 H 
ATOM     48  H   UNL A   1      36.427  21.076  24.711  1.00  0.00     0.027 H 
BRANCH  46  49
ATOM     49  C   UNL A   1      38.269  20.117  24.983  1.00  0.00    -0.036 C 
ATOM     50  H   UNL A   1      38.687  19.761  24.064  1.00  0.00     0.028 H 
ATOM     51  H   UNL A   1      37.591  19.423  25.436  1.00  0.00     0.028 H 
BRANCH  49  52
ATOM     52  C   UNL A   1      39.406  20.316  25.976  1.00  0.00     0.018 C 
ATOM     53  H   UNL A   1      38.991  20.412  26.958  1.00  0.00     0.049 H 
ATOM     54  H   UNL A   1      39.940  21.196  25.685  1.00  0.00     0.049 H 
BRANCH  52  55
ATOM     55  N   UNL A   1      40.350  19.210  25.977  1.00  0.00    -0.352 N 
ATOM     56  C   UNL A   1      41.723  19.240  26.097  1.00  0.00     0.251 C 
ATOM     57  H   UNL A   1      39.954  18.314  25.878  1.00  0.00     0.163 HD
ATOM     58  O   UNL A   1      42.391  18.233  25.931  1.00  0.00    -0.269 OA
BRANCH  56  59
ATOM     59  C   UNL A   1      42.387  20.529  26.393  1.00  0.00     0.039 A 
ATOM     60  C   UNL A   1      42.431  21.019  27.700  1.00  0.00    -0.049 A 
ATOM     61  C   UNL A   1      42.920  21.275  25.340  1.00  0.00    -0.049 A 
ATOM     62  C   UNL A   1      42.856  22.322  27.931  1.00  0.00    -0.053 A 
ATOM     63  H   UNL A   1      42.151  20.416  28.490  1.00  0.00     0.063 H 
ATOM     64  C   UNL A   1      43.419  22.558  25.587  1.00  0.00    -0.053 A 
ATOM     65  H   UNL A   1      42.946  20.883  24.386  1.00  0.00     0.063 H 
ATOM     66  C   UNL A   1      43.347  23.109  26.876  1.00  0.00    -0.014 A 
ATOM     67  H   UNL A   1      42.811  22.715  28.885  1.00  0.00     0.063 H 
ATOM     68  H   UNL A   1      43.842  23.100  24.818  1.00  0.00     0.063 H 
BRANCH  66  69
ATOM     69  C   UNL A   1      43.777  24.507  27.135  1.00  0.00     0.031 A 
ATOM     70  C   UNL A   1      42.812  25.515  27.700  1.00  0.00     0.074 A 
ATOM     71  C   UNL A   1      45.053  24.858  26.890  1.00  0.00     0.049 A 
ATOM     72  N   UNL A   1      42.997  26.790  27.938  1.00  0.00    -0.248 NA
ATOM     73  C   UNL A   1      41.465  25.033  28.044  1.00  0.00    -0.034 C 
ATOM     74  C   UNL A   1      46.085  23.964  26.362  1.00  0.00    -0.036 A 
ATOM     75  N   UNL A   1      45.704  26.054  27.061  1.00  0.00    -0.354 N 
ATOM     76  C   UNL A   1      41.790  27.265  28.433  1.00  0.00     0.074 A 
ATOM     77  C   UNL A   1      40.872  26.147  28.453  1.00  0.00    -0.034 C 
ATOM     78  H   UNL A   1      41.082  24.077  27.982  1.00  0.00     0.065 H 
ATOM     79  C   UNL A   1      47.245  24.632  26.281  1.00  0.00    -0.036 A 
ATOM     80  H   UNL A   1      45.943  22.977  26.095  1.00  0.00     0.065 H 
ATOM     81  C   UNL A   1      47.024  26.016  26.689  1.00  0.00     0.049 A 
ATOM     82  H   UNL A   1      45.265  26.861  27.416  1.00  0.00     0.167 HD
ATOM     83  C   UNL A   1      41.482  28.520  28.839  1.00  0.00     0.037 A 
ATOM     84  H   UNL A   1      39.883  26.208  28.747  1.00  0.00     0.065 H 
ATOM     85  H   UNL A   1      48.147  24.232  25.978  1.00  0.00     0.065 H 
ATOM     86  C   UNL A   1      47.951  26.992  26.655  1.00  0.00     0.037 A 
ATOM     87  C   UNL A   1      42.406  29.624  28.844  1.00  0.00     0.049 A 
ATOM     88  C   UNL A   1      47.572  28.377  27.092  1.00  0.00     0.074 A 
ATOM     89  C   UNL A   1      42.183  30.933  29.239  1.00  0.00    -0.036 A 
ATOM     90  N   UNL A   1      43.732  29.548  28.445  1.00  0.00    -0.354 N 
ATOM     91  N   UNL A   1      46.422  28.817  27.538  1.00  0.00    -0.248 NA
ATOM     92  C   UNL A   1      48.621  29.405  27.018  1.00  0.00    -0.034 C 
ATOM     93  C   UNL A   1      43.365  31.656  29.050  1.00  0.00    -0.036 A 
ATOM     94  H   UNL A   1      41.297  31.311  29.609  1.00  0.00     0.065 H 
ATOM     95  C   UNL A   1      44.336  30.788  28.579  1.00  0.00     0.049 A 
ATOM     96  H   UNL A   1      44.176  28.734  28.114  1.00  0.00     0.167 HD
ATOM     97  C   UNL A   1      46.609  30.164  27.812  1.00  0.00     0.074 A 
ATOM     98  C   UNL A   1      47.990  30.466  27.501  1.00  0.00    -0.034 C 
ATOM     99  H   UNL A   1      49.592  29.322  26.678  1.00  0.00     0.065 H 
ATOM    100  H   UNL A   1      43.492  32.664  29.230  1.00  0.00     0.065 H 
ATOM    101  C   UNL A   1      45.715  31.069  28.276  1.00  0.00     0.037 A 
ATOM    102  H   UNL A   1      48.429  31.390  27.638  1.00  0.00     0.065 H 
BRANCH  83 103
ATOM    103  C   UNL A   1      40.084  28.789  29.313  1.00  0.00     0.064 A 
ATOM    104  C   UNL A   1      39.070  29.170  28.425  1.00  0.00     0.173 A 
ATOM    105  C   UNL A   1      39.733  28.557  30.653  1.00  0.00     0.173 A 
ATOM    106  F   UNL A   1      39.356  29.415  27.138  1.00  0.00    -0.203 F 
ATOM    107  C   UNL A   1      37.753  29.307  28.859  1.00  0.00     0.198 A 
ATOM    108  C   UNL A   1      38.413  28.673  31.079  1.00  0.00     0.198 A 
ATOM    109  F   UNL A   1      40.668  28.185  31.541  1.00  0.00    -0.203 F 
ATOM    110  F   UNL A   1      36.800  29.684  27.995  1.00  0.00    -0.200 F 
ATOM    111  C   UNL A   1      37.424  29.047  30.181  1.00  0.00     0.200 A 
ATOM    112  F   UNL A   1      38.095  28.410  32.353  1.00  0.00    -0.200 F 
ATOM    113  F   UNL A   1      36.153  29.154  30.591  1.00  0.00    -0.200 F 
ENDBRANCH  83 103
BRANCH  86 114
ATOM    114  C   UNL A   1      49.322  26.684  26.177  1.00  0.00     0.064 A 
ATOM    115  C   UNL A   1      50.280  26.134  27.039  1.00  0.00     0.173 A 
ATOM    116  C   UNL A   1      49.697  26.917  24.845  1.00  0.00     0.173 A 
ATOM    117  F   UNL A   1      49.976  25.914  28.326  1.00  0.00    -0.203 F 
ATOM    118  C   UNL A   1      51.565  25.837  26.589  1.00  0.00     0.198 A 
ATOM    119  C   UNL A   1      50.971  26.593  24.389  1.00  0.00     0.198 A 
ATOM    120  F   UNL A   1      48.814  27.438  23.982  1.00  0.00    -0.203 F 
ATOM    121  F   UNL A   1      52.474  25.346  27.441  1.00  0.00    -0.200 F 
ATOM    122  C   UNL A   1      51.907  26.059  25.263  1.00  0.00     0.200 A 
ATOM    123  F   UNL A   1      51.291  26.793  23.104  1.00  0.00    -0.200 F 
ATOM    124  F   UNL A   1      53.139  25.763  24.827  1.00  0.00    -0.200 F 
ENDBRANCH  86 114
BRANCH 101 125
ATOM    125  C   UNL A   1      46.209  32.465  28.510  1.00  0.00     0.064 A 
ATOM    126  C   UNL A   1      46.137  33.445  27.511  1.00  0.00     0.173 A 
ATOM    127  C   UNL A   1      46.722  32.834  29.762  1.00  0.00     0.173 A 
ATOM    128  F   UNL A   1      45.665  33.136  26.293  1.00  0.00    -0.203 F 
ATOM    129  C   UNL A   1      46.582  34.742  27.750  1.00  0.00     0.198 A 
ATOM    130  C   UNL A   1      47.143  34.138  30.005  1.00  0.00     0.198 A 
ATOM    131  F   UNL A   1      46.805  31.933  30.752  1.00  0.00    -0.203 F 
ATOM    132  F   UNL A   1      46.541  35.654  26.769  1.00  0.00    -0.200 F 
ATOM    133  C   UNL A   1      47.078  35.089  28.998  1.00  0.00     0.200 A 
ATOM    134  F   UNL A   1      47.612  34.475  31.216  1.00  0.00    -0.200 F 
ATOM    135  F   UNL A   1      47.501  36.340  29.229  1.00  0.00    -0.200 F 
ENDBRANCH 101 125
ENDBRANCH  66  69
ENDBRANCH  56  59
ENDBRANCH  52  55
ENDBRANCH  49  52
ENDBRANCH  46  49
ENDBRANCH   1  46
TORSDOF 17
ENDMDL
MODEL 8
REMARK VINA RESULT:     -12.9      1.485      7.400
REMARK SMILES Nn1c(S[C@@H](C(=O)NCCCCCCNC(=O)c2ccc(-c3c4nc(c(-c5c(F)c(F)c(F)c(F)c5F)c5ccc([nH]5)c(-c5c(F)c(F)c(F)c(F)c5F)c5nc(c(-c6c(F)c(F)c(F)c(F)c6F)c6ccc3[nH]6)C=C5)C=C4)cc2)c2ccccc2)nc2ccc(Br)cc2c1=O
REMARK SMILES IDX 11 1 10 4 9 7 8 10 6 11 7 12 5 14 4 16 3 17 2 18 95 19 87 20
REMARK SMILES IDX 94 21 96 22 88 23 93 24 89 25 91 26 90 28 92 30 1 32 81 35
REMARK SMILES IDX 82 36 86 37 83 38 85 40 84 42 12 46 13 49 14 52 15 55 16 56
REMARK SMILES IDX 17 58 18 59 19 60 80 61 20 62 79 64 21 66 22 69 23 70 73 71
REMARK SMILES IDX 24 72 78 73 72 74 74 75 25 76 77 77 71 79 70 81 26 83 58 86
REMARK SMILES IDX 38 87 57 88 39 89 42 90 56 91 75 92 40 93 41 95 55 97 76 98
REMARK SMILES IDX 43 101 27 103 28 104 36 105 29 106 30 107 34 108 37 109
REMARK SMILES IDX 31 110 32 111 35 112 33 113 59 114 60 115 68 116 61 117
REMARK SMILES IDX 62 118 66 119 69 120 63 121 64 122 67 123 65 124 44 125
REMARK SMILES IDX 45 126 53 127 46 128 47 129 51 130 54 131 48 132 49 133
REMARK SMILES IDX 52 134 50 135
REMARK H PARENT 11 2 11 3 10 5 10 6 9 8 9 9 8 13 5 15 93 27 89 29 90 31 1 33
REMARK H PARENT 1 34 82 39 86 41 83 43 85 44 84 45 12 47 12 48 13 50 13 51
REMARK H PARENT 14 53 14 54 15 57 19 63 80 65 20 67 79 68 78 78 72 80 74 82
REMARK H PARENT 77 84 71 85 39 94 42 96 75 99 40 100 76 102
REMARK Flexibility Score: inf
ROOT
ATOM      1  C   UNL A   1      32.476  29.645  27.227  1.00  0.00    -0.052 C 
ATOM      2  H   UNL A   1      33.524  29.570  27.024  1.00  0.00     0.027 H 
ATOM      3  H   UNL A   1      32.247  29.999  28.210  1.00  0.00     0.027 H 
ENDROOT
BRANCH   1   4
ATOM      4  C   UNL A   1      31.880  28.235  27.142  1.00  0.00    -0.036 C 
ATOM      5  H   UNL A   1      31.839  27.832  28.133  1.00  0.00     0.028 H 
ATOM      6  H   UNL A   1      30.919  28.347  26.685  1.00  0.00     0.028 H 
BRANCH   4   7
ATOM      7  C   UNL A   1      32.656  27.247  26.262  1.00  0.00     0.017 C 
ATOM      8  H   UNL A   1      33.579  27.008  26.746  1.00  0.00     0.049 H 
ATOM      9  H   UNL A   1      32.044  26.378  26.131  1.00  0.00     0.049 H 
BRANCH   7  10
ATOM     10  N   UNL A   1      32.946  27.785  24.944  1.00  0.00    -0.355 N 
ATOM     11  C   UNL A   1      32.146  27.948  23.841  1.00  0.00     0.238 C 
ATOM     12  O   UNL A   1      32.701  28.411  22.837  1.00  0.00    -0.273 OA
ATOM     13  H   UNL A   1      33.876  28.085  24.821  1.00  0.00     0.163 HD
BRANCH  11  14
ATOM     14  C   UNL A   1      30.642  27.621  23.883  1.00  0.00     0.116 C 
ATOM     15  H   UNL A   1      30.497  27.478  24.933  1.00  0.00     0.057 H 
BRANCH  14  16
ATOM     16  S   UNL A   1      30.209  26.060  23.097  1.00  0.00    -0.068 SA
BRANCH  16  17
ATOM     17  C   UNL A   1      30.801  24.685  23.981  1.00  0.00     0.191 A 
ATOM     18  N   UNL A   1      30.600  24.461  25.340  1.00  0.00    -0.202 N 
ATOM     19  C   UNL A   1      31.227  23.395  25.997  1.00  0.00     0.280 A 
ATOM     20  N   UNL A   1      31.379  23.812  23.214  1.00  0.00    -0.222 NA
ATOM     21  C   UNL A   1      31.793  22.351  25.128  1.00  0.00     0.069 A 
ATOM     22  O   UNL A   1      31.228  23.257  27.220  1.00  0.00    -0.267 OA
ATOM     23  C   UNL A   1      31.761  22.583  23.755  1.00  0.00     0.079 A 
ATOM     24  C   UNL A   1      32.182  21.113  25.647  1.00  0.00    -0.033 A 
ATOM     25  C   UNL A   1      32.063  21.533  22.887  1.00  0.00    -0.034 A 
ATOM     26  C   UNL A   1      32.488  20.078  24.767  1.00  0.00     0.018 A 
ATOM     27  H   UNL A   1      32.241  20.968  26.668  1.00  0.00     0.064 H 
ATOM     28  C   UNL A   1      32.413  20.276  23.389  1.00  0.00    -0.046 A 
ATOM     29  H   UNL A   1      32.028  21.685  21.867  1.00  0.00     0.065 H 
ATOM     30  Br  UNL A   1      32.958  18.378  25.443  1.00  0.00    -0.051 Br
ATOM     31  H   UNL A   1      32.614  19.498  22.741  1.00  0.00     0.064 H 
BRANCH  18  32
ATOM     32  N   UNL A   1      29.580  25.111  26.090  1.00  0.00    -0.334 N 
ATOM     33  H   UNL A   1      29.009  25.787  25.659  1.00  0.00     0.178 HD
ATOM     34  H   UNL A   1      29.448  24.886  27.039  1.00  0.00     0.178 HD
ENDBRANCH  18  32
ENDBRANCH  16  17
ENDBRANCH  14  16
BRANCH  14  35
ATOM     35  C   UNL A   1      29.650  28.754  23.617  1.00  0.00    -0.025 A 
ATOM     36  C   UNL A   1      28.359  28.426  23.154  1.00  0.00    -0.057 A 
ATOM     37  C   UNL A   1      29.938  30.115  23.803  1.00  0.00    -0.057 A 
ATOM     38  C   UNL A   1      27.401  29.414  22.904  1.00  0.00    -0.062 A 
ATOM     39  H   UNL A   1      28.116  27.436  22.997  1.00  0.00     0.063 H 
ATOM     40  C   UNL A   1      28.983  31.104  23.546  1.00  0.00    -0.062 A 
ATOM     41  H   UNL A   1      30.873  30.392  24.138  1.00  0.00     0.063 H 
ATOM     42  C   UNL A   1      27.715  30.754  23.097  1.00  0.00    -0.062 A 
ATOM     43  H   UNL A   1      26.460  29.147  22.575  1.00  0.00     0.062 H 
ATOM     44  H   UNL A   1      29.222  32.098  23.689  1.00  0.00     0.062 H 
ATOM     45  H   UNL A   1      27.010  31.484  22.910  1.00  0.00     0.062 H 
ENDBRANCH  14  35
ENDBRANCH  11  14
ENDBRANCH   7  10
ENDBRANCH   4   7
ENDBRANCH   1   4
BRANCH   1  46
ATOM     46  C   UNL A   1      31.884  30.677  26.264  1.00  0.00    -0.052 C 
ATOM     47  H   UNL A   1      30.984  30.268  25.855  1.00  0.00     0.027 H 
ATOM     48  H   UNL A   1      32.642  30.866  25.533  1.00  0.00     0.027 H 
BRANCH  46  49
ATOM     49  C   UNL A   1      31.548  32.032  26.885  1.00  0.00    -0.036 C 
ATOM     50  H   UNL A   1      30.865  31.868  27.693  1.00  0.00     0.028 H 
ATOM     51  H   UNL A   1      31.135  32.629  26.098  1.00  0.00     0.028 H 
BRANCH  49  52
ATOM     52  C   UNL A   1      32.745  32.804  27.425  1.00  0.00     0.018 C 
ATOM     53  H   UNL A   1      33.540  32.747  26.712  1.00  0.00     0.049 H 
ATOM     54  H   UNL A   1      33.019  32.362  28.360  1.00  0.00     0.049 H 
BRANCH  52  55
ATOM     55  N   UNL A   1      32.444  34.205  27.674  1.00  0.00    -0.352 N 
ATOM     56  C   UNL A   1      33.007  35.065  28.592  1.00  0.00     0.251 C 
ATOM     57  H   UNL A   1      31.739  34.594  27.107  1.00  0.00     0.163 HD
ATOM     58  O   UNL A   1      32.542  36.176  28.780  1.00  0.00    -0.269 OA
BRANCH  56  59
ATOM     59  C   UNL A   1      34.170  34.603  29.383  1.00  0.00     0.039 A 
ATOM     60  C   UNL A   1      35.454  34.627  28.833  1.00  0.00    -0.049 A 
ATOM     61  C   UNL A   1      33.960  34.095  30.666  1.00  0.00    -0.049 A 
ATOM     62  C   UNL A   1      36.497  33.990  29.497  1.00  0.00    -0.053 A 
ATOM     63  H   UNL A   1      35.628  35.115  27.941  1.00  0.00     0.063 H 
ATOM     64  C   UNL A   1      35.026  33.523  31.365  1.00  0.00    -0.053 A 
ATOM     65  H   UNL A   1      33.022  34.139  31.095  1.00  0.00     0.063 H 
ATOM     66  C   UNL A   1      36.292  33.424  30.767  1.00  0.00    -0.014 A 
ATOM     67  H   UNL A   1      37.427  33.934  29.055  1.00  0.00     0.063 H 
ATOM     68  H   UNL A   1      34.883  33.174  32.325  1.00  0.00     0.063 H 
BRANCH  66  69
ATOM     69  C   UNL A   1      37.411  32.729  31.453  1.00  0.00     0.031 A 
ATOM     70  C   UNL A   1      38.153  31.609  30.773  1.00  0.00     0.074 A 
ATOM     71  C   UNL A   1      37.780  33.132  32.683  1.00  0.00     0.049 A 
ATOM     72  N   UNL A   1      39.116  30.854  31.241  1.00  0.00    -0.248 NA
ATOM     73  C   UNL A   1      37.765  31.294  29.389  1.00  0.00    -0.034 C 
ATOM     74  C   UNL A   1      37.151  34.220  33.435  1.00  0.00    -0.036 A 
ATOM     75  N   UNL A   1      38.777  32.686  33.513  1.00  0.00    -0.354 N 
ATOM     76  C   UNL A   1      39.431  29.963  30.222  1.00  0.00     0.074 A 
ATOM     77  C   UNL A   1      38.551  30.261  29.113  1.00  0.00    -0.034 C 
ATOM     78  H   UNL A   1      37.065  31.756  28.789  1.00  0.00     0.065 H 
ATOM     79  C   UNL A   1      37.794  34.376  34.602  1.00  0.00    -0.036 A 
ATOM     80  H   UNL A   1      36.342  34.776  33.119  1.00  0.00     0.065 H 
ATOM     81  C   UNL A   1      38.838  33.361  34.707  1.00  0.00     0.049 A 
ATOM     82  H   UNL A   1      39.389  31.952  33.276  1.00  0.00     0.167 HD
ATOM     83  C   UNL A   1      40.374  28.992  30.217  1.00  0.00     0.037 A 
ATOM     84  H   UNL A   1      38.536  29.737  28.223  1.00  0.00     0.065 H 
ATOM     85  H   UNL A   1      37.585  35.097  35.310  1.00  0.00     0.065 H 
ATOM     86  C   UNL A   1      39.628  33.169  35.780  1.00  0.00     0.037 A 
ATOM     87  C   UNL A   1      41.267  28.717  31.312  1.00  0.00     0.049 A 
ATOM     88  C   UNL A   1      40.650  32.070  35.750  1.00  0.00     0.074 A 
ATOM     89  C   UNL A   1      42.257  27.752  31.397  1.00  0.00    -0.036 A 
ATOM     90  N   UNL A   1      41.288  29.414  32.511  1.00  0.00    -0.354 N 
ATOM     91  N   UNL A   1      40.923  31.222  34.789  1.00  0.00    -0.248 NA
ATOM     92  C   UNL A   1      41.473  31.898  36.956  1.00  0.00    -0.034 C 
ATOM     93  C   UNL A   1      42.855  27.844  32.657  1.00  0.00    -0.036 A 
ATOM     94  H   UNL A   1      42.510  27.078  30.656  1.00  0.00     0.065 H 
ATOM     95  C   UNL A   1      42.268  28.895  33.341  1.00  0.00     0.049 A 
ATOM     96  H   UNL A   1      40.692  30.164  32.738  1.00  0.00     0.167 HD
ATOM     97  C   UNL A   1      41.956  30.428  35.265  1.00  0.00     0.074 A 
ATOM     98  C   UNL A   1      42.276  30.907  36.593  1.00  0.00    -0.034 C 
ATOM     99  H   UNL A   1      41.435  32.413  37.850  1.00  0.00     0.065 H 
ATOM    100  H   UNL A   1      43.605  27.233  33.017  1.00  0.00     0.065 H 
ATOM    101  C   UNL A   1      42.581  29.392  34.656  1.00  0.00     0.037 A 
ATOM    102  H   UNL A   1      43.032  30.526  37.183  1.00  0.00     0.065 H 
BRANCH  83 103
ATOM    103  C   UNL A   1      40.503  28.135  28.992  1.00  0.00     0.064 A 
ATOM    104  C   UNL A   1      39.774  26.947  28.849  1.00  0.00     0.173 A 
ATOM    105  C   UNL A   1      41.281  28.565  27.905  1.00  0.00     0.173 A 
ATOM    106  F   UNL A   1      39.024  26.489  29.862  1.00  0.00    -0.203 F 
ATOM    107  C   UNL A   1      39.816  26.221  27.661  1.00  0.00     0.198 A 
ATOM    108  C   UNL A   1      41.304  27.848  26.712  1.00  0.00     0.198 A 
ATOM    109  F   UNL A   1      41.994  29.699  27.990  1.00  0.00    -0.203 F 
ATOM    110  F   UNL A   1      39.120  25.081  27.549  1.00  0.00    -0.200 F 
ATOM    111  C   UNL A   1      40.570  26.677  26.590  1.00  0.00     0.200 A 
ATOM    112  F   UNL A   1      42.024  28.298  25.675  1.00  0.00    -0.200 F 
ATOM    113  F   UNL A   1      40.589  25.990  25.440  1.00  0.00    -0.200 F 
ENDBRANCH  83 103
BRANCH  86 114
ATOM    114  C   UNL A   1      39.467  34.038  36.973  1.00  0.00     0.064 A 
ATOM    115  C   UNL A   1      38.714  33.617  38.076  1.00  0.00     0.173 A 
ATOM    116  C   UNL A   1      40.078  35.300  37.039  1.00  0.00     0.173 A 
ATOM    117  F   UNL A   1      38.095  32.429  38.051  1.00  0.00    -0.203 F 
ATOM    118  C   UNL A   1      38.570  34.429  39.200  1.00  0.00     0.198 A 
ATOM    119  C   UNL A   1      39.958  36.098  38.173  1.00  0.00     0.198 A 
ATOM    120  F   UNL A   1      40.811  35.745  36.009  1.00  0.00    -0.203 F 
ATOM    121  F   UNL A   1      37.816  34.020  40.228  1.00  0.00    -0.200 F 
ATOM    122  C   UNL A   1      39.199  35.665  39.250  1.00  0.00     0.200 A 
ATOM    123  F   UNL A   1      40.581  37.283  38.224  1.00  0.00    -0.200 F 
ATOM    124  F   UNL A   1      39.070  36.441  40.335  1.00  0.00    -0.200 F 
ENDBRANCH  86 114
BRANCH 101 125
ATOM    125  C   UNL A   1      43.697  28.727  35.405  1.00  0.00     0.064 A 
ATOM    126  C   UNL A   1      45.031  29.121  35.236  1.00  0.00     0.173 A 
ATOM    127  C   UNL A   1      43.420  27.711  36.332  1.00  0.00     0.173 A 
ATOM    128  F   UNL A   1      45.345  30.080  34.351  1.00  0.00    -0.203 F 
ATOM    129  C   UNL A   1      46.053  28.507  35.953  1.00  0.00     0.198 A 
ATOM    130  C   UNL A   1      44.443  27.117  37.066  1.00  0.00     0.198 A 
ATOM    131  F   UNL A   1      42.158  27.304  36.534  1.00  0.00    -0.203 F 
ATOM    132  F   UNL A   1      47.326  28.871  35.747  1.00  0.00    -0.200 F 
ATOM    133  C   UNL A   1      45.758  27.511  36.872  1.00  0.00     0.200 A 
ATOM    134  F   UNL A   1      44.154  26.162  37.962  1.00  0.00    -0.200 F 
ATOM    135  F   UNL A   1      46.742  26.924  37.567  1.00  0.00    -0.200 F 
ENDBRANCH 101 125
ENDBRANCH  66  69
ENDBRANCH  56  59
ENDBRANCH  52  55
ENDBRANCH  49  52
ENDBRANCH  46  49
ENDBRANCH   1  46
TORSDOF 17
ENDMDL
MODEL 9
REMARK VINA RESULT:     -12.9      1.803      2.302
REMARK SMILES Nn1c(S[C@@H](C(=O)NCCCCCCNC(=O)c2ccc(-c3c4nc(c(-c5c(F)c(F)c(F)c(F)c5F)c5ccc([nH]5)c(-c5c(F)c(F)c(F)c(F)c5F)c5nc(c(-c6c(F)c(F)c(F)c(F)c6F)c6ccc3[nH]6)C=C5)C=C4)cc2)c2ccccc2)nc2ccc(Br)cc2c1=O
REMARK SMILES IDX 11 1 10 4 9 7 8 10 6 11 7 12 5 14 4 16 3 17 2 18 95 19 87 20
REMARK SMILES IDX 94 21 96 22 88 23 93 24 89 25 91 26 90 28 92 30 1 32 81 35
REMARK SMILES IDX 82 36 86 37 83 38 85 40 84 42 12 46 13 49 14 52 15 55 16 56
REMARK SMILES IDX 17 58 18 59 19 60 80 61 20 62 79 64 21 66 22 69 23 70 73 71
REMARK SMILES IDX 24 72 78 73 72 74 74 75 25 76 77 77 71 79 70 81 26 83 58 86
REMARK SMILES IDX 38 87 57 88 39 89 42 90 56 91 75 92 40 93 41 95 55 97 76 98
REMARK SMILES IDX 43 101 27 103 28 104 36 105 29 106 30 107 34 108 37 109
REMARK SMILES IDX 31 110 32 111 35 112 33 113 59 114 60 115 68 116 61 117
REMARK SMILES IDX 62 118 66 119 69 120 63 121 64 122 67 123 65 124 44 125
REMARK SMILES IDX 45 126 53 127 46 128 47 129 51 130 54 131 48 132 49 133
REMARK SMILES IDX 52 134 50 135
REMARK H PARENT 11 2 11 3 10 5 10 6 9 8 9 9 8 13 5 15 93 27 89 29 90 31 1 33
REMARK H PARENT 1 34 82 39 86 41 83 43 85 44 84 45 12 47 12 48 13 50 13 51
REMARK H PARENT 14 53 14 54 15 57 19 63 80 65 20 67 79 68 78 78 72 80 74 82
REMARK H PARENT 77 84 71 85 39 94 42 96 75 99 40 100 76 102
REMARK Flexibility Score: inf
ROOT
ATOM      1  C   UNL A   1      32.224  29.666  27.284  1.00  0.00    -0.052 C 
ATOM      2  H   UNL A   1      33.256  29.433  27.122  1.00  0.00     0.027 H 
ATOM      3  H   UNL A   1      32.035  30.191  28.197  1.00  0.00     0.027 H 
ENDROOT
BRANCH   1   4
ATOM      4  C   UNL A   1      31.456  28.343  27.397  1.00  0.00    -0.036 C 
ATOM      5  H   UNL A   1      31.295  28.142  28.435  1.00  0.00     0.028 H 
ATOM      6  H   UNL A   1      30.552  28.479  26.842  1.00  0.00     0.028 H 
BRANCH   4   7
ATOM      7  C   UNL A   1      32.155  27.125  26.781  1.00  0.00     0.017 C 
ATOM      8  H   UNL A   1      32.264  27.288  25.729  1.00  0.00     0.049 H 
ATOM      9  H   UNL A   1      33.105  27.017  27.263  1.00  0.00     0.049 H 
BRANCH   7  10
ATOM     10  N   UNL A   1      31.412  25.894  26.988  1.00  0.00    -0.355 N 
ATOM     11  C   UNL A   1      30.812  25.042  26.096  1.00  0.00     0.238 C 
ATOM     12  O   UNL A   1      30.216  24.077  26.589  1.00  0.00    -0.273 OA
ATOM     13  H   UNL A   1      31.324  25.624  27.931  1.00  0.00     0.163 HD
BRANCH  11  14
ATOM     14  C   UNL A   1      30.928  25.258  24.575  1.00  0.00     0.116 C 
ATOM     15  H   UNL A   1      30.319  24.456  24.213  1.00  0.00     0.057 H 
BRANCH  14  16
ATOM     16  S   UNL A   1      32.580  24.975  23.917  1.00  0.00    -0.068 SA
BRANCH  16  17
ATOM     17  C   UNL A   1      33.147  23.360  24.219  1.00  0.00     0.191 A 
ATOM     18  N   UNL A   1      33.941  22.979  25.297  1.00  0.00    -0.202 N 
ATOM     19  C   UNL A   1      34.461  21.682  25.388  1.00  0.00     0.280 A 
ATOM     20  N   UNL A   1      32.664  22.499  23.377  1.00  0.00    -0.222 NA
ATOM     21  C   UNL A   1      33.843  20.681  24.504  1.00  0.00     0.069 A 
ATOM     22  O   UNL A   1      35.306  21.346  26.216  1.00  0.00    -0.267 OA
ATOM     23  C   UNL A   1      32.900  21.139  23.588  1.00  0.00     0.079 A 
ATOM     24  C   UNL A   1      34.065  19.314  24.698  1.00  0.00    -0.033 A 
ATOM     25  C   UNL A   1      32.119  20.208  22.901  1.00  0.00    -0.034 A 
ATOM     26  C   UNL A   1      33.283  18.398  23.998  1.00  0.00     0.018 A 
ATOM     27  H   UNL A   1      34.796  18.988  25.350  1.00  0.00     0.064 H 
ATOM     28  C   UNL A   1      32.298  18.838  23.114  1.00  0.00    -0.046 A 
ATOM     29  H   UNL A   1      31.405  20.533  22.231  1.00  0.00     0.065 H 
ATOM     30  Br  UNL A   1      33.520  16.546  24.287  1.00  0.00    -0.051 Br
ATOM     31  H   UNL A   1      31.703  18.156  22.619  1.00  0.00     0.064 H 
BRANCH  18  32
ATOM     32  N   UNL A   1      34.070  23.762  26.478  1.00  0.00    -0.334 N 
ATOM     33  H   UNL A   1      33.266  24.071  26.954  1.00  0.00     0.178 HD
ATOM     34  H   UNL A   1      34.965  23.995  26.817  1.00  0.00     0.178 HD
ENDBRANCH  18  32
ENDBRANCH  16  17
ENDBRANCH  14  16
BRANCH  14  35
ATOM     35  C   UNL A   1      30.204  26.456  23.961  1.00  0.00    -0.025 A 
ATOM     36  C   UNL A   1      30.973  27.479  23.368  1.00  0.00    -0.057 A 
ATOM     37  C   UNL A   1      28.809  26.613  23.944  1.00  0.00    -0.057 A 
ATOM     38  C   UNL A   1      30.372  28.595  22.777  1.00  0.00    -0.062 A 
ATOM     39  H   UNL A   1      32.002  27.401  23.370  1.00  0.00     0.063 H 
ATOM     40  C   UNL A   1      28.207  27.732  23.361  1.00  0.00    -0.062 A 
ATOM     41  H   UNL A   1      28.215  25.886  24.371  1.00  0.00     0.063 H 
ATOM     42  C   UNL A   1      28.987  28.722  22.777  1.00  0.00    -0.062 A 
ATOM     43  H   UNL A   1      30.957  29.324  22.342  1.00  0.00     0.062 H 
ATOM     44  H   UNL A   1      27.179  27.823  23.364  1.00  0.00     0.062 H 
ATOM     45  H   UNL A   1      28.543  29.547  22.344  1.00  0.00     0.062 H 
ENDBRANCH  14  35
ENDBRANCH  11  14
ENDBRANCH   7  10
ENDBRANCH   4   7
ENDBRANCH   1   4
BRANCH   1  46
ATOM     46  C   UNL A   1      31.773  30.604  26.162  1.00  0.00    -0.052 C 
ATOM     47  H   UNL A   1      30.871  30.209  25.745  1.00  0.00     0.027 H 
ATOM     48  H   UNL A   1      32.586  30.645  25.467  1.00  0.00     0.027 H 
BRANCH  46  49
ATOM     49  C   UNL A   1      31.506  32.048  26.585  1.00  0.00    -0.036 C 
ATOM     50  H   UNL A   1      30.642  32.055  27.217  1.00  0.00     0.028 H 
ATOM     51  H   UNL A   1      31.373  32.606  25.681  1.00  0.00     0.028 H 
BRANCH  49  52
ATOM     52  C   UNL A   1      32.649  32.717  27.337  1.00  0.00     0.018 C 
ATOM     53  H   UNL A   1      33.533  32.664  26.736  1.00  0.00     0.049 H 
ATOM     54  H   UNL A   1      32.771  32.201  28.266  1.00  0.00     0.049 H 
BRANCH  52  55
ATOM     55  N   UNL A   1      32.379  34.113  27.643  1.00  0.00    -0.352 N 
ATOM     56  C   UNL A   1      32.986  34.932  28.569  1.00  0.00     0.251 C 
ATOM     57  H   UNL A   1      31.661  34.532  27.114  1.00  0.00     0.163 HD
ATOM     58  O   UNL A   1      32.546  36.044  28.812  1.00  0.00    -0.269 OA
BRANCH  56  59
ATOM     59  C   UNL A   1      34.167  34.427  29.305  1.00  0.00     0.039 A 
ATOM     60  C   UNL A   1      35.449  34.572  28.769  1.00  0.00    -0.049 A 
ATOM     61  C   UNL A   1      33.979  33.757  30.515  1.00  0.00    -0.049 A 
ATOM     62  C   UNL A   1      36.518  33.903  29.356  1.00  0.00    -0.053 A 
ATOM     63  H   UNL A   1      35.602  35.172  27.943  1.00  0.00     0.063 H 
ATOM     64  C   UNL A   1      35.069  33.150  31.145  1.00  0.00    -0.053 A 
ATOM     65  H   UNL A   1      33.040  33.710  30.941  1.00  0.00     0.063 H 
ATOM     66  C   UNL A   1      36.338  33.178  30.545  1.00  0.00    -0.014 A 
ATOM     67  H   UNL A   1      37.450  33.940  28.915  1.00  0.00     0.063 H 
ATOM     68  H   UNL A   1      34.940  32.680  32.055  1.00  0.00     0.063 H 
BRANCH  66  69
ATOM     69  C   UNL A   1      37.485  32.452  31.148  1.00  0.00     0.031 A 
ATOM     70  C   UNL A   1      37.974  32.799  32.529  1.00  0.00     0.074 A 
ATOM     71  C   UNL A   1      38.068  31.454  30.457  1.00  0.00     0.049 A 
ATOM     72  N   UNL A   1      38.994  32.310  33.190  1.00  0.00    -0.248 NA
ATOM     73  C   UNL A   1      37.222  33.827  33.266  1.00  0.00    -0.034 C 
ATOM     74  C   UNL A   1      37.669  31.013  29.120  1.00  0.00    -0.036 A 
ATOM     75  N   UNL A   1      39.109  30.623  30.786  1.00  0.00    -0.354 N 
ATOM     76  C   UNL A   1      39.020  32.984  34.404  1.00  0.00     0.074 A 
ATOM     77  C   UNL A   1      37.922  33.926  34.388  1.00  0.00    -0.034 C 
ATOM     78  H   UNL A   1      36.371  34.337  32.984  1.00  0.00     0.065 H 
ATOM     79  C   UNL A   1      38.435  29.974  28.754  1.00  0.00    -0.036 A 
ATOM     80  H   UNL A   1      36.919  31.433  28.549  1.00  0.00     0.065 H 
ATOM     81  C   UNL A   1      39.418  29.718  29.802  1.00  0.00     0.049 A 
ATOM     82  H   UNL A   1      39.588  30.673  31.645  1.00  0.00     0.167 HD
ATOM     83  C   UNL A   1      39.881  32.824  35.437  1.00  0.00     0.037 A 
ATOM     84  H   UNL A   1      37.712  34.591  35.151  1.00  0.00     0.065 H 
ATOM     85  H   UNL A   1      38.344  29.443  27.874  1.00  0.00     0.065 H 
ATOM     86  C   UNL A   1      40.400  28.800  29.736  1.00  0.00     0.037 A 
ATOM     87  C   UNL A   1      40.956  31.866  35.460  1.00  0.00     0.049 A 
ATOM     88  C   UNL A   1      41.351  28.661  30.890  1.00  0.00     0.074 A 
ATOM     89  C   UNL A   1      41.880  31.631  36.465  1.00  0.00    -0.036 A 
ATOM     90  N   UNL A   1      41.246  30.977  34.436  1.00  0.00    -0.354 N 
ATOM     91  N   UNL A   1      41.378  29.319  32.022  1.00  0.00    -0.248 NA
ATOM     92  C   UNL A   1      42.412  27.652  30.755  1.00  0.00    -0.034 C 
ATOM     93  C   UNL A   1      42.747  30.621  36.037  1.00  0.00    -0.036 A 
ATOM     94  H   UNL A   1      41.922  32.118  37.374  1.00  0.00     0.065 H 
ATOM     95  C   UNL A   1      42.337  30.197  34.784  1.00  0.00     0.049 A 
ATOM     96  H   UNL A   1      40.751  30.911  33.588  1.00  0.00     0.167 HD
ATOM     97  C   UNL A   1      42.444  28.797  32.741  1.00  0.00     0.074 A 
ATOM     98  C   UNL A   1      43.027  27.753  31.925  1.00  0.00    -0.034 C 
ATOM     99  H   UNL A   1      42.623  27.030  29.959  1.00  0.00     0.065 H 
ATOM    100  H   UNL A   1      43.555  30.255  36.564  1.00  0.00     0.065 H 
ATOM    101  C   UNL A   1      42.899  29.154  33.965  1.00  0.00     0.037 A 
ATOM    102  H   UNL A   1      43.822  27.163  32.217  1.00  0.00     0.065 H 
BRANCH  83 103
ATOM    103  C   UNL A   1      39.715  33.702  36.642  1.00  0.00     0.064 A 
ATOM    104  C   UNL A   1      40.283  34.982  36.700  1.00  0.00     0.173 A 
ATOM    105  C   UNL A   1      38.888  33.301  37.702  1.00  0.00     0.173 A 
ATOM    106  F   UNL A   1      41.090  35.408  35.716  1.00  0.00    -0.203 F 
ATOM    107  C   UNL A   1      40.028  35.830  37.775  1.00  0.00     0.198 A 
ATOM    108  C   UNL A   1      38.617  34.158  38.765  1.00  0.00     0.198 A 
ATOM    109  F   UNL A   1      38.316  32.087  37.691  1.00  0.00    -0.203 F 
ATOM    110  F   UNL A   1      40.590  37.046  37.816  1.00  0.00    -0.200 F 
ATOM    111  C   UNL A   1      39.186  35.423  38.799  1.00  0.00     0.200 A 
ATOM    112  F   UNL A   1      37.794  33.768  39.748  1.00  0.00    -0.200 F 
ATOM    113  F   UNL A   1      38.921  36.250  39.820  1.00  0.00    -0.200 F 
ENDBRANCH  83 103
BRANCH  86 114
ATOM    114  C   UNL A   1      40.531  27.952  28.525  1.00  0.00     0.064 A 
ATOM    115  C   UNL A   1      41.291  28.373  27.427  1.00  0.00     0.173 A 
ATOM    116  C   UNL A   1      39.911  26.695  28.449  1.00  0.00     0.173 A 
ATOM    117  F   UNL A   1      41.884  29.576  27.445  1.00  0.00    -0.203 F 
ATOM    118  C   UNL A   1      41.420  27.574  26.293  1.00  0.00     0.198 A 
ATOM    119  C   UNL A   1      40.065  25.884  27.328  1.00  0.00     0.198 A 
ATOM    120  F   UNL A   1      39.176  26.246  29.476  1.00  0.00    -0.203 F 
ATOM    121  F   UNL A   1      42.124  28.015  25.242  1.00  0.00    -0.200 F 
ATOM    122  C   UNL A   1      40.815  26.327  26.248  1.00  0.00     0.200 A 
ATOM    123  F   UNL A   1      39.492  24.674  27.296  1.00  0.00    -0.200 F 
ATOM    124  F   UNL A   1      40.948  25.553  25.162  1.00  0.00    -0.200 F 
ENDBRANCH  86 114
BRANCH 101 125
ATOM    125  C   UNL A   1      44.065  28.389  34.515  1.00  0.00     0.064 A 
ATOM    126  C   UNL A   1      43.888  27.199  35.234  1.00  0.00     0.173 A 
ATOM    127  C   UNL A   1      45.375  28.831  34.280  1.00  0.00     0.173 A 
ATOM    128  F   UNL A   1      42.653  26.744  35.494  1.00  0.00    -0.203 F 
ATOM    129  C   UNL A   1      44.982  26.490  35.721  1.00  0.00     0.198 A 
ATOM    130  C   UNL A   1      46.468  28.106  34.747  1.00  0.00     0.198 A 
ATOM    131  F   UNL A   1      45.596  29.960  33.590  1.00  0.00    -0.203 F 
ATOM    132  F   UNL A   1      44.790  25.377  36.442  1.00  0.00    -0.200 F 
ATOM    133  C   UNL A   1      46.271  26.940  35.471  1.00  0.00     0.200 A 
ATOM    134  F   UNL A   1      47.713  28.536  34.495  1.00  0.00    -0.200 F 
ATOM    135  F   UNL A   1      47.324  26.253  35.935  1.00  0.00    -0.200 F 
ENDBRANCH 101 125
ENDBRANCH  66  69
ENDBRANCH  56  59
ENDBRANCH  52  55
ENDBRANCH  49  52
ENDBRANCH  46  49
ENDBRANCH   1  46
TORSDOF 17
ENDMDL
MODEL 10
REMARK VINA RESULT:     -12.9      1.798      7.387
REMARK SMILES Nn1c(S[C@@H](C(=O)NCCCCCCNC(=O)c2ccc(-c3c4nc(c(-c5c(F)c(F)c(F)c(F)c5F)c5ccc([nH]5)c(-c5c(F)c(F)c(F)c(F)c5F)c5nc(c(-c6c(F)c(F)c(F)c(F)c6F)c6ccc3[nH]6)C=C5)C=C4)cc2)c2ccccc2)nc2ccc(Br)cc2c1=O
REMARK SMILES IDX 11 1 10 4 9 7 8 10 6 11 7 12 5 14 4 16 3 17 2 18 95 19 87 20
REMARK SMILES IDX 94 21 96 22 88 23 93 24 89 25 91 26 90 28 92 30 1 32 81 35
REMARK SMILES IDX 82 36 86 37 83 38 85 40 84 42 12 46 13 49 14 52 15 55 16 56
REMARK SMILES IDX 17 58 18 59 19 60 80 61 20 62 79 64 21 66 22 69 23 70 73 71
REMARK SMILES IDX 24 72 78 73 72 74 74 75 25 76 77 77 71 79 70 81 26 83 58 86
REMARK SMILES IDX 38 87 57 88 39 89 42 90 56 91 75 92 40 93 41 95 55 97 76 98
REMARK SMILES IDX 43 101 27 103 28 104 36 105 29 106 30 107 34 108 37 109
REMARK SMILES IDX 31 110 32 111 35 112 33 113 59 114 60 115 68 116 61 117
REMARK SMILES IDX 62 118 66 119 69 120 63 121 64 122 67 123 65 124 44 125
REMARK SMILES IDX 45 126 53 127 46 128 47 129 51 130 54 131 48 132 49 133
REMARK SMILES IDX 52 134 50 135
REMARK H PARENT 11 2 11 3 10 5 10 6 9 8 9 9 8 13 5 15 93 27 89 29 90 31 1 33
REMARK H PARENT 1 34 82 39 86 41 83 43 85 44 84 45 12 47 12 48 13 50 13 51
REMARK H PARENT 14 53 14 54 15 57 19 63 80 65 20 67 79 68 78 78 72 80 74 82
REMARK H PARENT 77 84 71 85 39 94 42 96 75 99 40 100 76 102
REMARK Flexibility Score: inf
ROOT
ATOM      1  C   UNL A   1      32.434  29.722  27.104  1.00  0.00    -0.052 C 
ATOM      2  H   UNL A   1      33.389  29.453  26.704  1.00  0.00     0.027 H 
ATOM      3  H   UNL A   1      32.483  30.231  28.043  1.00  0.00     0.027 H 
ENDROOT
BRANCH   1   4
ATOM      4  C   UNL A   1      31.656  28.427  27.371  1.00  0.00    -0.036 C 
ATOM      5  H   UNL A   1      31.559  28.312  28.430  1.00  0.00     0.028 H 
ATOM      6  H   UNL A   1      30.720  28.535  26.865  1.00  0.00     0.028 H 
BRANCH   4   7
ATOM      7  C   UNL A   1      32.297  27.151  26.813  1.00  0.00     0.017 C 
ATOM      8  H   UNL A   1      32.473  27.285  25.766  1.00  0.00     0.049 H 
ATOM      9  H   UNL A   1      33.209  26.984  27.348  1.00  0.00     0.049 H 
BRANCH   7  10
ATOM     10  N   UNL A   1      31.456  25.980  26.998  1.00  0.00    -0.355 N 
ATOM     11  C   UNL A   1      30.806  25.185  26.089  1.00  0.00     0.238 C 
ATOM     12  O   UNL A   1      30.128  24.266  26.564  1.00  0.00    -0.273 OA
ATOM     13  H   UNL A   1      31.333  25.710  27.937  1.00  0.00     0.163 HD
BRANCH  11  14
ATOM     14  C   UNL A   1      30.963  25.402  24.572  1.00  0.00     0.116 C 
ATOM     15  H   UNL A   1      30.354  24.609  24.192  1.00  0.00     0.057 H 
BRANCH  14  16
ATOM     16  S   UNL A   1      32.627  25.100  23.955  1.00  0.00    -0.068 SA
BRANCH  16  17
ATOM     17  C   UNL A   1      33.156  23.470  24.246  1.00  0.00     0.191 A 
ATOM     18  N   UNL A   1      33.913  23.057  25.338  1.00  0.00    -0.202 N 
ATOM     19  C   UNL A   1      34.407  21.749  25.422  1.00  0.00     0.280 A 
ATOM     20  N   UNL A   1      32.682  22.631  23.376  1.00  0.00    -0.222 NA
ATOM     21  C   UNL A   1      33.796  20.774  24.505  1.00  0.00     0.069 A 
ATOM     22  O   UNL A   1      35.223  21.385  26.268  1.00  0.00    -0.267 OA
ATOM     23  C   UNL A   1      32.887  21.264  23.572  1.00  0.00     0.079 A 
ATOM     24  C   UNL A   1      33.987  19.400  24.683  1.00  0.00    -0.033 A 
ATOM     25  C   UNL A   1      32.109  20.358  22.849  1.00  0.00    -0.034 A 
ATOM     26  C   UNL A   1      33.209  18.510  23.947  1.00  0.00     0.018 A 
ATOM     27  H   UNL A   1      34.695  19.050  25.349  1.00  0.00     0.064 H 
ATOM     28  C   UNL A   1      32.257  18.982  23.044  1.00  0.00    -0.046 A 
ATOM     29  H   UNL A   1      31.420  20.707  22.165  1.00  0.00     0.065 H 
ATOM     30  Br  UNL A   1      33.404  16.650  24.211  1.00  0.00    -0.051 Br
ATOM     31  H   UNL A   1      31.664  18.319  22.521  1.00  0.00     0.064 H 
BRANCH  18  32
ATOM     32  N   UNL A   1      34.024  23.818  26.535  1.00  0.00    -0.334 N 
ATOM     33  H   UNL A   1      33.232  24.266  26.908  1.00  0.00     0.178 HD
ATOM     34  H   UNL A   1      34.895  23.897  26.988  1.00  0.00     0.178 HD
ENDBRANCH  18  32
ENDBRANCH  16  17
ENDBRANCH  14  16
BRANCH  14  35
ATOM     35  C   UNL A   1      30.270  26.611  23.942  1.00  0.00    -0.025 A 
ATOM     36  C   UNL A   1      28.860  26.642  23.914  1.00  0.00    -0.057 A 
ATOM     37  C   UNL A   1      30.947  27.707  23.384  1.00  0.00    -0.057 A 
ATOM     38  C   UNL A   1      28.166  27.725  23.364  1.00  0.00    -0.062 A 
ATOM     39  H   UNL A   1      28.331  25.849  24.307  1.00  0.00     0.063 H 
ATOM     40  C   UNL A   1      30.253  28.786  22.827  1.00  0.00    -0.062 A 
ATOM     41  H   UNL A   1      31.978  27.717  23.385  1.00  0.00     0.063 H 
ATOM     42  C   UNL A   1      28.864  28.796  22.817  1.00  0.00    -0.062 A 
ATOM     43  H   UNL A   1      27.134  27.727  23.364  1.00  0.00     0.062 H 
ATOM     44  H   UNL A   1      30.776  29.578  22.421  1.00  0.00     0.062 H 
ATOM     45  H   UNL A   1      28.352  29.593  22.408  1.00  0.00     0.062 H 
ENDBRANCH  14  35
ENDBRANCH  11  14
ENDBRANCH   7  10
ENDBRANCH   4   7
ENDBRANCH   1   4
BRANCH   1  46
ATOM     46  C   UNL A   1      31.777  30.704  26.131  1.00  0.00    -0.052 C 
ATOM     47  H   UNL A   1      30.868  30.263  25.780  1.00  0.00     0.027 H 
ATOM     48  H   UNL A   1      32.496  30.879  25.359  1.00  0.00     0.027 H 
BRANCH  46  49
ATOM     49  C   UNL A   1      31.442  32.076  26.715  1.00  0.00    -0.036 C 
ATOM     50  H   UNL A   1      30.687  31.944  27.462  1.00  0.00     0.028 H 
ATOM     51  H   UNL A   1      31.122  32.683  25.893  1.00  0.00     0.028 H 
BRANCH  49  52
ATOM     52  C   UNL A   1      32.618  32.805  27.353  1.00  0.00     0.018 C 
ATOM     53  H   UNL A   1      33.454  32.755  26.687  1.00  0.00     0.049 H 
ATOM     54  H   UNL A   1      32.826  32.328  28.287  1.00  0.00     0.049 H 
BRANCH  52  55
ATOM     55  N   UNL A   1      32.328  34.204  27.629  1.00  0.00    -0.352 N 
ATOM     56  C   UNL A   1      32.918  35.048  28.544  1.00  0.00     0.251 C 
ATOM     57  H   UNL A   1      31.610  34.603  27.087  1.00  0.00     0.163 HD
ATOM     58  O   UNL A   1      32.462  36.158  28.761  1.00  0.00    -0.269 OA
BRANCH  56  59
ATOM     59  C   UNL A   1      34.099  34.571  29.299  1.00  0.00     0.039 A 
ATOM     60  C   UNL A   1      35.379  34.672  28.748  1.00  0.00    -0.049 A 
ATOM     61  C   UNL A   1      33.911  33.971  30.546  1.00  0.00    -0.049 A 
ATOM     62  C   UNL A   1      36.444  34.026  29.364  1.00  0.00    -0.053 A 
ATOM     63  H   UNL A   1      35.532  35.225  27.890  1.00  0.00     0.063 H 
ATOM     64  C   UNL A   1      34.999  33.388  31.201  1.00  0.00    -0.053 A 
ATOM     65  H   UNL A   1      32.975  33.957  30.980  1.00  0.00     0.063 H 
ATOM     66  C   UNL A   1      36.265  33.369  30.593  1.00  0.00    -0.014 A 
ATOM     67  H   UNL A   1      37.374  34.029  28.916  1.00  0.00     0.063 H 
ATOM     68  H   UNL A   1      34.872  32.970  32.136  1.00  0.00     0.063 H 
BRANCH  66  69
ATOM     69  C   UNL A   1      37.409  32.665  31.228  1.00  0.00     0.031 A 
ATOM     70  C   UNL A   1      38.128  31.559  30.503  1.00  0.00     0.074 A 
ATOM     71  C   UNL A   1      37.820  33.049  32.451  1.00  0.00     0.049 A 
ATOM     72  N   UNL A   1      39.108  30.799  30.923  1.00  0.00    -0.248 NA
ATOM     73  C   UNL A   1      37.692  31.266  29.128  1.00  0.00    -0.034 C 
ATOM     74  C   UNL A   1      37.216  34.122  33.243  1.00  0.00    -0.036 A 
ATOM     75  N   UNL A   1      38.846  32.591  33.237  1.00  0.00    -0.354 N 
ATOM     76  C   UNL A   1      39.389  29.926  29.879  1.00  0.00     0.074 A 
ATOM     77  C   UNL A   1      38.469  30.240  28.807  1.00  0.00    -0.034 C 
ATOM     78  H   UNL A   1      36.969  31.736  28.561  1.00  0.00     0.065 H 
ATOM     79  C   UNL A   1      37.900  34.260  34.388  1.00  0.00    -0.036 A 
ATOM     80  H   UNL A   1      36.396  34.682  32.965  1.00  0.00     0.065 H 
ATOM     81  C   UNL A   1      38.949  33.245  34.439  1.00  0.00     0.049 A 
ATOM     82  H   UNL A   1      39.451  31.862  32.965  1.00  0.00     0.167 HD
ATOM     83  C   UNL A   1      40.333  28.957  29.823  1.00  0.00     0.037 A 
ATOM     84  H   UNL A   1      38.423  29.731  27.909  1.00  0.00     0.065 H 
ATOM     85  H   UNL A   1      37.715  34.968  35.115  1.00  0.00     0.065 H 
ATOM     86  C   UNL A   1      39.777  33.038  35.480  1.00  0.00     0.037 A 
ATOM     87  C   UNL A   1      41.264  28.665  30.882  1.00  0.00     0.049 A 
ATOM     88  C   UNL A   1      40.799  31.941  35.395  1.00  0.00     0.074 A 
ATOM     89  C   UNL A   1      42.258  27.701  30.914  1.00  0.00    -0.036 A 
ATOM     90  N   UNL A   1      41.326  29.342  32.090  1.00  0.00    -0.354 N 
ATOM     91  N   UNL A   1      41.039  31.111  34.411  1.00  0.00    -0.248 NA
ATOM     92  C   UNL A   1      41.665  31.751  36.568  1.00  0.00    -0.034 C 
ATOM     93  C   UNL A   1      42.900  27.774  32.154  1.00  0.00    -0.036 A 
ATOM     94  H   UNL A   1      42.486  27.041  30.154  1.00  0.00     0.065 H 
ATOM     95  C   UNL A   1      42.336  28.812  32.876  1.00  0.00     0.049 A 
ATOM     96  H   UNL A   1      40.738  30.087  32.351  1.00  0.00     0.167 HD
ATOM     97  C   UNL A   1      42.090  30.311  34.836  1.00  0.00     0.074 A 
ATOM     98  C   UNL A   1      42.456  30.768  36.160  1.00  0.00    -0.034 C 
ATOM     99  H   UNL A   1      41.658  32.251  37.471  1.00  0.00     0.065 H 
ATOM    100  H   UNL A   1      43.664  27.159  32.476  1.00  0.00     0.065 H 
ATOM    101  C   UNL A   1      42.695  29.287  34.188  1.00  0.00     0.037 A 
ATOM    102  H   UNL A   1      43.233  30.379  36.716  1.00  0.00     0.065 H 
BRANCH  83 103
ATOM    103  C   UNL A   1      40.419  28.122  28.580  1.00  0.00     0.064 A 
ATOM    104  C   UNL A   1      41.212  28.509  27.491  1.00  0.00     0.173 A 
ATOM    105  C   UNL A   1      39.789  26.868  28.523  1.00  0.00     0.173 A 
ATOM    106  F   UNL A   1      41.825  29.701  27.493  1.00  0.00    -0.203 F 
ATOM    107  C   UNL A   1      41.373  27.670  26.390  1.00  0.00     0.198 A 
ATOM    108  C   UNL A   1      39.969  26.024  27.431  1.00  0.00     0.198 A 
ATOM    109  F   UNL A   1      39.024  26.450  29.543  1.00  0.00    -0.203 F 
ATOM    110  F   UNL A   1      42.126  28.065  25.354  1.00  0.00    -0.200 F 
ATOM    111  C   UNL A   1      40.763  26.425  26.366  1.00  0.00     0.200 A 
ATOM    112  F   UNL A   1      39.389  24.816  27.416  1.00  0.00    -0.200 F 
ATOM    113  F   UNL A   1      40.939  25.610  25.318  1.00  0.00    -0.200 F 
ENDBRANCH  83 103
BRANCH  86 114
ATOM    114  C   UNL A   1      39.657  33.886  36.692  1.00  0.00     0.064 A 
ATOM    115  C   UNL A   1      40.324  35.114  36.782  1.00  0.00     0.173 A 
ATOM    116  C   UNL A   1      38.860  33.493  37.778  1.00  0.00     0.173 A 
ATOM    117  F   UNL A   1      41.114  35.523  35.779  1.00  0.00    -0.203 F 
ATOM    118  C   UNL A   1      40.206  35.915  37.917  1.00  0.00     0.198 A 
ATOM    119  C   UNL A   1      38.719  34.306  38.898  1.00  0.00     0.198 A 
ATOM    120  F   UNL A   1      38.200  32.327  37.737  1.00  0.00    -0.203 F 
ATOM    121  F   UNL A   1      40.882  37.069  37.994  1.00  0.00    -0.200 F 
ATOM    122  C   UNL A   1      39.396  35.514  38.970  1.00  0.00     0.200 A 
ATOM    123  F   UNL A   1      37.923  33.922  39.906  1.00  0.00    -0.200 F 
ATOM    124  F   UNL A   1      39.274  36.288  40.056  1.00  0.00    -0.200 F 
ENDBRANCH  86 114
BRANCH 101 125
ATOM    125  C   UNL A   1      43.838  28.612  34.885  1.00  0.00     0.064 A 
ATOM    126  C   UNL A   1      45.153  29.078  34.757  1.00  0.00     0.173 A 
ATOM    127  C   UNL A   1      43.605  27.512  35.723  1.00  0.00     0.173 A 
ATOM    128  F   UNL A   1      45.426  30.120  33.957  1.00  0.00    -0.203 F 
ATOM    129  C   UNL A   1      46.200  28.452  35.427  1.00  0.00     0.198 A 
ATOM    130  C   UNL A   1      44.651  26.904  36.411  1.00  0.00     0.198 A 
ATOM    131  F   UNL A   1      42.362  27.033  35.883  1.00  0.00    -0.203 F 
ATOM    132  F   UNL A   1      47.456  28.889  35.259  1.00  0.00    -0.200 F 
ATOM    133  C   UNL A   1      45.948  27.371  36.258  1.00  0.00     0.200 A 
ATOM    134  F   UNL A   1      44.404  25.865  37.222  1.00  0.00    -0.200 F 
ATOM    135  F   UNL A   1      46.956  26.772  36.907  1.00  0.00    -0.200 F 
ENDBRANCH 101 125
ENDBRANCH  66  69
ENDBRANCH  56  59
ENDBRANCH  52  55
ENDBRANCH  49  52
ENDBRANCH  46  49
ENDBRANCH   1  46
TORSDOF 17
ENDMDL
