MODEL 1
REMARK VINA RESULT:     -12.3      0.000      0.000
REMARK SMILES C[C@@H](C(=O)NCCCCCCNC(=O)c1ccc(-c2c3nc(c(-c4c(F)c(F)c(F)c(F)c4F)c4ccc([nH]4)c(-c4c(F)c(F)c(F)c(F)c4F)c4nc(c(-c5c(F)c(F)c(F)c(F)c5F)c5ccc2[nH]5)C=C4)C=C3)cc1)c1ccc(C[C@@H]2CCC[C@@H]2O)cc1Br
REMARK SMILES IDX 7 1 6 4 5 7 3 8 4 9 2 11 1 13 78 17 79 18 90 19 80 20 89 22
REMARK SMILES IDX 91 23 81 24 82 27 83 30 84 31 87 32 85 34 86 37 88 43 8 45
REMARK SMILES IDX 9 48 10 51 11 54 12 57 13 58 14 60 15 61 16 62 77 63 17 64
REMARK SMILES IDX 76 66 18 68 19 71 20 72 70 73 21 74 75 75 69 76 71 77 22 78
REMARK SMILES IDX 74 79 68 81 67 83 23 85 55 88 35 89 54 90 36 91 39 92 53 93
REMARK SMILES IDX 72 94 37 95 38 97 52 99 73 100 40 103 24 105 25 106 33 107
REMARK SMILES IDX 26 108 27 109 31 110 34 111 28 112 29 113 32 114 30 115
REMARK SMILES IDX 56 116 57 117 65 118 58 119 59 120 63 121 66 122 60 123
REMARK SMILES IDX 61 124 64 125 62 126 41 127 42 128 50 129 43 130 44 131
REMARK SMILES IDX 48 132 51 133 45 134 46 135 49 136 47 137
REMARK H PARENT 7 2 7 3 6 5 6 6 5 10 2 12 1 14 1 15 1 16 79 21 80 25 89 26
REMARK H PARENT 82 28 82 29 83 33 84 35 84 36 87 38 85 39 85 40 86 41 86 42
REMARK H PARENT 88 44 8 46 8 47 9 49 9 50 10 52 10 53 11 55 11 56 12 59 16 65
REMARK H PARENT 77 67 17 69 76 70 75 80 69 82 71 84 74 86 68 87 36 96 39 98
REMARK H PARENT 72 101 37 102 73 104
REMARK Flexibility Score: inf
ROOT
ATOM      1  C   UNL A   1      33.394  28.580  26.953  1.00  0.00    -0.036 C 
ATOM      2  H   UNL A   1      34.250  28.488  27.588  1.00  0.00     0.028 H 
ATOM      3  H   UNL A   1      32.490  28.279  27.440  1.00  0.00     0.028 H 
ENDROOT
BRANCH   1   4
ATOM      4  C   UNL A   1      33.583  27.652  25.750  1.00  0.00     0.017 C 
ATOM      5  H   UNL A   1      33.742  28.241  24.871  1.00  0.00     0.049 H 
ATOM      6  H   UNL A   1      34.429  27.021  25.923  1.00  0.00     0.049 H 
BRANCH   4   7
ATOM      7  N   UNL A   1      32.408  26.830  25.569  1.00  0.00    -0.356 N 
ATOM      8  C   UNL A   1      32.162  25.851  24.653  1.00  0.00     0.227 C 
ATOM      9  O   UNL A   1      30.998  25.451  24.573  1.00  0.00    -0.274 OA
ATOM     10  H   UNL A   1      31.675  27.003  26.201  1.00  0.00     0.163 HD
BRANCH   8  11
ATOM     11  C   UNL A   1      33.311  25.282  23.800  1.00  0.00     0.061 C 
ATOM     12  H   UNL A   1      34.233  25.573  24.260  1.00  0.00     0.045 H 
BRANCH  11  13
ATOM     13  C   UNL A   1      33.329  25.871  22.382  1.00  0.00    -0.049 C 
ATOM     14  H   UNL A   1      32.367  25.744  21.931  1.00  0.00     0.024 H 
ATOM     15  H   UNL A   1      34.067  25.366  21.795  1.00  0.00     0.024 H 
ATOM     16  H   UNL A   1      33.565  26.914  22.431  1.00  0.00     0.024 H 
ENDBRANCH  11  13
BRANCH  11  17
ATOM     17  C   UNL A   1      33.247  23.754  23.773  1.00  0.00    -0.022 A 
ATOM     18  C   UNL A   1      32.465  23.119  22.789  1.00  0.00    -0.057 A 
ATOM     19  C   UNL A   1      33.851  22.941  24.747  1.00  0.00     0.022 A 
ATOM     20  C   UNL A   1      32.298  21.736  22.768  1.00  0.00    -0.059 A 
ATOM     21  H   UNL A   1      32.004  23.692  22.065  1.00  0.00     0.063 H 
ATOM     22  C   UNL A   1      33.656  21.553  24.741  1.00  0.00    -0.044 A 
ATOM     23  Br  UNL A   1      34.931  23.644  26.147  1.00  0.00    -0.051 Br
ATOM     24  C   UNL A   1      32.853  20.940  23.768  1.00  0.00    -0.047 A 
ATOM     25  H   UNL A   1      31.758  21.297  22.006  1.00  0.00     0.063 H 
ATOM     26  H   UNL A   1      34.110  20.972  25.464  1.00  0.00     0.064 H 
BRANCH  24  27
ATOM     27  C   UNL A   1      32.560  19.462  23.828  1.00  0.00    -0.023 C 
ATOM     28  H   UNL A   1      32.342  19.141  22.832  1.00  0.00     0.032 H 
ATOM     29  H   UNL A   1      31.757  19.380  24.530  1.00  0.00     0.032 H 
BRANCH  27  30
ATOM     30  C   UNL A   1      33.658  18.524  24.386  1.00  0.00    -0.011 C 
ATOM     31  C   UNL A   1      34.078  17.377  23.458  1.00  0.00    -0.048 C 
ATOM     32  C   UNL A   1      33.355  17.790  25.696  1.00  0.00     0.057 C 
ATOM     33  H   UNL A   1      34.416  19.267  24.517  1.00  0.00     0.033 H 
ATOM     34  C   UNL A   1      33.353  16.120  23.953  1.00  0.00    -0.050 C 
ATOM     35  H   UNL A   1      35.137  17.234  23.504  1.00  0.00     0.027 H 
ATOM     36  H   UNL A   1      33.822  17.591  22.441  1.00  0.00     0.027 H 
ATOM     37  C   UNL A   1      32.680  16.494  25.271  1.00  0.00    -0.027 C 
ATOM     38  H   UNL A   1      34.254  17.617  26.249  1.00  0.00     0.060 H 
ATOM     39  H   UNL A   1      34.055  15.328  24.110  1.00  0.00     0.027 H 
ATOM     40  H   UNL A   1      32.636  15.781  23.236  1.00  0.00     0.027 H 
ATOM     41  H   UNL A   1      32.834  15.730  26.004  1.00  0.00     0.029 H 
ATOM     42  H   UNL A   1      31.621  16.605  25.167  1.00  0.00     0.029 H 
BRANCH  32  43
ATOM     43  O   UNL A   1      32.565  18.535  26.599  1.00  0.00    -0.393 OA
ATOM     44  H   UNL A   1      31.660  18.187  26.599  1.00  0.00     0.210 HD
ENDBRANCH  32  43
ENDBRANCH  27  30
ENDBRANCH  24  27
ENDBRANCH  11  17
ENDBRANCH   8  11
ENDBRANCH   4   7
ENDBRANCH   1   4
BRANCH   1  45
ATOM     45  C   UNL A   1      33.228  30.058  26.573  1.00  0.00    -0.052 C 
ATOM     46  H   UNL A   1      33.747  30.226  25.653  1.00  0.00     0.027 H 
ATOM     47  H   UNL A   1      33.622  30.624  27.391  1.00  0.00     0.027 H 
BRANCH  45  48
ATOM     48  C   UNL A   1      31.778  30.518  26.392  1.00  0.00    -0.052 C 
ATOM     49  H   UNL A   1      31.152  29.897  27.000  1.00  0.00     0.027 H 
ATOM     50  H   UNL A   1      31.562  30.437  25.347  1.00  0.00     0.027 H 
BRANCH  48  51
ATOM     51  C   UNL A   1      31.517  31.977  26.774  1.00  0.00    -0.036 C 
ATOM     52  H   UNL A   1      30.794  31.993  27.563  1.00  0.00     0.028 H 
ATOM     53  H   UNL A   1      31.175  32.470  25.888  1.00  0.00     0.028 H 
BRANCH  51  54
ATOM     54  C   UNL A   1      32.755  32.731  27.245  1.00  0.00     0.018 C 
ATOM     55  H   UNL A   1      33.489  32.712  26.465  1.00  0.00     0.049 H 
ATOM     56  H   UNL A   1      33.118  32.253  28.130  1.00  0.00     0.049 H 
BRANCH  54  57
ATOM     57  N   UNL A   1      32.455  34.118  27.573  1.00  0.00    -0.352 N 
ATOM     58  C   UNL A   1      32.985  34.908  28.559  1.00  0.00     0.251 C 
ATOM     59  H   UNL A   1      31.775  34.548  27.006  1.00  0.00     0.163 HD
ATOM     60  O   UNL A   1      32.471  35.990  28.835  1.00  0.00    -0.269 OA
BRANCH  58  61
ATOM     61  C   UNL A   1      34.169  34.445  29.309  1.00  0.00     0.039 A 
ATOM     62  C   UNL A   1      33.990  33.843  30.557  1.00  0.00    -0.049 A 
ATOM     63  C   UNL A   1      35.453  34.592  28.775  1.00  0.00    -0.049 A 
ATOM     64  C   UNL A   1      35.092  33.323  31.238  1.00  0.00    -0.053 A 
ATOM     65  H   UNL A   1      33.047  33.783  30.973  1.00  0.00     0.063 H 
ATOM     66  C   UNL A   1      36.540  34.009  29.420  1.00  0.00    -0.053 A 
ATOM     67  H   UNL A   1      35.594  35.130  27.906  1.00  0.00     0.063 H 
ATOM     68  C   UNL A   1      36.370  33.365  30.655  1.00  0.00    -0.014 A 
ATOM     69  H   UNL A   1      34.968  32.906  32.174  1.00  0.00     0.063 H 
ATOM     70  H   UNL A   1      37.476  34.053  28.987  1.00  0.00     0.063 H 
BRANCH  68  71
ATOM     71  C   UNL A   1      37.537  32.717  31.306  1.00  0.00     0.031 A 
ATOM     72  C   UNL A   1      38.198  31.530  30.664  1.00  0.00     0.074 A 
ATOM     73  C   UNL A   1      37.945  33.147  32.516  1.00  0.00     0.049 A 
ATOM     74  N   UNL A   1      39.161  30.770  31.123  1.00  0.00    -0.248 NA
ATOM     75  C   UNL A   1      37.693  31.126  29.343  1.00  0.00    -0.034 C 
ATOM     76  C   UNL A   1      37.353  34.259  33.261  1.00  0.00    -0.036 A 
ATOM     77  N   UNL A   1      38.939  32.687  33.343  1.00  0.00    -0.354 N 
ATOM     78  C   UNL A   1      39.363  29.792  30.159  1.00  0.00     0.074 A 
ATOM     79  C   UNL A   1      38.395  30.025  29.109  1.00  0.00    -0.034 C 
ATOM     80  H   UNL A   1      36.980  31.580  28.751  1.00  0.00     0.065 H 
ATOM     81  C   UNL A   1      38.001  34.404  34.427  1.00  0.00    -0.036 A 
ATOM     82  H   UNL A   1      36.562  34.841  32.940  1.00  0.00     0.065 H 
ATOM     83  C   UNL A   1      39.022  33.366  34.536  1.00  0.00     0.049 A 
ATOM     84  H   UNL A   1      39.537  31.943  33.105  1.00  0.00     0.167 HD
ATOM     85  C   UNL A   1      40.284  28.800  30.145  1.00  0.00     0.037 A 
ATOM     86  H   UNL A   1      38.267  29.415  28.286  1.00  0.00     0.065 H 
ATOM     87  H   UNL A   1      37.809  35.131  35.133  1.00  0.00     0.065 H 
ATOM     88  C   UNL A   1      39.815  33.162  35.604  1.00  0.00     0.037 A 
ATOM     89  C   UNL A   1      41.263  28.592  31.180  1.00  0.00     0.049 A 
ATOM     90  C   UNL A   1      40.818  32.039  35.569  1.00  0.00     0.074 A 
ATOM     91  C   UNL A   1      42.294  27.669  31.217  1.00  0.00    -0.036 A 
ATOM     92  N   UNL A   1      41.325  29.309  32.366  1.00  0.00    -0.354 N 
ATOM     93  N   UNL A   1      41.060  31.176  34.612  1.00  0.00    -0.248 NA
ATOM     94  C   UNL A   1      41.660  31.862  36.761  1.00  0.00    -0.034 C 
ATOM     95  C   UNL A   1      42.939  27.784  32.452  1.00  0.00    -0.036 A 
ATOM     96  H   UNL A   1      42.543  27.011  30.463  1.00  0.00     0.065 H 
ATOM     97  C   UNL A   1      42.351  28.820  33.158  1.00  0.00     0.049 A 
ATOM     98  H   UNL A   1      40.730  30.054  32.608  1.00  0.00     0.167 HD
ATOM     99  C   UNL A   1      42.094  30.373  35.074  1.00  0.00     0.074 A 
ATOM    100  C   UNL A   1      42.448  30.863  36.389  1.00  0.00    -0.034 C 
ATOM    101  H   UNL A   1      41.642  32.380  37.654  1.00  0.00     0.065 H 
ATOM    102  H   UNL A   1      43.721  27.196  32.781  1.00  0.00     0.065 H 
ATOM    103  C   UNL A   1      42.696  29.323  34.464  1.00  0.00     0.037 A 
ATOM    104  H   UNL A   1      43.216  30.483  36.965  1.00  0.00     0.065 H 
BRANCH  85 105
ATOM    105  C   UNL A   1      40.282  27.854  28.979  1.00  0.00     0.064 A 
ATOM    106  C   UNL A   1      41.034  28.104  27.822  1.00  0.00     0.173 A 
ATOM    107  C   UNL A   1      39.564  26.650  29.047  1.00  0.00     0.173 A 
ATOM    108  F   UNL A   1      41.731  29.243  27.702  1.00  0.00    -0.203 F 
ATOM    109  C   UNL A   1      41.048  27.195  26.766  1.00  0.00     0.198 A 
ATOM    110  C   UNL A   1      39.606  25.729  28.004  1.00  0.00     0.198 A 
ATOM    111  F   UNL A   1      38.833  26.357  30.134  1.00  0.00    -0.203 F 
ATOM    112  F   UNL A   1      41.740  27.475  25.653  1.00  0.00    -0.200 F 
ATOM    113  C   UNL A   1      40.343  26.005  26.861  1.00  0.00     0.200 A 
ATOM    114  F   UNL A   1      38.937  24.573  28.105  1.00  0.00    -0.200 F 
ATOM    115  F   UNL A   1      40.369  25.125  25.852  1.00  0.00    -0.200 F 
ENDBRANCH  85 105
BRANCH  88 116
ATOM    116  C   UNL A   1      39.692  34.032  36.805  1.00  0.00     0.064 A 
ATOM    117  C   UNL A   1      40.392  35.242  36.896  1.00  0.00     0.173 A 
ATOM    118  C   UNL A   1      38.887  33.662  37.894  1.00  0.00     0.173 A 
ATOM    119  F   UNL A   1      41.191  35.631  35.890  1.00  0.00    -0.203 F 
ATOM    120  C   UNL A   1      40.317  36.034  38.039  1.00  0.00     0.198 A 
ATOM    121  C   UNL A   1      38.787  34.471  39.023  1.00  0.00     0.198 A 
ATOM    122  F   UNL A   1      38.192  32.516  37.857  1.00  0.00    -0.203 F 
ATOM    123  F   UNL A   1      41.043  37.158  38.122  1.00  0.00    -0.200 F 
ATOM    124  C   UNL A   1      39.510  35.652  39.100  1.00  0.00     0.200 A 
ATOM    125  F   UNL A   1      37.993  34.105  40.038  1.00  0.00    -0.200 F 
ATOM    126  F   UNL A   1      39.438  36.414  40.199  1.00  0.00    -0.200 F 
ENDBRANCH  88 116
BRANCH 103 127
ATOM    127  C   UNL A   1      43.816  28.645  35.198  1.00  0.00     0.064 A 
ATOM    128  C   UNL A   1      43.585  27.563  36.060  1.00  0.00     0.173 A 
ATOM    129  C   UNL A   1      45.145  29.047  34.992  1.00  0.00     0.173 A 
ATOM    130  F   UNL A   1      42.332  27.150  36.303  1.00  0.00    -0.203 F 
ATOM    131  C   UNL A   1      44.640  26.921  36.703  1.00  0.00     0.198 A 
ATOM    132  C   UNL A   1      46.200  28.383  35.611  1.00  0.00     0.198 A 
ATOM    133  F   UNL A   1      45.423  30.073  34.173  1.00  0.00    -0.203 F 
ATOM    134  F   UNL A   1      44.392  25.918  37.556  1.00  0.00    -0.200 F 
ATOM    135  C   UNL A   1      45.947  27.325  36.470  1.00  0.00     0.200 A 
ATOM    136  F   UNL A   1      47.463  28.763  35.371  1.00  0.00    -0.200 F 
ATOM    137  F   UNL A   1      46.962  26.695  37.077  1.00  0.00    -0.200 F 
ENDBRANCH 103 127
ENDBRANCH  68  71
ENDBRANCH  58  61
ENDBRANCH  54  57
ENDBRANCH  51  54
ENDBRANCH  48  51
ENDBRANCH  45  48
ENDBRANCH   1  45
TORSDOF 18
ENDMDL
MODEL 2
REMARK VINA RESULT:     -12.2      5.289     11.987
REMARK SMILES C[C@@H](C(=O)NCCCCCCNC(=O)c1ccc(-c2c3nc(c(-c4c(F)c(F)c(F)c(F)c4F)c4ccc([nH]4)c(-c4c(F)c(F)c(F)c(F)c4F)c4nc(c(-c5c(F)c(F)c(F)c(F)c5F)c5ccc2[nH]5)C=C4)C=C3)cc1)c1ccc(C[C@@H]2CCC[C@@H]2O)cc1Br
REMARK SMILES IDX 7 1 6 4 5 7 3 8 4 9 2 11 1 13 78 17 79 18 90 19 80 20 89 22
REMARK SMILES IDX 91 23 81 24 82 27 83 30 84 31 87 32 85 34 86 37 88 43 8 45
REMARK SMILES IDX 9 48 10 51 11 54 12 57 13 58 14 60 15 61 16 62 77 63 17 64
REMARK SMILES IDX 76 66 18 68 19 71 20 72 70 73 21 74 75 75 69 76 71 77 22 78
REMARK SMILES IDX 74 79 68 81 67 83 23 85 55 88 35 89 54 90 36 91 39 92 53 93
REMARK SMILES IDX 72 94 37 95 38 97 52 99 73 100 40 103 24 105 25 106 33 107
REMARK SMILES IDX 26 108 27 109 31 110 34 111 28 112 29 113 32 114 30 115
REMARK SMILES IDX 56 116 57 117 65 118 58 119 59 120 63 121 66 122 60 123
REMARK SMILES IDX 61 124 64 125 62 126 41 127 42 128 50 129 43 130 44 131
REMARK SMILES IDX 48 132 51 133 45 134 46 135 49 136 47 137
REMARK H PARENT 7 2 7 3 6 5 6 6 5 10 2 12 1 14 1 15 1 16 79 21 80 25 89 26
REMARK H PARENT 82 28 82 29 83 33 84 35 84 36 87 38 85 39 85 40 86 41 86 42
REMARK H PARENT 88 44 8 46 8 47 9 49 9 50 10 52 10 53 11 55 11 56 12 59 16 65
REMARK H PARENT 77 67 17 69 76 70 75 80 69 82 71 84 74 86 68 87 36 96 39 98
REMARK H PARENT 72 101 37 102 73 104
REMARK Flexibility Score: inf
ROOT
ATOM      1  C   UNL A   1      37.938  30.113  32.961  1.00  0.00    -0.036 C 
ATOM      2  H   UNL A   1      37.584  29.105  33.026  1.00  0.00     0.028 H 
ATOM      3  H   UNL A   1      38.532  30.282  32.087  1.00  0.00     0.028 H 
ENDROOT
BRANCH   1   4
ATOM      4  C   UNL A   1      38.835  30.389  34.170  1.00  0.00     0.017 C 
ATOM      5  H   UNL A   1      39.643  29.686  34.179  1.00  0.00     0.049 H 
ATOM      6  H   UNL A   1      39.221  31.384  34.101  1.00  0.00     0.049 H 
BRANCH   4   7
ATOM      7  N   UNL A   1      38.075  30.258  35.392  1.00  0.00    -0.356 N 
ATOM      8  C   UNL A   1      38.049  31.062  36.493  1.00  0.00     0.227 C 
ATOM      9  O   UNL A   1      37.479  30.612  37.490  1.00  0.00    -0.274 OA
ATOM     10  H   UNL A   1      37.487  29.471  35.436  1.00  0.00     0.163 HD
BRANCH   8  11
ATOM     11  C   UNL A   1      38.688  32.462  36.444  1.00  0.00     0.061 C 
ATOM     12  H   UNL A   1      39.689  32.351  36.082  1.00  0.00     0.045 H 
BRANCH  11  13
ATOM     13  C   UNL A   1      38.799  33.099  37.837  1.00  0.00    -0.049 C 
ATOM     14  H   UNL A   1      39.460  32.516  38.444  1.00  0.00     0.024 H 
ATOM     15  H   UNL A   1      37.832  33.131  38.293  1.00  0.00     0.024 H 
ATOM     16  H   UNL A   1      39.183  34.094  37.746  1.00  0.00     0.024 H 
ENDBRANCH  11  13
BRANCH  11  17
ATOM     17  C   UNL A   1      37.920  33.363  35.475  1.00  0.00    -0.022 A 
ATOM     18  C   UNL A   1      36.525  33.485  35.613  1.00  0.00    -0.057 A 
ATOM     19  C   UNL A   1      38.523  34.005  34.380  1.00  0.00     0.022 A 
ATOM     20  C   UNL A   1      35.762  34.220  34.708  1.00  0.00    -0.059 A 
ATOM     21  H   UNL A   1      36.054  33.019  36.405  1.00  0.00     0.063 H 
ATOM     22  C   UNL A   1      37.749  34.718  33.454  1.00  0.00    -0.044 A 
ATOM     23  Br  UNL A   1      40.395  33.930  34.048  1.00  0.00    -0.051 Br
ATOM     24  C   UNL A   1      36.357  34.808  33.593  1.00  0.00    -0.047 A 
ATOM     25  H   UNL A   1      34.748  34.330  34.864  1.00  0.00     0.063 H 
ATOM     26  H   UNL A   1      38.211  35.185  32.657  1.00  0.00     0.064 H 
BRANCH  24  27
ATOM     27  C   UNL A   1      35.518  35.485  32.540  1.00  0.00    -0.023 C 
ATOM     28  H   UNL A   1      35.427  34.804  31.720  1.00  0.00     0.032 H 
ATOM     29  H   UNL A   1      36.038  36.396  32.332  1.00  0.00     0.032 H 
BRANCH  27  30
ATOM     30  C   UNL A   1      34.088  35.936  32.925  1.00  0.00    -0.011 C 
ATOM     31  C   UNL A   1      32.951  35.066  32.373  1.00  0.00    -0.048 C 
ATOM     32  C   UNL A   1      33.658  37.344  32.503  1.00  0.00     0.057 C 
ATOM     33  H   UNL A   1      34.206  35.862  33.987  1.00  0.00     0.033 H 
ATOM     34  C   UNL A   1      32.390  35.799  31.149  1.00  0.00    -0.050 C 
ATOM     35  H   UNL A   1      32.188  34.945  33.112  1.00  0.00     0.027 H 
ATOM     36  H   UNL A   1      33.305  34.093  32.108  1.00  0.00     0.027 H 
ATOM     37  C   UNL A   1      33.062  37.169  31.113  1.00  0.00    -0.027 C 
ATOM     38  H   UNL A   1      32.954  37.750  33.199  1.00  0.00     0.060 H 
ATOM     39  H   UNL A   1      31.330  35.910  31.240  1.00  0.00     0.027 H 
ATOM     40  H   UNL A   1      32.583  35.252  30.251  1.00  0.00     0.027 H 
ATOM     41  H   UNL A   1      32.343  37.936  30.912  1.00  0.00     0.029 H 
ATOM     42  H   UNL A   1      33.802  37.237  30.344  1.00  0.00     0.029 H 
BRANCH  32  43
ATOM     43  O   UNL A   1      34.705  38.292  32.521  1.00  0.00    -0.393 OA
ATOM     44  H   UNL A   1      34.604  38.870  33.292  1.00  0.00     0.210 HD
ENDBRANCH  32  43
ENDBRANCH  27  30
ENDBRANCH  24  27
ENDBRANCH  11  17
ENDBRANCH   8  11
ENDBRANCH   4   7
ENDBRANCH   1   4
BRANCH   1  45
ATOM     45  C   UNL A   1      36.724  31.048  32.866  1.00  0.00    -0.052 C 
ATOM     46  H   UNL A   1      36.744  31.706  33.710  1.00  0.00     0.027 H 
ATOM     47  H   UNL A   1      35.861  30.417  32.841  1.00  0.00     0.027 H 
BRANCH  45  48
ATOM     48  C   UNL A   1      36.668  31.905  31.597  1.00  0.00    -0.052 C 
ATOM     49  H   UNL A   1      37.233  31.408  30.834  1.00  0.00     0.027 H 
ATOM     50  H   UNL A   1      37.066  32.862  31.859  1.00  0.00     0.027 H 
BRANCH  48  51
ATOM     51  C   UNL A   1      35.259  32.157  31.057  1.00  0.00    -0.036 C 
ATOM     52  H   UNL A   1      34.815  32.944  31.632  1.00  0.00     0.028 H 
ATOM     53  H   UNL A   1      34.728  31.231  31.142  1.00  0.00     0.028 H 
BRANCH  51  54
ATOM     54  C   UNL A   1      35.213  32.555  29.587  1.00  0.00     0.018 C 
ATOM     55  H   UNL A   1      36.211  32.564  29.200  1.00  0.00     0.049 H 
ATOM     56  H   UNL A   1      34.762  33.523  29.519  1.00  0.00     0.049 H 
BRANCH  54  57
ATOM     57  N   UNL A   1      34.413  31.630  28.797  1.00  0.00    -0.352 N 
ATOM     58  C   UNL A   1      34.803  30.495  28.135  1.00  0.00     0.251 C 
ATOM     59  H   UNL A   1      33.456  31.851  28.729  1.00  0.00     0.163 HD
ATOM     60  O   UNL A   1      34.043  29.943  27.342  1.00  0.00    -0.269 OA
BRANCH  58  61
ATOM     61  C   UNL A   1      36.155  29.946  28.360  1.00  0.00     0.039 A 
ATOM     62  C   UNL A   1      37.153  30.190  27.414  1.00  0.00    -0.049 A 
ATOM     63  C   UNL A   1      36.438  29.204  29.511  1.00  0.00    -0.049 A 
ATOM     64  C   UNL A   1      38.456  29.749  27.657  1.00  0.00    -0.053 A 
ATOM     65  H   UNL A   1      36.928  30.692  26.542  1.00  0.00     0.063 H 
ATOM     66  C   UNL A   1      37.750  28.829  29.784  1.00  0.00    -0.053 A 
ATOM     67  H   UNL A   1      35.678  28.934  30.154  1.00  0.00     0.063 H 
ATOM     68  C   UNL A   1      38.773  29.103  28.863  1.00  0.00    -0.014 A 
ATOM     69  H   UNL A   1      39.189  29.900  26.946  1.00  0.00     0.063 H 
ATOM     70  H   UNL A   1      37.972  28.347  30.670  1.00  0.00     0.063 H 
BRANCH  68  71
ATOM     71  C   UNL A   1      40.171  28.730  29.194  1.00  0.00     0.031 A 
ATOM     72  C   UNL A   1      41.058  29.694  29.930  1.00  0.00     0.074 A 
ATOM     73  C   UNL A   1      40.666  27.555  28.756  1.00  0.00     0.049 A 
ATOM     74  N   UNL A   1      42.331  29.592  30.222  1.00  0.00    -0.248 NA
ATOM     75  C   UNL A   1      40.440  30.953  30.375  1.00  0.00    -0.034 C 
ATOM     76  C   UNL A   1      39.917  26.556  27.991  1.00  0.00    -0.036 A 
ATOM     77  N   UNL A   1      41.921  27.011  28.871  1.00  0.00    -0.354 N 
ATOM     78  C   UNL A   1      42.667  30.775  30.864  1.00  0.00     0.074 A 
ATOM     79  C   UNL A   1      41.480  31.601  30.882  1.00  0.00    -0.034 C 
ATOM     80  H   UNL A   1      39.456  31.254  30.309  1.00  0.00     0.065 H 
ATOM     81  C   UNL A   1      40.722  25.517  27.717  1.00  0.00    -0.036 A 
ATOM     82  H   UNL A   1      38.928  26.637  27.709  1.00  0.00     0.065 H 
ATOM     83  C   UNL A   1      42.055  25.796  28.242  1.00  0.00     0.049 A 
ATOM     84  H   UNL A   1      42.656  27.449  29.358  1.00  0.00     0.167 HD
ATOM     85  C   UNL A   1      43.857  31.132  31.404  1.00  0.00     0.037 A 
ATOM     86  H   UNL A   1      41.446  32.567  31.244  1.00  0.00     0.065 H 
ATOM     87  H   UNL A   1      40.443  24.659  27.216  1.00  0.00     0.065 H 
ATOM     88  C   UNL A   1      43.134  25.006  28.087  1.00  0.00     0.037 A 
ATOM     89  C   UNL A   1      45.027  30.293  31.407  1.00  0.00     0.049 A 
ATOM     90  C   UNL A   1      44.449  25.437  28.682  1.00  0.00     0.074 A 
ATOM     91  C   UNL A   1      46.253  30.528  32.005  1.00  0.00    -0.036 A 
ATOM     92  N   UNL A   1      45.121  29.063  30.773  1.00  0.00    -0.354 N 
ATOM     93  N   UNL A   1      44.733  26.519  29.366  1.00  0.00    -0.248 NA
ATOM     94  C   UNL A   1      45.594  24.537  28.485  1.00  0.00    -0.034 C 
ATOM     95  C   UNL A   1      47.108  29.472  31.678  1.00  0.00    -0.036 A 
ATOM     96  H   UNL A   1      46.494  31.343  32.590  1.00  0.00     0.065 H 
ATOM     97  C   UNL A   1      46.396  28.547  30.931  1.00  0.00     0.049 A 
ATOM     98  H   UNL A   1      44.388  28.622  30.285  1.00  0.00     0.167 HD
ATOM     99  C   UNL A   1      46.076  26.418  29.702  1.00  0.00     0.074 A 
ATOM    100  C   UNL A   1      46.548  25.159  29.164  1.00  0.00    -0.034 C 
ATOM    101  H   UNL A   1      45.643  23.651  27.957  1.00  0.00     0.065 H 
ATOM    102  H   UNL A   1      48.101  29.394  31.947  1.00  0.00     0.065 H 
ATOM    103  C   UNL A   1      46.850  27.290  30.393  1.00  0.00     0.037 A 
ATOM    104  H   UNL A   1      47.505  24.794  29.291  1.00  0.00     0.065 H 
BRANCH  85 105
ATOM    105  C   UNL A   1      43.964  32.491  32.035  1.00  0.00     0.064 A 
ATOM    106  C   UNL A   1      43.851  32.673  33.420  1.00  0.00     0.173 A 
ATOM    107  C   UNL A   1      44.246  33.616  31.246  1.00  0.00     0.173 A 
ATOM    108  F   UNL A   1      43.573  31.633  34.220  1.00  0.00    -0.203 F 
ATOM    109  C   UNL A   1      43.991  33.937  33.990  1.00  0.00     0.198 A 
ATOM    110  C   UNL A   1      44.417  34.872  31.822  1.00  0.00     0.198 A 
ATOM    111  F   UNL A   1      44.372  33.497  29.915  1.00  0.00    -0.203 F 
ATOM    112  F   UNL A   1      43.836  34.095  35.313  1.00  0.00    -0.200 F 
ATOM    113  C   UNL A   1      44.283  35.033  33.193  1.00  0.00     0.200 A 
ATOM    114  F   UNL A   1      44.716  35.926  31.050  1.00  0.00    -0.200 F 
ATOM    115  F   UNL A   1      44.433  36.245  33.744  1.00  0.00    -0.200 F 
ENDBRANCH  85 105
BRANCH  88 116
ATOM    116  C   UNL A   1      43.025  23.730  27.330  1.00  0.00     0.064 A 
ATOM    117  C   UNL A   1      42.529  22.569  27.937  1.00  0.00     0.173 A 
ATOM    118  C   UNL A   1      43.434  23.640  25.991  1.00  0.00     0.173 A 
ATOM    119  F   UNL A   1      42.144  22.598  29.222  1.00  0.00    -0.203 F 
ATOM    120  C   UNL A   1      42.472  21.361  27.245  1.00  0.00     0.198 A 
ATOM    121  C   UNL A   1      43.346  22.440  25.289  1.00  0.00     0.198 A 
ATOM    122  F   UNL A   1      43.913  24.723  25.360  1.00  0.00    -0.203 F 
ATOM    123  F   UNL A   1      42.047  20.253  27.869  1.00  0.00    -0.200 F 
ATOM    124  C   UNL A   1      42.876  21.299  25.920  1.00  0.00     0.200 A 
ATOM    125  F   UNL A   1      43.722  22.389  24.004  1.00  0.00    -0.200 F 
ATOM    126  F   UNL A   1      42.821  20.137  25.254  1.00  0.00    -0.200 F 
ENDBRANCH  88 116
BRANCH 103 127
ATOM    127  C   UNL A   1      48.282  26.906  30.630  1.00  0.00     0.064 A 
ATOM    128  C   UNL A   1      48.654  26.064  31.688  1.00  0.00     0.173 A 
ATOM    129  C   UNL A   1      49.288  27.341  29.753  1.00  0.00     0.173 A 
ATOM    130  F   UNL A   1      47.733  25.634  32.564  1.00  0.00    -0.203 F 
ATOM    131  C   UNL A   1      49.982  25.688  31.871  1.00  0.00     0.198 A 
ATOM    132  C   UNL A   1      50.609  26.936  29.919  1.00  0.00     0.198 A 
ATOM    133  F   UNL A   1      48.986  28.143  28.721  1.00  0.00    -0.203 F 
ATOM    134  F   UNL A   1      50.320  24.917  32.914  1.00  0.00    -0.200 F 
ATOM    135  C   UNL A   1      50.956  26.115  30.981  1.00  0.00     0.200 A 
ATOM    136  F   UNL A   1      51.546  27.337  29.048  1.00  0.00    -0.200 F 
ATOM    137  F   UNL A   1      52.231  25.738  31.150  1.00  0.00    -0.200 F 
ENDBRANCH 103 127
ENDBRANCH  68  71
ENDBRANCH  58  61
ENDBRANCH  54  57
ENDBRANCH  51  54
ENDBRANCH  48  51
ENDBRANCH  45  48
ENDBRANCH   1  45
TORSDOF 18
ENDMDL
MODEL 3
REMARK VINA RESULT:     -12.1      3.899      9.489
REMARK SMILES C[C@@H](C(=O)NCCCCCCNC(=O)c1ccc(-c2c3nc(c(-c4c(F)c(F)c(F)c(F)c4F)c4ccc([nH]4)c(-c4c(F)c(F)c(F)c(F)c4F)c4nc(c(-c5c(F)c(F)c(F)c(F)c5F)c5ccc2[nH]5)C=C4)C=C3)cc1)c1ccc(C[C@@H]2CCC[C@@H]2O)cc1Br
REMARK SMILES IDX 7 1 6 4 5 7 3 8 4 9 2 11 1 13 78 17 79 18 90 19 80 20 89 22
REMARK SMILES IDX 91 23 81 24 82 27 83 30 84 31 87 32 85 34 86 37 88 43 8 45
REMARK SMILES IDX 9 48 10 51 11 54 12 57 13 58 14 60 15 61 16 62 77 63 17 64
REMARK SMILES IDX 76 66 18 68 19 71 20 72 70 73 21 74 75 75 69 76 71 77 22 78
REMARK SMILES IDX 74 79 68 81 67 83 23 85 55 88 35 89 54 90 36 91 39 92 53 93
REMARK SMILES IDX 72 94 37 95 38 97 52 99 73 100 40 103 24 105 25 106 33 107
REMARK SMILES IDX 26 108 27 109 31 110 34 111 28 112 29 113 32 114 30 115
REMARK SMILES IDX 56 116 57 117 65 118 58 119 59 120 63 121 66 122 60 123
REMARK SMILES IDX 61 124 64 125 62 126 41 127 42 128 50 129 43 130 44 131
REMARK SMILES IDX 48 132 51 133 45 134 46 135 49 136 47 137
REMARK H PARENT 7 2 7 3 6 5 6 6 5 10 2 12 1 14 1 15 1 16 79 21 80 25 89 26
REMARK H PARENT 82 28 82 29 83 33 84 35 84 36 87 38 85 39 85 40 86 41 86 42
REMARK H PARENT 88 44 8 46 8 47 9 49 9 50 10 52 10 53 11 55 11 56 12 59 16 65
REMARK H PARENT 77 67 17 69 76 70 75 80 69 82 71 84 74 86 68 87 36 96 39 98
REMARK H PARENT 72 101 37 102 73 104
REMARK Flexibility Score: inf
ROOT
ATOM      1  C   UNL A   1      34.024  25.032  26.068  1.00  0.00    -0.036 C 
ATOM      2  H   UNL A   1      34.219  25.048  27.120  1.00  0.00     0.028 H 
ATOM      3  H   UNL A   1      33.001  24.810  25.845  1.00  0.00     0.028 H 
ENDROOT
BRANCH   1   4
ATOM      4  C   UNL A   1      34.869  23.923  25.437  1.00  0.00     0.017 C 
ATOM      5  H   UNL A   1      35.886  24.029  25.754  1.00  0.00     0.049 H 
ATOM      6  H   UNL A   1      34.490  22.972  25.748  1.00  0.00     0.049 H 
BRANCH   4   7
ATOM      7  N   UNL A   1      34.806  24.010  23.996  1.00  0.00    -0.356 N 
ATOM      8  C   UNL A   1      33.886  23.495  23.131  1.00  0.00     0.227 C 
ATOM      9  O   UNL A   1      34.179  23.528  21.933  1.00  0.00    -0.274 OA
ATOM     10  H   UNL A   1      35.536  24.517  23.576  1.00  0.00     0.163 HD
BRANCH   8  11
ATOM     11  C   UNL A   1      32.552  22.937  23.661  1.00  0.00     0.061 C 
ATOM     12  H   UNL A   1      32.728  22.553  24.645  1.00  0.00     0.045 H 
BRANCH  11  13
ATOM     13  C   UNL A   1      32.042  21.758  22.820  1.00  0.00    -0.049 C 
ATOM     14  H   UNL A   1      32.140  21.992  21.781  1.00  0.00     0.024 H 
ATOM     15  H   UNL A   1      31.013  21.575  23.049  1.00  0.00     0.024 H 
ATOM     16  H   UNL A   1      32.618  20.884  23.043  1.00  0.00     0.024 H 
ENDBRANCH  11  13
BRANCH  11  17
ATOM     17  C   UNL A   1      31.510  24.052  23.756  1.00  0.00    -0.022 A 
ATOM     18  C   UNL A   1      31.406  24.983  22.705  1.00  0.00    -0.057 A 
ATOM     19  C   UNL A   1      30.709  24.261  24.892  1.00  0.00     0.022 A 
ATOM     20  C   UNL A   1      30.536  26.069  22.776  1.00  0.00    -0.059 A 
ATOM     21  H   UNL A   1      31.987  24.858  21.862  1.00  0.00     0.063 H 
ATOM     22  C   UNL A   1      29.858  25.372  24.971  1.00  0.00    -0.044 A 
ATOM     23  Br  UNL A   1      30.738  23.100  26.398  1.00  0.00    -0.051 Br
ATOM     24  C   UNL A   1      29.785  26.304  23.926  1.00  0.00    -0.047 A 
ATOM     25  H   UNL A   1      30.448  26.708  21.969  1.00  0.00     0.063 H 
ATOM     26  H   UNL A   1      29.275  25.507  25.813  1.00  0.00     0.064 H 
BRANCH  24  27
ATOM     27  C   UNL A   1      28.950  27.551  24.061  1.00  0.00    -0.023 C 
ATOM     28  H   UNL A   1      29.277  28.059  24.944  1.00  0.00     0.032 H 
ATOM     29  H   UNL A   1      27.942  27.195  24.075  1.00  0.00     0.032 H 
BRANCH  27  30
ATOM     30  C   UNL A   1      28.980  28.577  22.901  1.00  0.00    -0.011 C 
ATOM     31  C   UNL A   1      30.007  29.707  23.047  1.00  0.00    -0.048 C 
ATOM     32  C   UNL A   1      27.688  29.345  22.610  1.00  0.00     0.057 C 
ATOM     33  H   UNL A   1      29.214  27.886  22.117  1.00  0.00     0.033 H 
ATOM     34  C   UNL A   1      29.241  30.938  23.546  1.00  0.00    -0.050 C 
ATOM     35  H   UNL A   1      30.463  29.915  22.103  1.00  0.00     0.027 H 
ATOM     36  H   UNL A   1      30.783  29.436  23.732  1.00  0.00     0.027 H 
ATOM     37  C   UNL A   1      27.758  30.579  23.498  1.00  0.00    -0.027 C 
ATOM     38  H   UNL A   1      27.622  29.595  21.571  1.00  0.00     0.060 H 
ATOM     39  H   UNL A   1      29.438  31.777  22.912  1.00  0.00     0.027 H 
ATOM     40  H   UNL A   1      29.541  31.203  24.538  1.00  0.00     0.027 H 
ATOM     41  H   UNL A   1      27.189  31.381  23.075  1.00  0.00     0.029 H 
ATOM     42  H   UNL A   1      27.353  30.400  24.471  1.00  0.00     0.029 H 
BRANCH  32  43
ATOM     43  O   UNL A   1      26.513  28.593  22.830  1.00  0.00    -0.393 OA
ATOM     44  H   UNL A   1      25.901  29.103  23.383  1.00  0.00     0.210 HD
ENDBRANCH  32  43
ENDBRANCH  27  30
ENDBRANCH  24  27
ENDBRANCH  11  17
ENDBRANCH   8  11
ENDBRANCH   4   7
ENDBRANCH   1   4
BRANCH   1  45
ATOM     45  C   UNL A   1      34.314  26.429  25.500  1.00  0.00    -0.052 C 
ATOM     46  H   UNL A   1      34.899  26.312  24.612  1.00  0.00     0.027 H 
ATOM     47  H   UNL A   1      34.821  26.967  26.273  1.00  0.00     0.027 H 
BRANCH  45  48
ATOM     48  C   UNL A   1      33.071  27.252  25.147  1.00  0.00    -0.052 C 
ATOM     49  H   UNL A   1      32.270  26.572  24.940  1.00  0.00     0.027 H 
ATOM     50  H   UNL A   1      33.338  27.856  24.305  1.00  0.00     0.027 H 
BRANCH  48  51
ATOM     51  C   UNL A   1      32.609  28.215  26.241  1.00  0.00    -0.036 C 
ATOM     52  H   UNL A   1      31.792  27.762  26.764  1.00  0.00     0.028 H 
ATOM     53  H   UNL A   1      32.334  29.126  25.753  1.00  0.00     0.028 H 
BRANCH  51  54
ATOM     54  C   UNL A   1      33.687  28.571  27.258  1.00  0.00     0.018 C 
ATOM     55  H   UNL A   1      34.644  28.325  26.848  1.00  0.00     0.049 H 
ATOM     56  H   UNL A   1      33.495  28.017  28.153  1.00  0.00     0.049 H 
BRANCH  54  57
ATOM     57  N   UNL A   1      33.671  29.987  27.595  1.00  0.00    -0.352 N 
ATOM     58  C   UNL A   1      34.614  30.732  28.254  1.00  0.00     0.251 C 
ATOM     59  H   UNL A   1      32.868  30.480  27.309  1.00  0.00     0.163 HD
ATOM     60  O   UNL A   1      34.353  31.868  28.642  1.00  0.00    -0.269 OA
BRANCH  58  61
ATOM     61  C   UNL A   1      35.947  30.153  28.518  1.00  0.00     0.039 A 
ATOM     62  C   UNL A   1      36.917  30.196  27.514  1.00  0.00    -0.049 A 
ATOM     63  C   UNL A   1      36.242  29.583  29.760  1.00  0.00    -0.049 A 
ATOM     64  C   UNL A   1      38.206  29.730  27.779  1.00  0.00    -0.053 A 
ATOM     65  H   UNL A   1      36.681  30.569  26.581  1.00  0.00     0.063 H 
ATOM     66  C   UNL A   1      37.545  29.187  30.045  1.00  0.00    -0.053 A 
ATOM     67  H   UNL A   1      35.497  29.455  30.462  1.00  0.00     0.063 H 
ATOM     68  C   UNL A   1      38.542  29.261  29.060  1.00  0.00    -0.014 A 
ATOM     69  H   UNL A   1      38.916  29.731  27.030  1.00  0.00     0.063 H 
ATOM     70  H   UNL A   1      37.780  28.836  30.988  1.00  0.00     0.063 H 
BRANCH  68  71
ATOM     71  C   UNL A   1      39.933  28.870  29.399  1.00  0.00     0.031 A 
ATOM     72  C   UNL A   1      40.817  29.812  30.166  1.00  0.00     0.074 A 
ATOM     73  C   UNL A   1      40.424  27.702  28.941  1.00  0.00     0.049 A 
ATOM     74  N   UNL A   1      42.086  29.694  30.471  1.00  0.00    -0.248 NA
ATOM     75  C   UNL A   1      40.204  31.065  30.631  1.00  0.00    -0.034 C 
ATOM     76  C   UNL A   1      39.677  26.725  28.146  1.00  0.00    -0.036 A 
ATOM     77  N   UNL A   1      41.674  27.146  29.060  1.00  0.00    -0.354 N 
ATOM     78  C   UNL A   1      42.424  30.860  31.143  1.00  0.00     0.074 A 
ATOM     79  C   UNL A   1      41.242  31.694  31.165  1.00  0.00    -0.034 C 
ATOM     80  H   UNL A   1      39.222  31.375  30.561  1.00  0.00     0.065 H 
ATOM     81  C   UNL A   1      40.477  25.687  27.858  1.00  0.00    -0.036 A 
ATOM     82  H   UNL A   1      38.692  26.820  27.854  1.00  0.00     0.065 H 
ATOM     83  C   UNL A   1      41.806  25.944  28.406  1.00  0.00     0.049 A 
ATOM     84  H   UNL A   1      42.405  27.567  29.565  1.00  0.00     0.167 HD
ATOM     85  C   UNL A   1      43.609  31.196  31.704  1.00  0.00     0.037 A 
ATOM     86  H   UNL A   1      41.211  32.652  31.547  1.00  0.00     0.065 H 
ATOM     87  H   UNL A   1      40.198  24.842  27.336  1.00  0.00     0.065 H 
ATOM     88  C   UNL A   1      42.881  25.150  28.246  1.00  0.00     0.037 A 
ATOM     89  C   UNL A   1      44.773  30.348  31.704  1.00  0.00     0.049 A 
ATOM     90  C   UNL A   1      44.192  25.557  28.866  1.00  0.00     0.074 A 
ATOM     91  C   UNL A   1      45.994  30.561  32.320  1.00  0.00    -0.036 A 
ATOM     92  N   UNL A   1      44.865  29.131  31.044  1.00  0.00    -0.354 N 
ATOM     93  N   UNL A   1      44.475  26.622  29.577  1.00  0.00    -0.248 NA
ATOM     94  C   UNL A   1      45.333  24.653  28.663  1.00  0.00    -0.034 C 
ATOM     95  C   UNL A   1      46.845  29.505  31.980  1.00  0.00    -0.036 A 
ATOM     96  H   UNL A   1      46.234  31.360  32.926  1.00  0.00     0.065 H 
ATOM     97  C   UNL A   1      46.135  28.603  31.205  1.00  0.00     0.049 A 
ATOM     98  H   UNL A   1      44.135  28.706  30.538  1.00  0.00     0.167 HD
ATOM     99  C   UNL A   1      45.814  26.503  29.926  1.00  0.00     0.074 A 
ATOM    100  C   UNL A   1      46.283  25.253  29.366  1.00  0.00    -0.034 C 
ATOM    101  H   UNL A   1      45.382  23.778  28.116  1.00  0.00     0.065 H 
ATOM    102  H   UNL A   1      47.834  29.414  32.260  1.00  0.00     0.065 H 
ATOM    103  C   UNL A   1      46.586  27.354  30.645  1.00  0.00     0.037 A 
ATOM    104  H   UNL A   1      47.235  24.878  29.496  1.00  0.00     0.065 H 
BRANCH  85 105
ATOM    105  C   UNL A   1      43.719  32.539  32.367  1.00  0.00     0.064 A 
ATOM    106  C   UNL A   1      43.429  32.719  33.726  1.00  0.00     0.173 A 
ATOM    107  C   UNL A   1      44.181  33.649  31.642  1.00  0.00     0.173 A 
ATOM    108  F   UNL A   1      42.977  31.694  34.463  1.00  0.00    -0.203 F 
ATOM    109  C   UNL A   1      43.574  33.967  34.331  1.00  0.00     0.198 A 
ATOM    110  C   UNL A   1      44.354  34.886  32.256  1.00  0.00     0.198 A 
ATOM    111  F   UNL A   1      44.479  33.530  30.338  1.00  0.00    -0.203 F 
ATOM    112  F   UNL A   1      43.250  34.125  35.622  1.00  0.00    -0.200 F 
ATOM    113  C   UNL A   1      44.044  35.045  33.599  1.00  0.00     0.200 A 
ATOM    114  F   UNL A   1      44.825  35.923  31.550  1.00  0.00    -0.200 F 
ATOM    115  F   UNL A   1      44.197  36.241  34.184  1.00  0.00    -0.200 F 
ENDBRANCH  85 105
BRANCH  88 116
ATOM    116  C   UNL A   1      42.772  23.891  27.460  1.00  0.00     0.064 A 
ATOM    117  C   UNL A   1      42.318  22.705  28.052  1.00  0.00     0.173 A 
ATOM    118  C   UNL A   1      43.139  23.843  26.106  1.00  0.00     0.173 A 
ATOM    119  F   UNL A   1      41.974  22.694  29.349  1.00  0.00    -0.203 F 
ATOM    120  C   UNL A   1      42.261  21.515  27.331  1.00  0.00     0.198 A 
ATOM    121  C   UNL A   1      43.051  22.660  25.377  1.00  0.00     0.198 A 
ATOM    122  F   UNL A   1      43.576  24.950  25.489  1.00  0.00    -0.203 F 
ATOM    123  F   UNL A   1      41.878  20.383  27.939  1.00  0.00    -0.200 F 
ATOM    124  C   UNL A   1      42.623  21.493  25.992  1.00  0.00     0.200 A 
ATOM    125  F   UNL A   1      43.385  22.648  24.079  1.00  0.00    -0.200 F 
ATOM    126  F   UNL A   1      42.568  20.348  25.299  1.00  0.00    -0.200 F 
ENDBRANCH  88 116
BRANCH 103 127
ATOM    127  C   UNL A   1      48.012  26.954  30.891  1.00  0.00     0.064 A 
ATOM    128  C   UNL A   1      49.060  27.429  30.089  1.00  0.00     0.173 A 
ATOM    129  C   UNL A   1      48.341  26.132  31.980  1.00  0.00     0.173 A 
ATOM    130  F   UNL A   1      48.796  28.205  29.026  1.00  0.00    -0.203 F 
ATOM    131  C   UNL A   1      50.381  27.079  30.354  1.00  0.00     0.198 A 
ATOM    132  C   UNL A   1      49.665  25.811  32.262  1.00  0.00     0.198 A 
ATOM    133  F   UNL A   1      47.378  25.656  32.784  1.00  0.00    -0.203 F 
ATOM    134  F   UNL A   1      51.361  27.509  29.547  1.00  0.00    -0.200 F 
ATOM    135  C   UNL A   1      50.683  26.280  31.446  1.00  0.00     0.200 A 
ATOM    136  F   UNL A   1      49.957  25.052  33.328  1.00  0.00    -0.200 F 
ATOM    137  F   UNL A   1      51.957  25.957  31.709  1.00  0.00    -0.200 F 
ENDBRANCH 103 127
ENDBRANCH  68  71
ENDBRANCH  58  61
ENDBRANCH  54  57
ENDBRANCH  51  54
ENDBRANCH  48  51
ENDBRANCH  45  48
ENDBRANCH   1  45
TORSDOF 18
ENDMDL
MODEL 4
REMARK VINA RESULT:     -11.9      4.924     11.207
REMARK SMILES C[C@@H](C(=O)NCCCCCCNC(=O)c1ccc(-c2c3nc(c(-c4c(F)c(F)c(F)c(F)c4F)c4ccc([nH]4)c(-c4c(F)c(F)c(F)c(F)c4F)c4nc(c(-c5c(F)c(F)c(F)c(F)c5F)c5ccc2[nH]5)C=C4)C=C3)cc1)c1ccc(C[C@@H]2CCC[C@@H]2O)cc1Br
REMARK SMILES IDX 7 1 6 4 5 7 3 8 4 9 2 11 1 13 78 17 79 18 90 19 80 20 89 22
REMARK SMILES IDX 91 23 81 24 82 27 83 30 84 31 87 32 85 34 86 37 88 43 8 45
REMARK SMILES IDX 9 48 10 51 11 54 12 57 13 58 14 60 15 61 16 62 77 63 17 64
REMARK SMILES IDX 76 66 18 68 19 71 20 72 70 73 21 74 75 75 69 76 71 77 22 78
REMARK SMILES IDX 74 79 68 81 67 83 23 85 55 88 35 89 54 90 36 91 39 92 53 93
REMARK SMILES IDX 72 94 37 95 38 97 52 99 73 100 40 103 24 105 25 106 33 107
REMARK SMILES IDX 26 108 27 109 31 110 34 111 28 112 29 113 32 114 30 115
REMARK SMILES IDX 56 116 57 117 65 118 58 119 59 120 63 121 66 122 60 123
REMARK SMILES IDX 61 124 64 125 62 126 41 127 42 128 50 129 43 130 44 131
REMARK SMILES IDX 48 132 51 133 45 134 46 135 49 136 47 137
REMARK H PARENT 7 2 7 3 6 5 6 6 5 10 2 12 1 14 1 15 1 16 79 21 80 25 89 26
REMARK H PARENT 82 28 82 29 83 33 84 35 84 36 87 38 85 39 85 40 86 41 86 42
REMARK H PARENT 88 44 8 46 8 47 9 49 9 50 10 52 10 53 11 55 11 56 12 59 16 65
REMARK H PARENT 77 67 17 69 76 70 75 80 69 82 71 84 74 86 68 87 36 96 39 98
REMARK H PARENT 72 101 37 102 73 104
REMARK Flexibility Score: inf
ROOT
ATOM      1  C   UNL A   1      38.346  34.026  29.848  1.00  0.00    -0.036 C 
ATOM      2  H   UNL A   1      39.214  33.402  29.790  1.00  0.00     0.028 H 
ATOM      3  H   UNL A   1      38.466  34.943  29.309  1.00  0.00     0.028 H 
ENDROOT
BRANCH   1   4
ATOM      4  C   UNL A   1      38.114  34.396  31.314  1.00  0.00     0.017 C 
ATOM      5  H   UNL A   1      37.541  35.300  31.364  1.00  0.00     0.049 H 
ATOM      6  H   UNL A   1      37.583  33.603  31.797  1.00  0.00     0.049 H 
BRANCH   4   7
ATOM      7  N   UNL A   1      39.380  34.595  31.982  1.00  0.00    -0.356 N 
ATOM      8  C   UNL A   1      39.748  34.296  33.260  1.00  0.00     0.227 C 
ATOM      9  O   UNL A   1      40.820  34.765  33.649  1.00  0.00    -0.274 OA
ATOM     10  H   UNL A   1      40.082  35.010  31.432  1.00  0.00     0.163 HD
BRANCH   8  11
ATOM     11  C   UNL A   1      38.856  33.392  34.131  1.00  0.00     0.061 C 
ATOM     12  H   UNL A   1      37.872  33.403  33.710  1.00  0.00     0.045 H 
BRANCH  11  13
ATOM     13  C   UNL A   1      38.720  33.920  35.567  1.00  0.00    -0.049 C 
ATOM     14  H   UNL A   1      38.989  33.149  36.257  1.00  0.00     0.024 H 
ATOM     15  H   UNL A   1      37.708  34.219  35.742  1.00  0.00     0.024 H 
ATOM     16  H   UNL A   1      39.369  34.761  35.701  1.00  0.00     0.024 H 
ENDBRANCH  11  13
BRANCH  11  17
ATOM     17  C   UNL A   1      39.374  31.953  34.109  1.00  0.00    -0.022 A 
ATOM     18  C   UNL A   1      40.676  31.687  34.574  1.00  0.00    -0.057 A 
ATOM     19  C   UNL A   1      38.652  30.884  33.552  1.00  0.00     0.022 A 
ATOM     20  C   UNL A   1      41.233  30.413  34.497  1.00  0.00    -0.059 A 
ATOM     21  H   UNL A   1      41.232  32.455  34.982  1.00  0.00     0.063 H 
ATOM     22  C   UNL A   1      39.228  29.609  33.449  1.00  0.00    -0.044 A 
ATOM     23  Br  UNL A   1      36.886  31.079  32.872  1.00  0.00    -0.051 Br
ATOM     24  C   UNL A   1      40.535  29.368  33.894  1.00  0.00    -0.047 A 
ATOM     25  H   UNL A   1      42.172  30.240  34.890  1.00  0.00     0.063 H 
ATOM     26  H   UNL A   1      38.681  28.836  33.038  1.00  0.00     0.064 H 
BRANCH  24  27
ATOM     27  C   UNL A   1      41.188  28.026  33.684  1.00  0.00    -0.023 C 
ATOM     28  H   UNL A   1      41.476  27.970  32.655  1.00  0.00     0.032 H 
ATOM     29  H   UNL A   1      40.448  27.320  33.999  1.00  0.00     0.032 H 
BRANCH  27  30
ATOM     30  C   UNL A   1      42.436  27.681  34.531  1.00  0.00    -0.011 C 
ATOM     31  C   UNL A   1      43.761  27.621  33.760  1.00  0.00    -0.048 C 
ATOM     32  C   UNL A   1      42.431  26.343  35.278  1.00  0.00     0.057 C 
ATOM     33  H   UNL A   1      42.372  28.509  35.207  1.00  0.00     0.033 H 
ATOM     34  C   UNL A   1      44.055  26.139  33.503  1.00  0.00    -0.050 C 
ATOM     35  H   UNL A   1      44.546  28.057  34.341  1.00  0.00     0.027 H 
ATOM     36  H   UNL A   1      43.695  28.164  32.841  1.00  0.00     0.027 H 
ATOM     37  C   UNL A   1      43.016  25.344  34.290  1.00  0.00    -0.027 C 
ATOM     38  H   UNL A   1      43.005  26.410  36.178  1.00  0.00     0.060 H 
ATOM     39  H   UNL A   1      45.040  25.895  33.842  1.00  0.00     0.027 H 
ATOM     40  H   UNL A   1      44.005  25.911  32.460  1.00  0.00     0.027 H 
ATOM     41  H   UNL A   1      43.477  24.529  34.807  1.00  0.00     0.029 H 
ATOM     42  H   UNL A   1      42.268  24.916  33.656  1.00  0.00     0.029 H 
BRANCH  32  43
ATOM     43  O   UNL A   1      41.156  25.953  35.743  1.00  0.00    -0.393 OA
ATOM     44  H   UNL A   1      41.055  26.217  36.670  1.00  0.00     0.210 HD
ENDBRANCH  32  43
ENDBRANCH  27  30
ENDBRANCH  24  27
ENDBRANCH  11  17
ENDBRANCH   8  11
ENDBRANCH   4   7
ENDBRANCH   1   4
BRANCH   1  45
ATOM     45  C   UNL A   1      37.169  33.280  29.204  1.00  0.00    -0.052 C 
ATOM     46  H   UNL A   1      37.519  32.323  28.878  1.00  0.00     0.027 H 
ATOM     47  H   UNL A   1      36.823  33.899  28.403  1.00  0.00     0.027 H 
BRANCH  45  48
ATOM     48  C   UNL A   1      35.966  33.056  30.126  1.00  0.00    -0.052 C 
ATOM     49  H   UNL A   1      35.939  33.856  30.838  1.00  0.00     0.027 H 
ATOM     50  H   UNL A   1      36.104  32.096  30.577  1.00  0.00     0.027 H 
BRANCH  48  51
ATOM     51  C   UNL A   1      34.613  33.008  29.413  1.00  0.00    -0.036 C 
ATOM     52  H   UNL A   1      34.206  33.998  29.400  1.00  0.00     0.028 H 
ATOM     53  H   UNL A   1      34.005  32.316  29.955  1.00  0.00     0.028 H 
BRANCH  51  54
ATOM     54  C   UNL A   1      34.681  32.500  27.977  1.00  0.00     0.018 C 
ATOM     55  H   UNL A   1      35.708  32.398  27.694  1.00  0.00     0.049 H 
ATOM     56  H   UNL A   1      34.175  33.206  27.351  1.00  0.00     0.049 H 
BRANCH  54  57
ATOM     57  N   UNL A   1      34.021  31.212  27.824  1.00  0.00    -0.352 N 
ATOM     58  C   UNL A   1      34.568  29.955  27.815  1.00  0.00     0.251 C 
ATOM     59  H   UNL A   1      33.044  31.248  27.711  1.00  0.00     0.163 HD
ATOM     60  O   UNL A   1      33.898  28.986  27.465  1.00  0.00    -0.269 OA
BRANCH  58  61
ATOM     61  C   UNL A   1      35.979  29.769  28.207  1.00  0.00     0.039 A 
ATOM     62  C   UNL A   1      36.272  29.328  29.500  1.00  0.00    -0.049 A 
ATOM     63  C   UNL A   1      37.009  30.016  27.295  1.00  0.00    -0.049 A 
ATOM     64  C   UNL A   1      37.596  29.067  29.856  1.00  0.00    -0.053 A 
ATOM     65  H   UNL A   1      35.514  29.197  30.187  1.00  0.00     0.063 H 
ATOM     66  C   UNL A   1      38.319  29.687  27.628  1.00  0.00    -0.053 A 
ATOM     67  H   UNL A   1      36.800  30.443  26.379  1.00  0.00     0.063 H 
ATOM     68  C   UNL A   1      38.626  29.203  28.910  1.00  0.00    -0.014 A 
ATOM     69  H   UNL A   1      37.820  28.771  30.819  1.00  0.00     0.063 H 
ATOM     70  H   UNL A   1      39.070  29.798  26.928  1.00  0.00     0.063 H 
BRANCH  68  71
ATOM     71  C   UNL A   1      40.024  28.821  29.230  1.00  0.00     0.031 A 
ATOM     72  C   UNL A   1      40.928  29.786  29.942  1.00  0.00     0.074 A 
ATOM     73  C   UNL A   1      40.503  27.636  28.802  1.00  0.00     0.049 A 
ATOM     74  N   UNL A   1      42.203  29.676  30.221  1.00  0.00    -0.248 NA
ATOM     75  C   UNL A   1      40.328  31.057  30.377  1.00  0.00    -0.034 C 
ATOM     76  C   UNL A   1      39.736  26.634  28.060  1.00  0.00    -0.036 A 
ATOM     77  N   UNL A   1      41.754  27.081  28.911  1.00  0.00    -0.354 N 
ATOM     78  C   UNL A   1      42.558  30.864  30.843  1.00  0.00     0.074 A 
ATOM     79  C   UNL A   1      41.379  31.702  30.864  1.00  0.00    -0.034 C 
ATOM     80  H   UNL A   1      39.345  31.367  30.318  1.00  0.00     0.065 H 
ATOM     81  C   UNL A   1      40.527  25.583  27.790  1.00  0.00    -0.036 A 
ATOM     82  H   UNL A   1      38.743  26.720  27.788  1.00  0.00     0.065 H 
ATOM     83  C   UNL A   1      41.869  25.856  28.297  1.00  0.00     0.049 A 
ATOM     84  H   UNL A   1      42.498  27.518  29.384  1.00  0.00     0.167 HD
ATOM     85  C   UNL A   1      43.757  31.217  31.365  1.00  0.00     0.037 A 
ATOM     86  H   UNL A   1      41.358  32.673  31.212  1.00  0.00     0.065 H 
ATOM     87  H   UNL A   1      40.234  24.722  27.304  1.00  0.00     0.065 H 
ATOM     88  C   UNL A   1      42.939  25.054  28.141  1.00  0.00     0.037 A 
ATOM     89  C   UNL A   1      44.919  30.367  31.367  1.00  0.00     0.049 A 
ATOM     90  C   UNL A   1      44.264  25.480  28.715  1.00  0.00     0.074 A 
ATOM     91  C   UNL A   1      46.154  30.598  31.947  1.00  0.00    -0.036 A 
ATOM     92  N   UNL A   1      44.994  29.127  30.748  1.00  0.00    -0.354 N 
ATOM     93  N   UNL A   1      44.566  26.568  29.381  1.00  0.00    -0.248 NA
ATOM     94  C   UNL A   1      45.398  24.566  28.517  1.00  0.00    -0.034 C 
ATOM     95  C   UNL A   1      46.996  29.529  31.625  1.00  0.00    -0.036 A 
ATOM     96  H   UNL A   1      46.410  31.418  32.518  1.00  0.00     0.065 H 
ATOM     97  C   UNL A   1      46.266  28.601  30.898  1.00  0.00     0.049 A 
ATOM     98  H   UNL A   1      44.252  28.686  30.275  1.00  0.00     0.167 HD
ATOM     99  C   UNL A   1      45.912  26.459  29.702  1.00  0.00     0.074 A 
ATOM    100  C   UNL A   1      46.365  25.189  29.176  1.00  0.00    -0.034 C 
ATOM    101  H   UNL A   1      45.433  23.673  28.001  1.00  0.00     0.065 H 
ATOM    102  H   UNL A   1      47.991  29.445  31.884  1.00  0.00     0.065 H 
ATOM    103  C   UNL A   1      46.702  27.333  30.373  1.00  0.00     0.037 A 
ATOM    104  H   UNL A   1      47.320  24.816  29.297  1.00  0.00     0.065 H 
BRANCH  85 105
ATOM    105  C   UNL A   1      43.885  32.583  31.977  1.00  0.00     0.064 A 
ATOM    106  C   UNL A   1      43.967  32.767  33.364  1.00  0.00     0.173 A 
ATOM    107  C   UNL A   1      43.988  33.717  31.156  1.00  0.00     0.173 A 
ATOM    108  F   UNL A   1      43.865  31.718  34.193  1.00  0.00    -0.203 F 
ATOM    109  C   UNL A   1      44.123  34.040  33.910  1.00  0.00     0.198 A 
ATOM    110  C   UNL A   1      44.175  34.984  31.704  1.00  0.00     0.198 A 
ATOM    111  F   UNL A   1      43.922  33.597  29.822  1.00  0.00    -0.203 F 
ATOM    112  F   UNL A   1      44.156  34.197  35.240  1.00  0.00    -0.200 F 
ATOM    113  C   UNL A   1      44.237  35.144  33.080  1.00  0.00     0.200 A 
ATOM    114  F   UNL A   1      44.302  36.047  30.899  1.00  0.00    -0.200 F 
ATOM    115  F   UNL A   1      44.402  36.366  33.605  1.00  0.00    -0.200 F 
ENDBRANCH  85 105
BRANCH  88 116
ATOM    116  C   UNL A   1      42.809  23.769  27.402  1.00  0.00     0.064 A 
ATOM    117  C   UNL A   1      42.330  22.615  28.037  1.00  0.00     0.173 A 
ATOM    118  C   UNL A   1      43.179  23.663  26.053  1.00  0.00     0.173 A 
ATOM    119  F   UNL A   1      41.981  22.659  29.331  1.00  0.00    -0.203 F 
ATOM    120  C   UNL A   1      42.254  21.400  27.361  1.00  0.00     0.198 A 
ATOM    121  C   UNL A   1      43.072  22.455  25.368  1.00  0.00     0.198 A 
ATOM    122  F   UNL A   1      43.640  24.738  25.396  1.00  0.00    -0.203 F 
ATOM    123  F   UNL A   1      41.847  20.299  28.010  1.00  0.00    -0.200 F 
ATOM    124  C   UNL A   1      42.620  21.321  26.025  1.00  0.00     0.200 A 
ATOM    125  F   UNL A   1      43.411  22.388  24.074  1.00  0.00    -0.200 F 
ATOM    126  F   UNL A   1      42.547  20.151  25.376  1.00  0.00    -0.200 F 
ENDBRANCH  88 116
BRANCH 103 127
ATOM    127  C   UNL A   1      48.133  26.938  30.599  1.00  0.00     0.064 A 
ATOM    128  C   UNL A   1      48.507  26.098  31.658  1.00  0.00     0.173 A 
ATOM    129  C   UNL A   1      49.134  27.360  29.711  1.00  0.00     0.173 A 
ATOM    130  F   UNL A   1      47.591  25.681  32.544  1.00  0.00    -0.203 F 
ATOM    131  C   UNL A   1      49.834  25.712  31.831  1.00  0.00     0.198 A 
ATOM    132  C   UNL A   1      50.453  26.945  29.867  1.00  0.00     0.198 A 
ATOM    133  F   UNL A   1      48.829  28.159  28.677  1.00  0.00    -0.203 F 
ATOM    134  F   UNL A   1      50.175  24.945  32.875  1.00  0.00    -0.200 F 
ATOM    135  C   UNL A   1      50.803  26.127  30.930  1.00  0.00     0.200 A 
ATOM    136  F   UNL A   1      51.386  27.333  28.985  1.00  0.00    -0.200 F 
ATOM    137  F   UNL A   1      52.076  25.740  31.089  1.00  0.00    -0.200 F 
ENDBRANCH 103 127
ENDBRANCH  68  71
ENDBRANCH  58  61
ENDBRANCH  54  57
ENDBRANCH  51  54
ENDBRANCH  48  51
ENDBRANCH  45  48
ENDBRANCH   1  45
TORSDOF 18
ENDMDL
MODEL 5
REMARK VINA RESULT:     -11.7      4.958     10.653
REMARK SMILES C[C@@H](C(=O)NCCCCCCNC(=O)c1ccc(-c2c3nc(c(-c4c(F)c(F)c(F)c(F)c4F)c4ccc([nH]4)c(-c4c(F)c(F)c(F)c(F)c4F)c4nc(c(-c5c(F)c(F)c(F)c(F)c5F)c5ccc2[nH]5)C=C4)C=C3)cc1)c1ccc(C[C@@H]2CCC[C@@H]2O)cc1Br
REMARK SMILES IDX 7 1 6 4 5 7 3 8 4 9 2 11 1 13 78 17 79 18 90 19 80 20 89 22
REMARK SMILES IDX 91 23 81 24 82 27 83 30 84 31 87 32 85 34 86 37 88 43 8 45
REMARK SMILES IDX 9 48 10 51 11 54 12 57 13 58 14 60 15 61 16 62 77 63 17 64
REMARK SMILES IDX 76 66 18 68 19 71 20 72 70 73 21 74 75 75 69 76 71 77 22 78
REMARK SMILES IDX 74 79 68 81 67 83 23 85 55 88 35 89 54 90 36 91 39 92 53 93
REMARK SMILES IDX 72 94 37 95 38 97 52 99 73 100 40 103 24 105 25 106 33 107
REMARK SMILES IDX 26 108 27 109 31 110 34 111 28 112 29 113 32 114 30 115
REMARK SMILES IDX 56 116 57 117 65 118 58 119 59 120 63 121 66 122 60 123
REMARK SMILES IDX 61 124 64 125 62 126 41 127 42 128 50 129 43 130 44 131
REMARK SMILES IDX 48 132 51 133 45 134 46 135 49 136 47 137
REMARK H PARENT 7 2 7 3 6 5 6 6 5 10 2 12 1 14 1 15 1 16 79 21 80 25 89 26
REMARK H PARENT 82 28 82 29 83 33 84 35 84 36 87 38 85 39 85 40 86 41 86 42
REMARK H PARENT 88 44 8 46 8 47 9 49 9 50 10 52 10 53 11 55 11 56 12 59 16 65
REMARK H PARENT 77 67 17 69 76 70 75 80 69 82 71 84 74 86 68 87 36 96 39 98
REMARK H PARENT 72 101 37 102 73 104
REMARK Flexibility Score: inf
ROOT
ATOM      1  C   UNL A   1      33.186  20.591  25.515  1.00  0.00    -0.036 C 
ATOM      2  H   UNL A   1      32.902  19.564  25.605  1.00  0.00     0.028 H 
ATOM      3  H   UNL A   1      33.428  21.033  26.459  1.00  0.00     0.028 H 
ENDROOT
BRANCH   1   4
ATOM      4  C   UNL A   1      31.998  21.373  24.948  1.00  0.00     0.017 C 
ATOM      5  H   UNL A   1      32.330  21.973  24.125  1.00  0.00     0.049 H 
ATOM      6  H   UNL A   1      31.250  20.684  24.617  1.00  0.00     0.049 H 
BRANCH   4   7
ATOM      7  N   UNL A   1      31.436  22.229  25.967  1.00  0.00    -0.356 N 
ATOM      8  C   UNL A   1      31.751  23.514  26.299  1.00  0.00     0.227 C 
ATOM      9  O   UNL A   1      31.272  23.944  27.351  1.00  0.00    -0.274 OA
ATOM     10  H   UNL A   1      30.718  21.824  26.504  1.00  0.00     0.163 HD
BRANCH   8  11
ATOM     11  C   UNL A   1      32.641  24.357  25.367  1.00  0.00     0.061 C 
ATOM     12  H   UNL A   1      33.013  23.711  24.599  1.00  0.00     0.045 H 
BRANCH  11  13
ATOM     13  C   UNL A   1      33.870  24.923  26.093  1.00  0.00    -0.049 C 
ATOM     14  H   UNL A   1      34.446  25.513  25.412  1.00  0.00     0.024 H 
ATOM     15  H   UNL A   1      34.469  24.117  26.461  1.00  0.00     0.024 H 
ATOM     16  H   UNL A   1      33.552  25.534  26.912  1.00  0.00     0.024 H 
ENDBRANCH  11  13
BRANCH  11  17
ATOM     17  C   UNL A   1      31.819  25.466  24.708  1.00  0.00    -0.022 A 
ATOM     18  C   UNL A   1      30.955  26.242  25.503  1.00  0.00    -0.057 A 
ATOM     19  C   UNL A   1      31.802  25.691  23.321  1.00  0.00     0.022 A 
ATOM     20  C   UNL A   1      30.118  27.207  24.946  1.00  0.00    -0.059 A 
ATOM     21  H   UNL A   1      30.941  26.094  26.524  1.00  0.00     0.063 H 
ATOM     22  C   UNL A   1      30.937  26.641  22.761  1.00  0.00    -0.044 A 
ATOM     23  Br  UNL A   1      32.903  24.721  22.109  1.00  0.00    -0.051 Br
ATOM     24  C   UNL A   1      30.064  27.387  23.565  1.00  0.00    -0.047 A 
ATOM     25  H   UNL A   1      29.531  27.792  25.561  1.00  0.00     0.063 H 
ATOM     26  H   UNL A   1      30.941  26.793  21.739  1.00  0.00     0.064 H 
BRANCH  24  27
ATOM     27  C   UNL A   1      29.062  28.329  22.949  1.00  0.00    -0.023 C 
ATOM     28  H   UNL A   1      28.256  28.435  23.645  1.00  0.00     0.032 H 
ATOM     29  H   UNL A   1      28.812  27.875  22.014  1.00  0.00     0.032 H 
BRANCH  27  30
ATOM     30  C   UNL A   1      29.536  29.754  22.572  1.00  0.00    -0.011 C 
ATOM     31  C   UNL A   1      29.884  30.668  23.754  1.00  0.00    -0.048 C 
ATOM     32  C   UNL A   1      28.571  30.623  21.759  1.00  0.00     0.057 C 
ATOM     33  H   UNL A   1      30.387  29.462  21.992  1.00  0.00     0.033 H 
ATOM     34  C   UNL A   1      28.678  31.590  23.969  1.00  0.00    -0.050 C 
ATOM     35  H   UNL A   1      30.754  31.246  23.529  1.00  0.00     0.027 H 
ATOM     36  H   UNL A   1      30.091  30.096  24.634  1.00  0.00     0.027 H 
ATOM     37  C   UNL A   1      27.728  31.346  22.800  1.00  0.00    -0.027 C 
ATOM     38  H   UNL A   1      29.110  31.300  21.130  1.00  0.00     0.060 H 
ATOM     39  H   UNL A   1      28.994  32.612  23.981  1.00  0.00     0.027 H 
ATOM     40  H   UNL A   1      28.199  31.386  24.903  1.00  0.00     0.027 H 
ATOM     41  H   UNL A   1      27.363  32.274  22.410  1.00  0.00     0.029 H 
ATOM     42  H   UNL A   1      26.867  30.779  23.089  1.00  0.00     0.029 H 
BRANCH  32  43
ATOM     43  O   UNL A   1      27.781  29.896  20.841  1.00  0.00    -0.393 OA
ATOM     44  H   UNL A   1      27.310  30.513  20.261  1.00  0.00     0.210 HD
ENDBRANCH  32  43
ENDBRANCH  27  30
ENDBRANCH  24  27
ENDBRANCH  11  17
ENDBRANCH   8  11
ENDBRANCH   4   7
ENDBRANCH   1   4
BRANCH   1  45
ATOM     45  C   UNL A   1      34.449  20.671  24.646  1.00  0.00    -0.052 C 
ATOM     46  H   UNL A   1      34.329  20.000  23.820  1.00  0.00     0.027 H 
ATOM     47  H   UNL A   1      35.269  20.413  25.284  1.00  0.00     0.027 H 
BRANCH  45  48
ATOM     48  C   UNL A   1      34.761  22.063  24.087  1.00  0.00    -0.052 C 
ATOM     49  H   UNL A   1      34.135  22.771  24.589  1.00  0.00     0.027 H 
ATOM     50  H   UNL A   1      34.580  22.013  23.034  1.00  0.00     0.027 H 
BRANCH  48  51
ATOM     51  C   UNL A   1      36.215  22.509  24.255  1.00  0.00    -0.036 C 
ATOM     52  H   UNL A   1      36.289  23.533  23.952  1.00  0.00     0.028 H 
ATOM     53  H   UNL A   1      36.808  21.854  23.652  1.00  0.00     0.028 H 
BRANCH  51  54
ATOM     54  C   UNL A   1      36.745  22.392  25.680  1.00  0.00     0.018 C 
ATOM     55  H   UNL A   1      35.923  22.209  26.340  1.00  0.00     0.049 H 
ATOM     56  H   UNL A   1      37.243  23.307  25.924  1.00  0.00     0.049 H 
BRANCH  54  57
ATOM     57  N   UNL A   1      37.706  21.307  25.816  1.00  0.00    -0.352 N 
ATOM     58  C   UNL A   1      39.034  21.364  26.152  1.00  0.00     0.251 C 
ATOM     59  H   UNL A   1      37.353  20.406  25.640  1.00  0.00     0.163 HD
ATOM     60  O   UNL A   1      39.754  20.378  26.016  1.00  0.00    -0.269 OA
BRANCH  58  61
ATOM     61  C   UNL A   1      39.606  22.627  26.659  1.00  0.00     0.039 A 
ATOM     62  C   UNL A   1      40.597  22.577  27.642  1.00  0.00    -0.049 A 
ATOM     63  C   UNL A   1      39.173  23.857  26.154  1.00  0.00    -0.049 A 
ATOM     64  C   UNL A   1      41.206  23.759  28.068  1.00  0.00    -0.053 A 
ATOM     65  H   UNL A   1      40.877  21.672  28.050  1.00  0.00     0.063 H 
ATOM     66  C   UNL A   1      39.831  25.025  26.527  1.00  0.00    -0.053 A 
ATOM     67  H   UNL A   1      38.370  23.899  25.509  1.00  0.00     0.063 H 
ATOM     68  C   UNL A   1      40.858  24.988  27.484  1.00  0.00    -0.014 A 
ATOM     69  H   UNL A   1      41.916  23.729  28.816  1.00  0.00     0.063 H 
ATOM     70  H   UNL A   1      39.562  25.925  26.098  1.00  0.00     0.063 H 
BRANCH  68  71
ATOM     71  C   UNL A   1      41.572  26.241  27.836  1.00  0.00     0.031 A 
ATOM     72  C   UNL A   1      40.851  27.344  28.558  1.00  0.00     0.074 A 
ATOM     73  C   UNL A   1      42.845  26.416  27.430  1.00  0.00     0.049 A 
ATOM     74  N   UNL A   1      41.271  28.546  28.865  1.00  0.00    -0.248 NA
ATOM     75  C   UNL A   1      39.464  27.072  28.968  1.00  0.00    -0.034 C 
ATOM     76  C   UNL A   1      43.635  25.437  26.682  1.00  0.00    -0.036 A 
ATOM     77  N   UNL A   1      43.692  27.487  27.571  1.00  0.00    -0.354 N 
ATOM     78  C   UNL A   1      40.200  29.175  29.483  1.00  0.00     0.074 A 
ATOM     79  C   UNL A   1      39.095  28.242  29.470  1.00  0.00    -0.034 C 
ATOM     80  H   UNL A   1      38.921  26.198  28.886  1.00  0.00     0.065 H 
ATOM     81  C   UNL A   1      44.853  25.946  26.439  1.00  0.00    -0.036 A 
ATOM     82  H   UNL A   1      43.308  24.503  26.388  1.00  0.00     0.065 H 
ATOM     83  C   UNL A   1      44.915  27.304  26.971  1.00  0.00     0.049 A 
ATOM     84  H   UNL A   1      43.447  28.308  28.055  1.00  0.00     0.167 HD
ATOM     85  C   UNL A   1      40.150  30.414  30.026  1.00  0.00     0.037 A 
ATOM     86  H   UNL A   1      38.144  28.457  29.809  1.00  0.00     0.065 H 
ATOM     87  H   UNL A   1      45.622  25.457  25.956  1.00  0.00     0.065 H 
ATOM     88  C   UNL A   1      45.961  28.143  26.845  1.00  0.00     0.037 A 
ATOM     89  C   UNL A   1      41.262  31.328  30.060  1.00  0.00     0.049 A 
ATOM     90  C   UNL A   1      45.870  29.523  27.443  1.00  0.00     0.074 A 
ATOM     91  C   UNL A   1      41.337  32.571  30.664  1.00  0.00    -0.036 A 
ATOM     92  N   UNL A   1      42.490  31.102  29.456  1.00  0.00    -0.354 N 
ATOM     93  N   UNL A   1      44.882  30.074  28.104  1.00  0.00    -0.248 NA
ATOM     94  C   UNL A   1      47.040  30.396  27.278  1.00  0.00    -0.034 C 
ATOM     95  C   UNL A   1      42.587  33.125  30.370  1.00  0.00    -0.036 A 
ATOM     96  H   UNL A   1      40.599  33.013  31.233  1.00  0.00     0.065 H 
ATOM     97  C   UNL A   1      43.314  32.200  29.637  1.00  0.00     0.049 A 
ATOM     98  H   UNL A   1      42.739  30.282  28.971  1.00  0.00     0.167 HD
ATOM     99  C   UNL A   1      45.318  31.345  28.455  1.00  0.00     0.074 A 
ATOM    100  C   UNL A   1      46.669  31.476  27.951  1.00  0.00    -0.034 C 
ATOM    101  H   UNL A   1      47.921  30.217  26.771  1.00  0.00     0.065 H 
ATOM    102  H   UNL A   1      42.912  34.063  30.651  1.00  0.00     0.065 H 
ATOM    103  C   UNL A   1      44.659  32.315  29.133  1.00  0.00     0.037 A 
ATOM    104  H   UNL A   1      47.265  32.306  28.095  1.00  0.00     0.065 H 
BRANCH  85 105
ATOM    105  C   UNL A   1      38.850  30.867  30.627  1.00  0.00     0.064 A 
ATOM    106  C   UNL A   1      37.803  31.364  29.837  1.00  0.00     0.173 A 
ATOM    107  C   UNL A   1      38.629  30.744  32.007  1.00  0.00     0.173 A 
ATOM    108  F   UNL A   1      37.965  31.510  28.514  1.00  0.00    -0.203 F 
ATOM    109  C   UNL A   1      36.591  31.743  30.410  1.00  0.00     0.198 A 
ATOM    110  C   UNL A   1      37.405  31.094  32.573  1.00  0.00     0.198 A 
ATOM    111  F   UNL A   1      39.595  30.268  32.809  1.00  0.00    -0.203 F 
ATOM    112  F   UNL A   1      35.619  32.255  29.641  1.00  0.00    -0.200 F 
ATOM    113  C   UNL A   1      36.390  31.600  31.774  1.00  0.00     0.200 A 
ATOM    114  F   UNL A   1      37.208  30.939  33.889  1.00  0.00    -0.200 F 
ATOM    115  F   UNL A   1      35.219  31.951  32.322  1.00  0.00    -0.200 F 
ENDBRANCH  85 105
BRANCH  88 116
ATOM    116  C   UNL A   1      47.184  27.710  26.117  1.00  0.00     0.064 A 
ATOM    117  C   UNL A   1      47.266  27.803  24.721  1.00  0.00     0.173 A 
ATOM    118  C   UNL A   1      48.287  27.176  26.799  1.00  0.00     0.173 A 
ATOM    119  F   UNL A   1      46.229  28.289  24.021  1.00  0.00    -0.203 F 
ATOM    120  C   UNL A   1      48.390  27.353  24.033  1.00  0.00     0.198 A 
ATOM    121  C   UNL A   1      49.425  26.756  26.113  1.00  0.00     0.198 A 
ATOM    122  F   UNL A   1      48.264  27.068  28.136  1.00  0.00    -0.203 F 
ATOM    123  F   UNL A   1      48.417  27.401  22.693  1.00  0.00    -0.200 F 
ATOM    124  C   UNL A   1      49.471  26.835  24.729  1.00  0.00     0.200 A 
ATOM    125  F   UNL A   1      50.473  26.272  26.792  1.00  0.00    -0.200 F 
ATOM    126  F   UNL A   1      50.552  26.402  24.067  1.00  0.00    -0.200 F 
ENDBRANCH  88 116
BRANCH 103 127
ATOM    127  C   UNL A   1      45.394  33.598  29.394  1.00  0.00     0.064 A 
ATOM    128  C   UNL A   1      45.303  34.690  28.518  1.00  0.00     0.173 A 
ATOM    129  C   UNL A   1      46.152  33.757  30.564  1.00  0.00     0.173 A 
ATOM    130  F   UNL A   1      44.605  34.584  27.378  1.00  0.00    -0.203 F 
ATOM    131  C   UNL A   1      45.961  35.886  28.794  1.00  0.00     0.198 A 
ATOM    132  C   UNL A   1      46.780  34.965  30.854  1.00  0.00     0.198 A 
ATOM    133  F   UNL A   1      46.266  32.747  31.439  1.00  0.00    -0.203 F 
ATOM    134  F   UNL A   1      45.895  36.901  27.922  1.00  0.00    -0.200 F 
ATOM    135  C   UNL A   1      46.689  36.026  29.966  1.00  0.00     0.200 A 
ATOM    136  F   UNL A   1      47.470  35.103  31.995  1.00  0.00    -0.200 F 
ATOM    137  F   UNL A   1      47.307  37.183  30.238  1.00  0.00    -0.200 F 
ENDBRANCH 103 127
ENDBRANCH  68  71
ENDBRANCH  58  61
ENDBRANCH  54  57
ENDBRANCH  51  54
ENDBRANCH  48  51
ENDBRANCH  45  48
ENDBRANCH   1  45
TORSDOF 18
ENDMDL
MODEL 6
REMARK VINA RESULT:     -11.5      4.847      8.652
REMARK SMILES C[C@@H](C(=O)NCCCCCCNC(=O)c1ccc(-c2c3nc(c(-c4c(F)c(F)c(F)c(F)c4F)c4ccc([nH]4)c(-c4c(F)c(F)c(F)c(F)c4F)c4nc(c(-c5c(F)c(F)c(F)c(F)c5F)c5ccc2[nH]5)C=C4)C=C3)cc1)c1ccc(C[C@@H]2CCC[C@@H]2O)cc1Br
REMARK SMILES IDX 7 1 6 4 5 7 3 8 4 9 2 11 1 13 78 17 79 18 90 19 80 20 89 22
REMARK SMILES IDX 91 23 81 24 82 27 83 30 84 31 87 32 85 34 86 37 88 43 8 45
REMARK SMILES IDX 9 48 10 51 11 54 12 57 13 58 14 60 15 61 16 62 77 63 17 64
REMARK SMILES IDX 76 66 18 68 19 71 20 72 70 73 21 74 75 75 69 76 71 77 22 78
REMARK SMILES IDX 74 79 68 81 67 83 23 85 55 88 35 89 54 90 36 91 39 92 53 93
REMARK SMILES IDX 72 94 37 95 38 97 52 99 73 100 40 103 24 105 25 106 33 107
REMARK SMILES IDX 26 108 27 109 31 110 34 111 28 112 29 113 32 114 30 115
REMARK SMILES IDX 56 116 57 117 65 118 58 119 59 120 63 121 66 122 60 123
REMARK SMILES IDX 61 124 64 125 62 126 41 127 42 128 50 129 43 130 44 131
REMARK SMILES IDX 48 132 51 133 45 134 46 135 49 136 47 137
REMARK H PARENT 7 2 7 3 6 5 6 6 5 10 2 12 1 14 1 15 1 16 79 21 80 25 89 26
REMARK H PARENT 82 28 82 29 83 33 84 35 84 36 87 38 85 39 85 40 86 41 86 42
REMARK H PARENT 88 44 8 46 8 47 9 49 9 50 10 52 10 53 11 55 11 56 12 59 16 65
REMARK H PARENT 77 67 17 69 76 70 75 80 69 82 71 84 74 86 68 87 36 96 39 98
REMARK H PARENT 72 101 37 102 73 104
REMARK Flexibility Score: inf
ROOT
ATOM      1  C   UNL A   1      37.930  33.753  30.495  1.00  0.00    -0.036 C 
ATOM      2  H   UNL A   1      38.713  33.035  30.615  1.00  0.00     0.028 H 
ATOM      3  H   UNL A   1      38.249  34.619  29.952  1.00  0.00     0.028 H 
ENDROOT
BRANCH   1   4
ATOM      4  C   UNL A   1      37.496  34.232  31.883  1.00  0.00     0.017 C 
ATOM      5  H   UNL A   1      36.867  35.092  31.780  1.00  0.00     0.049 H 
ATOM      6  H   UNL A   1      36.961  33.447  32.373  1.00  0.00     0.049 H 
BRANCH   4   7
ATOM      7  N   UNL A   1      38.656  34.580  32.672  1.00  0.00    -0.356 N 
ATOM      8  C   UNL A   1      38.967  34.250  33.958  1.00  0.00     0.227 C 
ATOM      9  O   UNL A   1      39.913  34.854  34.468  1.00  0.00    -0.274 OA
ATOM     10  H   UNL A   1      39.321  35.140  32.213  1.00  0.00     0.163 HD
BRANCH   8  11
ATOM     11  C   UNL A   1      38.169  33.154  34.690  1.00  0.00     0.061 C 
ATOM     12  H   UNL A   1      37.199  33.102  34.241  1.00  0.00     0.045 H 
BRANCH  11  13
ATOM     13  C   UNL A   1      37.945  33.490  36.171  1.00  0.00    -0.049 C 
ATOM     14  H   UNL A   1      38.522  32.825  36.779  1.00  0.00     0.024 H 
ATOM     15  H   UNL A   1      36.908  33.381  36.409  1.00  0.00     0.024 H 
ATOM     16  H   UNL A   1      38.250  34.499  36.358  1.00  0.00     0.024 H 
ENDBRANCH  11  13
BRANCH  11  17
ATOM     17  C   UNL A   1      38.853  31.796  34.520  1.00  0.00    -0.022 A 
ATOM     18  C   UNL A   1      40.109  31.582  35.118  1.00  0.00    -0.057 A 
ATOM     19  C   UNL A   1      38.338  30.772  33.707  1.00  0.00     0.022 A 
ATOM     20  C   UNL A   1      40.818  30.398  34.926  1.00  0.00    -0.059 A 
ATOM     21  H   UNL A   1      40.514  32.320  35.716  1.00  0.00     0.063 H 
ATOM     22  C   UNL A   1      39.068  29.595  33.491  1.00  0.00    -0.044 A 
ATOM     23  Br  UNL A   1      36.660  30.908  32.820  1.00  0.00    -0.051 Br
ATOM     24  C   UNL A   1      40.329  29.409  34.075  1.00  0.00    -0.047 A 
ATOM     25  H   UNL A   1      41.714  30.253  35.417  1.00  0.00     0.063 H 
ATOM     26  H   UNL A   1      38.672  28.853  32.892  1.00  0.00     0.064 H 
BRANCH  24  27
ATOM     27  C   UNL A   1      41.157  28.190  33.755  1.00  0.00    -0.023 C 
ATOM     28  H   UNL A   1      41.662  28.382  32.831  1.00  0.00     0.032 H 
ATOM     29  H   UNL A   1      40.450  27.387  33.741  1.00  0.00     0.032 H 
BRANCH  27  30
ATOM     30  C   UNL A   1      42.226  27.745  34.782  1.00  0.00    -0.011 C 
ATOM     31  C   UNL A   1      43.676  27.782  34.282  1.00  0.00    -0.048 C 
ATOM     32  C   UNL A   1      42.111  26.326  35.345  1.00  0.00     0.057 C 
ATOM     33  H   UNL A   1      42.012  28.484  35.527  1.00  0.00     0.033 H 
ATOM     34  C   UNL A   1      44.051  26.343  33.910  1.00  0.00    -0.050 C 
ATOM     35  H   UNL A   1      44.323  28.144  35.052  1.00  0.00     0.027 H 
ATOM     36  H   UNL A   1      43.776  28.434  33.439  1.00  0.00     0.027 H 
ATOM     37  C   UNL A   1      42.901  25.456  34.378  1.00  0.00    -0.027 C 
ATOM     38  H   UNL A   1      42.499  26.281  36.341  1.00  0.00     0.060 H 
ATOM     39  H   UNL A   1      44.958  26.060  34.402  1.00  0.00     0.027 H 
ATOM     40  H   UNL A   1      44.209  26.246  32.857  1.00  0.00     0.027 H 
ATOM     41  H   UNL A   1      43.273  24.584  34.872  1.00  0.00     0.029 H 
ATOM     42  H   UNL A   1      42.300  25.109  33.563  1.00  0.00     0.029 H 
BRANCH  32  43
ATOM     43  O   UNL A   1      40.780  25.879  35.503  1.00  0.00    -0.393 OA
ATOM     44  H   UNL A   1      40.669  25.028  35.051  1.00  0.00     0.210 HD
ENDBRANCH  32  43
ENDBRANCH  27  30
ENDBRANCH  24  27
ENDBRANCH  11  17
ENDBRANCH   8  11
ENDBRANCH   4   7
ENDBRANCH   1   4
BRANCH   1  45
ATOM     45  C   UNL A   1      36.799  33.107  29.683  1.00  0.00    -0.052 C 
ATOM     46  H   UNL A   1      36.999  32.058  29.608  1.00  0.00     0.027 H 
ATOM     47  H   UNL A   1      36.788  33.604  28.735  1.00  0.00     0.027 H 
BRANCH  45  48
ATOM     48  C   UNL A   1      35.397  33.282  30.276  1.00  0.00    -0.052 C 
ATOM     49  H   UNL A   1      35.333  34.265  30.695  1.00  0.00     0.027 H 
ATOM     50  H   UNL A   1      35.276  32.507  31.002  1.00  0.00     0.027 H 
BRANCH  48  51
ATOM     51  C   UNL A   1      34.253  33.117  29.274  1.00  0.00    -0.036 C 
ATOM     52  H   UNL A   1      33.886  34.090  29.020  1.00  0.00     0.028 H 
ATOM     53  H   UNL A   1      33.515  32.506  29.749  1.00  0.00     0.028 H 
BRANCH  51  54
ATOM     54  C   UNL A   1      34.648  32.404  27.985  1.00  0.00     0.018 C 
ATOM     55  H   UNL A   1      35.713  32.303  27.958  1.00  0.00     0.049 H 
ATOM     56  H   UNL A   1      34.292  32.987  27.161  1.00  0.00     0.049 H 
BRANCH  54  57
ATOM     57  N   UNL A   1      34.049  31.081  27.890  1.00  0.00    -0.352 N 
ATOM     58  C   UNL A   1      34.656  29.852  27.905  1.00  0.00     0.251 C 
ATOM     59  H   UNL A   1      33.069  31.066  27.802  1.00  0.00     0.163 HD
ATOM     60  O   UNL A   1      34.026  28.841  27.604  1.00  0.00    -0.269 OA
BRANCH  58  61
ATOM     61  C   UNL A   1      36.084  29.748  28.266  1.00  0.00     0.039 A 
ATOM     62  C   UNL A   1      36.431  29.333  29.554  1.00  0.00    -0.049 A 
ATOM     63  C   UNL A   1      37.078  30.046  27.329  1.00  0.00    -0.049 A 
ATOM     64  C   UNL A   1      37.775  29.148  29.881  1.00  0.00    -0.053 A 
ATOM     65  H   UNL A   1      35.697  29.165  30.259  1.00  0.00     0.063 H 
ATOM     66  C   UNL A   1      38.412  29.791  27.634  1.00  0.00    -0.053 A 
ATOM     67  H   UNL A   1      36.824  30.453  26.416  1.00  0.00     0.063 H 
ATOM     68  C   UNL A   1      38.774  29.335  28.910  1.00  0.00    -0.014 A 
ATOM     69  H   UNL A   1      38.037  28.872  30.840  1.00  0.00     0.063 H 
ATOM     70  H   UNL A   1      39.139  29.940  26.916  1.00  0.00     0.063 H 
BRANCH  68  71
ATOM     71  C   UNL A   1      40.198  29.033  29.200  1.00  0.00     0.031 A 
ATOM     72  C   UNL A   1      40.818  27.759  28.700  1.00  0.00     0.074 A 
ATOM     73  C   UNL A   1      40.907  29.867  29.986  1.00  0.00     0.049 A 
ATOM     74  N   UNL A   1      42.012  27.272  28.932  1.00  0.00    -0.248 NA
ATOM     75  C   UNL A   1      39.977  26.904  27.848  1.00  0.00    -0.034 C 
ATOM     76  C   UNL A   1      40.401  31.111  30.570  1.00  0.00    -0.036 A 
ATOM     77  N   UNL A   1      42.198  29.786  30.447  1.00  0.00    -0.354 N 
ATOM     78  C   UNL A   1      42.057  26.051  28.273  1.00  0.00     0.074 A 
ATOM     79  C   UNL A   1      40.759  25.848  27.667  1.00  0.00    -0.034 C 
ATOM     80  H   UNL A   1      39.028  27.080  27.485  1.00  0.00     0.065 H 
ATOM     81  C   UNL A   1      41.372  31.682  31.300  1.00  0.00    -0.036 A 
ATOM     82  H   UNL A   1      39.450  31.489  30.440  1.00  0.00     0.065 H 
ATOM     83  C   UNL A   1      42.552  30.823  31.277  1.00  0.00     0.049 A 
ATOM     84  H   UNL A   1      42.811  29.056  30.206  1.00  0.00     0.167 HD
ATOM     85  C   UNL A   1      43.094  25.188  28.169  1.00  0.00     0.037 A 
ATOM     86  H   UNL A   1      40.478  24.994  27.161  1.00  0.00     0.065 H 
ATOM     87  H   UNL A   1      41.297  32.583  31.797  1.00  0.00     0.065 H 
ATOM     88  C   UNL A   1      43.691  31.046  31.960  1.00  0.00     0.037 A 
ATOM     89  C   UNL A   1      44.393  25.410  28.750  1.00  0.00     0.049 A 
ATOM     90  C   UNL A   1      44.822  30.058  31.841  1.00  0.00     0.074 A 
ATOM     91  C   UNL A   1      45.534  24.637  28.629  1.00  0.00    -0.036 A 
ATOM     92  N   UNL A   1      44.719  26.479  29.572  1.00  0.00    -0.354 N 
ATOM     93  N   UNL A   1      44.884  28.952  31.140  1.00  0.00    -0.248 NA
ATOM     94  C   UNL A   1      46.043  30.351  32.605  1.00  0.00    -0.034 C 
ATOM     95  C   UNL A   1      46.532  25.202  29.429  1.00  0.00    -0.036 A 
ATOM     96  H   UNL A   1      45.632  23.790  28.048  1.00  0.00     0.065 H 
ATOM     97  C   UNL A   1      46.032  26.362  29.998  1.00  0.00     0.049 A 
ATOM     98  H   UNL A   1      44.108  27.212  29.815  1.00  0.00     0.167 HD
ATOM     99  C   UNL A   1      46.152  28.431  31.359  1.00  0.00     0.074 A 
ATOM    100  C   UNL A   1      46.836  29.353  32.241  1.00  0.00    -0.034 C 
ATOM    101  H   UNL A   1      46.233  31.129  33.255  1.00  0.00     0.065 H 
ATOM    102  H   UNL A   1      47.479  24.820  29.571  1.00  0.00     0.065 H 
ATOM    103  C   UNL A   1      46.701  27.291  30.873  1.00  0.00     0.037 A 
ATOM    104  H   UNL A   1      47.815  29.246  32.549  1.00  0.00     0.065 H 
BRANCH  85 105
ATOM    105  C   UNL A   1      42.876  23.914  27.403  1.00  0.00     0.064 A 
ATOM    106  C   UNL A   1      43.216  23.798  26.048  1.00  0.00     0.173 A 
ATOM    107  C   UNL A   1      42.376  22.775  28.054  1.00  0.00     0.173 A 
ATOM    108  F   UNL A   1      43.690  24.858  25.377  1.00  0.00    -0.203 F 
ATOM    109  C   UNL A   1      43.041  22.596  25.365  1.00  0.00     0.198 A 
ATOM    110  C   UNL A   1      42.231  21.567  27.376  1.00  0.00     0.198 A 
ATOM    111  F   UNL A   1      42.041  22.829  29.352  1.00  0.00    -0.203 F 
ATOM    112  F   UNL A   1      43.333  22.521  24.059  1.00  0.00    -0.200 F 
ATOM    113  C   UNL A   1      42.558  21.481  26.031  1.00  0.00     0.200 A 
ATOM    114  F   UNL A   1      41.780  20.486  28.027  1.00  0.00    -0.200 F 
ATOM    115  F   UNL A   1      42.404  20.321  25.378  1.00  0.00    -0.200 F 
ENDBRANCH  85 105
BRANCH  88 116
ATOM    116  C   UNL A   1      43.822  32.249  32.825  1.00  0.00     0.064 A 
ATOM    117  C   UNL A   1      44.022  33.521  32.272  1.00  0.00     0.173 A 
ATOM    118  C   UNL A   1      43.769  32.149  34.224  1.00  0.00     0.173 A 
ATOM    119  F   UNL A   1      44.100  33.665  30.940  1.00  0.00    -0.203 F 
ATOM    120  C   UNL A   1      44.194  34.640  33.081  1.00  0.00     0.198 A 
ATOM    121  C   UNL A   1      43.908  33.275  35.033  1.00  0.00     0.198 A 
ATOM    122  F   UNL A   1      43.576  30.957  34.807  1.00  0.00    -0.203 F 
ATOM    123  F   UNL A   1      44.442  35.835  32.526  1.00  0.00    -0.200 F 
ATOM    124  C   UNL A   1      44.131  34.519  34.462  1.00  0.00     0.200 A 
ATOM    125  F   UNL A   1      43.831  33.154  36.365  1.00  0.00    -0.200 F 
ATOM    126  F   UNL A   1      44.297  35.596  35.240  1.00  0.00    -0.200 F 
ENDBRANCH  88 116
BRANCH 103 127
ATOM    127  C   UNL A   1      48.118  26.985  31.262  1.00  0.00     0.064 A 
ATOM    128  C   UNL A   1      48.421  26.171  32.363  1.00  0.00     0.173 A 
ATOM    129  C   UNL A   1      49.186  27.464  30.488  1.00  0.00     0.173 A 
ATOM    130  F   UNL A   1      47.437  25.701  33.145  1.00  0.00    -0.203 F 
ATOM    131  C   UNL A   1      49.740  25.866  32.688  1.00  0.00     0.198 A 
ATOM    132  C   UNL A   1      50.502  27.130  30.795  1.00  0.00     0.198 A 
ATOM    133  F   UNL A   1      48.952  28.241  29.420  1.00  0.00    -0.203 F 
ATOM    134  F   UNL A   1      50.007  25.122  33.770  1.00  0.00    -0.200 F 
ATOM    135  C   UNL A   1      50.778  26.336  31.898  1.00  0.00     0.200 A 
ATOM    136  F   UNL A   1      51.503  27.572  30.020  1.00  0.00    -0.200 F 
ATOM    137  F   UNL A   1      52.046  26.028  32.202  1.00  0.00    -0.200 F 
ENDBRANCH 103 127
ENDBRANCH  68  71
ENDBRANCH  58  61
ENDBRANCH  54  57
ENDBRANCH  51  54
ENDBRANCH  48  51
ENDBRANCH  45  48
ENDBRANCH   1  45
TORSDOF 18
ENDMDL
MODEL 7
REMARK VINA RESULT:     -11.4      1.909      7.772
REMARK SMILES C[C@@H](C(=O)NCCCCCCNC(=O)c1ccc(-c2c3nc(c(-c4c(F)c(F)c(F)c(F)c4F)c4ccc([nH]4)c(-c4c(F)c(F)c(F)c(F)c4F)c4nc(c(-c5c(F)c(F)c(F)c(F)c5F)c5ccc2[nH]5)C=C4)C=C3)cc1)c1ccc(C[C@@H]2CCC[C@@H]2O)cc1Br
REMARK SMILES IDX 7 1 6 4 5 7 3 8 4 9 2 11 1 13 78 17 79 18 90 19 80 20 89 22
REMARK SMILES IDX 91 23 81 24 82 27 83 30 84 31 87 32 85 34 86 37 88 43 8 45
REMARK SMILES IDX 9 48 10 51 11 54 12 57 13 58 14 60 15 61 16 62 77 63 17 64
REMARK SMILES IDX 76 66 18 68 19 71 20 72 70 73 21 74 75 75 69 76 71 77 22 78
REMARK SMILES IDX 74 79 68 81 67 83 23 85 55 88 35 89 54 90 36 91 39 92 53 93
REMARK SMILES IDX 72 94 37 95 38 97 52 99 73 100 40 103 24 105 25 106 33 107
REMARK SMILES IDX 26 108 27 109 31 110 34 111 28 112 29 113 32 114 30 115
REMARK SMILES IDX 56 116 57 117 65 118 58 119 59 120 63 121 66 122 60 123
REMARK SMILES IDX 61 124 64 125 62 126 41 127 42 128 50 129 43 130 44 131
REMARK SMILES IDX 48 132 51 133 45 134 46 135 49 136 47 137
REMARK H PARENT 7 2 7 3 6 5 6 6 5 10 2 12 1 14 1 15 1 16 79 21 80 25 89 26
REMARK H PARENT 82 28 82 29 83 33 84 35 84 36 87 38 85 39 85 40 86 41 86 42
REMARK H PARENT 88 44 8 46 8 47 9 49 9 50 10 52 10 53 11 55 11 56 12 59 16 65
REMARK H PARENT 77 67 17 69 76 70 75 80 69 82 71 84 74 86 68 87 36 96 39 98
REMARK H PARENT 72 101 37 102 73 104
REMARK Flexibility Score: inf
ROOT
ATOM      1  C   UNL A   1      34.183  31.650  27.628  1.00  0.00    -0.036 C 
ATOM      2  H   UNL A   1      33.114  31.678  27.646  1.00  0.00     0.028 H 
ATOM      3  H   UNL A   1      34.590  32.137  26.767  1.00  0.00     0.028 H 
ENDROOT
BRANCH   1   4
ATOM      4  C   UNL A   1      34.627  30.186  27.564  1.00  0.00     0.017 C 
ATOM      5  H   UNL A   1      34.900  29.943  26.558  1.00  0.00     0.049 H 
ATOM      6  H   UNL A   1      35.465  30.045  28.213  1.00  0.00     0.049 H 
BRANCH   4   7
ATOM      7  N   UNL A   1      33.549  29.322  27.989  1.00  0.00    -0.356 N 
ATOM      8  C   UNL A   1      32.581  28.707  27.251  1.00  0.00     0.227 C 
ATOM      9  O   UNL A   1      31.650  28.199  27.879  1.00  0.00    -0.274 OA
ATOM     10  H   UNL A   1      33.506  29.153  28.957  1.00  0.00     0.163 HD
BRANCH   8  11
ATOM     11  C   UNL A   1      32.699  28.649  25.716  1.00  0.00     0.061 C 
ATOM     12  H   UNL A   1      33.453  29.349  25.421  1.00  0.00     0.045 H 
BRANCH  11  13
ATOM     13  C   UNL A   1      31.403  29.088  25.018  1.00  0.00    -0.049 C 
ATOM     14  H   UNL A   1      30.825  28.224  24.764  1.00  0.00     0.024 H 
ATOM     15  H   UNL A   1      31.643  29.630  24.129  1.00  0.00     0.024 H 
ATOM     16  H   UNL A   1      30.837  29.714  25.676  1.00  0.00     0.024 H 
ENDBRANCH  11  13
BRANCH  11  17
ATOM     17  C   UNL A   1      33.133  27.253  25.269  1.00  0.00    -0.022 A 
ATOM     18  C   UNL A   1      33.147  26.206  26.210  1.00  0.00    -0.057 A 
ATOM     19  C   UNL A   1      33.619  26.975  23.980  1.00  0.00     0.022 A 
ATOM     20  C   UNL A   1      33.615  24.935  25.882  1.00  0.00    -0.059 A 
ATOM     21  H   UNL A   1      32.801  26.383  27.166  1.00  0.00     0.063 H 
ATOM     22  C   UNL A   1      34.118  25.703  23.663  1.00  0.00    -0.044 A 
ATOM     23  Br  UNL A   1      33.676  28.281  22.598  1.00  0.00    -0.051 Br
ATOM     24  C   UNL A   1      34.148  24.679  24.620  1.00  0.00    -0.047 A 
ATOM     25  H   UNL A   1      33.568  24.176  26.580  1.00  0.00     0.063 H 
ATOM     26  H   UNL A   1      34.469  25.518  22.710  1.00  0.00     0.064 H 
BRANCH  24  27
ATOM     27  C   UNL A   1      34.782  23.348  24.307  1.00  0.00    -0.023 C 
ATOM     28  H   UNL A   1      35.285  23.020  25.192  1.00  0.00     0.032 H 
ATOM     29  H   UNL A   1      35.407  23.545  23.461  1.00  0.00     0.032 H 
BRANCH  27  30
ATOM     30  C   UNL A   1      33.861  22.193  23.845  1.00  0.00    -0.011 C 
ATOM     31  C   UNL A   1      32.359  22.507  23.844  1.00  0.00    -0.048 C 
ATOM     32  C   UNL A   1      33.921  20.886  24.642  1.00  0.00     0.057 C 
ATOM     33  H   UNL A   1      34.274  22.075  22.865  1.00  0.00     0.033 H 
ATOM     34  C   UNL A   1      31.778  21.889  25.120  1.00  0.00    -0.050 C 
ATOM     35  H   UNL A   1      31.894  22.078  22.982  1.00  0.00     0.027 H 
ATOM     36  H   UNL A   1      32.187  23.562  23.816  1.00  0.00     0.027 H 
ATOM     37  C   UNL A   1      32.892  21.057  25.751  1.00  0.00    -0.027 C 
ATOM     38  H   UNL A   1      33.704  20.048  24.013  1.00  0.00     0.060 H 
ATOM     39  H   UNL A   1      30.942  21.265  24.880  1.00  0.00     0.027 H 
ATOM     40  H   UNL A   1      31.434  22.646  25.793  1.00  0.00     0.027 H 
ATOM     41  H   UNL A   1      32.518  20.106  26.069  1.00  0.00     0.029 H 
ATOM     42  H   UNL A   1      33.306  21.527  26.618  1.00  0.00     0.029 H 
BRANCH  32  43
ATOM     43  O   UNL A   1      35.205  20.581  25.146  1.00  0.00    -0.393 OA
ATOM     44  H   UNL A   1      35.879  20.929  24.543  1.00  0.00     0.210 HD
ENDBRANCH  32  43
ENDBRANCH  27  30
ENDBRANCH  24  27
ENDBRANCH  11  17
ENDBRANCH   8  11
ENDBRANCH   4   7
ENDBRANCH   1   4
BRANCH   1  45
ATOM     45  C   UNL A   1      34.709  32.402  28.859  1.00  0.00    -0.052 C 
ATOM     46  H   UNL A   1      35.467  31.802  29.317  1.00  0.00     0.027 H 
ATOM     47  H   UNL A   1      33.862  32.570  29.491  1.00  0.00     0.027 H 
BRANCH  45  48
ATOM     48  C   UNL A   1      35.307  33.782  28.565  1.00  0.00    -0.052 C 
ATOM     49  H   UNL A   1      35.645  33.789  27.549  1.00  0.00     0.027 H 
ATOM     50  H   UNL A   1      36.096  33.926  29.272  1.00  0.00     0.027 H 
BRANCH  48  51
ATOM     51  C   UNL A   1      34.339  34.951  28.753  1.00  0.00    -0.036 C 
ATOM     52  H   UNL A   1      34.146  35.385  27.793  1.00  0.00     0.028 H 
ATOM     53  H   UNL A   1      34.810  35.634  29.429  1.00  0.00     0.028 H 
BRANCH  51  54
ATOM     54  C   UNL A   1      33.004  34.566  29.380  1.00  0.00     0.018 C 
ATOM     55  H   UNL A   1      33.123  33.641  29.905  1.00  0.00     0.049 H 
ATOM     56  H   UNL A   1      32.283  34.475  28.594  1.00  0.00     0.049 H 
BRANCH  54  57
ATOM     57  N   UNL A   1      32.528  35.577  30.312  1.00  0.00    -0.352 N 
ATOM     58  C   UNL A   1      32.879  35.782  31.621  1.00  0.00     0.251 C 
ATOM     59  H   UNL A   1      31.859  36.202  29.951  1.00  0.00     0.163 HD
ATOM     60  O   UNL A   1      32.229  36.548  32.329  1.00  0.00    -0.269 OA
BRANCH  58  61
ATOM     61  C   UNL A   1      34.035  35.060  32.189  1.00  0.00     0.039 A 
ATOM     62  C   UNL A   1      33.831  33.810  32.779  1.00  0.00    -0.049 A 
ATOM     63  C   UNL A   1      35.319  35.609  32.126  1.00  0.00    -0.049 A 
ATOM     64  C   UNL A   1      34.926  33.078  33.242  1.00  0.00    -0.053 A 
ATOM     65  H   UNL A   1      32.876  33.431  32.872  1.00  0.00     0.063 H 
ATOM     66  C   UNL A   1      36.415  34.848  32.522  1.00  0.00    -0.053 A 
ATOM     67  H   UNL A   1      35.453  36.574  31.788  1.00  0.00     0.063 H 
ATOM     68  C   UNL A   1      36.230  33.573  33.079  1.00  0.00    -0.014 A 
ATOM     69  H   UNL A   1      34.776  32.169  33.707  1.00  0.00     0.063 H 
ATOM     70  H   UNL A   1      37.369  35.225  32.405  1.00  0.00     0.063 H 
BRANCH  68  71
ATOM     71  C   UNL A   1      37.416  32.764  33.457  1.00  0.00     0.031 A 
ATOM     72  C   UNL A   1      38.163  33.065  34.726  1.00  0.00     0.074 A 
ATOM     73  C   UNL A   1      37.869  31.815  32.614  1.00  0.00     0.049 A 
ATOM     74  N   UNL A   1      39.274  32.539  35.178  1.00  0.00    -0.248 NA
ATOM     75  C   UNL A   1      37.603  34.115  35.591  1.00  0.00    -0.034 C 
ATOM     76  C   UNL A   1      37.256  31.463  31.332  1.00  0.00    -0.036 A 
ATOM     77  N   UNL A   1      38.960  30.986  32.699  1.00  0.00    -0.354 N 
ATOM     78  C   UNL A   1      39.553  33.204  36.363  1.00  0.00     0.074 A 
ATOM     79  C   UNL A   1      38.522  34.203  36.542  1.00  0.00    -0.034 C 
ATOM     80  H   UNL A   1      36.724  34.645  35.485  1.00  0.00     0.065 H 
ATOM     81  C   UNL A   1      37.972  30.485  30.756  1.00  0.00    -0.036 A 
ATOM     82  H   UNL A   1      36.408  31.898  30.935  1.00  0.00     0.065 H 
ATOM     83  C   UNL A   1      39.120  30.173  31.602  1.00  0.00     0.049 A 
ATOM     84  H   UNL A   1      39.570  30.975  33.471  1.00  0.00     0.167 HD
ATOM     85  C   UNL A   1      40.570  32.989  37.231  1.00  0.00     0.037 A 
ATOM     86  H   UNL A   1      38.503  34.892  37.310  1.00  0.00     0.065 H 
ATOM     87  H   UNL A   1      37.747  30.026  29.859  1.00  0.00     0.065 H 
ATOM     88  C   UNL A   1      40.093  29.292  31.303  1.00  0.00     0.037 A 
ATOM     89  C   UNL A   1      41.577  31.974  37.061  1.00  0.00     0.049 A 
ATOM     90  C   UNL A   1      41.221  29.085  32.278  1.00  0.00     0.074 A 
ATOM     91  C   UNL A   1      42.597  31.619  37.926  1.00  0.00    -0.036 A 
ATOM     92  N   UNL A   1      41.698  31.159  35.944  1.00  0.00    -0.354 N 
ATOM     93  N   UNL A   1      41.425  29.658  33.440  1.00  0.00    -0.248 NA
ATOM     94  C   UNL A   1      42.255  28.111  31.902  1.00  0.00    -0.034 C 
ATOM     95  C   UNL A   1      43.374  30.636  37.307  1.00  0.00    -0.036 A 
ATOM     96  H   UNL A   1      42.756  32.013  38.866  1.00  0.00     0.065 H 
ATOM     97  C   UNL A   1      42.801  30.332  36.082  1.00  0.00     0.049 A 
ATOM     98  H   UNL A   1      41.090  31.167  35.170  1.00  0.00     0.167 HD
ATOM     99  C   UNL A   1      42.591  29.097  33.943  1.00  0.00     0.074 A 
ATOM    100  C   UNL A   1      43.040  28.124  32.970  1.00  0.00    -0.034 C 
ATOM    101  H   UNL A   1      42.346  27.560  31.034  1.00  0.00     0.065 H 
ATOM    102  H   UNL A   1      44.229  30.209  37.695  1.00  0.00     0.065 H 
ATOM    103  C   UNL A   1      43.233  29.364  35.106  1.00  0.00     0.037 A 
ATOM    104  H   UNL A   1      43.867  27.518  33.091  1.00  0.00     0.065 H 
BRANCH  85 105
ATOM    105  C   UNL A   1      40.656  33.867  38.446  1.00  0.00     0.064 A 
ATOM    106  C   UNL A   1      39.966  33.563  39.629  1.00  0.00     0.173 A 
ATOM    107  C   UNL A   1      41.490  34.996  38.445  1.00  0.00     0.173 A 
ATOM    108  F   UNL A   1      39.149  32.501  39.681  1.00  0.00    -0.203 F 
ATOM    109  C   UNL A   1      40.089  34.371  40.758  1.00  0.00     0.198 A 
ATOM    110  C   UNL A   1      41.635  35.782  39.585  1.00  0.00     0.198 A 
ATOM    111  F   UNL A   1      42.178  35.329  37.342  1.00  0.00    -0.203 F 
ATOM    112  F   UNL A   1      39.387  34.084  41.863  1.00  0.00    -0.200 F 
ATOM    113  C   UNL A   1      40.929  35.472  40.738  1.00  0.00     0.200 A 
ATOM    114  F   UNL A   1      42.461  36.837  39.568  1.00  0.00    -0.200 F 
ATOM    115  F   UNL A   1      41.059  36.240  41.829  1.00  0.00    -0.200 F 
ENDBRANCH  85 105
BRANCH  88 116
ATOM    116  C   UNL A   1      40.052  28.540  30.019  1.00  0.00     0.064 A 
ATOM    117  C   UNL A   1      39.440  27.281  29.937  1.00  0.00     0.173 A 
ATOM    118  C   UNL A   1      40.640  29.055  28.854  1.00  0.00     0.173 A 
ATOM    119  F   UNL A   1      38.881  26.737  31.028  1.00  0.00    -0.203 F 
ATOM    120  C   UNL A   1      39.444  26.555  28.749  1.00  0.00     0.198 A 
ATOM    121  C   UNL A   1      40.614  28.341  27.658  1.00  0.00     0.198 A 
ATOM    122  F   UNL A   1      41.235  30.257  28.876  1.00  0.00    -0.203 F 
ATOM    123  F   UNL A   1      38.903  25.328  28.714  1.00  0.00    -0.200 F 
ATOM    124  C   UNL A   1      40.026  27.087  27.608  1.00  0.00     0.200 A 
ATOM    125  F   UNL A   1      41.164  28.868  26.555  1.00  0.00    -0.200 F 
ATOM    126  F   UNL A   1      40.030  26.387  26.466  1.00  0.00    -0.200 F 
ENDBRANCH  88 116
BRANCH 103 127
ATOM    127  C   UNL A   1      44.476  28.579  35.407  1.00  0.00     0.064 A 
ATOM    128  C   UNL A   1      44.426  27.343  36.069  1.00  0.00     0.173 A 
ATOM    129  C   UNL A   1      45.729  29.041  34.976  1.00  0.00     0.173 A 
ATOM    130  F   UNL A   1      43.255  26.864  36.515  1.00  0.00    -0.203 F 
ATOM    131  C   UNL A   1      45.586  26.610  36.306  1.00  0.00     0.198 A 
ATOM    132  C   UNL A   1      46.882  28.290  35.185  1.00  0.00     0.198 A 
ATOM    133  F   UNL A   1      45.833  30.214  34.333  1.00  0.00    -0.203 F 
ATOM    134  F   UNL A   1      45.518  25.453  36.978  1.00  0.00    -0.200 F 
ATOM    135  C   UNL A   1      46.811  27.079  35.855  1.00  0.00     0.200 A 
ATOM    136  F   UNL A   1      48.063  28.737  34.734  1.00  0.00    -0.200 F 
ATOM    137  F   UNL A   1      47.923  26.363  36.070  1.00  0.00    -0.200 F 
ENDBRANCH 103 127
ENDBRANCH  68  71
ENDBRANCH  58  61
ENDBRANCH  54  57
ENDBRANCH  51  54
ENDBRANCH  48  51
ENDBRANCH  45  48
ENDBRANCH   1  45
TORSDOF 18
ENDMDL
MODEL 8
REMARK VINA RESULT:     -11.4      5.091     10.892
REMARK SMILES C[C@@H](C(=O)NCCCCCCNC(=O)c1ccc(-c2c3nc(c(-c4c(F)c(F)c(F)c(F)c4F)c4ccc([nH]4)c(-c4c(F)c(F)c(F)c(F)c4F)c4nc(c(-c5c(F)c(F)c(F)c(F)c5F)c5ccc2[nH]5)C=C4)C=C3)cc1)c1ccc(C[C@@H]2CCC[C@@H]2O)cc1Br
REMARK SMILES IDX 7 1 6 4 5 7 3 8 4 9 2 11 1 13 78 17 79 18 90 19 80 20 89 22
REMARK SMILES IDX 91 23 81 24 82 27 83 30 84 31 87 32 85 34 86 37 88 43 8 45
REMARK SMILES IDX 9 48 10 51 11 54 12 57 13 58 14 60 15 61 16 62 77 63 17 64
REMARK SMILES IDX 76 66 18 68 19 71 20 72 70 73 21 74 75 75 69 76 71 77 22 78
REMARK SMILES IDX 74 79 68 81 67 83 23 85 55 88 35 89 54 90 36 91 39 92 53 93
REMARK SMILES IDX 72 94 37 95 38 97 52 99 73 100 40 103 24 105 25 106 33 107
REMARK SMILES IDX 26 108 27 109 31 110 34 111 28 112 29 113 32 114 30 115
REMARK SMILES IDX 56 116 57 117 65 118 58 119 59 120 63 121 66 122 60 123
REMARK SMILES IDX 61 124 64 125 62 126 41 127 42 128 50 129 43 130 44 131
REMARK SMILES IDX 48 132 51 133 45 134 46 135 49 136 47 137
REMARK H PARENT 7 2 7 3 6 5 6 6 5 10 2 12 1 14 1 15 1 16 79 21 80 25 89 26
REMARK H PARENT 82 28 82 29 83 33 84 35 84 36 87 38 85 39 85 40 86 41 86 42
REMARK H PARENT 88 44 8 46 8 47 9 49 9 50 10 52 10 53 11 55 11 56 12 59 16 65
REMARK H PARENT 77 67 17 69 76 70 75 80 69 82 71 84 74 86 68 87 36 96 39 98
REMARK H PARENT 72 101 37 102 73 104
REMARK Flexibility Score: inf
ROOT
ATOM      1  C   UNL A   1      45.248  23.748  28.542  1.00  0.00    -0.036 C 
ATOM      2  H   UNL A   1      45.216  24.751  28.913  1.00  0.00     0.028 H 
ATOM      3  H   UNL A   1      45.735  23.078  29.219  1.00  0.00     0.028 H 
ENDROOT
BRANCH   1   4
ATOM      4  C   UNL A   1      46.057  23.738  27.243  1.00  0.00     0.017 C 
ATOM      5  H   UNL A   1      46.282  22.727  26.974  1.00  0.00     0.049 H 
ATOM      6  H   UNL A   1      45.483  24.201  26.469  1.00  0.00     0.049 H 
BRANCH   4   7
ATOM      7  N   UNL A   1      47.290  24.471  27.421  1.00  0.00    -0.356 N 
ATOM      8  C   UNL A   1      47.924  25.331  26.574  1.00  0.00     0.227 C 
ATOM      9  O   UNL A   1      49.074  25.655  26.878  1.00  0.00    -0.274 OA
ATOM     10  H   UNL A   1      47.740  24.327  28.284  1.00  0.00     0.163 HD
BRANCH   8  11
ATOM     11  C   UNL A   1      47.196  25.866  25.327  1.00  0.00     0.061 C 
ATOM     12  H   UNL A   1      46.502  25.116  25.008  1.00  0.00     0.045 H 
BRANCH  11  13
ATOM     13  C   UNL A   1      48.154  26.098  24.150  1.00  0.00    -0.049 C 
ATOM     14  H   UNL A   1      48.951  25.386  24.193  1.00  0.00     0.024 H 
ATOM     15  H   UNL A   1      48.557  27.087  24.208  1.00  0.00     0.024 H 
ATOM     16  H   UNL A   1      47.623  25.983  23.228  1.00  0.00     0.024 H 
ENDBRANCH  11  13
BRANCH  11  17
ATOM     17  C   UNL A   1      46.413  27.134  25.672  1.00  0.00    -0.022 A 
ATOM     18  C   UNL A   1      47.119  28.306  26.003  1.00  0.00    -0.057 A 
ATOM     19  C   UNL A   1      45.011  27.168  25.776  1.00  0.00     0.022 A 
ATOM     20  C   UNL A   1      46.461  29.464  26.409  1.00  0.00    -0.059 A 
ATOM     21  H   UNL A   1      48.148  28.307  25.941  1.00  0.00     0.063 H 
ATOM     22  C   UNL A   1      44.355  28.326  26.216  1.00  0.00    -0.044 A 
ATOM     23  Br  UNL A   1      43.914  25.666  25.375  1.00  0.00    -0.051 Br
ATOM     24  C   UNL A   1      45.076  29.477  26.565  1.00  0.00    -0.047 A 
ATOM     25  H   UNL A   1      47.004  30.322  26.599  1.00  0.00     0.063 H 
ATOM     26  H   UNL A   1      43.325  28.332  26.284  1.00  0.00     0.064 H 
BRANCH  24  27
ATOM     27  C   UNL A   1      44.375  30.683  27.137  1.00  0.00    -0.023 C 
ATOM     28  H   UNL A   1      44.018  30.411  28.108  1.00  0.00     0.032 H 
ATOM     29  H   UNL A   1      43.624  30.920  26.414  1.00  0.00     0.032 H 
BRANCH  27  30
ATOM     30  C   UNL A   1      45.188  31.991  27.294  1.00  0.00    -0.011 C 
ATOM     31  C   UNL A   1      45.034  32.705  28.644  1.00  0.00    -0.048 C 
ATOM     32  C   UNL A   1      44.906  33.117  26.294  1.00  0.00     0.057 C 
ATOM     33  H   UNL A   1      46.158  31.565  27.144  1.00  0.00     0.033 H 
ATOM     34  C   UNL A   1      44.041  33.852  28.425  1.00  0.00    -0.050 C 
ATOM     35  H   UNL A   1      45.977  33.091  28.966  1.00  0.00     0.027 H 
ATOM     36  H   UNL A   1      44.682  32.032  29.397  1.00  0.00     0.027 H 
ATOM     37  C   UNL A   1      43.778  33.923  26.923  1.00  0.00    -0.027 C 
ATOM     38  H   UNL A   1      45.784  33.705  26.130  1.00  0.00     0.060 H 
ATOM     39  H   UNL A   1      44.461  34.774  28.770  1.00  0.00     0.027 H 
ATOM     40  H   UNL A   1      43.134  33.686  28.967  1.00  0.00     0.027 H 
ATOM     41  H   UNL A   1      43.805  34.937  26.583  1.00  0.00     0.029 H 
ATOM     42  H   UNL A   1      42.813  33.541  26.662  1.00  0.00     0.029 H 
BRANCH  32  43
ATOM     43  O   UNL A   1      44.580  32.662  24.997  1.00  0.00    -0.393 OA
ATOM     44  H   UNL A   1      45.356  32.744  24.422  1.00  0.00     0.210 HD
ENDBRANCH  32  43
ENDBRANCH  27  30
ENDBRANCH  24  27
ENDBRANCH  11  17
ENDBRANCH   8  11
ENDBRANCH   4   7
ENDBRANCH   1   4
BRANCH   1  45
ATOM     45  C   UNL A   1      43.806  23.246  28.376  1.00  0.00    -0.052 C 
ATOM     46  H   UNL A   1      43.186  24.086  28.140  1.00  0.00     0.027 H 
ATOM     47  H   UNL A   1      43.544  22.774  29.300  1.00  0.00     0.027 H 
BRANCH  45  48
ATOM     48  C   UNL A   1      43.612  22.190  27.284  1.00  0.00    -0.052 C 
ATOM     49  H   UNL A   1      43.591  21.227  27.752  1.00  0.00     0.027 H 
ATOM     50  H   UNL A   1      44.427  22.308  26.601  1.00  0.00     0.027 H 
BRANCH  48  51
ATOM     51  C   UNL A   1      42.333  22.348  26.461  1.00  0.00    -0.036 C 
ATOM     52  H   UNL A   1      42.467  21.837  25.530  1.00  0.00     0.028 H 
ATOM     53  H   UNL A   1      42.175  23.400  26.337  1.00  0.00     0.028 H 
BRANCH  51  54
ATOM     54  C   UNL A   1      41.082  21.795  27.134  1.00  0.00     0.018 C 
ATOM     55  H   UNL A   1      40.893  22.355  28.026  1.00  0.00     0.049 H 
ATOM     56  H   UNL A   1      41.254  20.762  27.355  1.00  0.00     0.049 H 
BRANCH  54  57
ATOM     57  N   UNL A   1      39.915  21.881  26.269  1.00  0.00    -0.352 N 
ATOM     58  C   UNL A   1      39.013  22.905  26.130  1.00  0.00     0.251 C 
ATOM     59  H   UNL A   1      39.748  21.093  25.704  1.00  0.00     0.163 HD
ATOM     60  O   UNL A   1      37.966  22.734  25.511  1.00  0.00    -0.269 OA
BRANCH  58  61
ATOM     61  C   UNL A   1      39.296  24.216  26.749  1.00  0.00     0.039 A 
ATOM     62  C   UNL A   1      38.877  24.451  28.061  1.00  0.00    -0.049 A 
ATOM     63  C   UNL A   1      39.986  25.203  26.040  1.00  0.00    -0.049 A 
ATOM     64  C   UNL A   1      39.212  25.653  28.687  1.00  0.00    -0.053 A 
ATOM     65  H   UNL A   1      38.322  23.741  28.563  1.00  0.00     0.063 H 
ATOM     66  C   UNL A   1      40.381  26.369  26.689  1.00  0.00    -0.053 A 
ATOM     67  H   UNL A   1      40.200  25.069  25.040  1.00  0.00     0.063 H 
ATOM     68  C   UNL A   1      40.003  26.604  28.020  1.00  0.00    -0.014 A 
ATOM     69  H   UNL A   1      38.877  25.844  29.644  1.00  0.00     0.063 H 
ATOM     70  H   UNL A   1      40.955  27.066  26.188  1.00  0.00     0.063 H 
BRANCH  68  71
ATOM     71  C   UNL A   1      40.469  27.836  28.704  1.00  0.00     0.031 A 
ATOM     72  C   UNL A   1      41.870  27.920  29.240  1.00  0.00     0.074 A 
ATOM     73  C   UNL A   1      39.602  28.846  28.916  1.00  0.00     0.049 A 
ATOM     74  N   UNL A   1      42.430  28.867  29.951  1.00  0.00    -0.248 NA
ATOM     75  C   UNL A   1      42.753  26.776  28.965  1.00  0.00    -0.034 C 
ATOM     76  C   UNL A   1      38.204  28.863  28.485  1.00  0.00    -0.036 A 
ATOM     77  N   UNL A   1      39.762  30.045  29.566  1.00  0.00    -0.354 N 
ATOM     78  C   UNL A   1      43.718  28.426  30.221  1.00  0.00     0.074 A 
ATOM     79  C   UNL A   1      43.846  27.108  29.638  1.00  0.00    -0.034 C 
ATOM     80  H   UNL A   1      42.571  25.934  28.396  1.00  0.00     0.065 H 
ATOM     81  C   UNL A   1      37.637  30.017  28.870  1.00  0.00    -0.036 A 
ATOM     82  H   UNL A   1      37.728  28.107  27.966  1.00  0.00     0.065 H 
ATOM     83  C   UNL A   1      38.616  30.802  29.617  1.00  0.00     0.049 A 
ATOM     84  H   UNL A   1      40.617  30.335  29.958  1.00  0.00     0.167 HD
ATOM     85  C   UNL A   1      44.708  29.070  30.883  1.00  0.00     0.037 A 
ATOM     86  H   UNL A   1      44.679  26.506  29.733  1.00  0.00     0.065 H 
ATOM     87  H   UNL A   1      36.666  30.304  28.670  1.00  0.00     0.065 H 
ATOM     88  C   UNL A   1      38.374  31.983  30.216  1.00  0.00     0.037 A 
ATOM     89  C   UNL A   1      44.582  30.394  31.436  1.00  0.00     0.049 A 
ATOM     90  C   UNL A   1      39.489  32.669  30.961  1.00  0.00     0.074 A 
ATOM     91  C   UNL A   1      45.554  31.167  32.047  1.00  0.00    -0.036 A 
ATOM     92  N   UNL A   1      43.410  31.135  31.455  1.00  0.00    -0.354 N 
ATOM     93  N   UNL A   1      40.730  32.281  31.133  1.00  0.00    -0.248 NA
ATOM     94  C   UNL A   1      39.172  33.956  31.594  1.00  0.00    -0.034 C 
ATOM     95  C   UNL A   1      44.954  32.348  32.494  1.00  0.00    -0.036 A 
ATOM     96  H   UNL A   1      46.548  30.915  32.155  1.00  0.00     0.065 H 
ATOM     97  C   UNL A   1      43.625  32.339  32.105  1.00  0.00     0.049 A 
ATOM     98  H   UNL A   1      42.553  30.848  31.064  1.00  0.00     0.167 HD
ATOM     99  C   UNL A   1      41.345  33.285  31.869  1.00  0.00     0.074 A 
ATOM    100  C   UNL A   1      40.347  34.309  32.094  1.00  0.00    -0.034 C 
ATOM    101  H   UNL A   1      38.269  34.456  31.638  1.00  0.00     0.065 H 
ATOM    102  H   UNL A   1      45.423  33.099  33.024  1.00  0.00     0.065 H 
ATOM    103  C   UNL A   1      42.622  33.352  32.318  1.00  0.00     0.037 A 
ATOM    104  H   UNL A   1      40.528  35.200  32.584  1.00  0.00     0.065 H 
BRANCH  85 105
ATOM    105  C   UNL A   1      46.019  28.358  31.054  1.00  0.00     0.064 A 
ATOM    106  C   UNL A   1      47.136  28.663  30.263  1.00  0.00     0.173 A 
ATOM    107  C   UNL A   1      46.176  27.401  32.069  1.00  0.00     0.173 A 
ATOM    108  F   UNL A   1      47.038  29.565  29.275  1.00  0.00    -0.203 F 
ATOM    109  C   UNL A   1      48.354  28.018  30.464  1.00  0.00     0.198 A 
ATOM    110  C   UNL A   1      47.403  26.780  32.287  1.00  0.00     0.198 A 
ATOM    111  F   UNL A   1      45.141  27.076  32.859  1.00  0.00    -0.203 F 
ATOM    112  F   UNL A   1      49.396  28.295  29.667  1.00  0.00    -0.200 F 
ATOM    113  C   UNL A   1      48.490  27.085  31.480  1.00  0.00     0.200 A 
ATOM    114  F   UNL A   1      47.535  25.892  33.281  1.00  0.00    -0.200 F 
ATOM    115  F   UNL A   1      49.666  26.476  31.682  1.00  0.00    -0.200 F 
ENDBRANCH  85 105
BRANCH  88 116
ATOM    116  C   UNL A   1      37.019  32.593  30.147  1.00  0.00     0.064 A 
ATOM    117  C   UNL A   1      36.623  33.351  29.036  1.00  0.00     0.173 A 
ATOM    118  C   UNL A   1      36.100  32.449  31.197  1.00  0.00     0.173 A 
ATOM    119  F   UNL A   1      37.473  33.536  28.015  1.00  0.00    -0.203 F 
ATOM    120  C   UNL A   1      35.374  33.965  28.991  1.00  0.00     0.198 A 
ATOM    121  C   UNL A   1      34.838  33.036  31.137  1.00  0.00     0.198 A 
ATOM    122  F   UNL A   1      36.426  31.731  32.282  1.00  0.00    -0.203 F 
ATOM    123  F   UNL A   1      35.044  34.732  27.942  1.00  0.00    -0.200 F 
ATOM    124  C   UNL A   1      34.479  33.803  30.039  1.00  0.00     0.200 A 
ATOM    125  F   UNL A   1      33.972  32.862  32.144  1.00  0.00    -0.200 F 
ATOM    126  F   UNL A   1      33.278  34.393  29.995  1.00  0.00    -0.200 F 
ENDBRANCH  88 116
BRANCH 103 127
ATOM    127  C   UNL A   1      43.024  34.582  33.078  1.00  0.00     0.064 A 
ATOM    128  C   UNL A   1      43.479  35.737  32.425  1.00  0.00     0.173 A 
ATOM    129  C   UNL A   1      42.898  34.626  34.476  1.00  0.00     0.173 A 
ATOM    130  F   UNL A   1      43.634  35.741  31.093  1.00  0.00    -0.203 F 
ATOM    131  C   UNL A   1      43.813  36.882  33.144  1.00  0.00     0.198 A 
ATOM    132  C   UNL A   1      43.199  35.783  35.188  1.00  0.00     0.198 A 
ATOM    133  F   UNL A   1      42.460  33.551  35.150  1.00  0.00    -0.203 F 
ATOM    134  F   UNL A   1      44.287  37.959  32.502  1.00  0.00    -0.200 F 
ATOM    135  C   UNL A   1      43.662  36.908  34.522  1.00  0.00     0.200 A 
ATOM    136  F   UNL A   1      43.037  35.811  36.518  1.00  0.00    -0.200 F 
ATOM    137  F   UNL A   1      43.968  38.016  35.210  1.00  0.00    -0.200 F 
ENDBRANCH 103 127
ENDBRANCH  68  71
ENDBRANCH  58  61
ENDBRANCH  54  57
ENDBRANCH  51  54
ENDBRANCH  48  51
ENDBRANCH  45  48
ENDBRANCH   1  45
TORSDOF 18
ENDMDL
MODEL 9
REMARK VINA RESULT:     -11.4      5.247      9.837
REMARK SMILES C[C@@H](C(=O)NCCCCCCNC(=O)c1ccc(-c2c3nc(c(-c4c(F)c(F)c(F)c(F)c4F)c4ccc([nH]4)c(-c4c(F)c(F)c(F)c(F)c4F)c4nc(c(-c5c(F)c(F)c(F)c(F)c5F)c5ccc2[nH]5)C=C4)C=C3)cc1)c1ccc(C[C@@H]2CCC[C@@H]2O)cc1Br
REMARK SMILES IDX 7 1 6 4 5 7 3 8 4 9 2 11 1 13 78 17 79 18 90 19 80 20 89 22
REMARK SMILES IDX 91 23 81 24 82 27 83 30 84 31 87 32 85 34 86 37 88 43 8 45
REMARK SMILES IDX 9 48 10 51 11 54 12 57 13 58 14 60 15 61 16 62 77 63 17 64
REMARK SMILES IDX 76 66 18 68 19 71 20 72 70 73 21 74 75 75 69 76 71 77 22 78
REMARK SMILES IDX 74 79 68 81 67 83 23 85 55 88 35 89 54 90 36 91 39 92 53 93
REMARK SMILES IDX 72 94 37 95 38 97 52 99 73 100 40 103 24 105 25 106 33 107
REMARK SMILES IDX 26 108 27 109 31 110 34 111 28 112 29 113 32 114 30 115
REMARK SMILES IDX 56 116 57 117 65 118 58 119 59 120 63 121 66 122 60 123
REMARK SMILES IDX 61 124 64 125 62 126 41 127 42 128 50 129 43 130 44 131
REMARK SMILES IDX 48 132 51 133 45 134 46 135 49 136 47 137
REMARK H PARENT 7 2 7 3 6 5 6 6 5 10 2 12 1 14 1 15 1 16 79 21 80 25 89 26
REMARK H PARENT 82 28 82 29 83 33 84 35 84 36 87 38 85 39 85 40 86 41 86 42
REMARK H PARENT 88 44 8 46 8 47 9 49 9 50 10 52 10 53 11 55 11 56 12 59 16 65
REMARK H PARENT 77 67 17 69 76 70 75 80 69 82 71 84 74 86 68 87 36 96 39 98
REMARK H PARENT 72 101 37 102 73 104
REMARK Flexibility Score: inf
ROOT
ATOM      1  C   UNL A   1      38.464  30.190  33.089  1.00  0.00    -0.036 C 
ATOM      2  H   UNL A   1      38.329  29.129  33.099  1.00  0.00     0.028 H 
ATOM      3  H   UNL A   1      39.060  30.519  32.264  1.00  0.00     0.028 H 
ENDROOT
BRANCH   1   4
ATOM      4  C   UNL A   1      39.209  30.593  34.365  1.00  0.00     0.017 C 
ATOM      5  H   UNL A   1      40.050  29.945  34.503  1.00  0.00     0.049 H 
ATOM      6  H   UNL A   1      39.541  31.605  34.272  1.00  0.00     0.049 H 
BRANCH   4   7
ATOM      7  N   UNL A   1      38.330  30.486  35.507  1.00  0.00    -0.356 N 
ATOM      8  C   UNL A   1      38.078  31.384  36.502  1.00  0.00     0.227 C 
ATOM      9  O   UNL A   1      37.451  30.964  37.477  1.00  0.00    -0.274 OA
ATOM     10  H   UNL A   1      37.839  29.636  35.578  1.00  0.00     0.163 HD
BRANCH   8  11
ATOM     11  C   UNL A   1      38.547  32.844  36.362  1.00  0.00     0.061 C 
ATOM     12  H   UNL A   1      39.562  32.829  36.021  1.00  0.00     0.045 H 
BRANCH  11  13
ATOM     13  C   UNL A   1      38.552  33.583  37.708  1.00  0.00    -0.049 C 
ATOM     14  H   UNL A   1      38.704  34.629  37.540  1.00  0.00     0.024 H 
ATOM     15  H   UNL A   1      39.341  33.203  38.321  1.00  0.00     0.024 H 
ATOM     16  H   UNL A   1      37.613  33.434  38.201  1.00  0.00     0.024 H 
ENDBRANCH  11  13
BRANCH  11  17
ATOM     17  C   UNL A   1      37.699  33.578  35.322  1.00  0.00    -0.022 A 
ATOM     18  C   UNL A   1      36.296  33.557  35.444  1.00  0.00    -0.057 A 
ATOM     19  C   UNL A   1      38.243  34.194  34.182  1.00  0.00     0.022 A 
ATOM     20  C   UNL A   1      35.471  34.132  34.481  1.00  0.00    -0.059 A 
ATOM     21  H   UNL A   1      35.870  33.105  36.268  1.00  0.00     0.063 H 
ATOM     22  C   UNL A   1      37.407  34.745  33.200  1.00  0.00    -0.044 A 
ATOM     23  Br  UNL A   1      40.116  34.299  33.865  1.00  0.00    -0.051 Br
ATOM     24  C   UNL A   1      36.012  34.693  33.326  1.00  0.00    -0.047 A 
ATOM     25  H   UNL A   1      34.448  34.142  34.623  1.00  0.00     0.063 H 
ATOM     26  H   UNL A   1      37.826  35.196  32.371  1.00  0.00     0.064 H 
BRANCH  24  27
ATOM     27  C   UNL A   1      35.118  35.190  32.219  1.00  0.00    -0.023 C 
ATOM     28  H   UNL A   1      34.366  34.447  32.059  1.00  0.00     0.032 H 
ATOM     29  H   UNL A   1      35.783  35.363  31.399  1.00  0.00     0.032 H 
BRANCH  27  30
ATOM     30  C   UNL A   1      34.394  36.544  32.419  1.00  0.00    -0.011 C 
ATOM     31  C   UNL A   1      33.522  36.645  33.678  1.00  0.00    -0.048 C 
ATOM     32  C   UNL A   1      33.430  36.994  31.317  1.00  0.00     0.057 C 
ATOM     33  H   UNL A   1      35.268  37.160  32.454  1.00  0.00     0.033 H 
ATOM     34  C   UNL A   1      32.073  36.424  33.230  1.00  0.00    -0.050 C 
ATOM     35  H   UNL A   1      33.627  37.612  34.121  1.00  0.00     0.027 H 
ATOM     36  H   UNL A   1      33.814  35.918  34.407  1.00  0.00     0.027 H 
ATOM     37  C   UNL A   1      32.086  36.394  31.704  1.00  0.00    -0.027 C 
ATOM     38  H   UNL A   1      33.396  38.062  31.257  1.00  0.00     0.060 H 
ATOM     39  H   UNL A   1      31.454  37.224  33.578  1.00  0.00     0.027 H 
ATOM     40  H   UNL A   1      31.681  35.512  33.630  1.00  0.00     0.027 H 
ATOM     41  H   UNL A   1      31.283  36.979  31.308  1.00  0.00     0.029 H 
ATOM     42  H   UNL A   1      31.959  35.404  31.317  1.00  0.00     0.029 H 
BRANCH  32  43
ATOM     43  O   UNL A   1      33.831  36.616  30.016  1.00  0.00    -0.393 OA
ATOM     44  H   UNL A   1      33.272  37.063  29.363  1.00  0.00     0.210 HD
ENDBRANCH  32  43
ENDBRANCH  27  30
ENDBRANCH  24  27
ENDBRANCH  11  17
ENDBRANCH   8  11
ENDBRANCH   4   7
ENDBRANCH   1   4
BRANCH   1  45
ATOM     45  C   UNL A   1      37.088  30.854  32.941  1.00  0.00    -0.052 C 
ATOM     46  H   UNL A   1      36.947  31.516  33.770  1.00  0.00     0.027 H 
ATOM     47  H   UNL A   1      36.373  30.058  32.909  1.00  0.00     0.027 H 
BRANCH  45  48
ATOM     48  C   UNL A   1      36.895  31.658  31.652  1.00  0.00    -0.052 C 
ATOM     49  H   UNL A   1      37.430  31.162  30.867  1.00  0.00     0.027 H 
ATOM     50  H   UNL A   1      37.259  32.643  31.852  1.00  0.00     0.027 H 
BRANCH  48  51
ATOM     51  C   UNL A   1      35.439  31.817  31.209  1.00  0.00    -0.036 C 
ATOM     52  H   UNL A   1      34.979  32.559  31.828  1.00  0.00     0.028 H 
ATOM     53  H   UNL A   1      34.982  30.854  31.306  1.00  0.00     0.028 H 
BRANCH  51  54
ATOM     54  C   UNL A   1      35.270  32.237  29.754  1.00  0.00     0.018 C 
ATOM     55  H   UNL A   1      36.238  32.360  29.314  1.00  0.00     0.049 H 
ATOM     56  H   UNL A   1      34.717  33.153  29.735  1.00  0.00     0.049 H 
BRANCH  54  57
ATOM     57  N   UNL A   1      34.527  31.249  28.985  1.00  0.00    -0.352 N 
ATOM     58  C   UNL A   1      34.994  30.165  28.288  1.00  0.00     0.251 C 
ATOM     59  H   UNL A   1      33.551  31.377  28.962  1.00  0.00     0.163 HD
ATOM     60  O   UNL A   1      34.256  29.552  27.520  1.00  0.00    -0.269 OA
BRANCH  58  61
ATOM     61  C   UNL A   1      36.401  29.746  28.445  1.00  0.00     0.039 A 
ATOM     62  C   UNL A   1      37.333  30.116  27.473  1.00  0.00    -0.049 A 
ATOM     63  C   UNL A   1      36.801  29.001  29.559  1.00  0.00    -0.049 A 
ATOM     64  C   UNL A   1      38.681  29.800  27.652  1.00  0.00    -0.053 A 
ATOM     65  H   UNL A   1      37.026  30.620  26.627  1.00  0.00     0.063 H 
ATOM     66  C   UNL A   1      38.153  28.750  29.771  1.00  0.00    -0.053 A 
ATOM     67  H   UNL A   1      36.097  28.637  30.219  1.00  0.00     0.063 H 
ATOM     68  C   UNL A   1      39.107  29.152  28.824  1.00  0.00    -0.014 A 
ATOM     69  H   UNL A   1      39.367  30.044  26.922  1.00  0.00     0.063 H 
ATOM     70  H   UNL A   1      38.456  28.266  30.632  1.00  0.00     0.063 H 
BRANCH  68  71
ATOM     71  C   UNL A   1      40.547  28.909  29.091  1.00  0.00     0.031 A 
ATOM     72  C   UNL A   1      41.204  27.648  28.608  1.00  0.00     0.074 A 
ATOM     73  C   UNL A   1      41.240  29.788  29.843  1.00  0.00     0.049 A 
ATOM     74  N   UNL A   1      42.419  27.210  28.826  1.00  0.00    -0.248 NA
ATOM     75  C   UNL A   1      40.378  26.743  27.792  1.00  0.00    -0.034 C 
ATOM     76  C   UNL A   1      40.701  31.025  30.408  1.00  0.00    -0.036 A 
ATOM     77  N   UNL A   1      42.542  29.765  30.278  1.00  0.00    -0.354 N 
ATOM     78  C   UNL A   1      42.496  25.977  28.194  1.00  0.00     0.074 A 
ATOM     79  C   UNL A   1      41.194  25.712  27.620  1.00  0.00    -0.034 C 
ATOM     80  H   UNL A   1      39.416  26.875  27.445  1.00  0.00     0.065 H 
ATOM     81  C   UNL A   1      41.663  31.649  31.105  1.00  0.00    -0.036 A 
ATOM     82  H   UNL A   1      39.733  31.366  30.289  1.00  0.00     0.065 H 
ATOM     83  C   UNL A   1      42.874  30.833  31.077  1.00  0.00     0.049 A 
ATOM     84  H   UNL A   1      43.177  29.052  30.041  1.00  0.00     0.167 HD
ATOM     85  C   UNL A   1      43.562  25.149  28.088  1.00  0.00     0.037 A 
ATOM     86  H   UNL A   1      40.935  24.836  27.139  1.00  0.00     0.065 H 
ATOM     87  H   UNL A   1      41.565  32.558  31.583  1.00  0.00     0.065 H 
ATOM     88  C   UNL A   1      44.017  31.113  31.731  1.00  0.00     0.037 A 
ATOM     89  C   UNL A   1      44.863  25.433  28.637  1.00  0.00     0.049 A 
ATOM     90  C   UNL A   1      45.182  30.165  31.611  1.00  0.00     0.074 A 
ATOM     91  C   UNL A   1      46.030  24.699  28.510  1.00  0.00    -0.036 A 
ATOM     92  N   UNL A   1      45.166  26.532  29.428  1.00  0.00    -0.354 N 
ATOM     93  N   UNL A   1      45.270  29.045  30.935  1.00  0.00    -0.248 NA
ATOM     94  C   UNL A   1      46.405  30.520  32.343  1.00  0.00    -0.034 C 
ATOM     95  C   UNL A   1      47.021  25.319  29.276  1.00  0.00    -0.036 A 
ATOM     96  H   UNL A   1      46.147  23.843  27.947  1.00  0.00     0.065 H 
ATOM     97  C   UNL A   1      46.490  26.473  29.829  1.00  0.00     0.049 A 
ATOM     98  H   UNL A   1      44.533  27.247  29.667  1.00  0.00     0.167 HD
ATOM     99  C   UNL A   1      46.561  28.577  31.139  1.00  0.00     0.074 A 
ATOM    100  C   UNL A   1      47.227  29.543  31.986  1.00  0.00    -0.034 C 
ATOM    101  H   UNL A   1      46.580  31.320  32.971  1.00  0.00     0.065 H 
ATOM    102  H   UNL A   1      47.985  24.975  29.407  1.00  0.00     0.065 H 
ATOM    103  C   UNL A   1      47.142  27.446  30.668  1.00  0.00     0.037 A 
ATOM    104  H   UNL A   1      48.216  29.479  32.276  1.00  0.00     0.065 H 
BRANCH  85 105
ATOM    105  C   UNL A   1      43.376  23.851  27.356  1.00  0.00     0.064 A 
ATOM    106  C   UNL A   1      42.841  22.718  27.984  1.00  0.00     0.173 A 
ATOM    107  C   UNL A   1      43.681  23.761  25.989  1.00  0.00     0.173 A 
ATOM    108  F   UNL A   1      42.541  22.747  29.291  1.00  0.00    -0.203 F 
ATOM    109  C   UNL A   1      42.642  21.534  27.278  1.00  0.00     0.198 A 
ATOM    110  C   UNL A   1      43.450  22.586  25.278  1.00  0.00     0.198 A 
ATOM    111  F   UNL A   1      44.189  24.818  25.337  1.00  0.00    -0.203 F 
ATOM    112  F   UNL A   1      42.169  20.450  27.909  1.00  0.00    -0.200 F 
ATOM    113  C   UNL A   1      42.937  21.471  25.925  1.00  0.00     0.200 A 
ATOM    114  F   UNL A   1      43.721  22.534  23.967  1.00  0.00    -0.200 F 
ATOM    115  F   UNL A   1      42.730  20.337  25.242  1.00  0.00    -0.200 F 
ENDBRANCH  85 105
BRANCH  88 116
ATOM    116  C   UNL A   1      44.120  32.340  32.566  1.00  0.00     0.064 A 
ATOM    117  C   UNL A   1      43.730  32.335  33.912  1.00  0.00     0.173 A 
ATOM    118  C   UNL A   1      44.592  33.548  32.031  1.00  0.00     0.173 A 
ATOM    119  F   UNL A   1      43.253  31.209  34.465  1.00  0.00    -0.203 F 
ATOM    120  C   UNL A   1      43.779  33.494  34.682  1.00  0.00     0.198 A 
ATOM    121  C   UNL A   1      44.672  34.700  32.811  1.00  0.00     0.198 A 
ATOM    122  F   UNL A   1      44.983  33.609  30.749  1.00  0.00    -0.203 F 
ATOM    123  F   UNL A   1      43.344  33.473  35.950  1.00  0.00    -0.200 F 
ATOM    124  C   UNL A   1      44.255  34.675  34.133  1.00  0.00     0.200 A 
ATOM    125  F   UNL A   1      45.149  35.834  32.280  1.00  0.00    -0.200 F 
ATOM    126  F   UNL A   1      44.303  35.790  34.874  1.00  0.00    -0.200 F 
ENDBRANCH  88 116
BRANCH 103 127
ATOM    127  C   UNL A   1      48.577  27.201  31.035  1.00  0.00     0.064 A 
ATOM    128  C   UNL A   1      48.931  26.431  32.152  1.00  0.00     0.173 A 
ATOM    129  C   UNL A   1      49.611  27.695  30.224  1.00  0.00     0.173 A 
ATOM    130  F   UNL A   1      47.981  25.951  32.969  1.00  0.00    -0.203 F 
ATOM    131  C   UNL A   1      50.267  26.182  32.457  1.00  0.00     0.198 A 
ATOM    132  C   UNL A   1      50.943  27.416  30.512  1.00  0.00     0.198 A 
ATOM    133  F   UNL A   1      49.327  28.431  29.139  1.00  0.00    -0.203 F 
ATOM    134  F   UNL A   1      50.582  25.481  33.554  1.00  0.00    -0.200 F 
ATOM    135  C   UNL A   1      51.271  26.665  31.630  1.00  0.00     0.200 A 
ATOM    136  F   UNL A   1      51.912  27.869  29.703  1.00  0.00    -0.200 F 
ATOM    137  F   UNL A   1      52.555  26.410  31.916  1.00  0.00    -0.200 F 
ENDBRANCH 103 127
ENDBRANCH  68  71
ENDBRANCH  58  61
ENDBRANCH  54  57
ENDBRANCH  51  54
ENDBRANCH  48  51
ENDBRANCH  45  48
ENDBRANCH   1  45
TORSDOF 18
ENDMDL
MODEL 10
REMARK VINA RESULT:     -11.3      1.892      7.778
REMARK SMILES C[C@@H](C(=O)NCCCCCCNC(=O)c1ccc(-c2c3nc(c(-c4c(F)c(F)c(F)c(F)c4F)c4ccc([nH]4)c(-c4c(F)c(F)c(F)c(F)c4F)c4nc(c(-c5c(F)c(F)c(F)c(F)c5F)c5ccc2[nH]5)C=C4)C=C3)cc1)c1ccc(C[C@@H]2CCC[C@@H]2O)cc1Br
REMARK SMILES IDX 7 1 6 4 5 7 3 8 4 9 2 11 1 13 78 17 79 18 90 19 80 20 89 22
REMARK SMILES IDX 91 23 81 24 82 27 83 30 84 31 87 32 85 34 86 37 88 43 8 45
REMARK SMILES IDX 9 48 10 51 11 54 12 57 13 58 14 60 15 61 16 62 77 63 17 64
REMARK SMILES IDX 76 66 18 68 19 71 20 72 70 73 21 74 75 75 69 76 71 77 22 78
REMARK SMILES IDX 74 79 68 81 67 83 23 85 55 88 35 89 54 90 36 91 39 92 53 93
REMARK SMILES IDX 72 94 37 95 38 97 52 99 73 100 40 103 24 105 25 106 33 107
REMARK SMILES IDX 26 108 27 109 31 110 34 111 28 112 29 113 32 114 30 115
REMARK SMILES IDX 56 116 57 117 65 118 58 119 59 120 63 121 66 122 60 123
REMARK SMILES IDX 61 124 64 125 62 126 41 127 42 128 50 129 43 130 44 131
REMARK SMILES IDX 48 132 51 133 45 134 46 135 49 136 47 137
REMARK H PARENT 7 2 7 3 6 5 6 6 5 10 2 12 1 14 1 15 1 16 79 21 80 25 89 26
REMARK H PARENT 82 28 82 29 83 33 84 35 84 36 87 38 85 39 85 40 86 41 86 42
REMARK H PARENT 88 44 8 46 8 47 9 49 9 50 10 52 10 53 11 55 11 56 12 59 16 65
REMARK H PARENT 77 67 17 69 76 70 75 80 69 82 71 84 74 86 68 87 36 96 39 98
REMARK H PARENT 72 101 37 102 73 104
REMARK Flexibility Score: inf
ROOT
ATOM      1  C   UNL A   1      34.701  31.437  27.672  1.00  0.00    -0.036 C 
ATOM      2  H   UNL A   1      34.369  32.152  26.949  1.00  0.00     0.028 H 
ATOM      3  H   UNL A   1      35.749  31.236  27.598  1.00  0.00     0.028 H 
ENDROOT
BRANCH   1   4
ATOM      4  C   UNL A   1      33.973  30.115  27.414  1.00  0.00     0.017 C 
ATOM      5  H   UNL A   1      34.442  29.337  27.980  1.00  0.00     0.049 H 
ATOM      6  H   UNL A   1      32.950  30.214  27.709  1.00  0.00     0.049 H 
BRANCH   4   7
ATOM      7  N   UNL A   1      34.030  29.785  26.008  1.00  0.00    -0.356 N 
ATOM      8  C   UNL A   1      33.168  29.050  25.249  1.00  0.00     0.227 C 
ATOM      9  O   UNL A   1      33.558  28.735  24.122  1.00  0.00    -0.274 OA
ATOM     10  H   UNL A   1      34.808  30.144  25.525  1.00  0.00     0.163 HD
BRANCH   8  11
ATOM     11  C   UNL A   1      31.778  28.678  25.798  1.00  0.00     0.061 C 
ATOM     12  H   UNL A   1      31.048  29.204  25.219  1.00  0.00     0.045 H 
BRANCH  11  13
ATOM     13  C   UNL A   1      31.588  29.131  27.253  1.00  0.00    -0.049 C 
ATOM     14  H   UNL A   1      32.237  29.957  27.456  1.00  0.00     0.024 H 
ATOM     15  H   UNL A   1      31.822  28.323  27.912  1.00  0.00     0.024 H 
ATOM     16  H   UNL A   1      30.572  29.432  27.403  1.00  0.00     0.024 H 
ENDBRANCH  11  13
BRANCH  11  17
ATOM     17  C   UNL A   1      31.530  27.177  25.641  1.00  0.00    -0.022 A 
ATOM     18  C   UNL A   1      32.187  26.280  26.505  1.00  0.00    -0.057 A 
ATOM     19  C   UNL A   1      30.751  26.630  24.607  1.00  0.00     0.022 A 
ATOM     20  C   UNL A   1      32.067  24.900  26.354  1.00  0.00    -0.059 A 
ATOM     21  H   UNL A   1      32.770  26.654  27.269  1.00  0.00     0.063 H 
ATOM     22  C   UNL A   1      30.658  25.241  24.439  1.00  0.00    -0.044 A 
ATOM     23  Br  UNL A   1      29.808  27.705  23.352  1.00  0.00    -0.051 Br
ATOM     24  C   UNL A   1      31.340  24.363  25.294  1.00  0.00    -0.047 A 
ATOM     25  H   UNL A   1      32.523  24.270  27.032  1.00  0.00     0.063 H 
ATOM     26  H   UNL A   1      30.079  24.859  23.674  1.00  0.00     0.064 H 
BRANCH  24  27
ATOM     27  C   UNL A   1      31.323  22.876  25.045  1.00  0.00    -0.023 C 
ATOM     28  H   UNL A   1      30.612  22.691  24.268  1.00  0.00     0.032 H 
ATOM     29  H   UNL A   1      31.092  22.451  25.999  1.00  0.00     0.032 H 
BRANCH  27  30
ATOM     30  C   UNL A   1      32.648  22.192  24.630  1.00  0.00    -0.011 C 
ATOM     31  C   UNL A   1      32.642  21.528  23.247  1.00  0.00    -0.048 C 
ATOM     32  C   UNL A   1      33.171  21.069  25.530  1.00  0.00     0.057 C 
ATOM     33  H   UNL A   1      33.271  23.061  24.683  1.00  0.00     0.033 H 
ATOM     34  C   UNL A   1      32.438  20.026  23.480  1.00  0.00    -0.050 C 
ATOM     35  H   UNL A   1      33.573  21.700  22.751  1.00  0.00     0.027 H 
ATOM     36  H   UNL A   1      31.865  21.929  22.631  1.00  0.00     0.027 H 
ATOM     37  C   UNL A   1      32.526  19.801  24.987  1.00  0.00    -0.027 C 
ATOM     38  H   UNL A   1      34.240  21.026  25.500  1.00  0.00     0.060 H 
ATOM     39  H   UNL A   1      33.202  19.469  22.979  1.00  0.00     0.027 H 
ATOM     40  H   UNL A   1      31.494  19.701  23.096  1.00  0.00     0.027 H 
ATOM     41  H   UNL A   1      33.131  18.946  25.206  1.00  0.00     0.029 H 
ATOM     42  H   UNL A   1      31.568  19.615  25.425  1.00  0.00     0.029 H 
BRANCH  32  43
ATOM     43  O   UNL A   1      32.899  21.262  26.903  1.00  0.00    -0.393 OA
ATOM     44  H   UNL A   1      33.247  22.123  27.183  1.00  0.00     0.210 HD
ENDBRANCH  32  43
ENDBRANCH  27  30
ENDBRANCH  24  27
ENDBRANCH  11  17
ENDBRANCH   8  11
ENDBRANCH   4   7
ENDBRANCH   1   4
BRANCH   1  45
ATOM     45  C   UNL A   1      34.454  32.014  29.073  1.00  0.00    -0.052 C 
ATOM     46  H   UNL A   1      35.121  31.529  29.756  1.00  0.00     0.027 H 
ATOM     47  H   UNL A   1      33.422  31.837  29.293  1.00  0.00     0.027 H 
BRANCH  45  48
ATOM     48  C   UNL A   1      34.666  33.527  29.195  1.00  0.00    -0.052 C 
ATOM     49  H   UNL A   1      35.418  33.815  28.488  1.00  0.00     0.027 H 
ATOM     50  H   UNL A   1      34.949  33.712  30.209  1.00  0.00     0.027 H 
BRANCH  48  51
ATOM     51  C   UNL A   1      33.418  34.371  28.933  1.00  0.00    -0.036 C 
ATOM     52  H   UNL A   1      32.597  33.929  29.460  1.00  0.00     0.028 H 
ATOM     53  H   UNL A   1      33.271  34.382  27.873  1.00  0.00     0.028 H 
BRANCH  51  54
ATOM     54  C   UNL A   1      33.541  35.825  29.374  1.00  0.00     0.018 C 
ATOM     55  H   UNL A   1      33.358  36.458  28.531  1.00  0.00     0.049 H 
ATOM     56  H   UNL A   1      34.527  35.971  29.762  1.00  0.00     0.049 H 
BRANCH  54  57
ATOM     57  N   UNL A   1      32.590  36.157  30.425  1.00  0.00    -0.352 N 
ATOM     58  C   UNL A   1      32.574  35.757  31.736  1.00  0.00     0.251 C 
ATOM     59  H   UNL A   1      31.855  36.753  30.156  1.00  0.00     0.163 HD
ATOM     60  O   UNL A   1      31.585  35.958  32.437  1.00  0.00    -0.269 OA
BRANCH  58  61
ATOM     61  C   UNL A   1      33.746  35.059  32.301  1.00  0.00     0.039 A 
ATOM     62  C   UNL A   1      33.579  33.784  32.847  1.00  0.00    -0.049 A 
ATOM     63  C   UNL A   1      35.009  35.657  32.278  1.00  0.00    -0.049 A 
ATOM     64  C   UNL A   1      34.693  33.079  33.307  1.00  0.00    -0.053 A 
ATOM     65  H   UNL A   1      32.638  33.367  32.911  1.00  0.00     0.063 H 
ATOM     66  C   UNL A   1      36.126  34.925  32.670  1.00  0.00    -0.053 A 
ATOM     67  H   UNL A   1      35.113  36.637  31.974  1.00  0.00     0.063 H 
ATOM     68  C   UNL A   1      35.981  33.627  33.182  1.00  0.00    -0.014 A 
ATOM     69  H   UNL A   1      34.570  32.150  33.740  1.00  0.00     0.063 H 
ATOM     70  H   UNL A   1      37.068  35.340  32.582  1.00  0.00     0.063 H 
BRANCH  68  71
ATOM     71  C   UNL A   1      37.189  32.850  33.556  1.00  0.00     0.031 A 
ATOM     72  C   UNL A   1      37.921  33.158  34.832  1.00  0.00     0.074 A 
ATOM     73  C   UNL A   1      37.674  31.926  32.704  1.00  0.00     0.049 A 
ATOM     74  N   UNL A   1      39.046  32.661  35.282  1.00  0.00    -0.248 NA
ATOM     75  C   UNL A   1      37.325  34.179  35.707  1.00  0.00    -0.034 C 
ATOM     76  C   UNL A   1      37.079  31.571  31.415  1.00  0.00    -0.036 A 
ATOM     77  N   UNL A   1      38.790  31.131  32.783  1.00  0.00    -0.354 N 
ATOM     78  C   UNL A   1      39.300  33.320  36.476  1.00  0.00     0.074 A 
ATOM     79  C   UNL A   1      38.237  34.284  36.663  1.00  0.00    -0.034 C 
ATOM     80  H   UNL A   1      36.430  34.683  35.604  1.00  0.00     0.065 H 
ATOM     81  C   UNL A   1      37.826  30.623  30.829  1.00  0.00    -0.036 A 
ATOM     82  H   UNL A   1      36.219  31.984  31.019  1.00  0.00     0.065 H 
ATOM     83  C   UNL A   1      38.980  30.336  31.677  1.00  0.00     0.049 A 
ATOM     84  H   UNL A   1      39.397  31.129  33.557  1.00  0.00     0.167 HD
ATOM     85  C   UNL A   1      40.319  33.125  37.346  1.00  0.00     0.037 A 
ATOM     86  H   UNL A   1      38.194  34.963  37.440  1.00  0.00     0.065 H 
ATOM     87  H   UNL A   1      37.620  30.169  29.926  1.00  0.00     0.065 H 
ATOM     88  C   UNL A   1      39.981  29.489  31.371  1.00  0.00     0.037 A 
ATOM     89  C   UNL A   1      41.358  32.144  37.168  1.00  0.00     0.049 A 
ATOM     90  C   UNL A   1      41.112  29.306  32.348  1.00  0.00     0.074 A 
ATOM     91  C   UNL A   1      42.385  31.811  38.034  1.00  0.00    -0.036 A 
ATOM     92  N   UNL A   1      41.509  31.347  36.042  1.00  0.00    -0.354 N 
ATOM     93  N   UNL A   1      41.293  29.870  33.518  1.00  0.00    -0.248 NA
ATOM     94  C   UNL A   1      42.176  28.369  31.965  1.00  0.00    -0.034 C 
ATOM     95  C   UNL A   1      43.194  30.860  37.405  1.00  0.00    -0.036 A 
ATOM     96  H   UNL A   1      42.528  32.197  38.979  1.00  0.00     0.065 H 
ATOM     97  C   UNL A   1      42.636  30.553  36.175  1.00  0.00     0.049 A 
ATOM     98  H   UNL A   1      40.904  31.346  35.266  1.00  0.00     0.167 HD
ATOM     99  C   UNL A   1      42.474  29.339  34.020  1.00  0.00     0.074 A 
ATOM    100  C   UNL A   1      42.957  28.392  33.036  1.00  0.00    -0.034 C 
ATOM    101  H   UNL A   1      42.288  27.832  31.091  1.00  0.00     0.065 H 
ATOM    102  H   UNL A   1      44.061  30.454  37.793  1.00  0.00     0.065 H 
ATOM    103  C   UNL A   1      43.102  29.611  35.189  1.00  0.00     0.037 A 
ATOM    104  H   UNL A   1      43.802  27.811  33.154  1.00  0.00     0.065 H 
BRANCH  85 105
ATOM    105  C   UNL A   1      40.373  33.990  38.573  1.00  0.00     0.064 A 
ATOM    106  C   UNL A   1      41.088  35.196  38.597  1.00  0.00     0.173 A 
ATOM    107  C   UNL A   1      39.645  33.636  39.720  1.00  0.00     0.173 A 
ATOM    108  F   UNL A   1      41.807  35.577  37.531  1.00  0.00    -0.203 F 
ATOM    109  C   UNL A   1      41.094  36.003  39.733  1.00  0.00     0.198 A 
ATOM    110  C   UNL A   1      39.628  34.460  40.842  1.00  0.00     0.198 A 
ATOM    111  F   UNL A   1      38.937  32.496  39.748  1.00  0.00    -0.203 F 
ATOM    112  F   UNL A   1      41.820  37.130  39.749  1.00  0.00    -0.200 F 
ATOM    113  C   UNL A   1      40.357  35.640  40.850  1.00  0.00     0.200 A 
ATOM    114  F   UNL A   1      38.901  34.115  41.913  1.00  0.00    -0.200 F 
ATOM    115  F   UNL A   1      40.352  36.424  41.936  1.00  0.00    -0.200 F 
ENDBRANCH  85 105
BRANCH  88 116
ATOM    116  C   UNL A   1      39.968  28.753  30.078  1.00  0.00     0.064 A 
ATOM    117  C   UNL A   1      39.386  27.482  29.974  1.00  0.00     0.173 A 
ATOM    118  C   UNL A   1      40.556  29.295  28.925  1.00  0.00     0.173 A 
ATOM    119  F   UNL A   1      38.829  26.912  31.053  1.00  0.00    -0.203 F 
ATOM    120  C   UNL A   1      39.417  26.770  28.778  1.00  0.00     0.198 A 
ATOM    121  C   UNL A   1      40.558  28.596  27.720  1.00  0.00     0.198 A 
ATOM    122  F   UNL A   1      41.125  30.509  28.967  1.00  0.00    -0.203 F 
ATOM    123  F   UNL A   1      38.903  25.533  28.723  1.00  0.00    -0.200 F 
ATOM    124  C   UNL A   1      39.998  27.329  27.649  1.00  0.00     0.200 A 
ATOM    125  F   UNL A   1      41.106  29.147  26.628  1.00  0.00    -0.200 F 
ATOM    126  F   UNL A   1      40.027  26.644  26.498  1.00  0.00    -0.200 F 
ENDBRANCH  88 116
BRANCH 103 127
ATOM    127  C   UNL A   1      44.368  28.861  35.486  1.00  0.00     0.064 A 
ATOM    128  C   UNL A   1      45.626  29.371  35.134  1.00  0.00     0.173 A 
ATOM    129  C   UNL A   1      44.325  27.644  36.183  1.00  0.00     0.173 A 
ATOM    130  F   UNL A   1      45.721  30.522  34.451  1.00  0.00    -0.203 F 
ATOM    131  C   UNL A   1      46.793  28.679  35.450  1.00  0.00     0.198 A 
ATOM    132  C   UNL A   1      45.494  26.973  36.528  1.00  0.00     0.198 A 
ATOM    133  F   UNL A   1      43.148  27.116  36.550  1.00  0.00    -0.203 F 
ATOM    134  F   UNL A   1      47.982  29.164  35.065  1.00  0.00    -0.200 F 
ATOM    135  C   UNL A   1      46.727  27.488  36.156  1.00  0.00     0.200 A 
ATOM    136  F   UNL A   1      45.429  25.829  37.225  1.00  0.00    -0.200 F 
ATOM    137  F   UNL A   1      47.851  26.833  36.474  1.00  0.00    -0.200 F 
ENDBRANCH 103 127
ENDBRANCH  68  71
ENDBRANCH  58  61
ENDBRANCH  54  57
ENDBRANCH  51  54
ENDBRANCH  48  51
ENDBRANCH  45  48
ENDBRANCH   1  45
TORSDOF 18
ENDMDL
